data_DUT60opt/exactR-3c/spgr
_audit_creation_method         'generated by CrystalMaker X for macOS'
_cell_length_a                  43.634200
_cell_length_b                  43.634200
_cell_length_c                  43.634200
_cell_angle_alpha               90.000000
_cell_angle_beta                90.000000
_cell_angle_gamma               90.000000

_symmetry_space_group_name_H-M     'P 1'

loop_
_symmetry_equiv_pos_as_xyz
'+x,+y,+z'

loop_
_atom_site_label
_atom_site_type_symbol
_atom_site_occupancy
_atom_site_fract_x
_atom_site_fract_y
_atom_site_fract_z
 C1  C 1.0  0.27268  0.25  0.22732
 C1_2  C 1.0  0.22732  0.27268  0.25
 C1_3  C 1.0  0.25  0.22732  0.27268
 C1_4  C 1.0  0.72732  0.75  0.77268
 C1_5  C 1.0  0.77268  0.72732  0.75
 C1_6  C 1.0  0.75  0.77268  0.72732
 C2  C 1.0  0.25  0.29713  0.20287
 C2_2  C 1.0  0.20287  0.25  0.29713
 C2_3  C 1.0  0.29713  0.20287  0.25
 C2_4  C 1.0  0.75  0.70287  0.79713
 C2_5  C 1.0  0.79713  0.75  0.70287
 C2_6  C 1.0  0.70287  0.79713  0.75
 C3  C 1.0  0.23896  0.32695  0.20885
 C3_2  C 1.0  0.20885  0.23896  0.32695
 C3_3  C 1.0  0.32695  0.20885  0.23896
 C3_4  C 1.0  0.17305  0.26104  0.29115
 C3_5  C 1.0  0.26104  0.29115  0.17305
 C3_6  C 1.0  0.29115  0.17305  0.26104
 C3_7  C 1.0  0.76104  0.67305  0.79115
 C3_8  C 1.0  0.79115  0.76104  0.67305
 C3_9  C 1.0  0.67305  0.79115  0.76104
 C3_10  C 1.0  0.82695  0.73896  0.70885
 C3_11  C 1.0  0.73896  0.70885  0.82695
 C3_12  C 1.0  0.70885  0.82695  0.73896
 C4  C 1.0  0.26116  0.3138  0.15048
 C4_2  C 1.0  0.15048  0.26116  0.3138
 C4_3  C 1.0  0.3138  0.15048  0.26116
 C4_4  C 1.0  0.1862  0.23884  0.34952
 C4_5  C 1.0  0.23884  0.34952  0.1862
 C4_6  C 1.0  0.34952  0.1862  0.23884
 C4_7  C 1.0  0.73884  0.6862  0.84952
 C4_8  C 1.0  0.84952  0.73884  0.6862
 C4_9  C 1.0  0.6862  0.84952  0.73884
 C4_10  C 1.0  0.8138  0.76116  0.65048
 C4_11  C 1.0  0.76116  0.65048  0.8138
 C4_12  C 1.0  0.65048  0.8138  0.76116
 C5  C 1.0  0.25  0.3436  0.1564
 C5_2  C 1.0  0.1564  0.25  0.3436
 C5_3  C 1.0  0.3436  0.1564  0.25
 C5_4  C 1.0  0.75  0.6564  0.8436
 C5_5  C 1.0  0.8436  0.75  0.6564
 C5_6  C 1.0  0.6564  0.8436  0.75
 C6  C 1.0  0.25  0.36768  0.13232
 C6_2  C 1.0  0.13232  0.25  0.36768
 C6_3  C 1.0  0.36768  0.13232  0.25
 C6_4  C 1.0  0.75  0.63232  0.86768
 C6_5  C 1.0  0.86768  0.75  0.63232
 C6_6  C 1.0  0.63232  0.86768  0.75
 C7  C 1.0  0.24767  0.36004  0.10093
 C7_2  C 1.0  0.10093  0.24767  0.36004
 C7_3  C 1.0  0.36004  0.10093  0.24767
 C7_4  C 1.0  0.13996  0.25233  0.39907
 C7_5  C 1.0  0.25233  0.39907  0.13996
 C7_6  C 1.0  0.39907  0.13996  0.25233
 C7_7  C 1.0  0.75233  0.63996  0.89907
 C7_8  C 1.0  0.89907  0.75233  0.63996
 C7_9  C 1.0  0.63996  0.89907  0.75233
 C7_10  C 1.0  0.86004  0.74767  0.60093
 C7_11  C 1.0  0.74767  0.60093  0.86004
 C7_12  C 1.0  0.60093  0.86004  0.74767
 C8  C 1.0  0.25196  0.42171  0.11737
 C8_2  C 1.0  0.11737  0.25196  0.42171
 C8_3  C 1.0  0.42171  0.11737  0.25196
 C8_4  C 1.0  0.07829  0.24804  0.38263
 C8_5  C 1.0  0.24804  0.38263  0.07829
 C8_6  C 1.0  0.38263  0.07829  0.24804
 C8_7  C 1.0  0.74804  0.57829  0.88263
 C8_8  C 1.0  0.88263  0.74804  0.57829
 C8_9  C 1.0  0.57829  0.88263  0.74804
 C8_10  C 1.0  0.92171  0.75196  0.61737
 C8_11  C 1.0  0.75196  0.61737  0.92171
 C8_12  C 1.0  0.61737  0.92171  0.75196
 C9  C 1.0  0.25  0.41388  0.08612
 C9_2  C 1.0  0.08612  0.25  0.41388
 C9_3  C 1.0  0.41388  0.08612  0.25
 C9_4  C 1.0  0.75  0.58612  0.91388
 C9_5  C 1.0  0.91388  0.75  0.58612
 C9_6  C 1.0  0.58612  0.91388  0.75
 C10  C 1.0  0.25  0.27301  0.22699
 C10_2  C 1.0  0.22699  0.25  0.27301
 C10_3  C 1.0  0.27301  0.22699  0.25
 C10_4  C 1.0  0.75  0.72699  0.77301
 C10_5  C 1.0  0.77301  0.75  0.72699
 C10_6  C 1.0  0.72699  0.77301  0.75
 C11  C 1.0  0.56276  0.06029  0.25568
 C11_2  C 1.0  0.25568  0.56276  0.06029
 C11_3  C 1.0  0.06029  0.25568  0.56276
 C11_4  C 1.0  0.43971  0.93724  0.24432
 C11_5  C 1.0  0.93724  0.24432  0.43971
 C11_6  C 1.0  0.24432  0.43971  0.93724
 C11_7  C 1.0  0.43724  0.93971  0.74432
 C11_8  C 1.0  0.74432  0.43724  0.93971
 C11_9  C 1.0  0.93971  0.74432  0.43724
 C11_10  C 1.0  0.56029  0.06276  0.75568
 C11_11  C 1.0  0.06276  0.75568  0.56029
 C11_12  C 1.0  0.75568  0.56029  0.06276
 C12  C 1.0  0.50147  0.0059  0.16897
 C12_2  C 1.0  0.16897  0.50147  0.0059
 C12_3  C 1.0  0.0059  0.16897  0.50147
 C12_4  C 1.0  0.4941  0.99853  0.33103
 C12_5  C 1.0  0.99853  0.33103  0.4941
 C12_6  C 1.0  0.33103  0.4941  0.99853
 C12_7  C 1.0  0.49853  0.9941  0.83103
 C12_8  C 1.0  0.83103  0.49853  0.9941
 C12_9  C 1.0  0.9941  0.83103  0.49853
 C12_10  C 1.0  0.5059  0.00147  0.66897
 C12_11  C 1.0  0.00147  0.66897  0.5059
 C12_12  C 1.0  0.66897  0.5059  0.00147
 C13  C 1.0  0.43805  0.06195  0.75
 C13_2  C 1.0  0.75  0.43805  0.06195
 C13_3  C 1.0  0.06195  0.75  0.43805
 C13_4  C 1.0  0.56195  0.93805  0.25
 C13_5  C 1.0  0.25  0.56195  0.93805
 C13_6  C 1.0  0.93805  0.25  0.56195
 C14  C 1.0  0.56183  0.93817  0.75
 C14_2  C 1.0  0.75  0.56183  0.93817
 C14_3  C 1.0  0.93817  0.75  0.56183
 C14_4  C 1.0  0.43817  0.06183  0.25
 C14_5  C 1.0  0.25  0.43817  0.06183
 C14_6  C 1.0  0.06183  0.25  0.43817
 C15  C 1.0  0.75024  0.72614  0.22727
 C15_2  C 1.0  0.22727  0.75024  0.72614
 C15_3  C 1.0  0.72614  0.22727  0.75024
 C15_4  C 1.0  0.77386  0.74976  0.27273
 C15_5  C 1.0  0.74976  0.27273  0.77386
 C15_6  C 1.0  0.27273  0.77386  0.74976
 C15_7  C 1.0  0.24976  0.27386  0.77273
 C15_8  C 1.0  0.77273  0.24976  0.27386
 C15_9  C 1.0  0.27386  0.77273  0.24976
 C15_10  C 1.0  0.22614  0.25024  0.72727
 C15_11  C 1.0  0.25024  0.72727  0.22614
 C15_12  C 1.0  0.72727  0.22614  0.25024
 C16  C 1.0  0.25  0.72752  0.77248
 C16_2  C 1.0  0.77248  0.25  0.72752
 C16_3  C 1.0  0.72752  0.77248  0.25
 C16_4  C 1.0  0.75  0.27248  0.22752
 C16_5  C 1.0  0.22752  0.75  0.27248
 C16_6  C 1.0  0.27248  0.22752  0.75
 C17  C 1.0  0.75581  0.58419  0.08748
 C17_2  C 1.0  0.08748  0.75581  0.58419
 C17_3  C 1.0  0.58419  0.08748  0.75581
 C17_4  C 1.0  0.91581  0.74419  0.41252
 C17_5  C 1.0  0.74419  0.41252  0.91581
 C17_6  C 1.0  0.41252  0.91581  0.74419
 C17_7  C 1.0  0.24419  0.41581  0.91252
 C17_8  C 1.0  0.91252  0.24419  0.41581
 C17_9  C 1.0  0.41581  0.91252  0.24419
 C17_10  C 1.0  0.08419  0.25581  0.58748
 C17_11  C 1.0  0.25581  0.58748  0.08419
 C17_12  C 1.0  0.58748  0.08419  0.25581
 C18  C 1.0  0.25  0.58632  0.91368
 C18_2  C 1.0  0.91368  0.25  0.58632
 C18_3  C 1.0  0.58632  0.91368  0.25
 C18_4  C 1.0  0.75  0.41368  0.08632
 C18_5  C 1.0  0.08632  0.75  0.41368
 C18_6  C 1.0  0.41368  0.08632  0.75
 C19  C 1.0  0.75478  0.61549  0.07965
 C19_2  C 1.0  0.07965  0.75478  0.61549
 C19_3  C 1.0  0.61549  0.07965  0.75478
 C19_4  C 1.0  0.88451  0.74522  0.42035
 C19_5  C 1.0  0.74522  0.42035  0.88451
 C19_6  C 1.0  0.42035  0.88451  0.74522
 C19_7  C 1.0  0.24522  0.38451  0.92035
 C19_8  C 1.0  0.92035  0.24522  0.38451
 C19_9  C 1.0  0.38451  0.92035  0.24522
 C19_10  C 1.0  0.11549  0.25478  0.57965
 C19_11  C 1.0  0.25478  0.57965  0.11549
 C19_12  C 1.0  0.57965  0.11549  0.25478
 C20  C 1.0  0.74403  0.38123  0.9237
 C20_2  C 1.0  0.9237  0.74403  0.38123
 C20_3  C 1.0  0.38123  0.9237  0.74403
 C20_4  C 1.0  0.11877  0.75597  0.5763
 C20_5  C 1.0  0.75597  0.5763  0.11877
 C20_6  C 1.0  0.5763  0.11877  0.75597
 C20_7  C 1.0  0.25597  0.61877  0.0763
 C20_8  C 1.0  0.0763  0.25597  0.61877
 C20_9  C 1.0  0.61877  0.0763  0.25597
 C20_10  C 1.0  0.88123  0.24403  0.4237
 C20_11  C 1.0  0.24403  0.4237  0.88123
 C20_12  C 1.0  0.4237  0.88123  0.24403
 C21  C 1.0  0.25212  0.61758  0.92143
 C21_2  C 1.0  0.92143  0.25212  0.61758
 C21_3  C 1.0  0.61758  0.92143  0.25212
 C21_4  C 1.0  0.88242  0.24788  0.57857
 C21_5  C 1.0  0.24788  0.57857  0.88242
 C21_6  C 1.0  0.57857  0.88242  0.24788
 C21_7  C 1.0  0.74788  0.38242  0.07857
 C21_8  C 1.0  0.07857  0.74788  0.38242
 C21_9  C 1.0  0.38242  0.07857  0.74788
 C21_10  C 1.0  0.11758  0.75212  0.42143
 C21_11  C 1.0  0.75212  0.42143  0.11758
 C21_12  C 1.0  0.42143  0.11758  0.75212
 C22  C 1.0  0.75453  0.59892  0.14137
 C22_2  C 1.0  0.14137  0.75453  0.59892
 C22_3  C 1.0  0.59892  0.14137  0.75453
 C22_4  C 1.0  0.90108  0.74547  0.35863
 C22_5  C 1.0  0.74547  0.35863  0.90108
 C22_6  C 1.0  0.35863  0.90108  0.74547
 C22_7  C 1.0  0.24547  0.40108  0.85863
 C22_8  C 1.0  0.85863  0.24547  0.40108
 C22_9  C 1.0  0.40108  0.85863  0.24547
 C22_10  C 1.0  0.09892  0.25453  0.64137
 C22_11  C 1.0  0.25453  0.64137  0.09892
 C22_12  C 1.0  0.64137  0.09892  0.25453
 C23  C 1.0  0.74583  0.39776  0.86191
 C23_2  C 1.0  0.86191  0.74583  0.39776
 C23_3  C 1.0  0.39776  0.86191  0.74583
 C23_4  C 1.0  0.10224  0.75417  0.63809
 C23_5  C 1.0  0.75417  0.63809  0.10224
 C23_6  C 1.0  0.63809  0.10224  0.75417
 C23_7  C 1.0  0.25417  0.60224  0.13809
 C23_8  C 1.0  0.13809  0.25417  0.60224
 C23_9  C 1.0  0.60224  0.13809  0.25417
 C23_10  C 1.0  0.89776  0.24583  0.36191
 C23_11  C 1.0  0.24583  0.36191  0.89776
 C23_12  C 1.0  0.36191  0.89776  0.24583
 C24  C 1.0  0.24835  0.60119  0.85978
 C24_2  C 1.0  0.85978  0.24835  0.60119
 C24_3  C 1.0  0.60119  0.85978  0.24835
 C24_4  C 1.0  0.89881  0.25165  0.64022
 C24_5  C 1.0  0.25165  0.64022  0.89881
 C24_6  C 1.0  0.64022  0.89881  0.25165
 C24_7  C 1.0  0.75165  0.39881  0.14022
 C24_8  C 1.0  0.14022  0.75165  0.39881
 C24_9  C 1.0  0.39881  0.14022  0.75165
 C24_10  C 1.0  0.10119  0.74835  0.35978
 C24_11  C 1.0  0.74835  0.35978  0.10119
 C24_12  C 1.0  0.35978  0.10119  0.74835
 C25  C 1.0  0.75366  0.63039  0.1337
 C25_2  C 1.0  0.1337  0.75366  0.63039
 C25_3  C 1.0  0.63039  0.1337  0.75366
 C25_4  C 1.0  0.86961  0.74634  0.3663
 C25_5  C 1.0  0.74634  0.3663  0.86961
 C25_6  C 1.0  0.3663  0.86961  0.74634
 C25_7  C 1.0  0.24634  0.36961  0.8663
 C25_8  C 1.0  0.8663  0.24634  0.36961
 C25_9  C 1.0  0.36961  0.8663  0.24634
 C25_10  C 1.0  0.13039  0.25366  0.6337
 C25_11  C 1.0  0.25366  0.6337  0.13039
 C25_12  C 1.0  0.6337  0.13039  0.25366
 C26  C 1.0  0.25  0.63266  0.86734
 C26_2  C 1.0  0.86734  0.25  0.63266
 C26_3  C 1.0  0.63266  0.86734  0.25
 C26_4  C 1.0  0.75  0.36734  0.13266
 C26_5  C 1.0  0.13266  0.75  0.36734
 C26_6  C 1.0  0.36734  0.13266  0.75
 C27  C 1.0  0.75229  0.65456  0.15765
 C27_2  C 1.0  0.15765  0.75229  0.65456
 C27_3  C 1.0  0.65456  0.15765  0.75229
 C27_4  C 1.0  0.84544  0.74771  0.34235
 C27_5  C 1.0  0.74771  0.34235  0.84544
 C27_6  C 1.0  0.34235  0.84544  0.74771
 C27_7  C 1.0  0.24771  0.34544  0.84235
 C27_8  C 1.0  0.84235  0.24771  0.34544
 C27_9  C 1.0  0.34544  0.84235  0.24771
 C27_10  C 1.0  0.15456  0.25229  0.65765
 C27_11  C 1.0  0.25229  0.65765  0.15456
 C27_12  C 1.0  0.65765  0.15456  0.25229
 C28  C 1.0  0.25  0.65676  0.84324
 C28_2  C 1.0  0.84324  0.25  0.65676
 C28_3  C 1.0  0.65676  0.84324  0.25
 C28_4  C 1.0  0.75  0.34324  0.15676
 C28_5  C 1.0  0.15676  0.75  0.34324
 C28_6  C 1.0  0.34324  0.15676  0.75
 C29  C 1.0  0.76382  0.64954  0.18747
 C29_2  C 1.0  0.18747  0.76382  0.64954
 C29_3  C 1.0  0.64954  0.18747  0.76382
 C29_4  C 1.0  0.85046  0.73618  0.31253
 C29_5  C 1.0  0.73618  0.31253  0.85046
 C29_6  C 1.0  0.31253  0.85046  0.73618
 C29_7  C 1.0  0.23618  0.35046  0.81253
 C29_8  C 1.0  0.81253  0.23618  0.35046
 C29_9  C 1.0  0.35046  0.81253  0.23618
 C29_10  C 1.0  0.14954  0.26382  0.68747
 C29_11  C 1.0  0.26382  0.68747  0.14954
 C29_12  C 1.0  0.68747  0.14954  0.26382
 C30  C 1.0  0.76053  0.34844  0.81634
 C30_2  C 1.0  0.81634  0.76053  0.34844
 C30_3  C 1.0  0.34844  0.81634  0.76053
 C30_4  C 1.0  0.15156  0.73947  0.68366
 C30_5  C 1.0  0.73947  0.68366  0.15156
 C30_6  C 1.0  0.68366  0.15156  0.73947
 C30_7  C 1.0  0.23947  0.65156  0.18366
 C30_8  C 1.0  0.18366  0.23947  0.65156
 C30_9  C 1.0  0.65156  0.18366  0.23947
 C30_10  C 1.0  0.84844  0.26053  0.31634
 C30_11  C 1.0  0.26053  0.31634  0.84844
 C30_12  C 1.0  0.31634  0.84844  0.26053
 C31  C 1.0  0.23834  0.65112  0.81355
 C31_2  C 1.0  0.81355  0.23834  0.65112
 C31_3  C 1.0  0.65112  0.81355  0.23834
 C31_4  C 1.0  0.84888  0.26166  0.68645
 C31_5  C 1.0  0.26166  0.68645  0.84888
 C31_6  C 1.0  0.68645  0.84888  0.26166
 C31_7  C 1.0  0.76166  0.34888  0.18645
 C31_8  C 1.0  0.18645  0.76166  0.34888
 C31_9  C 1.0  0.34888  0.18645  0.76166
 C31_10  C 1.0  0.15112  0.73834  0.31355
 C31_11  C 1.0  0.73834  0.31355  0.15112
 C31_12  C 1.0  0.31355  0.15112  0.73834
 C32  C 1.0  0.73871  0.70661  0.17382
 C32_2  C 1.0  0.17382  0.73871  0.70661
 C32_3  C 1.0  0.70661  0.17382  0.73871
 C32_4  C 1.0  0.79339  0.76129  0.32618
 C32_5  C 1.0  0.76129  0.32618  0.79339
 C32_6  C 1.0  0.32618  0.79339  0.76129
 C32_7  C 1.0  0.26129  0.29339  0.82618
 C32_8  C 1.0  0.82618  0.26129  0.29339
 C32_9  C 1.0  0.29339  0.82618  0.26129
 C32_10  C 1.0  0.20661  0.23871  0.67382
 C32_11  C 1.0  0.23871  0.67382  0.20661
 C32_12  C 1.0  0.67382  0.20661  0.23871
 C33  C 1.0  0.73727  0.29016  0.82765
 C33_2  C 1.0  0.82765  0.73727  0.29016
 C33_3  C 1.0  0.29016  0.82765  0.73727
 C33_4  C 1.0  0.20984  0.76273  0.67235
 C33_5  C 1.0  0.76273  0.67235  0.20984
 C33_6  C 1.0  0.67235  0.20984  0.76273
 C33_7  C 1.0  0.26273  0.70984  0.17235
 C33_8  C 1.0  0.17235  0.26273  0.70984
 C33_9  C 1.0  0.70984  0.17235  0.26273
 C33_10  C 1.0  0.79016  0.23727  0.32765
 C33_11  C 1.0  0.23727  0.32765  0.79016
 C33_12  C 1.0  0.32765  0.79016  0.23727
 C34  C 1.0  0.26147  0.70913  0.82633
 C34_2  C 1.0  0.82633  0.26147  0.70913
 C34_3  C 1.0  0.70913  0.82633  0.26147
 C34_4  C 1.0  0.79087  0.23853  0.67367
 C34_5  C 1.0  0.23853  0.67367  0.79087
 C34_6  C 1.0  0.67367  0.79087  0.23853
 C34_7  C 1.0  0.73853  0.29087  0.17367
 C34_8  C 1.0  0.17367  0.73853  0.29087
 C34_9  C 1.0  0.29087  0.17367  0.73853
 C34_10  C 1.0  0.20913  0.76147  0.32633
 C34_11  C 1.0  0.76147  0.32633  0.20913
 C34_12  C 1.0  0.32633  0.20913  0.76147
 C35  C 1.0  0.7504  0.70162  0.20357
 C35_2  C 1.0  0.20357  0.7504  0.70162
 C35_3  C 1.0  0.70162  0.20357  0.7504
 C35_4  C 1.0  0.79838  0.7496  0.29643
 C35_5  C 1.0  0.7496  0.29643  0.79838
 C35_6  C 1.0  0.29643  0.79838  0.7496
 C35_7  C 1.0  0.2496  0.29838  0.79643
 C35_8  C 1.0  0.79643  0.2496  0.29838
 C35_9  C 1.0  0.29838  0.79643  0.2496
 C35_10  C 1.0  0.20162  0.2504  0.70357
 C35_11  C 1.0  0.2504  0.70357  0.20162
 C35_12  C 1.0  0.70357  0.20162  0.2504
 C36  C 1.0  0.25  0.70338  0.79662
 C36_2  C 1.0  0.79662  0.25  0.70338
 C36_3  C 1.0  0.70338  0.79662  0.25
 C36_4  C 1.0  0.75  0.29662  0.20338
 C36_5  C 1.0  0.20338  0.75  0.29662
 C36_6  C 1.0  0.29662  0.20338  0.75
 C37  C 1.0  0.7276  0.7492  0.22757
 C37_2  C 1.0  0.22757  0.7276  0.7492
 C37_3  C 1.0  0.7492  0.22757  0.7276
 C37_4  C 1.0  0.7508  0.7724  0.27243
 C37_5  C 1.0  0.7724  0.27243  0.7508
 C37_6  C 1.0  0.27243  0.7508  0.7724
 C37_7  C 1.0  0.2724  0.2508  0.77243
 C37_8  C 1.0  0.77243  0.2724  0.2508
 C37_9  C 1.0  0.2508  0.77243  0.2724
 C37_10  C 1.0  0.2492  0.2276  0.72757
 C37_11  C 1.0  0.2276  0.72757  0.2492
 C37_12  C 1.0  0.72757  0.2492  0.2276
 C38  C 1.0  0.72682  0.25  0.77318
 C38_2  C 1.0  0.77318  0.72682  0.25
 C38_3  C 1.0  0.25  0.77318  0.72682
 C38_4  C 1.0  0.27318  0.75  0.22682
 C38_5  C 1.0  0.22682  0.27318  0.75
 C38_6  C 1.0  0.75  0.22682  0.27318
 C39  C 1.0  0.57055  0.51539  0.99948
 C39_2  C 1.0  0.99948  0.57055  0.51539
 C39_3  C 1.0  0.51539  0.99948  0.57055
 C39_4  C 1.0  0.98461  0.92945  0.50052
 C39_5  C 1.0  0.92945  0.50052  0.98461
 C39_6  C 1.0  0.50052  0.98461  0.92945
 C39_7  C 1.0  0.42945  0.48461  0.00052
 C39_8  C 1.0  0.00052  0.42945  0.48461
 C39_9  C 1.0  0.48461  0.00052  0.42945
 C39_10  C 1.0  0.01539  0.07055  0.49948
 C39_11  C 1.0  0.07055  0.49948  0.01539
 C39_12  C 1.0  0.49948  0.01539  0.07055
 C40  C 1.0  0.58976  0.54151  0.99931
 C40_2  C 1.0  0.99931  0.58976  0.54151
 C40_3  C 1.0  0.54151  0.99931  0.58976
 C40_4  C 1.0  0.95849  0.91024  0.50069
 C40_5  C 1.0  0.91024  0.50069  0.95849
 C40_6  C 1.0  0.50069  0.95849  0.91024
 C40_7  C 1.0  0.41024  0.45849  0.00069
 C40_8  C 1.0  0.00069  0.41024  0.45849
 C40_9  C 1.0  0.45849  0.00069  0.41024
 C40_10  C 1.0  0.04151  0.08976  0.49931
 C40_11  C 1.0  0.08976  0.49931  0.04151
 C40_12  C 1.0  0.49931  0.04151  0.08976
 C41  C 1.0  0.58431  0.48602  0.00022
 C41_2  C 1.0  0.00022  0.58431  0.48602
 C41_3  C 1.0  0.48602  0.00022  0.58431
 C41_4  C 1.0  0.01398  0.91569  0.49978
 C41_5  C 1.0  0.91569  0.49978  0.01398
 C41_6  C 1.0  0.49978  0.01398  0.91569
 C41_7  C 1.0  0.41569  0.51398  0.99978
 C41_8  C 1.0  0.99978  0.41569  0.51398
 C41_9  C 1.0  0.51398  0.99978  0.41569
 C41_10  C 1.0  0.98602  0.08431  0.50022
 C41_11  C 1.0  0.08431  0.50022  0.98602
 C41_12  C 1.0  0.50022  0.98602  0.08431
 C42  C 1.0  0.62149  0.53839  0.0
 C42_2  C 1.0  0.0  0.62149  0.53839
 C42_3  C 1.0  0.53839  0.0  0.62149
 C42_4  C 1.0  0.96161  0.87851  0.5
 C42_5  C 1.0  0.87851  0.5  0.96161
 C42_6  C 1.0  0.5  0.96161  0.87851
 C42_7  C 1.0  0.37851  0.46161  0.0
 C42_8  C 1.0  0.0  0.37851  0.46161
 C42_9  C 1.0  0.46161  0.0  0.37851
 C42_10  C 1.0  0.03839  0.12149  0.5
 C42_11  C 1.0  0.12149  0.5  0.03839
 C42_12  C 1.0  0.5  0.03839  0.12149
 C43  C 1.0  0.61603  0.48296  0.00085
 C43_2  C 1.0  0.00085  0.61603  0.48296
 C43_3  C 1.0  0.48296  0.00085  0.61603
 C43_4  C 1.0  0.01704  0.88397  0.49915
 C43_5  C 1.0  0.88397  0.49915  0.01704
 C43_6  C 1.0  0.49915  0.01704  0.88397
 C43_7  C 1.0  0.38397  0.51704  0.99915
 C43_8  C 1.0  0.99915  0.38397  0.51704
 C43_9  C 1.0  0.51704  0.99915  0.38397
 C43_10  C 1.0  0.98296  0.11603  0.50085
 C43_11  C 1.0  0.11603  0.50085  0.98296
 C43_12  C 1.0  0.50085  0.98296  0.11603
 C44  C 1.0  0.63499  0.50907  0.00079
 C44_2  C 1.0  0.00079  0.63499  0.50907
 C44_3  C 1.0  0.50907  0.00079  0.63499
 C44_4  C 1.0  0.99093  0.86501  0.49921
 C44_5  C 1.0  0.86501  0.49921  0.99093
 C44_6  C 1.0  0.49921  0.99093  0.86501
 C44_7  C 1.0  0.36501  0.49093  0.99921
 C44_8  C 1.0  0.99921  0.36501  0.49093
 C44_9  C 1.0  0.49093  0.99921  0.36501
 C44_10  C 1.0  0.00907  0.13499  0.50079
 C44_11  C 1.0  0.13499  0.50079  0.00907
 C44_12  C 1.0  0.50079  0.00907  0.13499
 C45  C 1.0  0.53749  0.5198  0.99893
 C45_2  C 1.0  0.99893  0.53749  0.5198
 C45_3  C 1.0  0.5198  0.99893  0.53749
 C45_4  C 1.0  0.9802  0.96251  0.50107
 C45_5  C 1.0  0.96251  0.50107  0.9802
 C45_6  C 1.0  0.50107  0.9802  0.96251
 C45_7  C 1.0  0.46251  0.4802  0.00107
 C45_8  C 1.0  0.00107  0.46251  0.4802
 C45_9  C 1.0  0.4802  0.00107  0.46251
 C45_10  C 1.0  0.0198  0.03749  0.49893
 C45_11  C 1.0  0.03749  0.49893  0.0198
 C45_12  C 1.0  0.49893  0.0198  0.03749
 C46  C 1.0  0.5162  0.49696  0.00026
 C46_2  C 1.0  0.00026  0.5162  0.49696
 C46_3  C 1.0  0.49696  0.00026  0.5162
 C46_4  C 1.0  0.00304  0.9838  0.49974
 C46_5  C 1.0  0.9838  0.49974  0.00304
 C46_6  C 1.0  0.49974  0.00304  0.9838
 C46_7  C 1.0  0.4838  0.50304  0.99974
 C46_8  C 1.0  0.99974  0.4838  0.50304
 C46_9  C 1.0  0.50304  0.99974  0.4838
 C46_10  C 1.0  0.99696  0.0162  0.50026
 C46_11  C 1.0  0.0162  0.50026  0.99696
 C46_12  C 1.0  0.50026  0.99696  0.0162
 H1  H 1.0  0.29052  0.25  0.20948
 H1_2  H 1.0  0.20948  0.29052  0.25
 H1_3  H 1.0  0.25  0.20948  0.29052
 H1_4  H 1.0  0.70948  0.75  0.79052
 H1_5  H 1.0  0.79052  0.70948  0.75
 H1_6  H 1.0  0.75  0.79052  0.70948
 H2  H 1.0  0.23047  0.33305  0.23181
 H2_2  H 1.0  0.23181  0.23047  0.33305
 H2_3  H 1.0  0.33305  0.23181  0.23047
 H2_4  H 1.0  0.16695  0.26953  0.26819
 H2_5  H 1.0  0.26953  0.26819  0.16695
 H2_6  H 1.0  0.26819  0.16695  0.26953
 H2_7  H 1.0  0.76953  0.66695  0.76819
 H2_8  H 1.0  0.76819  0.76953  0.66695
 H2_9  H 1.0  0.66695  0.76819  0.76953
 H2_10  H 1.0  0.83305  0.73047  0.73181
 H2_11  H 1.0  0.73047  0.73181  0.83305
 H2_12  H 1.0  0.73181  0.83305  0.73047
 H3  H 1.0  0.27054  0.30797  0.12779
 H3_2  H 1.0  0.12779  0.27054  0.30797
 H3_3  H 1.0  0.30797  0.12779  0.27054
 H3_4  H 1.0  0.19203  0.22946  0.37221
 H3_5  H 1.0  0.22946  0.37221  0.19203
 H3_6  H 1.0  0.37221  0.19203  0.22946
 H3_7  H 1.0  0.72946  0.69203  0.87221
 H3_8  H 1.0  0.87221  0.72946  0.69203
 H3_9  H 1.0  0.69203  0.87221  0.72946
 H3_10  H 1.0  0.80797  0.77054  0.62779
 H3_11  H 1.0  0.77054  0.62779  0.80797
 H3_12  H 1.0  0.62779  0.80797  0.77054
 H4  H 1.0  0.2452  0.33596  0.09381
 H4_2  H 1.0  0.09381  0.2452  0.33596
 H4_3  H 1.0  0.33596  0.09381  0.2452
 H4_4  H 1.0  0.16404  0.2548  0.40619
 H4_5  H 1.0  0.2548  0.40619  0.16404
 H4_6  H 1.0  0.40619  0.16404  0.2548
 H4_7  H 1.0  0.7548  0.66404  0.90619
 H4_8  H 1.0  0.90619  0.7548  0.66404
 H4_9  H 1.0  0.66404  0.90619  0.7548
 H4_10  H 1.0  0.83596  0.7452  0.59381
 H4_11  H 1.0  0.7452  0.59381  0.83596
 H4_12  H 1.0  0.59381  0.83596  0.7452
 H5  H 1.0  0.25362  0.44598  0.12408
 H5_2  H 1.0  0.12408  0.25362  0.44598
 H5_3  H 1.0  0.44598  0.12408  0.25362
 H5_4  H 1.0  0.05402  0.24638  0.37592
 H5_5  H 1.0  0.24638  0.37592  0.05402
 H5_6  H 1.0  0.37592  0.05402  0.24638
 H5_7  H 1.0  0.74638  0.55402  0.87592
 H5_8  H 1.0  0.87592  0.74638  0.55402
 H5_9  H 1.0  0.55402  0.87592  0.74638
 H5_10  H 1.0  0.94598  0.75362  0.62408
 H5_11  H 1.0  0.75362  0.62408  0.94598
 H5_12  H 1.0  0.62408  0.94598  0.75362
 H6  H 1.0  0.75476  0.62225  0.05533
 H6_2  H 1.0  0.05533  0.75476  0.62225
 H6_3  H 1.0  0.62225  0.05533  0.75476
 H6_4  H 1.0  0.87775  0.74524  0.44467
 H6_5  H 1.0  0.74524  0.44467  0.87775
 H6_6  H 1.0  0.44467  0.87775  0.74524
 H6_7  H 1.0  0.24524  0.37775  0.94467
 H6_8  H 1.0  0.94467  0.24524  0.37775
 H6_9  H 1.0  0.37775  0.94467  0.24524
 H6_10  H 1.0  0.12225  0.25476  0.55533
 H6_11  H 1.0  0.25476  0.55533  0.12225
 H6_12  H 1.0  0.55533  0.12225  0.25476
 H7  H 1.0  0.74334  0.37444  0.94799
 H7_2  H 1.0  0.94799  0.74334  0.37444
 H7_3  H 1.0  0.37444  0.94799  0.74334
 H7_4  H 1.0  0.12556  0.75666  0.55201
 H7_5  H 1.0  0.75666  0.55201  0.12556
 H7_6  H 1.0  0.55201  0.12556  0.75666
 H7_7  H 1.0  0.25666  0.62556  0.05201
 H7_8  H 1.0  0.05201  0.25666  0.62556
 H7_9  H 1.0  0.62556  0.05201  0.25666
 H7_10  H 1.0  0.87444  0.24334  0.44799
 H7_11  H 1.0  0.24334  0.44799  0.87444
 H7_12  H 1.0  0.44799  0.87444  0.24334
 H8  H 1.0  0.25369  0.62437  0.94568
 H8_2  H 1.0  0.94568  0.25369  0.62437
 H8_3  H 1.0  0.62437  0.94568  0.25369
 H8_4  H 1.0  0.87563  0.24631  0.55432
 H8_5  H 1.0  0.24631  0.55432  0.87563
 H8_6  H 1.0  0.55432  0.87563  0.24631
 H8_7  H 1.0  0.74631  0.37563  0.05432
 H8_8  H 1.0  0.05432  0.74631  0.37563
 H8_9  H 1.0  0.37563  0.05432  0.74631
 H8_10  H 1.0  0.12437  0.75369  0.44568
 H8_11  H 1.0  0.75369  0.44568  0.12437
 H8_12  H 1.0  0.44568  0.12437  0.75369
 H9  H 1.0  0.75372  0.59164  0.16551
 H9_2  H 1.0  0.16551  0.75372  0.59164
 H9_3  H 1.0  0.59164  0.16551  0.75372
 H9_4  H 1.0  0.90836  0.74628  0.33449
 H9_5  H 1.0  0.74628  0.33449  0.90836
 H9_6  H 1.0  0.33449  0.90836  0.74628
 H9_7  H 1.0  0.24628  0.40836  0.83449
 H9_8  H 1.0  0.83449  0.24628  0.40836
 H9_9  H 1.0  0.40836  0.83449  0.24628
 H9_10  H 1.0  0.09164  0.25372  0.66551
 H9_11  H 1.0  0.25372  0.66551  0.09164
 H9_12  H 1.0  0.66551  0.09164  0.25372
 H10  H 1.0  0.74579  0.40501  0.83774
 H10_2  H 1.0  0.83774  0.74579  0.40501
 H10_3  H 1.0  0.40501  0.83774  0.74579
 H10_4  H 1.0  0.09499  0.75421  0.66226
 H10_5  H 1.0  0.75421  0.66226  0.09499
 H10_6  H 1.0  0.66226  0.09499  0.75421
 H10_7  H 1.0  0.25421  0.59499  0.16226
 H10_8  H 1.0  0.16226  0.25421  0.59499
 H10_9  H 1.0  0.59499  0.16226  0.25421
 H10_10  H 1.0  0.90501  0.24579  0.33774
 H10_11  H 1.0  0.24579  0.33774  0.90501
 H10_12  H 1.0  0.33774  0.90501  0.24579
 H11  H 1.0  0.24757  0.59383  0.83566
 H11_2  H 1.0  0.83566  0.24757  0.59383
 H11_3  H 1.0  0.59383  0.83566  0.24757
 H11_4  H 1.0  0.90617  0.25243  0.66434
 H11_5  H 1.0  0.25243  0.66434  0.90617
 H11_6  H 1.0  0.66434  0.90617  0.25243
 H11_7  H 1.0  0.75243  0.40617  0.16434
 H11_8  H 1.0  0.16434  0.75243  0.40617
 H11_9  H 1.0  0.40617  0.16434  0.75243
 H11_10  H 1.0  0.09383  0.74757  0.33566
 H11_11  H 1.0  0.74757  0.33566  0.09383
 H11_12  H 1.0  0.33566  0.09383  0.74757
 H12  H 1.0  0.77432  0.62742  0.19357
 H12_2  H 1.0  0.19357  0.77432  0.62742
 H12_3  H 1.0  0.62742  0.19357  0.77432
 H12_4  H 1.0  0.87258  0.72568  0.30643
 H12_5  H 1.0  0.72568  0.30643  0.87258
 H12_6  H 1.0  0.30643  0.87258  0.72568
 H12_7  H 1.0  0.22568  0.37258  0.80643
 H12_8  H 1.0  0.80643  0.22568  0.37258
 H12_9  H 1.0  0.37258  0.80643  0.22568
 H12_10  H 1.0  0.12742  0.27432  0.69357
 H12_11  H 1.0  0.27432  0.69357  0.12742
 H12_12  H 1.0  0.69357  0.12742  0.27432
 H13  H 1.0  0.77042  0.37108  0.81122
 H13_2  H 1.0  0.81122  0.77042  0.37108
 H13_3  H 1.0  0.37108  0.81122  0.77042
 H13_4  H 1.0  0.12892  0.72958  0.68878
 H13_5  H 1.0  0.72958  0.68878  0.12892
 H13_6  H 1.0  0.68878  0.12892  0.72958
 H13_7  H 1.0  0.22958  0.62892  0.18878
 H13_8  H 1.0  0.18878  0.22958  0.62892
 H13_9  H 1.0  0.62892  0.18878  0.22958
 H13_10  H 1.0  0.87108  0.27042  0.31122
 H13_11  H 1.0  0.27042  0.31122  0.87108
 H13_12  H 1.0  0.31122  0.87108  0.27042
 H14  H 1.0  0.22857  0.62861  0.80769
 H14_2  H 1.0  0.80769  0.22857  0.62861
 H14_3  H 1.0  0.62861  0.80769  0.22857
 H14_4  H 1.0  0.87139  0.27143  0.69231
 H14_5  H 1.0  0.27143  0.69231  0.87139
 H14_6  H 1.0  0.69231  0.87139  0.27143
 H14_7  H 1.0  0.77143  0.37139  0.19231
 H14_8  H 1.0  0.19231  0.77143  0.37139
 H14_9  H 1.0  0.37139  0.19231  0.77143
 H14_10  H 1.0  0.12861  0.72857  0.30769
 H14_11  H 1.0  0.72857  0.30769  0.12861
 H14_12  H 1.0  0.30769  0.12861  0.72857
 H15  H 1.0  0.72904  0.72904  0.1675
 H15_2  H 1.0  0.1675  0.72904  0.72904
 H15_3  H 1.0  0.72904  0.1675  0.72904
 H15_4  H 1.0  0.77096  0.77096  0.3325
 H15_5  H 1.0  0.77096  0.3325  0.77096
 H15_6  H 1.0  0.3325  0.77096  0.77096
 H15_7  H 1.0  0.27096  0.27096  0.8325
 H15_8  H 1.0  0.8325  0.27096  0.27096
 H15_9  H 1.0  0.27096  0.8325  0.27096
 H15_10  H 1.0  0.22904  0.22904  0.6675
 H15_11  H 1.0  0.22904  0.6675  0.22904
 H15_12  H 1.0  0.6675  0.22904  0.22904
 H16  H 1.0  0.72837  0.26719  0.83311
 H16_2  H 1.0  0.83311  0.72837  0.26719
 H16_3  H 1.0  0.26719  0.83311  0.72837
 H16_4  H 1.0  0.23281  0.77163  0.66689
 H16_5  H 1.0  0.77163  0.66689  0.23281
 H16_6  H 1.0  0.66689  0.23281  0.77163
 H16_7  H 1.0  0.27163  0.73281  0.16689
 H16_8  H 1.0  0.16689  0.27163  0.73281
 H16_9  H 1.0  0.73281  0.16689  0.27163
 H16_10  H 1.0  0.76719  0.22837  0.33311
 H16_11  H 1.0  0.22837  0.33311  0.76719
 H16_12  H 1.0  0.33311  0.76719  0.22837
 H17  H 1.0  0.27032  0.73197  0.8324
 H17_2  H 1.0  0.8324  0.27032  0.73197
 H17_3  H 1.0  0.73197  0.8324  0.27032
 H17_4  H 1.0  0.76803  0.22968  0.6676
 H17_5  H 1.0  0.22968  0.6676  0.76803
 H17_6  H 1.0  0.6676  0.76803  0.22968
 H17_7  H 1.0  0.72968  0.26803  0.1676
 H17_8  H 1.0  0.1676  0.72968  0.26803
 H17_9  H 1.0  0.26803  0.1676  0.72968
 H17_10  H 1.0  0.23197  0.77032  0.3324
 H17_11  H 1.0  0.77032  0.3324  0.23197
 H17_12  H 1.0  0.3324  0.23197  0.77032
 H18  H 1.0  0.70959  0.74902  0.2099
 H18_2  H 1.0  0.2099  0.70959  0.74902
 H18_3  H 1.0  0.74902  0.2099  0.70959
 H18_4  H 1.0  0.75098  0.79041  0.2901
 H18_5  H 1.0  0.79041  0.2901  0.75098
 H18_6  H 1.0  0.2901  0.75098  0.79041
 H18_7  H 1.0  0.29041  0.25098  0.7901
 H18_8  H 1.0  0.7901  0.29041  0.25098
 H18_9  H 1.0  0.25098  0.7901  0.29041
 H18_10  H 1.0  0.24902  0.20959  0.7099
 H18_11  H 1.0  0.20959  0.7099  0.24902
 H18_12  H 1.0  0.7099  0.24902  0.20959
 H19  H 1.0  0.70899  0.25  0.79101
 H19_2  H 1.0  0.79101  0.70899  0.25
 H19_3  H 1.0  0.25  0.79101  0.70899
 H19_4  H 1.0  0.29101  0.75  0.20899
 H19_5  H 1.0  0.20899  0.29101  0.75
 H19_6  H 1.0  0.75  0.20899  0.29101
 H20  H 1.0  0.57952  0.56458  0.99871
 H20_2  H 1.0  0.99871  0.57952  0.56458
 H20_3  H 1.0  0.56458  0.99871  0.57952
 H20_4  H 1.0  0.93542  0.92048  0.50129
 H20_5  H 1.0  0.92048  0.50129  0.93542
 H20_6  H 1.0  0.50129  0.93542  0.92048
 H20_7  H 1.0  0.42048  0.43542  0.00129
 H20_8  H 1.0  0.00129  0.42048  0.43542
 H20_9  H 1.0  0.43542  0.00129  0.42048
 H20_10  H 1.0  0.06458  0.07952  0.49871
 H20_11  H 1.0  0.07952  0.49871  0.06458
 H20_12  H 1.0  0.49871  0.06458  0.07952
 H21  H 1.0  0.57014  0.46516  0.00027
 H21_2  H 1.0  0.00027  0.57014  0.46516
 H21_3  H 1.0  0.46516  0.00027  0.57014
 H21_4  H 1.0  0.03484  0.92986  0.49973
 H21_5  H 1.0  0.92986  0.49973  0.03484
 H21_6  H 1.0  0.49973  0.03484  0.92986
 H21_7  H 1.0  0.42986  0.53484  0.99973
 H21_8  H 1.0  0.99973  0.42986  0.53484
 H21_9  H 1.0  0.53484  0.99973  0.42986
 H21_10  H 1.0  0.96516  0.07014  0.50027
 H21_11  H 1.0  0.07014  0.50027  0.96516
 H21_12  H 1.0  0.50027  0.96516  0.07014
 H22  H 1.0  0.62651  0.46002  0.00142
 H22_2  H 1.0  0.00142  0.62651  0.46002
 H22_3  H 1.0  0.46002  0.00142  0.62651
 H22_4  H 1.0  0.03998  0.87349  0.49858
 H22_5  H 1.0  0.87349  0.49858  0.03998
 H22_6  H 1.0  0.49858  0.03998  0.87349
 H22_7  H 1.0  0.37349  0.53998  0.99858
 H22_8  H 1.0  0.99858  0.37349  0.53998
 H22_9  H 1.0  0.53998  0.99858  0.37349
 H22_10  H 1.0  0.96002  0.12651  0.50142
 H22_11  H 1.0  0.12651  0.50142  0.96002
 H22_12  H 1.0  0.50142  0.96002  0.12651
 H23  H 1.0  0.5294  0.54374  0.9975
 H23_2  H 1.0  0.9975  0.5294  0.54374
 H23_3  H 1.0  0.54374  0.9975  0.5294
 H23_4  H 1.0  0.95626  0.9706  0.5025
 H23_5  H 1.0  0.9706  0.5025  0.95626
 H23_6  H 1.0  0.5025  0.95626  0.9706
 H23_7  H 1.0  0.4706  0.45626  0.0025
 H23_8  H 1.0  0.0025  0.4706  0.45626
 H23_9  H 1.0  0.45626  0.0025  0.4706
 H23_10  H 1.0  0.04374  0.0294  0.4975
 H23_11  H 1.0  0.0294  0.4975  0.04374
 H23_12  H 1.0  0.4975  0.04374  0.0294
 H24  H 1.0  0.52334  0.47277  0.00186
 H24_2  H 1.0  0.00186  0.52334  0.47277
 H24_3  H 1.0  0.47277  0.00186  0.52334
 H24_4  H 1.0  0.02723  0.97666  0.49814
 H24_5  H 1.0  0.97666  0.49814  0.02723
 H24_6  H 1.0  0.49814  0.02723  0.97666
 H24_7  H 1.0  0.47666  0.52723  0.99814
 H24_8  H 1.0  0.99814  0.47666  0.52723
 H24_9  H 1.0  0.52723  0.99814  0.47666
 H24_10  H 1.0  0.97277  0.02334  0.50186
 H24_11  H 1.0  0.02334  0.50186  0.97277
 H24_12  H 1.0  0.50186  0.97277  0.02334
 H25  H 1.0  0.63625  0.55885  0.99993
 H25_2  H 1.0  0.99993  0.63625  0.55885
 H25_3  H 1.0  0.55885  0.99993  0.63625
 H25_4  H 1.0  0.94115  0.86375  0.50007
 H25_5  H 1.0  0.86375  0.50007  0.94115
 H25_6  H 1.0  0.50007  0.94115  0.86375
 H25_7  H 1.0  0.36375  0.44115  0.00007
 H25_8  H 1.0  0.00007  0.36375  0.44115
 H25_9  H 1.0  0.44115  0.00007  0.36375
 H25_10  H 1.0  0.05885  0.13625  0.49993
 H25_11  H 1.0  0.13625  0.49993  0.05885
 H25_12  H 1.0  0.49993  0.05885  0.13625
 O1  O 1.0  0.5005  0.9995  0.25
 O1_2  O 1.0  0.25  0.5005  0.9995
 O1_3  O 1.0  0.9995  0.25  0.5005
 O1_4  O 1.0  0.4995  0.0005  0.75
 O1_5  O 1.0  0.75  0.4995  0.0005
 O1_6  O 1.0  0.0005  0.75  0.4995
 O2  O 1.0  0.50173  0.03096  0.18436
 O2_2  O 1.0  0.18436  0.50173  0.03096
 O2_3  O 1.0  0.03096  0.18436  0.50173
 O2_4  O 1.0  0.46904  0.99827  0.31564
 O2_5  O 1.0  0.99827  0.31564  0.46904
 O2_6  O 1.0  0.31564  0.46904  0.99827
 O2_7  O 1.0  0.49827  0.96904  0.81564
 O2_8  O 1.0  0.81564  0.49827  0.96904
 O2_9  O 1.0  0.96904  0.81564  0.49827
 O2_10  O 1.0  0.53096  0.00173  0.68436
 O2_11  O 1.0  0.00173  0.68436  0.53096
 O2_12  O 1.0  0.68436  0.53096  0.00173
 O3  O 1.0  0.5678  0.03471  0.26929
 O3_2  O 1.0  0.26929  0.5678  0.03471
 O3_3  O 1.0  0.03471  0.26929  0.5678
 O3_4  O 1.0  0.46529  0.9322  0.23071
 O3_5  O 1.0  0.9322  0.23071  0.46529
 O3_6  O 1.0  0.23071  0.46529  0.9322
 O3_7  O 1.0  0.4322  0.96529  0.73071
 O3_8  O 1.0  0.73071  0.4322  0.96529
 O3_9  O 1.0  0.96529  0.73071  0.4322
 O3_10  O 1.0  0.53471  0.0678  0.76929
 O3_11  O 1.0  0.0678  0.76929  0.53471
 O3_12  O 1.0  0.76929  0.53471  0.0678
 O4  O 1.0  0.43096  0.03529  0.26044
 O4_2  O 1.0  0.26044  0.43096  0.03529
 O4_3  O 1.0  0.03529  0.26044  0.43096
 O4_4  O 1.0  0.46471  0.06904  0.23956
 O4_5  O 1.0  0.06904  0.23956  0.46471
 O4_6  O 1.0  0.23956  0.46471  0.06904
 O4_7  O 1.0  0.56904  0.96471  0.73956
 O4_8  O 1.0  0.73956  0.56904  0.96471
 O4_9  O 1.0  0.96471  0.73956  0.56904
 O4_10  O 1.0  0.53529  0.93096  0.76044
 O4_11  O 1.0  0.93096  0.76044  0.53529
 O4_12  O 1.0  0.76044  0.53529  0.93096
 O5  O 1.0  0.5659  0.96115  0.26777
 O5_2  O 1.0  0.26777  0.5659  0.96115
 O5_3  O 1.0  0.96115  0.26777  0.5659
 O5_4  O 1.0  0.53885  0.9341  0.23223
 O5_5  O 1.0  0.9341  0.23223  0.53885
 O5_6  O 1.0  0.23223  0.53885  0.9341
 O5_7  O 1.0  0.4341  0.03885  0.73223
 O5_8  O 1.0  0.73223  0.4341  0.03885
 O5_9  O 1.0  0.03885  0.73223  0.4341
 O5_10  O 1.0  0.46115  0.0659  0.76777
 O5_11  O 1.0  0.0659  0.76777  0.46115
 O5_12  O 1.0  0.76777  0.46115  0.0659
 O6  O 1.0  0.56731  0.03788  0.74165
 O6_2  O 1.0  0.74165  0.56731  0.03788
 O6_3  O 1.0  0.03788  0.74165  0.56731
 O6_4  O 1.0  0.46212  0.93269  0.75835
 O6_5  O 1.0  0.93269  0.75835  0.46212
 O6_6  O 1.0  0.75835  0.46212  0.93269
 O6_7  O 1.0  0.43269  0.96212  0.25835
 O6_8  O 1.0  0.25835  0.43269  0.96212
 O6_9  O 1.0  0.96212  0.25835  0.43269
 O6_10  O 1.0  0.53788  0.06731  0.24165
 O6_11  O 1.0  0.06731  0.24165  0.53788
 O6_12  O 1.0  0.24165  0.53788  0.06731
 O7  O 1.0  0.50176  0.97855  0.17993
 O7_2  O 1.0  0.17993  0.50176  0.97855
 O7_3  O 1.0  0.97855  0.17993  0.50176
 O7_4  O 1.0  0.52145  0.99824  0.32007
 O7_5  O 1.0  0.99824  0.32007  0.52145
 O7_6  O 1.0  0.32007  0.52145  0.99824
 O7_7  O 1.0  0.49824  0.02145  0.82007
 O7_8  O 1.0  0.82007  0.49824  0.02145
 O7_9  O 1.0  0.02145  0.82007  0.49824
 O7_10  O 1.0  0.47855  0.00176  0.67993
 O7_11  O 1.0  0.00176  0.67993  0.47855
 O7_12  O 1.0  0.67993  0.47855  0.00176
 Zn1  Zn 1.0  0.5012  0.04122  0.22952
 Zn1_2  Zn 1.0  0.22952  0.5012  0.04122
 Zn1_3  Zn 1.0  0.04122  0.22952  0.5012
 Zn1_4  Zn 1.0  0.45878  0.9988  0.27048
 Zn1_5  Zn 1.0  0.9988  0.27048  0.45878
 Zn1_6  Zn 1.0  0.27048  0.45878  0.9988
 Zn1_7  Zn 1.0  0.4988  0.95878  0.77048
 Zn1_8  Zn 1.0  0.77048  0.4988  0.95878
 Zn1_9  Zn 1.0  0.95878  0.77048  0.4988
 Zn1_10  Zn 1.0  0.54122  0.0012  0.72952
 Zn1_11  Zn 1.0  0.0012  0.72952  0.54122
 Zn1_12  Zn 1.0  0.72952  0.54122  0.0012
 Zn2  Zn 1.0  0.50168  0.96149  0.22333
 Zn2_2  Zn 1.0  0.22333  0.50168  0.96149
 Zn2_3  Zn 1.0  0.96149  0.22333  0.50168
 Zn2_4  Zn 1.0  0.53851  0.99832  0.27667
 Zn2_5  Zn 1.0  0.99832  0.27667  0.53851
 Zn2_6  Zn 1.0  0.27667  0.53851  0.99832
 Zn2_7  Zn 1.0  0.49832  0.03851  0.77667
 Zn2_8  Zn 1.0  0.77667  0.49832  0.03851
 Zn2_9  Zn 1.0  0.03851  0.77667  0.49832
 Zn2_10  Zn 1.0  0.46149  0.00168  0.72333
 Zn2_11  Zn 1.0  0.00168  0.72333  0.46149
 Zn2_12  Zn 1.0  0.72333  0.46149  0.00168

