data_MOF-210-primitive
_audit_creation_method         'generated by CrystalMaker X for macOS'
_cell_length_a                  71.071600
_cell_length_b                  71.071600
_cell_length_c                  71.071600
_cell_angle_alpha               41.832000
_cell_angle_beta                41.832000
_cell_angle_gamma               41.832000

_symmetry_space_group_name_H-M     'P 1'

loop_
_symmetry_equiv_pos_as_xyz
'+x,+y,+z'

loop_
_atom_site_label
_atom_site_type_symbol
_atom_site_occupancy
_atom_site_fract_x
_atom_site_fract_y
_atom_site_fract_z
 C1  C 1.0  0.9573  0.0873  0.5803
 C1_2  C 1.0  0.5803  0.9573  0.0873
 C1_3  C 1.0  0.0873  0.5803  0.9573
 C1_4  C 1.0  0.0427  0.9127  0.4197
 C1_5  C 1.0  0.4197  0.0427  0.9127
 C1_6  C 1.0  0.9127  0.4197  0.0427
 C2  C 1.0  0.9286  0.0606  0.5616
 C2_2  C 1.0  0.5616  0.9286  0.0606
 C2_3  C 1.0  0.0606  0.5616  0.9286
 C2_4  C 1.0  0.0714  0.9394  0.4384
 C2_5  C 1.0  0.4384  0.0714  0.9394
 C2_6  C 1.0  0.9394  0.4384  0.0714
 C3  C 1.0  0.8774  0.0474  0.6674
 C3_2  C 1.0  0.6674  0.8774  0.0474
 C3_3  C 1.0  0.0474  0.6674  0.8774
 C3_4  C 1.0  0.1226  0.9526  0.3326
 C3_5  C 1.0  0.3326  0.1226  0.9526
 C3_6  C 1.0  0.9526  0.3326  0.1226
 C4  C 1.0  0.7137  0.0617  0.5387
 C4_2  C 1.0  0.5387  0.7137  0.0617
 C4_3  C 1.0  0.0617  0.5387  0.7137
 C4_4  C 1.0  0.2863  0.9383  0.4613
 C4_5  C 1.0  0.4613  0.2863  0.9383
 C4_6  C 1.0  0.9383  0.4613  0.2863
 C5  C 1.0  0.5771  0.2491  0.9241
 C5_2  C 1.0  0.9241  0.5771  0.2491
 C5_3  C 1.0  0.2491  0.9241  0.5771
 C5_4  C 1.0  0.4229  0.7509  0.0759
 C5_5  C 1.0  0.0759  0.4229  0.7509
 C5_6  C 1.0  0.7509  0.0759  0.4229
 C6  C 1.0  0.1745  0.0165  0.5305
 C6_2  C 1.0  0.5305  0.1745  0.0165
 C6_3  C 1.0  0.0165  0.5305  0.1745
 C6_4  C 1.0  0.8255  0.9835  0.4695
 C6_5  C 1.0  0.4695  0.8255  0.9835
 C6_6  C 1.0  0.9835  0.4695  0.8255
 C7  C 1.0  0.979  0.329  0.607
 C7_2  C 1.0  0.607  0.979  0.329
 C7_3  C 1.0  0.329  0.607  0.979
 C7_4  C 1.0  0.021  0.671  0.393
 C7_5  C 1.0  0.393  0.021  0.671
 C7_6  C 1.0  0.671  0.393  0.021
 C8  C 1.0  0.3184  0.1054  0.6274
 C8_2  C 1.0  0.6274  0.3184  0.1054
 C8_3  C 1.0  0.1054  0.6274  0.3184
 C8_4  C 1.0  0.6816  0.8946  0.3726
 C8_5  C 1.0  0.3726  0.6816  0.8946
 C8_6  C 1.0  0.8946  0.3726  0.6816
 C9  C 1.0  0.8326  0.4516  0.6236
 C9_2  C 1.0  0.6236  0.8326  0.4516
 C9_3  C 1.0  0.4516  0.6236  0.8326
 C9_4  C 1.0  0.1674  0.5484  0.3764
 C9_5  C 1.0  0.3764  0.1674  0.5484
 C9_6  C 1.0  0.5484  0.3764  0.1674
 C10  C 1.0  0.8179  0.1269  0.6069
 C10_2  C 1.0  0.6069  0.8179  0.1269
 C10_3  C 1.0  0.1269  0.6069  0.8179
 C10_4  C 1.0  0.1821  0.8731  0.3931
 C10_5  C 1.0  0.3931  0.1821  0.8731
 C10_6  C 1.0  0.8731  0.3931  0.1821
 C11  C 1.0  0.7894  0.1354  0.6104
 C11_2  C 1.0  0.6104  0.7894  0.1354
 C11_3  C 1.0  0.1354  0.6104  0.7894
 C11_4  C 1.0  0.2106  0.8646  0.3896
 C11_5  C 1.0  0.3896  0.2106  0.8646
 C11_6  C 1.0  0.8646  0.3896  0.2106
 C12  C 1.0  0.7418  0.1298  0.6438
 C12_2  C 1.0  0.6438  0.7418  0.1298
 C12_3  C 1.0  0.1298  0.6438  0.7418
 C12_4  C 1.0  0.2582  0.8702  0.3562
 C12_5  C 1.0  0.3562  0.2582  0.8702
 C12_6  C 1.0  0.8702  0.3562  0.2582
 C13  C 1.0  0.7656  0.1266  0.6406
 C13_2  C 1.0  0.6406  0.7656  0.1266
 C13_3  C 1.0  0.1266  0.6406  0.7656
 C13_4  C 1.0  0.2344  0.8734  0.3594
 C13_5  C 1.0  0.3594  0.2344  0.8734
 C13_6  C 1.0  0.8734  0.3594  0.2344
 C14  C 1.0  0.6802  0.1372  0.6272
 C14_2  C 1.0  0.6272  0.6802  0.1372
 C14_3  C 1.0  0.1372  0.6272  0.6802
 C14_4  C 1.0  0.3198  0.8628  0.3728
 C14_5  C 1.0  0.3728  0.3198  0.8628
 C14_6  C 1.0  0.8628  0.3728  0.3198
 C15  C 1.0  0.6892  0.1312  0.6062
 C15_2  C 1.0  0.6062  0.6892  0.1312
 C15_3  C 1.0  0.1312  0.6062  0.6892
 C15_4  C 1.0  0.3108  0.8688  0.3938
 C15_5  C 1.0  0.3938  0.3108  0.8688
 C15_6  C 1.0  0.8688  0.3938  0.3108
 C16  C 1.0  0.6707  0.1237  0.6127
 C16_2  C 1.0  0.6127  0.6707  0.1237
 C16_3  C 1.0  0.1237  0.6127  0.6707
 C16_4  C 1.0  0.3293  0.8763  0.3873
 C16_5  C 1.0  0.3873  0.3293  0.8763
 C16_6  C 1.0  0.8763  0.3873  0.3293
 C17  C 1.0  0.6424  0.1244  0.6394
 C17_2  C 1.0  0.6394  0.6424  0.1244
 C17_3  C 1.0  0.1244  0.6394  0.6424
 C17_4  C 1.0  0.3576  0.8756  0.3606
 C17_5  C 1.0  0.3606  0.3576  0.8756
 C17_6  C 1.0  0.8756  0.3606  0.3576
 C18  C 1.0  0.6334  0.1304  0.6604
 C18_2  C 1.0  0.6604  0.6334  0.1304
 C18_3  C 1.0  0.1304  0.6604  0.6334
 C18_4  C 1.0  0.3666  0.8696  0.3396
 C18_5  C 1.0  0.3396  0.3666  0.8696
 C18_6  C 1.0  0.8696  0.3396  0.3666
 C19  C 1.0  0.6518  0.1378  0.6538
 C19_2  C 1.0  0.6538  0.6518  0.1378
 C19_3  C 1.0  0.1378  0.6538  0.6518
 C19_4  C 1.0  0.3482  0.8622  0.3462
 C19_5  C 1.0  0.3462  0.3482  0.8622
 C19_6  C 1.0  0.8622  0.3462  0.3482
 C20  C 1.0  0.56  0.116  0.744
 C20_2  C 1.0  0.744  0.56  0.116
 C20_3  C 1.0  0.116  0.744  0.56
 C20_4  C 1.0  0.44  0.884  0.256
 C20_5  C 1.0  0.256  0.44  0.884
 C20_6  C 1.0  0.884  0.256  0.44
 C21  C 1.0  0.551  0.121  0.766
 C21_2  C 1.0  0.766  0.551  0.121
 C21_3  C 1.0  0.121  0.766  0.551
 C21_4  C 1.0  0.449  0.879  0.234
 C21_5  C 1.0  0.234  0.449  0.879
 C21_6  C 1.0  0.879  0.234  0.449
 C22  C 1.0  0.5254  0.1164  0.7944
 C22_2  C 1.0  0.7944  0.5254  0.1164
 C22_3  C 1.0  0.1164  0.7944  0.5254
 C22_4  C 1.0  0.4746  0.8836  0.2056
 C22_5  C 1.0  0.2056  0.4746  0.8836
 C22_6  C 1.0  0.8836  0.2056  0.4746
 C23  C 1.0  0.5069  0.1089  0.8009
 C23_2  C 1.0  0.8009  0.5069  0.1089
 C23_3  C 1.0  0.1089  0.8009  0.5069
 C23_4  C 1.0  0.4931  0.8911  0.1991
 C23_5  C 1.0  0.1991  0.4931  0.8911
 C23_6  C 1.0  0.8911  0.1991  0.4931
 C24  C 1.0  0.517  0.103  0.779
 C24_2  C 1.0  0.779  0.517  0.103
 C24_3  C 1.0  0.103  0.779  0.517
 C24_4  C 1.0  0.483  0.897  0.221
 C24_5  C 1.0  0.221  0.483  0.897
 C24_6  C 1.0  0.897  0.221  0.483
 C25  C 1.0  0.5425  0.1075  0.7505
 C25_2  C 1.0  0.7505  0.5425  0.1075
 C25_3  C 1.0  0.1075  0.7505  0.5425
 C25_4  C 1.0  0.4575  0.8925  0.2495
 C25_5  C 1.0  0.2495  0.4575  0.8925
 C25_6  C 1.0  0.8925  0.2495  0.4575
 C26  C 1.0  0.477  0.108  0.829
 C26_2  C 1.0  0.829  0.477  0.108
 C26_3  C 1.0  0.108  0.829  0.477
 C26_4  C 1.0  0.523  0.892  0.171
 C26_5  C 1.0  0.171  0.523  0.892
 C26_6  C 1.0  0.892  0.171  0.523
 C27  C 1.0  0.6964  0.0904  0.5654
 C27_2  C 1.0  0.5654  0.6964  0.0904
 C27_3  C 1.0  0.0904  0.5654  0.6964
 C27_4  C 1.0  0.3036  0.9096  0.4346
 C27_5  C 1.0  0.4346  0.3036  0.9096
 C27_6  C 1.0  0.9096  0.4346  0.3036
 C28  C 1.0  0.7279  0.0799  0.5219
 C28_2  C 1.0  0.5219  0.7279  0.0799
 C28_3  C 1.0  0.0799  0.5219  0.7279
 C28_4  C 1.0  0.2721  0.9201  0.4781
 C28_5  C 1.0  0.4781  0.2721  0.9201
 C28_6  C 1.0  0.9201  0.4781  0.2721
 C29  C 1.0  0.7192  0.0942  0.5352
 C29_2  C 1.0  0.5352  0.7192  0.0942
 C29_3  C 1.0  0.0942  0.5352  0.7192
 C29_4  C 1.0  0.2808  0.9058  0.4648
 C29_5  C 1.0  0.4648  0.2808  0.9058
 C29_6  C 1.0  0.9058  0.4648  0.2808
 C30  C 1.0  0.7865  0.1495  0.5845
 C30_2  C 1.0  0.5845  0.7865  0.1495
 C30_3  C 1.0  0.1495  0.5845  0.7865
 C30_4  C 1.0  0.2135  0.8505  0.4155
 C30_5  C 1.0  0.4155  0.2135  0.8505
 C30_6  C 1.0  0.8505  0.4155  0.2135
 C31  C 1.0  0.7627  0.1527  0.5877
 C31_2  C 1.0  0.5877  0.7627  0.1527
 C31_3  C 1.0  0.1527  0.5877  0.7627
 C31_4  C 1.0  0.2373  0.8473  0.4123
 C31_5  C 1.0  0.4123  0.2373  0.8473
 C31_6  C 1.0  0.8473  0.4123  0.2373
 C32  C 1.0  0.7398  0.1438  0.6168
 C32_2  C 1.0  0.6168  0.7398  0.1438
 C32_3  C 1.0  0.1438  0.6168  0.7398
 C32_4  C 1.0  0.2602  0.8562  0.3832
 C32_5  C 1.0  0.3832  0.2602  0.8562
 C32_6  C 1.0  0.8562  0.3832  0.2602
 C33  C 1.0  0.6805  0.1145  0.5935
 C33_2  C 1.0  0.5935  0.6805  0.1145
 C33_3  C 1.0  0.1145  0.5935  0.6805
 C33_4  C 1.0  0.3195  0.8855  0.4065
 C33_5  C 1.0  0.4065  0.3195  0.8855
 C33_6  C 1.0  0.8855  0.4065  0.3195
 C34  C 1.0  0.688  0.104  0.58
 C34_2  C 1.0  0.58  0.688  0.104
 C34_3  C 1.0  0.104  0.58  0.688
 C34_4  C 1.0  0.312  0.896  0.42
 C34_5  C 1.0  0.42  0.312  0.896
 C34_6  C 1.0  0.896  0.42  0.312
 C35  C 1.0  0.5856  0.1216  0.7146
 C35_2  C 1.0  0.7146  0.5856  0.1216
 C35_3  C 1.0  0.1216  0.7146  0.5856
 C35_4  C 1.0  0.4144  0.8784  0.2854
 C35_5  C 1.0  0.2854  0.4144  0.8784
 C35_6  C 1.0  0.8784  0.2854  0.4144
 C36  C 1.0  0.607  0.126  0.69
 C36_2  C 1.0  0.69  0.607  0.126
 C36_3  C 1.0  0.126  0.69  0.607
 C36_4  C 1.0  0.393  0.874  0.31
 C36_5  C 1.0  0.31  0.393  0.874
 C36_6  C 1.0  0.874  0.31  0.393
 C37  C 1.0  0.7183  0.1423  0.6203
 C37_2  C 1.0  0.6203  0.7183  0.1423
 C37_3  C 1.0  0.1423  0.6203  0.7183
 C37_4  C 1.0  0.2817  0.8577  0.3797
 C37_5  C 1.0  0.3797  0.2817  0.8577
 C37_6  C 1.0  0.8577  0.3797  0.2817
 C38  C 1.0  0.7008  0.1408  0.6228
 C38_2  C 1.0  0.6228  0.7008  0.1408
 C38_3  C 1.0  0.1408  0.6228  0.7008
 C38_4  C 1.0  0.2992  0.8592  0.3772
 C38_5  C 1.0  0.3772  0.2992  0.8592
 C38_6  C 1.0  0.8592  0.3772  0.2992
 C39  C 1.0  0.6813  0.0733  0.5823
 C39_2  C 1.0  0.5823  0.6813  0.0733
 C39_3  C 1.0  0.0733  0.5823  0.6813
 C39_4  C 1.0  0.3187  0.9267  0.4177
 C39_5  C 1.0  0.4177  0.3187  0.9267
 C39_6  C 1.0  0.9267  0.4177  0.3187
 C40  C 1.0  0.6899  0.0589  0.5689
 C40_2  C 1.0  0.5689  0.6899  0.0589
 C40_3  C 1.0  0.0589  0.5689  0.6899
 C40_4  C 1.0  0.3101  0.9411  0.4311
 C40_5  C 1.0  0.4311  0.3101  0.9411
 C40_6  C 1.0  0.9411  0.4311  0.3101
 C41  C 1.0  0.8483  0.1553  0.6243
 C41_2  C 1.0  0.6243  0.8483  0.1553
 C41_3  C 1.0  0.1553  0.6243  0.8483
 C41_4  C 1.0  0.1517  0.8447  0.3757
 C41_5  C 1.0  0.3757  0.1517  0.8447
 C41_6  C 1.0  0.8447  0.3757  0.1517
 C42  C 1.0  0.8331  0.1741  0.6381
 C42_2  C 1.0  0.6381  0.8331  0.1741
 C42_3  C 1.0  0.1741  0.6381  0.8331
 C42_4  C 1.0  0.1669  0.8259  0.3619
 C42_5  C 1.0  0.3619  0.1669  0.8259
 C42_6  C 1.0  0.8259  0.3619  0.1669
 C43  C 1.0  0.7942  0.1872  0.6822
 C43_2  C 1.0  0.6822  0.7942  0.1872
 C43_3  C 1.0  0.1872  0.6822  0.7942
 C43_4  C 1.0  0.2058  0.8128  0.3178
 C43_5  C 1.0  0.3178  0.2058  0.8128
 C43_6  C 1.0  0.8128  0.3178  0.2058
 C44  C 1.0  0.8063  0.1733  0.6663
 C44_2  C 1.0  0.6663  0.8063  0.1733
 C44_3  C 1.0  0.1733  0.6663  0.8063
 C44_4  C 1.0  0.1937  0.8267  0.3337
 C44_5  C 1.0  0.3337  0.1937  0.8267
 C44_6  C 1.0  0.8267  0.3337  0.1937
 C45  C 1.0  0.7841  0.2281  0.7231
 C45_2  C 1.0  0.7231  0.7841  0.2281
 C45_3  C 1.0  0.2281  0.7231  0.7841
 C45_4  C 1.0  0.2159  0.7719  0.2769
 C45_5  C 1.0  0.2769  0.2159  0.7719
 C45_6  C 1.0  0.7719  0.2769  0.2159
 C46  C 1.0  0.8033  0.2363  0.7143
 C46_2  C 1.0  0.7143  0.8033  0.2363
 C46_3  C 1.0  0.2363  0.7143  0.8033
 C46_4  C 1.0  0.1967  0.7637  0.2857
 C46_5  C 1.0  0.2857  0.1967  0.7637
 C46_6  C 1.0  0.7637  0.2857  0.1967
 C47  C 1.0  0.7945  0.2445  0.7335
 C47_2  C 1.0  0.7335  0.7945  0.2445
 C47_3  C 1.0  0.2445  0.7335  0.7945
 C47_4  C 1.0  0.2055  0.7555  0.2665
 C47_5  C 1.0  0.2665  0.2055  0.7555
 C47_6  C 1.0  0.7555  0.2665  0.2055
 C48  C 1.0  0.7674  0.2434  0.7614
 C48_2  C 1.0  0.7614  0.7674  0.2434
 C48_3  C 1.0  0.2434  0.7614  0.7674
 C48_4  C 1.0  0.2326  0.7566  0.2386
 C48_5  C 1.0  0.2386  0.2326  0.7566
 C48_6  C 1.0  0.7566  0.2386  0.2326
 C49  C 1.0  0.7482  0.2362  0.7692
 C49_2  C 1.0  0.7692  0.7482  0.2362
 C49_3  C 1.0  0.2362  0.7692  0.7482
 C49_4  C 1.0  0.2518  0.7638  0.2308
 C49_5  C 1.0  0.2308  0.2518  0.7638
 C49_6  C 1.0  0.7638  0.2308  0.2518
 C50  C 1.0  0.757  0.228  0.75
 C50_2  C 1.0  0.75  0.757  0.228
 C50_3  C 1.0  0.228  0.75  0.757
 C50_4  C 1.0  0.243  0.772  0.25
 C50_5  C 1.0  0.25  0.243  0.772
 C50_6  C 1.0  0.772  0.25  0.243
 C51  C 1.0  0.6657  0.2407  0.8457
 C51_2  C 1.0  0.8457  0.6657  0.2407
 C51_3  C 1.0  0.2407  0.8457  0.6657
 C51_4  C 1.0  0.3343  0.7593  0.1543
 C51_5  C 1.0  0.1543  0.3343  0.7593
 C51_6  C 1.0  0.7593  0.1543  0.3343
 C52  C 1.0  0.6486  0.2296  0.8556
 C52_2  C 1.0  0.8556  0.6486  0.2296
 C52_3  C 1.0  0.2296  0.8556  0.6486
 C52_4  C 1.0  0.3514  0.7704  0.1444
 C52_5  C 1.0  0.1444  0.3514  0.7704
 C52_6  C 1.0  0.7704  0.1444  0.3514
 C53  C 1.0  0.6194  0.2324  0.8814
 C53_2  C 1.0  0.8814  0.6194  0.2324
 C53_3  C 1.0  0.2324  0.8814  0.6194
 C53_4  C 1.0  0.3806  0.7676  0.1186
 C53_5  C 1.0  0.1186  0.3806  0.7676
 C53_6  C 1.0  0.7676  0.1186  0.3806
 C54  C 1.0  0.6072  0.2472  0.8962
 C54_2  C 1.0  0.8962  0.6072  0.2472
 C54_3  C 1.0  0.2472  0.8962  0.6072
 C54_4  C 1.0  0.3928  0.7528  0.1038
 C54_5  C 1.0  0.1038  0.3928  0.7528
 C54_6  C 1.0  0.7528  0.1038  0.3928
 C55  C 1.0  0.6233  0.2603  0.8853
 C55_2  C 1.0  0.8853  0.6233  0.2603
 C55_3  C 1.0  0.2603  0.8853  0.6233
 C55_4  C 1.0  0.3767  0.7397  0.1147
 C55_5  C 1.0  0.1147  0.3767  0.7397
 C55_6  C 1.0  0.7397  0.1147  0.3767
 C56  C 1.0  0.6525  0.2575  0.8595
 C56_2  C 1.0  0.8595  0.6525  0.2575
 C56_3  C 1.0  0.2575  0.8595  0.6525
 C56_4  C 1.0  0.3475  0.7425  0.1405
 C56_5  C 1.0  0.1405  0.3475  0.7425
 C56_6  C 1.0  0.7425  0.1405  0.3475
 C57  C 1.0  0.8409  0.2819  0.7019
 C57_2  C 1.0  0.7019  0.8409  0.2819
 C57_3  C 1.0  0.2819  0.7019  0.8409
 C57_4  C 1.0  0.1591  0.7181  0.2981
 C57_5  C 1.0  0.2981  0.1591  0.7181
 C57_6  C 1.0  0.7181  0.2981  0.1591
 C58  C 1.0  0.8813  0.3003  0.6593
 C58_2  C 1.0  0.6593  0.8813  0.3003
 C58_3  C 1.0  0.3003  0.6593  0.8813
 C58_4  C 1.0  0.1187  0.6997  0.3407
 C58_5  C 1.0  0.3407  0.1187  0.6997
 C58_6  C 1.0  0.6997  0.3407  0.1187
 C59  C 1.0  0.869  0.281  0.675
 C59_2  C 1.0  0.675  0.869  0.281
 C59_3  C 1.0  0.281  0.675  0.869
 C59_4  C 1.0  0.131  0.719  0.325
 C59_5  C 1.0  0.325  0.131  0.719
 C59_6  C 1.0  0.719  0.325  0.131
 C60  C 1.0  0.8469  0.1909  0.6249
 C60_2  C 1.0  0.6249  0.8469  0.1909
 C60_3  C 1.0  0.1909  0.6249  0.8469
 C60_4  C 1.0  0.1531  0.8091  0.3751
 C60_5  C 1.0  0.3751  0.1531  0.8091
 C60_6  C 1.0  0.8091  0.3751  0.1531
 C61  C 1.0  0.8348  0.2058  0.6398
 C61_2  C 1.0  0.6398  0.8348  0.2058
 C61_3  C 1.0  0.2058  0.6398  0.8348
 C61_4  C 1.0  0.1652  0.7942  0.3602
 C61_5  C 1.0  0.3602  0.1652  0.7942
 C61_6  C 1.0  0.7942  0.3602  0.1652
 C62  C 1.0  0.809  0.203  0.669
 C62_2  C 1.0  0.669  0.809  0.203
 C62_3  C 1.0  0.203  0.669  0.809
 C62_4  C 1.0  0.191  0.797  0.331
 C62_5  C 1.0  0.331  0.191  0.797
 C62_6  C 1.0  0.797  0.331  0.191
 C63  C 1.0  0.8118  0.2558  0.7238
 C63_2  C 1.0  0.7238  0.8118  0.2558
 C63_3  C 1.0  0.2558  0.7238  0.8118
 C63_4  C 1.0  0.1882  0.7442  0.2762
 C63_5  C 1.0  0.2762  0.1882  0.7442
 C63_6  C 1.0  0.7442  0.2762  0.1882
 C64  C 1.0  0.826  0.267  0.714
 C64_2  C 1.0  0.714  0.826  0.267
 C64_3  C 1.0  0.267  0.714  0.826
 C64_4  C 1.0  0.174  0.733  0.286
 C64_5  C 1.0  0.286  0.174  0.733
 C64_6  C 1.0  0.733  0.286  0.174
 C65  C 1.0  0.6949  0.2389  0.8189
 C65_2  C 1.0  0.8189  0.6949  0.2389
 C65_3  C 1.0  0.2389  0.8189  0.6949
 C65_4  C 1.0  0.3051  0.7611  0.1811
 C65_5  C 1.0  0.1811  0.3051  0.7611
 C65_6  C 1.0  0.7611  0.1811  0.3051
 C66  C 1.0  0.72  0.236  0.797
 C66_2  C 1.0  0.797  0.72  0.236
 C66_3  C 1.0  0.236  0.797  0.72
 C66_4  C 1.0  0.28  0.764  0.203
 C66_5  C 1.0  0.203  0.28  0.764
 C66_6  C 1.0  0.764  0.203  0.28
 C67  C 1.0  0.7994  0.2134  0.6874
 C67_2  C 1.0  0.6874  0.7994  0.2134
 C67_3  C 1.0  0.2134  0.6874  0.7994
 C67_4  C 1.0  0.2006  0.7866  0.3126
 C67_5  C 1.0  0.3126  0.2006  0.7866
 C67_6  C 1.0  0.7866  0.3126  0.2006
 C68  C 1.0  0.7927  0.2207  0.7027
 C68_2  C 1.0  0.7027  0.7927  0.2207
 C68_3  C 1.0  0.2207  0.7027  0.7927
 C68_4  C 1.0  0.2073  0.7793  0.2973
 C68_5  C 1.0  0.2973  0.2073  0.7793
 C68_6  C 1.0  0.7793  0.2973  0.2073
 C69  C 1.0  0.8253  0.3013  0.7143
 C69_2  C 1.0  0.7143  0.8253  0.3013
 C69_3  C 1.0  0.3013  0.7143  0.8253
 C69_4  C 1.0  0.1747  0.6987  0.2857
 C69_5  C 1.0  0.2857  0.1747  0.6987
 C69_6  C 1.0  0.6987  0.2857  0.1747
 C70  C 1.0  0.8378  0.3208  0.6988
 C70_2  C 1.0  0.6988  0.8378  0.3208
 C70_3  C 1.0  0.3208  0.6988  0.8378
 C70_4  C 1.0  0.1622  0.6792  0.3012
 C70_5  C 1.0  0.3012  0.1622  0.6792
 C70_6  C 1.0  0.6792  0.3012  0.1622
 C71  C 1.0  0.8657  0.3207  0.6707
 C71_2  C 1.0  0.6707  0.8657  0.3207
 C71_3  C 1.0  0.3207  0.6707  0.8657
 C71_4  C 1.0  0.1343  0.6793  0.3293
 C71_5  C 1.0  0.3293  0.1343  0.6793
 C71_6  C 1.0  0.6793  0.3293  0.1343
 C72  C 1.0  0.8772  0.3422  0.6542
 C72_2  C 1.0  0.6542  0.8772  0.3422
 C72_3  C 1.0  0.3422  0.6542  0.8772
 C72_4  C 1.0  0.1228  0.6578  0.3458
 C72_5  C 1.0  0.3458  0.1228  0.6578
 C72_6  C 1.0  0.6578  0.3458  0.1228
 C73  C 1.0  0.2252  0.0242  0.5462
 C73_2  C 1.0  0.5462  0.2252  0.0242
 C73_3  C 1.0  0.0242  0.5462  0.2252
 C73_4  C 1.0  0.7748  0.9758  0.4538
 C73_5  C 1.0  0.4538  0.7748  0.9758
 C73_6  C 1.0  0.9758  0.4538  0.7748
 C74  C 1.0  0.2147  0.0377  0.5627
 C74_2  C 1.0  0.5627  0.2147  0.0377
 C74_3  C 1.0  0.0377  0.5627  0.2147
 C74_4  C 1.0  0.7853  0.9623  0.4373
 C74_5  C 1.0  0.4373  0.7853  0.9623
 C74_6  C 1.0  0.9623  0.4373  0.7853
 C75  C 1.0  0.1811  0.0811  0.5751
 C75_2  C 1.0  0.5751  0.1811  0.0811
 C75_3  C 1.0  0.0811  0.5751  0.1811
 C75_4  C 1.0  0.8189  0.9189  0.4249
 C75_5  C 1.0  0.4249  0.8189  0.9189
 C75_6  C 1.0  0.9189  0.4249  0.8189
 C76  C 1.0  0.1899  0.0689  0.5599
 C76_2  C 1.0  0.5599  0.1899  0.0689
 C76_3  C 1.0  0.0689  0.5599  0.1899
 C76_4  C 1.0  0.8101  0.9311  0.4401
 C76_5  C 1.0  0.4401  0.8101  0.9311
 C76_6  C 1.0  0.9311  0.4401  0.8101
 C77  C 1.0  0.1695  0.1115  0.6265
 C77_2  C 1.0  0.6265  0.1695  0.1115
 C77_3  C 1.0  0.1115  0.6265  0.1695
 C77_4  C 1.0  0.8305  0.8885  0.3735
 C77_5  C 1.0  0.3735  0.8305  0.8885
 C77_6  C 1.0  0.8885  0.3735  0.8305
 C78  C 1.0  0.1879  0.1049  0.6339
 C78_2  C 1.0  0.6339  0.1879  0.1049
 C78_3  C 1.0  0.1049  0.6339  0.1879
 C78_4  C 1.0  0.8121  0.8951  0.3661
 C78_5  C 1.0  0.3661  0.8121  0.8951
 C78_6  C 1.0  0.8951  0.3661  0.8121
 C79  C 1.0  0.179  0.127  0.639
 C79_2  C 1.0  0.639  0.179  0.127
 C79_3  C 1.0  0.127  0.639  0.179
 C79_4  C 1.0  0.821  0.873  0.361
 C79_5  C 1.0  0.361  0.821  0.873
 C79_6  C 1.0  0.873  0.361  0.821
 C80  C 1.0  0.1516  0.1536  0.6386
 C80_2  C 1.0  0.6386  0.1516  0.1536
 C80_3  C 1.0  0.1536  0.6386  0.1516
 C80_4  C 1.0  0.8484  0.8464  0.3614
 C80_5  C 1.0  0.3614  0.8484  0.8464
 C80_6  C 1.0  0.8464  0.3614  0.8484
 C81  C 1.0  0.1332  0.1602  0.6312
 C81_2  C 1.0  0.6312  0.1332  0.1602
 C81_3  C 1.0  0.1602  0.6312  0.1332
 C81_4  C 1.0  0.8668  0.8398  0.3688
 C81_5  C 1.0  0.3688  0.8668  0.8398
 C81_6  C 1.0  0.8398  0.3688  0.8668
 C82  C 1.0  0.1421  0.1391  0.6251
 C82_2  C 1.0  0.6251  0.1421  0.1391
 C82_3  C 1.0  0.1391  0.6251  0.1421
 C82_4  C 1.0  0.8579  0.8609  0.3749
 C82_5  C 1.0  0.3749  0.8579  0.8609
 C82_6  C 1.0  0.8609  0.3749  0.8579
 C83  C 1.0  0.0607  0.2437  0.6157
 C83_2  C 1.0  0.6157  0.0607  0.2437
 C83_3  C 1.0  0.2437  0.6157  0.0607
 C83_4  C 1.0  0.9393  0.7563  0.3843
 C83_5  C 1.0  0.3843  0.9393  0.7563
 C83_6  C 1.0  0.7563  0.3843  0.9393
 C84  C 1.0  0.0432  0.2502  0.6072
 C84_2  C 1.0  0.6072  0.0432  0.2502
 C84_3  C 1.0  0.2502  0.6072  0.0432
 C84_4  C 1.0  0.9568  0.7498  0.3928
 C84_5  C 1.0  0.3928  0.9568  0.7498
 C84_6  C 1.0  0.7498  0.3928  0.9568
 C85  C 1.0  0.0176  0.2786  0.6026
 C85_2  C 1.0  0.6026  0.0176  0.2786
 C85_3  C 1.0  0.2786  0.6026  0.0176
 C85_4  C 1.0  0.9824  0.7214  0.3974
 C85_5  C 1.0  0.3974  0.9824  0.7214
 C85_6  C 1.0  0.7214  0.3974  0.9824
 C86  C 1.0  0.0086  0.3016  0.6066
 C86_2  C 1.0  0.6066  0.0086  0.3016
 C86_3  C 1.0  0.3016  0.6066  0.0086
 C86_4  C 1.0  0.9914  0.6984  0.3934
 C86_5  C 1.0  0.3934  0.9914  0.6984
 C86_6  C 1.0  0.6984  0.3934  0.9914
 C87  C 1.0  0.0261  0.2961  0.6141
 C87_2  C 1.0  0.6141  0.0261  0.2961
 C87_3  C 1.0  0.2961  0.6141  0.0261
 C87_4  C 1.0  0.9739  0.7039  0.3859
 C87_5  C 1.0  0.3859  0.9739  0.7039
 C87_6  C 1.0  0.7039  0.3859  0.9739
 C88  C 1.0  0.0526  0.2666  0.6186
 C88_2  C 1.0  0.6186  0.0526  0.2666
 C88_3  C 1.0  0.2666  0.6186  0.0526
 C88_4  C 1.0  0.9474  0.7334  0.3814
 C88_5  C 1.0  0.3814  0.9474  0.7334
 C88_6  C 1.0  0.7334  0.3814  0.9474
 C89  C 1.0  0.2404  0.1164  0.6434
 C89_2  C 1.0  0.6434  0.2404  0.1164
 C89_3  C 1.0  0.1164  0.6434  0.2404
 C89_4  C 1.0  0.7596  0.8836  0.3566
 C89_5  C 1.0  0.3566  0.7596  0.8836
 C89_6  C 1.0  0.8836  0.3566  0.7596
 C90  C 1.0  0.2888  0.0828  0.6478
 C90_2  C 1.0  0.6478  0.2888  0.0828
 C90_3  C 1.0  0.0828  0.6478  0.2888
 C90_4  C 1.0  0.7112  0.9172  0.3522
 C90_5  C 1.0  0.3522  0.7112  0.9172
 C90_6  C 1.0  0.9172  0.3522  0.7112
 C91  C 1.0  0.2641  0.0861  0.6521
 C91_2  C 1.0  0.6521  0.2641  0.0861
 C91_3  C 1.0  0.0861  0.6521  0.2641
 C91_4  C 1.0  0.7359  0.9139  0.3479
 C91_5  C 1.0  0.3479  0.7359  0.9139
 C91_6  C 1.0  0.9139  0.3479  0.7359
 C92  C 1.0  0.2289  0.0209  0.5809
 C92_2  C 1.0  0.5809  0.2289  0.0209
 C92_3  C 1.0  0.0209  0.5809  0.2289
 C92_4  C 1.0  0.7711  0.9791  0.4191
 C92_5  C 1.0  0.4191  0.7711  0.9791
 C92_6  C 1.0  0.9791  0.4191  0.7711
 C93  C 1.0  0.2202  0.0342  0.5952
 C93_2  C 1.0  0.5952  0.2202  0.0342
 C93_3  C 1.0  0.0342  0.5952  0.2202
 C93_4  C 1.0  0.7798  0.9658  0.4048
 C93_5  C 1.0  0.4048  0.7798  0.9658
 C93_6  C 1.0  0.9658  0.4048  0.7798
 C94  C 1.0  0.1963  0.0643  0.5923
 C94_2  C 1.0  0.5923  0.1963  0.0643
 C94_3  C 1.0  0.0643  0.5923  0.1963
 C94_4  C 1.0  0.8037  0.9357  0.4077
 C94_5  C 1.0  0.4077  0.8037  0.9357
 C94_6  C 1.0  0.9357  0.4077  0.8037
 C95  C 1.0  0.1995  0.1225  0.6425
 C95_2  C 1.0  0.6425  0.1995  0.1225
 C95_3  C 1.0  0.1225  0.6425  0.1995
 C95_4  C 1.0  0.8005  0.8775  0.3575
 C95_5  C 1.0  0.3575  0.8005  0.8775
 C95_6  C 1.0  0.8775  0.3575  0.8005
 C96  C 1.0  0.218  0.119  0.644
 C96_2  C 1.0  0.644  0.218  0.119
 C96_3  C 1.0  0.119  0.644  0.218
 C96_4  C 1.0  0.782  0.881  0.356
 C96_5  C 1.0  0.356  0.782  0.881
 C96_6  C 1.0  0.881  0.356  0.782
 C97  C 1.0  0.0863  0.2143  0.6213
 C97_2  C 1.0  0.6213  0.0863  0.2143
 C97_3  C 1.0  0.2143  0.6213  0.0863
 C97_4  C 1.0  0.9137  0.7857  0.3787
 C97_5  C 1.0  0.3787  0.9137  0.7857
 C97_6  C 1.0  0.7857  0.3787  0.9137
 C98  C 1.0  0.1077  0.1897  0.6257
 C98_2  C 1.0  0.6257  0.1077  0.1897
 C98_3  C 1.0  0.1897  0.6257  0.1077
 C98_4  C 1.0  0.8923  0.8103  0.3743
 C98_5  C 1.0  0.3743  0.8923  0.8103
 C98_6  C 1.0  0.8103  0.3743  0.8923
 C99  C 1.0  0.1879  0.0789  0.6059
 C99_2  C 1.0  0.6059  0.1879  0.0789
 C99_3  C 1.0  0.0789  0.6059  0.1879
 C99_4  C 1.0  0.8121  0.9211  0.3941
 C99_5  C 1.0  0.3941  0.8121  0.9211
 C99_6  C 1.0  0.9211  0.3941  0.8121
 C100  C 1.0  0.1803  0.0923  0.6163
 C100_2  C 1.0  0.6163  0.1803  0.0923
 C100_3  C 1.0  0.0923  0.6163  0.1803
 C100_4  C 1.0  0.8197  0.9077  0.3837
 C100_5  C 1.0  0.3837  0.8197  0.9077
 C100_6  C 1.0  0.9077  0.3837  0.8197
 C101  C 1.0  0.2415  0.1415  0.6325
 C101_2  C 1.0  0.6325  0.2415  0.1415
 C101_3  C 1.0  0.1415  0.6325  0.2415
 C101_4  C 1.0  0.7585  0.8585  0.3675
 C101_5  C 1.0  0.3675  0.7585  0.8585
 C101_6  C 1.0  0.8585  0.3675  0.7585
 C102  C 1.0  0.2663  0.1383  0.6283
 C102_2  C 1.0  0.6283  0.2663  0.1383
 C102_3  C 1.0  0.1383  0.6283  0.2663
 C102_4  C 1.0  0.7337  0.8617  0.3717
 C102_5  C 1.0  0.3717  0.7337  0.8617
 C102_6  C 1.0  0.8617  0.3717  0.7337
 C103  C 1.0  0.2909  0.1089  0.6349
 C103_2  C 1.0  0.6349  0.2909  0.1089
 C103_3  C 1.0  0.1089  0.6349  0.2909
 C103_4  C 1.0  0.7091  0.8911  0.3651
 C103_5  C 1.0  0.3651  0.7091  0.8911
 C103_6  C 1.0  0.8911  0.3651  0.7091
 C104  C 1.0  0.2504  0.0874  0.4134
 C104_2  C 1.0  0.4134  0.2504  0.0874
 C104_3  C 1.0  0.0874  0.4134  0.2504
 C104_4  C 1.0  0.7496  0.9126  0.5866
 C104_5  C 1.0  0.5866  0.7496  0.9126
 C104_6  C 1.0  0.9126  0.5866  0.7496
 C105  C 1.0  0.2263  0.1443  0.3863
 C105_2  C 1.0  0.3863  0.2263  0.1443
 C105_3  C 1.0  0.1443  0.3863  0.2263
 C105_4  C 1.0  0.7737  0.8557  0.6137
 C105_5  C 1.0  0.6137  0.7737  0.8557
 C105_6  C 1.0  0.8557  0.6137  0.7737
 C106  C 1.0  0.2263  0.1163  0.4143
 C106_2  C 1.0  0.4143  0.2263  0.1163
 C106_3  C 1.0  0.1163  0.4143  0.2263
 C106_4  C 1.0  0.7737  0.8837  0.5857
 C106_5  C 1.0  0.5857  0.7737  0.8837
 C106_6  C 1.0  0.8837  0.5857  0.7737
 C107  C 1.0  0.2508  0.2238  0.2778
 C107_2  C 1.0  0.2778  0.2508  0.2238
 C107_3  C 1.0  0.2238  0.2778  0.2508
 C107_4  C 1.0  0.7492  0.7762  0.7222
 C107_5  C 1.0  0.7222  0.7492  0.7762
 C107_6  C 1.0  0.7762  0.7222  0.7492
 C108  C 1.0  0.2788  0.2228  0.2508
 C108_2  C 1.0  0.2508  0.2788  0.2228
 C108_3  C 1.0  0.2228  0.2508  0.2788
 C108_4  C 1.0  0.7212  0.7772  0.7492
 C108_5  C 1.0  0.7492  0.7212  0.7772
 C108_6  C 1.0  0.7772  0.7492  0.7212
 C109  C 1.0  0.2506  0.1436  0.3576
 C109_2  C 1.0  0.3576  0.2506  0.1436
 C109_3  C 1.0  0.1436  0.3576  0.2506
 C109_4  C 1.0  0.7494  0.8564  0.6424
 C109_5  C 1.0  0.6424  0.7494  0.8564
 C109_6  C 1.0  0.8564  0.6424  0.7494
 C110  C 1.0  0.2757  0.0867  0.3837
 C110_2  C 1.0  0.3837  0.2757  0.0867
 C110_3  C 1.0  0.0867  0.3837  0.2757
 C110_4  C 1.0  0.7243  0.9133  0.6163
 C110_5  C 1.0  0.6163  0.7243  0.9133
 C110_6  C 1.0  0.9133  0.6163  0.7243
 C111  C 1.0  0.2758  0.1138  0.3568
 C111_2  C 1.0  0.3568  0.2758  0.1138
 C111_3  C 1.0  0.1138  0.3568  0.2758
 C111_4  C 1.0  0.7242  0.8862  0.6432
 C111_5  C 1.0  0.6432  0.7242  0.8862
 C111_6  C 1.0  0.8862  0.6432  0.7242
 C112  C 1.0  0.2507  0.1947  0.3067
 C112_2  C 1.0  0.3067  0.2507  0.1947
 C112_3  C 1.0  0.1947  0.3067  0.2507
 C112_4  C 1.0  0.7493  0.8053  0.6933
 C112_5  C 1.0  0.6933  0.7493  0.8053
 C112_6  C 1.0  0.8053  0.6933  0.7493
 C113  C 1.0  0.2507  0.1717  0.3297
 C113_2  C 1.0  0.3297  0.2507  0.1717
 C113_3  C 1.0  0.1717  0.3297  0.2507
 C113_4  C 1.0  0.7493  0.8283  0.6703
 C113_5  C 1.0  0.6703  0.7493  0.8283
 C113_6  C 1.0  0.8283  0.6703  0.7493
 C114  C 1.0  0.2503  0.0583  0.4423
 C114_2  C 1.0  0.4423  0.2503  0.0583
 C114_3  C 1.0  0.0583  0.4423  0.2503
 C114_4  C 1.0  0.7497  0.9417  0.5577
 C114_5  C 1.0  0.5577  0.7497  0.9417
 C114_6  C 1.0  0.9417  0.5577  0.7497
 C115  C 1.0  0.874  0.021  0.699
 C115_2  C 1.0  0.699  0.874  0.021
 C115_3  C 1.0  0.021  0.699  0.874
 C115_4  C 1.0  0.126  0.979  0.301
 C115_5  C 1.0  0.301  0.126  0.979
 C115_6  C 1.0  0.979  0.301  0.126
 C116  C 1.0  0.8969  0.9679  0.7319
 C116_2  C 1.0  0.7319  0.8969  0.9679
 C116_3  C 1.0  0.9679  0.7319  0.8969
 C116_4  C 1.0  0.1031  0.0321  0.2681
 C116_5  C 1.0  0.2681  0.1031  0.0321
 C116_6  C 1.0  0.0321  0.2681  0.1031
 C117  C 1.0  0.9001  0.9921  0.7021
 C117_2  C 1.0  0.7021  0.9001  0.9921
 C117_3  C 1.0  0.9921  0.7021  0.9001
 C117_4  C 1.0  0.0999  0.0079  0.2979
 C117_5  C 1.0  0.2979  0.0999  0.0079
 C117_6  C 1.0  0.0079  0.2979  0.0999
 C118  C 1.0  0.8674  0.8964  0.8404
 C118_2  C 1.0  0.8404  0.8674  0.8964
 C118_3  C 1.0  0.8964  0.8404  0.8674
 C118_4  C 1.0  0.1326  0.1036  0.1596
 C118_5  C 1.0  0.1596  0.1326  0.1036
 C118_6  C 1.0  0.1036  0.1596  0.1326
 C119  C 1.0  0.8404  0.8954  0.8684
 C119_2  C 1.0  0.8684  0.8404  0.8954
 C119_3  C 1.0  0.8954  0.8684  0.8404
 C119_4  C 1.0  0.1596  0.1046  0.1316
 C119_5  C 1.0  0.1316  0.1596  0.1046
 C119_6  C 1.0  0.1046  0.1316  0.1596
 C120  C 1.0  0.8457  0.0257  0.7247
 C120_2  C 1.0  0.7247  0.8457  0.0257
 C120_3  C 1.0  0.0257  0.7247  0.8457
 C120_4  C 1.0  0.1543  0.9743  0.2753
 C120_5  C 1.0  0.2753  0.1543  0.9743
 C120_6  C 1.0  0.9743  0.2753  0.1543
 C121  C 1.0  0.8686  0.9726  0.7576
 C121_2  C 1.0  0.7576  0.8686  0.9726
 C121_3  C 1.0  0.9726  0.7576  0.8686
 C121_4  C 1.0  0.1314  0.0274  0.2424
 C121_5  C 1.0  0.2424  0.1314  0.0274
 C121_6  C 1.0  0.0274  0.2424  0.1314
 C122  C 1.0  0.8425  0.0015  0.7545
 C122_2  C 1.0  0.7545  0.8425  0.0015
 C122_3  C 1.0  0.0015  0.7545  0.8425
 C122_4  C 1.0  0.1575  0.9985  0.2455
 C122_5  C 1.0  0.2455  0.1575  0.9985
 C122_6  C 1.0  0.9985  0.2455  0.1575
 C123  C 1.0  0.867  0.923  0.813
 C123_2  C 1.0  0.813  0.867  0.923
 C123_3  C 1.0  0.923  0.813  0.867
 C123_4  C 1.0  0.133  0.077  0.187
 C123_5  C 1.0  0.187  0.133  0.077
 C123_6  C 1.0  0.077  0.187  0.133
 C124  C 1.0  0.8674  0.9454  0.7884
 C124_2  C 1.0  0.7884  0.8674  0.9454
 C124_3  C 1.0  0.9454  0.7884  0.8674
 C124_4  C 1.0  0.1326  0.0546  0.2116
 C124_5  C 1.0  0.2116  0.1326  0.0546
 C124_6  C 1.0  0.0546  0.2116  0.1326
 C125  C 1.0  0.6597  0.6057  0.6337
 C125_2  C 1.0  0.6337  0.6597  0.6057
 C125_3  C 1.0  0.6057  0.6337  0.6597
 C125_4  C 1.0  0.3403  0.3943  0.3663
 C125_5  C 1.0  0.3663  0.3403  0.3943
 C125_6  C 1.0  0.3943  0.3663  0.3403
 C126  C 1.0  0.6607  0.6327  0.6057
 C126_2  C 1.0  0.6057  0.6607  0.6327
 C126_3  C 1.0  0.6327  0.6057  0.6607
 C126_4  C 1.0  0.3393  0.3673  0.3943
 C126_5  C 1.0  0.3943  0.3393  0.3673
 C126_6  C 1.0  0.3673  0.3943  0.3393
 C127  C 1.0  0.7418  0.5288  0.6318
 C127_2  C 1.0  0.6318  0.7418  0.5288
 C127_3  C 1.0  0.5288  0.6318  0.7418
 C127_4  C 1.0  0.2582  0.4712  0.3682
 C127_5  C 1.0  0.3682  0.2582  0.4712
 C127_6  C 1.0  0.4712  0.3682  0.2582
 C128  C 1.0  0.7682  0.5322  0.6032
 C128_2  C 1.0  0.6032  0.7682  0.5322
 C128_3  C 1.0  0.5322  0.6032  0.7682
 C128_4  C 1.0  0.2318  0.4678  0.3968
 C128_5  C 1.0  0.3968  0.2318  0.4678
 C128_6  C 1.0  0.4678  0.3968  0.2318
 C129  C 1.0  0.7978  0.5068  0.6008
 C129_2  C 1.0  0.6008  0.7978  0.5068
 C129_3  C 1.0  0.5068  0.6008  0.7978
 C129_4  C 1.0  0.2022  0.4932  0.3992
 C129_5  C 1.0  0.3992  0.2022  0.4932
 C129_6  C 1.0  0.4932  0.3992  0.2022
 C130  C 1.0  0.802  0.477  0.627
 C130_2  C 1.0  0.627  0.802  0.477
 C130_3  C 1.0  0.477  0.627  0.802
 C130_4  C 1.0  0.198  0.523  0.373
 C130_5  C 1.0  0.373  0.198  0.523
 C130_6  C 1.0  0.523  0.373  0.198
 C131  C 1.0  0.7756  0.4736  0.6556
 C131_2  C 1.0  0.6556  0.7756  0.4736
 C131_3  C 1.0  0.4736  0.6556  0.7756
 C131_4  C 1.0  0.2244  0.5264  0.3444
 C131_5  C 1.0  0.3444  0.2244  0.5264
 C131_6  C 1.0  0.5264  0.3444  0.2244
 C132  C 1.0  0.746  0.499  0.658
 C132_2  C 1.0  0.658  0.746  0.499
 C132_3  C 1.0  0.499  0.658  0.746
 C132_4  C 1.0  0.254  0.501  0.342
 C132_5  C 1.0  0.342  0.254  0.501
 C132_6  C 1.0  0.501  0.342  0.254
 C133  C 1.0  0.6879  0.5769  0.6349
 C133_2  C 1.0  0.6349  0.6879  0.5769
 C133_3  C 1.0  0.5769  0.6349  0.6879
 C133_4  C 1.0  0.3121  0.4231  0.3651
 C133_5  C 1.0  0.3651  0.3121  0.4231
 C133_6  C 1.0  0.4231  0.3651  0.3121
 C134  C 1.0  0.7123  0.5543  0.6343
 C134_2  C 1.0  0.6343  0.7123  0.5543
 C134_3  C 1.0  0.5543  0.6343  0.7123
 C134_4  C 1.0  0.2877  0.4457  0.3657
 C134_5  C 1.0  0.3657  0.2877  0.4457
 C134_6  C 1.0  0.4457  0.3657  0.2877
 C135  C 1.0  0.0372  0.0362  0.5812
 C135_2  C 1.0  0.5812  0.0372  0.0362
 C135_3  C 1.0  0.0362  0.5812  0.0372
 C135_4  C 1.0  0.9628  0.9638  0.4188
 C135_5  C 1.0  0.4188  0.9628  0.9638
 C135_6  C 1.0  0.9638  0.4188  0.9628
 C136  C 1.0  0.0076  0.0466  0.5866
 C136_2  C 1.0  0.5866  0.0076  0.0466
 C136_3  C 1.0  0.0466  0.5866  0.0076
 C136_4  C 1.0  0.9924  0.9534  0.4134
 C136_5  C 1.0  0.4134  0.9924  0.9534
 C136_6  C 1.0  0.9534  0.4134  0.9924
 C137  C 1.0  0.9884  0.0784  0.5734
 C137_2  C 1.0  0.5734  0.9884  0.0784
 C137_3  C 1.0  0.0784  0.5734  0.9884
 C137_4  C 1.0  0.0116  0.9216  0.4266
 C137_5  C 1.0  0.4266  0.0116  0.9216
 C137_6  C 1.0  0.9216  0.4266  0.0116
 C138  C 1.0  0.9998  0.0998  0.5538
 C138_2  C 1.0  0.5538  0.9998  0.0998
 C138_3  C 1.0  0.0998  0.5538  0.9998
 C138_4  C 1.0  0.0002  0.9002  0.4462
 C138_5  C 1.0  0.4462  0.0002  0.9002
 C138_6  C 1.0  0.9002  0.4462  0.0002
 C139  C 1.0  0.0294  0.0904  0.5474
 C139_2  C 1.0  0.5474  0.0294  0.0904
 C139_3  C 1.0  0.0904  0.5474  0.0294
 C139_4  C 1.0  0.9706  0.9096  0.4526
 C139_5  C 1.0  0.4526  0.9706  0.9096
 C139_6  C 1.0  0.9096  0.4526  0.9706
 C140  C 1.0  0.0486  0.0586  0.5606
 C140_2  C 1.0  0.5606  0.0486  0.0586
 C140_3  C 1.0  0.0586  0.5606  0.0486
 C140_4  C 1.0  0.9514  0.9414  0.4394
 C140_5  C 1.0  0.4394  0.9514  0.9414
 C140_6  C 1.0  0.9414  0.4394  0.9514
 C141  C 1.0  0.1053  0.0183  0.5523
 C141_2  C 1.0  0.5523  0.1053  0.0183
 C141_3  C 1.0  0.0183  0.5523  0.1053
 C141_4  C 1.0  0.8947  0.9817  0.4477
 C141_5  C 1.0  0.4477  0.8947  0.9817
 C141_6  C 1.0  0.9817  0.4477  0.8947
 C142  C 1.0  0.0812  0.0482  0.5522
 C142_2  C 1.0  0.5522  0.0812  0.0482
 C142_3  C 1.0  0.0482  0.5522  0.0812
 C142_4  C 1.0  0.9188  0.9518  0.4478
 C142_5  C 1.0  0.4478  0.9188  0.9518
 C142_6  C 1.0  0.9518  0.4478  0.9188
 C143  C 1.0  0.0877  0.0677  0.5457
 C143_2  C 1.0  0.5457  0.0877  0.0677
 C143_3  C 1.0  0.0677  0.5457  0.0877
 C143_4  C 1.0  0.9123  0.9323  0.4543
 C143_5  C 1.0  0.4543  0.9123  0.9323
 C143_6  C 1.0  0.9323  0.4543  0.9123
 C144  C 1.0  0.118  0.057  0.539
 C144_2  C 1.0  0.539  0.118  0.057
 C144_3  C 1.0  0.057  0.539  0.118
 C144_4  C 1.0  0.882  0.943  0.461
 C144_5  C 1.0  0.461  0.882  0.943
 C144_6  C 1.0  0.943  0.461  0.882
 C145  C 1.0  0.142  0.028  0.538
 C145_2  C 1.0  0.538  0.142  0.028
 C145_3  C 1.0  0.028  0.538  0.142
 C145_4  C 1.0  0.858  0.972  0.462
 C145_5  C 1.0  0.462  0.858  0.972
 C145_6  C 1.0  0.972  0.462  0.858
 C146  C 1.0  0.1346  0.0086  0.5456
 C146_2  C 1.0  0.5456  0.1346  0.0086
 C146_3  C 1.0  0.0086  0.5456  0.1346
 C146_4  C 1.0  0.8654  0.9914  0.4544
 C146_5  C 1.0  0.4544  0.8654  0.9914
 C146_6  C 1.0  0.9914  0.4544  0.8654
 C147  C 1.0  0.4924  0.3664  0.9524
 C147_2  C 1.0  0.9524  0.4924  0.3664
 C147_3  C 1.0  0.3664  0.9524  0.4924
 C147_4  C 1.0  0.5076  0.6336  0.0476
 C147_5  C 1.0  0.0476  0.5076  0.6336
 C147_6  C 1.0  0.6336  0.0476  0.5076
 C148  C 1.0  0.4731  0.3591  0.9601
 C148_2  C 1.0  0.9601  0.4731  0.3591
 C148_3  C 1.0  0.3591  0.9601  0.4731
 C148_4  C 1.0  0.5269  0.6409  0.0399
 C148_5  C 1.0  0.0399  0.5269  0.6409
 C148_6  C 1.0  0.6409  0.0399  0.5269
 C149  C 1.0  0.4441  0.3821  0.9601
 C149_2  C 1.0  0.9601  0.4441  0.3821
 C149_3  C 1.0  0.3821  0.9601  0.4441
 C149_4  C 1.0  0.5559  0.6179  0.0399
 C149_5  C 1.0  0.0399  0.5559  0.6179
 C149_6  C 1.0  0.6179  0.0399  0.5559
 C150  C 1.0  0.4333  0.4133  0.9523
 C150_2  C 1.0  0.9523  0.4333  0.4133
 C150_3  C 1.0  0.4133  0.9523  0.4333
 C150_4  C 1.0  0.5667  0.5867  0.0477
 C150_5  C 1.0  0.0477  0.5667  0.5867
 C150_6  C 1.0  0.5867  0.0477  0.5667
 C151  C 1.0  0.4527  0.4197  0.9457
 C151_2  C 1.0  0.9457  0.4527  0.4197
 C151_3  C 1.0  0.4197  0.9457  0.4527
 C151_4  C 1.0  0.5473  0.5803  0.0543
 C151_5  C 1.0  0.0543  0.5473  0.5803
 C151_6  C 1.0  0.5803  0.0543  0.5473
 C152  C 1.0  0.4626  0.4656  0.9166
 C152_2  C 1.0  0.9166  0.4626  0.4656
 C152_3  C 1.0  0.4656  0.9166  0.4626
 C152_4  C 1.0  0.5374  0.5344  0.0834
 C152_5  C 1.0  0.0834  0.5374  0.5344
 C152_6  C 1.0  0.5344  0.0834  0.5374
 C153  C 1.0  0.4413  0.4523  0.9383
 C153_2  C 1.0  0.9383  0.4413  0.4523
 C153_3  C 1.0  0.4523  0.9383  0.4413
 C153_4  C 1.0  0.5587  0.5477  0.0617
 C153_5  C 1.0  0.0617  0.5587  0.5477
 C153_6  C 1.0  0.5477  0.0617  0.5587
 C154  C 1.0  0.4096  0.4716  0.9516
 C154_2  C 1.0  0.9516  0.4096  0.4716
 C154_3  C 1.0  0.4716  0.9516  0.4096
 C154_4  C 1.0  0.5904  0.5284  0.0484
 C154_5  C 1.0  0.0484  0.5904  0.5284
 C154_6  C 1.0  0.5284  0.0484  0.5904
 C155  C 1.0  0.4001  0.5011  0.9451
 C155_2  C 1.0  0.9451  0.4001  0.5011
 C155_3  C 1.0  0.5011  0.9451  0.4001
 C155_4  C 1.0  0.5999  0.4989  0.0549
 C155_5  C 1.0  0.0549  0.5999  0.4989
 C155_6  C 1.0  0.4989  0.0549  0.5999
 C156  C 1.0  0.4215  0.5125  0.9255
 C156_2  C 1.0  0.9255  0.4215  0.5125
 C156_3  C 1.0  0.5125  0.9255  0.4215
 C156_4  C 1.0  0.5785  0.4875  0.0745
 C156_5  C 1.0  0.0745  0.5785  0.4875
 C156_6  C 1.0  0.4875  0.0745  0.5785
 C157  C 1.0  0.4532  0.4942  0.9112
 C157_2  C 1.0  0.9112  0.4532  0.4942
 C157_3  C 1.0  0.4942  0.9112  0.4532
 C157_4  C 1.0  0.5468  0.5058  0.0888
 C157_5  C 1.0  0.0888  0.5468  0.5058
 C157_6  C 1.0  0.5058  0.0888  0.5468
 C158  C 1.0  0.4126  0.5426  0.9196
 C158_2  C 1.0  0.9196  0.4126  0.5426
 C158_3  C 1.0  0.5426  0.9196  0.4126
 C158_4  C 1.0  0.5874  0.4574  0.0804
 C158_5  C 1.0  0.0804  0.5874  0.4574
 C158_6  C 1.0  0.4574  0.0804  0.5874
 C159  C 1.0  0.4847  0.3267  0.9677
 C159_2  C 1.0  0.9677  0.4847  0.3267
 C159_3  C 1.0  0.3267  0.9677  0.4847
 C159_4  C 1.0  0.5153  0.6733  0.0323
 C159_5  C 1.0  0.0323  0.5153  0.6733
 C159_6  C 1.0  0.6733  0.0323  0.5153
 C160  C 1.0  0.9938  0.9978  0.5328
 C160_2  C 1.0  0.5328  0.9938  0.9978
 C160_3  C 1.0  0.9978  0.5328  0.9938
 C160_4  C 1.0  0.0062  0.0022  0.4672
 C160_5  C 1.0  0.4672  0.0062  0.0022
 C160_6  C 1.0  0.0022  0.4672  0.0062
 C161  C 1.0  0.9744  0.0134  0.5504
 C161_2  C 1.0  0.5504  0.9744  0.0134
 C161_3  C 1.0  0.0134  0.5504  0.9744
 C161_4  C 1.0  0.0256  0.9866  0.4496
 C161_5  C 1.0  0.4496  0.0256  0.9866
 C161_6  C 1.0  0.9866  0.4496  0.0256
 C162  C 1.0  0.9484  0.0414  0.5454
 C162_2  C 1.0  0.5454  0.9484  0.0414
 C162_3  C 1.0  0.0414  0.5454  0.9484
 C162_4  C 1.0  0.0516  0.9586  0.4546
 C162_5  C 1.0  0.4546  0.0516  0.9586
 C162_6  C 1.0  0.9586  0.4546  0.0516
 C163  C 1.0  0.9427  0.0527  0.5227
 C163_2  C 1.0  0.5227  0.9427  0.0527
 C163_3  C 1.0  0.0527  0.5227  0.9427
 C163_4  C 1.0  0.0573  0.9473  0.4773
 C163_5  C 1.0  0.4773  0.0573  0.9473
 C163_6  C 1.0  0.9473  0.4773  0.0573
 C164  C 1.0  0.9621  0.0371  0.5051
 C164_2  C 1.0  0.5051  0.9621  0.0371
 C164_3  C 1.0  0.0371  0.5051  0.9621
 C164_4  C 1.0  0.0379  0.9629  0.4949
 C164_5  C 1.0  0.4949  0.0379  0.9629
 C164_6  C 1.0  0.9629  0.4949  0.0379
 C165  C 1.0  0.9891  0.0081  0.5101
 C165_2  C 1.0  0.5101  0.9891  0.0081
 C165_3  C 1.0  0.0081  0.5101  0.9891
 C165_4  C 1.0  0.0109  0.9919  0.4899
 C165_5  C 1.0  0.4899  0.0109  0.9919
 C165_6  C 1.0  0.9919  0.4899  0.0109
 C166  C 1.0  0.4618  0.0058  0.5368
 C166_2  C 1.0  0.5368  0.4618  0.0058
 C166_3  C 1.0  0.0058  0.5368  0.4618
 C166_4  C 1.0  0.5382  0.9942  0.4632
 C166_5  C 1.0  0.4632  0.5382  0.9942
 C166_6  C 1.0  0.9942  0.4632  0.5382
 C167  C 1.0  0.4424  0.0234  0.5524
 C167_2  C 1.0  0.5524  0.4424  0.0234
 C167_3  C 1.0  0.0234  0.5524  0.4424
 C167_4  C 1.0  0.5576  0.9766  0.4476
 C167_5  C 1.0  0.4476  0.5576  0.9766
 C167_6  C 1.0  0.9766  0.4476  0.5576
 C168  C 1.0  0.4482  0.0452  0.5422
 C168_2  C 1.0  0.5422  0.4482  0.0452
 C168_3  C 1.0  0.0452  0.5422  0.4482
 C168_4  C 1.0  0.5518  0.9548  0.4578
 C168_5  C 1.0  0.4578  0.5518  0.9548
 C168_6  C 1.0  0.9548  0.4578  0.5518
 C169  C 1.0  0.4742  0.0512  0.5132
 C169_2  C 1.0  0.5132  0.4742  0.0512
 C169_3  C 1.0  0.0512  0.5132  0.4742
 C169_4  C 1.0  0.5258  0.9488  0.4868
 C169_5  C 1.0  0.4868  0.5258  0.9488
 C169_6  C 1.0  0.9488  0.4868  0.5258
 C170  C 1.0  0.4945  0.0325  0.4975
 C170_2  C 1.0  0.4975  0.4945  0.0325
 C170_3  C 1.0  0.0325  0.4975  0.4945
 C170_4  C 1.0  0.5055  0.9675  0.5025
 C170_5  C 1.0  0.5025  0.5055  0.9675
 C170_6  C 1.0  0.9675  0.5025  0.5055
 C171  C 1.0  0.4888  0.0098  0.5088
 C171_2  C 1.0  0.5088  0.4888  0.0098
 C171_3  C 1.0  0.0098  0.5088  0.4888
 C171_4  C 1.0  0.5112  0.9902  0.4912
 C171_5  C 1.0  0.4912  0.5112  0.9902
 C171_6  C 1.0  0.9902  0.4912  0.5112
 C172  C 1.0  0.4293  0.0613  0.5603
 C172_2  C 1.0  0.5603  0.4293  0.0613
 C172_3  C 1.0  0.0613  0.5603  0.4293
 C172_4  C 1.0  0.5707  0.9387  0.4397
 C172_5  C 1.0  0.4397  0.5707  0.9387
 C172_6  C 1.0  0.9387  0.4397  0.5707
 C173  C 1.0  0.7241  0.0451  0.5251
 C173_2  C 1.0  0.5251  0.7241  0.0451
 C173_3  C 1.0  0.0451  0.5251  0.7241
 C173_4  C 1.0  0.2759  0.9549  0.4749
 C173_5  C 1.0  0.4749  0.2759  0.9549
 C173_6  C 1.0  0.9549  0.4749  0.2759
 C174  C 1.0  0.4817  0.3967  0.9457
 C174_2  C 1.0  0.9457  0.4817  0.3967
 C174_3  C 1.0  0.3967  0.9457  0.4817
 C174_4  C 1.0  0.5183  0.6033  0.0543
 C174_5  C 1.0  0.0543  0.5183  0.6033
 C174_6  C 1.0  0.6033  0.0543  0.5183
 H10A  H 1.0  0.2247  0.1623  0.6273
 H10A_2  H 1.0  0.6273  0.2247  0.1623
 H10A_3  H 1.0  0.1623  0.6273  0.2247
 H10A_4  H 1.0  0.7753  0.8377  0.3727
 H10A_5  H 1.0  0.3727  0.7753  0.8377
 H10A_6  H 1.0  0.8377  0.3727  0.7753
 H10B  H 1.0  0.2663  0.1567  0.6204
 H10B_2  H 1.0  0.6204  0.2663  0.1567
 H10B_3  H 1.0  0.1567  0.6204  0.2663
 H10B_4  H 1.0  0.7337  0.8433  0.3796
 H10B_5  H 1.0  0.3796  0.7337  0.8433
 H10B_6  H 1.0  0.8433  0.3796  0.7337
 H10C  H 1.0  0.2096  0.1633  0.3876
 H10C_2  H 1.0  0.3876  0.2096  0.1633
 H10C_3  H 1.0  0.1633  0.3876  0.2096
 H10C_4  H 1.0  0.7904  0.8367  0.6124
 H10C_5  H 1.0  0.6124  0.7904  0.8367
 H10C_6  H 1.0  0.8367  0.6124  0.7904
 H10D  H 1.0  0.2094  0.1171  0.4337
 H10D_2  H 1.0  0.4337  0.2094  0.1171
 H10D_3  H 1.0  0.1171  0.4337  0.2094
 H10D_4  H 1.0  0.7906  0.8829  0.5663
 H10D_5  H 1.0  0.5663  0.7906  0.8829
 H10D_6  H 1.0  0.8829  0.5663  0.7906
 H10E  H 1.0  0.2972  0.2047  0.2505
 H10E_2  H 1.0  0.2505  0.2972  0.2047
 H10E_3  H 1.0  0.2047  0.2505  0.2972
 H10E_4  H 1.0  0.7028  0.7953  0.7495
 H10E_5  H 1.0  0.7495  0.7028  0.7953
 H10E_6  H 1.0  0.7953  0.7495  0.7028
 H11A  H 1.0  0.2925  0.0669  0.3831
 H11A_2  H 1.0  0.3831  0.2925  0.0669
 H11A_3  H 1.0  0.0669  0.3831  0.2925
 H11A_4  H 1.0  0.7075  0.9331  0.6169
 H11A_5  H 1.0  0.6169  0.7075  0.9331
 H11A_6  H 1.0  0.9331  0.6169  0.7075
 H11B  H 1.0  0.2926  0.1134  0.3371
 H11B_2  H 1.0  0.3371  0.2926  0.1134
 H11B_3  H 1.0  0.1134  0.3371  0.2926
 H11B_4  H 1.0  0.7074  0.8866  0.6629
 H11B_5  H 1.0  0.6629  0.7074  0.8866
 H11B_6  H 1.0  0.8866  0.6629  0.7074
 H11C  H 1.0  0.9147  0.9479  0.7344
 H11C_2  H 1.0  0.7344  0.9147  0.9479
 H11C_3  H 1.0  0.9479  0.7344  0.9147
 H11C_4  H 1.0  0.0853  0.0521  0.2656
 H11C_5  H 1.0  0.2656  0.0853  0.0521
 H11C_6  H 1.0  0.0521  0.2656  0.0853
 H11D  H 1.0  0.9189  0.9892  0.6847
 H11D_2  H 1.0  0.6847  0.9189  0.9892
 H11D_3  H 1.0  0.9892  0.6847  0.9189
 H11D_4  H 1.0  0.0811  0.0108  0.3153
 H11D_5  H 1.0  0.3153  0.0811  0.0108
 H11D_6  H 1.0  0.0108  0.3153  0.0811
 H11E  H 1.0  0.8213  0.9139  0.869
 H11E_2  H 1.0  0.869  0.8213  0.9139
 H11E_3  H 1.0  0.9139  0.869  0.8213
 H11E_4  H 1.0  0.1787  0.0861  0.131
 H11E_5  H 1.0  0.131  0.1787  0.0861
 H11E_6  H 1.0  0.0861  0.131  0.1787
 H12A  H 1.0  0.7255  0.1243  0.6638
 H12A_2  H 1.0  0.6638  0.7255  0.1243
 H12A_3  H 1.0  0.1243  0.6638  0.7255
 H12A_4  H 1.0  0.2745  0.8757  0.3362
 H12A_5  H 1.0  0.3362  0.2745  0.8757
 H12A_6  H 1.0  0.8757  0.3362  0.2745
 H12B  H 1.0  0.8278  0.0451  0.7229
 H12B_2  H 1.0  0.7229  0.8278  0.0451
 H12B_3  H 1.0  0.0451  0.7229  0.8278
 H12B_4  H 1.0  0.1722  0.9549  0.2771
 H12B_5  H 1.0  0.2771  0.1722  0.9549
 H12B_6  H 1.0  0.9549  0.2771  0.1722
 H12C  H 1.0  0.8236  0.0035  0.7726
 H12C_2  H 1.0  0.7726  0.8236  0.0035
 H12C_3  H 1.0  0.0035  0.7726  0.8236
 H12C_4  H 1.0  0.1764  0.9965  0.2274
 H12C_5  H 1.0  0.2274  0.1764  0.9965
 H12C_6  H 1.0  0.9965  0.2274  0.1764
 H12D  H 1.0  0.6799  0.6315  0.5874
 H12D_2  H 1.0  0.5874  0.6799  0.6315
 H12D_3  H 1.0  0.6315  0.5874  0.6799
 H12D_4  H 1.0  0.3201  0.3685  0.4126
 H12D_5  H 1.0  0.4126  0.3201  0.3685
 H12D_6  H 1.0  0.3685  0.4126  0.3201
 H12E  H 1.0  0.7659  0.5513  0.5861
 H12E_2  H 1.0  0.5861  0.7659  0.5513
 H12E_3  H 1.0  0.5513  0.5861  0.7659
 H12E_4  H 1.0  0.2341  0.4487  0.4139
 H12E_5  H 1.0  0.4139  0.2341  0.4487
 H12E_6  H 1.0  0.4487  0.4139  0.2341
 H12F  H 1.0  0.8153  0.5096  0.5814
 H12F_2  H 1.0  0.5814  0.8153  0.5096
 H12F_3  H 1.0  0.5096  0.5814  0.8153
 H12F_4  H 1.0  0.1847  0.4904  0.4186
 H12F_5  H 1.0  0.4186  0.1847  0.4904
 H12F_6  H 1.0  0.4904  0.4186  0.1847
 H13A  H 1.0  0.7666  0.1182  0.6585
 H13A_2  H 1.0  0.6585  0.7666  0.1182
 H13A_3  H 1.0  0.1182  0.6585  0.7666
 H13A_4  H 1.0  0.2334  0.8818  0.3415
 H13A_5  H 1.0  0.3415  0.2334  0.8818
 H13A_6  H 1.0  0.8818  0.3415  0.2334
 H13B  H 1.0  0.7776  0.4543  0.6732
 H13B_2  H 1.0  0.6732  0.7776  0.4543
 H13B_3  H 1.0  0.4543  0.6732  0.7776
 H13B_4  H 1.0  0.2224  0.5457  0.3268
 H13B_5  H 1.0  0.3268  0.2224  0.5457
 H13B_6  H 1.0  0.5457  0.3268  0.2224
 H13C  H 1.0  0.7279  0.4965  0.6777
 H13C_2  H 1.0  0.6777  0.7279  0.4965
 H13C_3  H 1.0  0.4965  0.6777  0.7279
 H13C_4  H 1.0  0.2721  0.5035  0.3223
 H13C_5  H 1.0  0.3223  0.2721  0.5035
 H13C_6  H 1.0  0.5035  0.3223  0.2721
 H13D  H 1.0  0.0489  0.0156  0.5904
 H13D_2  H 1.0  0.5904  0.0489  0.0156
 H13D_3  H 1.0  0.0156  0.5904  0.0489
 H13D_4  H 1.0  0.9511  0.9844  0.4096
 H13D_5  H 1.0  0.4096  0.9511  0.9844
 H13D_6  H 1.0  0.9844  0.4096  0.9511
 H13E  H 1.0  0.0001  0.0312  0.6008
 H13E_2  H 1.0  0.6008  0.0001  0.0312
 H13E_3  H 1.0  0.0312  0.6008  0.0001
 H13E_4  H 1.0  0.9999  0.9688  0.3992
 H13E_5  H 1.0  0.3992  0.9999  0.9688
 H13E_6  H 1.0  0.9688  0.3992  0.9999
 H13F  H 1.0  0.9874  0.1215  0.5445
 H13F_2  H 1.0  0.5445  0.9874  0.1215
 H13F_3  H 1.0  0.1215  0.5445  0.9874
 H13F_4  H 1.0  0.0126  0.8785  0.4555
 H13F_5  H 1.0  0.4555  0.0126  0.8785
 H13F_6  H 1.0  0.8785  0.4555  0.0126
 H13G  H 1.0  0.0367  0.1059  0.5333
 H13G_2  H 1.0  0.5333  0.0367  0.1059
 H13G_3  H 1.0  0.1059  0.5333  0.0367
 H13G_4  H 1.0  0.9633  0.8941  0.4667
 H13G_5  H 1.0  0.4667  0.9633  0.8941
 H13G_6  H 1.0  0.8941  0.4667  0.9633
 H14A  H 1.0  0.101  0.0057  0.5563
 H14A_2  H 1.0  0.5563  0.101  0.0057
 H14A_3  H 1.0  0.0057  0.5563  0.101
 H14A_4  H 1.0  0.899  0.9943  0.4437
 H14A_5  H 1.0  0.4437  0.899  0.9943
 H14A_6  H 1.0  0.9943  0.4437  0.899
 H14B  H 1.0  0.0723  0.0873  0.5457
 H14B_2  H 1.0  0.5457  0.0723  0.0873
 H14B_3  H 1.0  0.0873  0.5457  0.0723
 H14B_4  H 1.0  0.9277  0.9127  0.4543
 H14B_5  H 1.0  0.4543  0.9277  0.9127
 H14B_6  H 1.0  0.9127  0.4543  0.9277
 H14C  H 1.0  0.1224  0.0706  0.5339
 H14C_2  H 1.0  0.5339  0.1224  0.0706
 H14C_3  H 1.0  0.0706  0.5339  0.1224
 H14C_4  H 1.0  0.8776  0.9294  0.4661
 H14C_5  H 1.0  0.4661  0.8776  0.9294
 H14C_6  H 1.0  0.9294  0.4661  0.8776
 H14D  H 1.0  0.1506  0.9888  0.5452
 H14D_2  H 1.0  0.5452  0.1506  0.9888
 H14D_3  H 1.0  0.9888  0.5452  0.1506
 H14D_4  H 1.0  0.8494  0.0112  0.4548
 H14D_5  H 1.0  0.4548  0.8494  0.0112
 H14D_6  H 1.0  0.0112  0.4548  0.8494
 H14E  H 1.0  0.5125  0.3512  0.952
 H14E_2  H 1.0  0.952  0.5125  0.3512
 H14E_3  H 1.0  0.3512  0.952  0.5125
 H14E_4  H 1.0  0.4875  0.6488  0.048
 H14E_5  H 1.0  0.048  0.4875  0.6488
 H14E_6  H 1.0  0.6488  0.048  0.4875
 H14F  H 1.0  0.4305  0.3781  0.9648
 H14F_2  H 1.0  0.9648  0.4305  0.3781
 H14F_3  H 1.0  0.3781  0.9648  0.4305
 H14F_4  H 1.0  0.5695  0.6219  0.0352
 H14F_5  H 1.0  0.0352  0.5695  0.6219
 H14F_6  H 1.0  0.6219  0.0352  0.5695
 H15A  H 1.0  0.7083  0.1312  0.5877
 H15A_2  H 1.0  0.5877  0.7083  0.1312
 H15A_3  H 1.0  0.1312  0.5877  0.7083
 H15A_4  H 1.0  0.2917  0.8688  0.4123
 H15A_5  H 1.0  0.4123  0.2917  0.8688
 H15A_6  H 1.0  0.8688  0.4123  0.2917
 H15B  H 1.0  0.4134  0.4283  0.9527
 H15B_2  H 1.0  0.9527  0.4134  0.4283
 H15B_3  H 1.0  0.4283  0.9527  0.4134
 H15B_4  H 1.0  0.5866  0.5717  0.0473
 H15B_5  H 1.0  0.0473  0.5866  0.5717
 H15B_6  H 1.0  0.5717  0.0473  0.5866
 H15C  H 1.0  0.4844  0.4533  0.9068
 H15C_2  H 1.0  0.9068  0.4844  0.4533
 H15C_3  H 1.0  0.4533  0.9068  0.4844
 H15C_4  H 1.0  0.5156  0.5467  0.0932
 H15C_5  H 1.0  0.0932  0.5156  0.5467
 H15C_6  H 1.0  0.5467  0.0932  0.5156
 H15D  H 1.0  0.3947  0.4636  0.9658
 H15D_2  H 1.0  0.9658  0.3947  0.4636
 H15D_3  H 1.0  0.4636  0.9658  0.3947
 H15D_4  H 1.0  0.6053  0.5364  0.0342
 H15D_5  H 1.0  0.0342  0.6053  0.5364
 H15D_6  H 1.0  0.5364  0.0342  0.6053
 H15E  H 1.0  0.3785  0.5129  0.9549
 H15E_2  H 1.0  0.9549  0.3785  0.5129
 H15E_3  H 1.0  0.5129  0.9549  0.3785
 H15E_4  H 1.0  0.6215  0.4871  0.0451
 H15E_5  H 1.0  0.0451  0.6215  0.4871
 H15E_6  H 1.0  0.4871  0.0451  0.6215
 H15F  H 1.0  0.4683  0.502  0.8967
 H15F_2  H 1.0  0.8967  0.4683  0.502
 H15F_3  H 1.0  0.502  0.8967  0.4683
 H15F_4  H 1.0  0.5317  0.498  0.1033
 H15F_5  H 1.0  0.1033  0.5317  0.498
 H15F_6  H 1.0  0.498  0.1033  0.5317
 H16A  H 1.0  0.0114  0.978  0.5371
 H16A_2  H 1.0  0.5371  0.0114  0.978
 H16A_3  H 1.0  0.978  0.5371  0.0114
 H16A_4  H 1.0  0.9886  0.022  0.4629
 H16A_5  H 1.0  0.4629  0.9886  0.022
 H16A_6  H 1.0  0.022  0.4629  0.9886
 H16B  H 1.0  0.9779  0.0053  0.5661
 H16B_2  H 1.0  0.5661  0.9779  0.0053
 H16B_3  H 1.0  0.0053  0.5661  0.9779
 H16B_4  H 1.0  0.0221  0.9947  0.4339
 H16B_5  H 1.0  0.4339  0.0221  0.9947
 H16B_6  H 1.0  0.9947  0.4339  0.0221
 H16C  H 1.0  0.9244  0.0719  0.5194
 H16C_2  H 1.0  0.5194  0.9244  0.0719
 H16C_3  H 1.0  0.0719  0.5194  0.9244
 H16C_4  H 1.0  0.0756  0.9281  0.4806
 H16C_5  H 1.0  0.4806  0.0756  0.9281
 H16C_6  H 1.0  0.9281  0.4806  0.0756
 H16D  H 1.0  0.9576  0.0448  0.4905
 H16D_2  H 1.0  0.4905  0.9576  0.0448
 H16D_3  H 1.0  0.0448  0.4905  0.9576
 H16D_4  H 1.0  0.0424  0.9552  0.5095
 H16D_5  H 1.0  0.5095  0.0424  0.9552
 H16D_6  H 1.0  0.9552  0.5095  0.0424
 H16E  H 1.0  0.4571  0.9912  0.5444
 H16E_2  H 1.0  0.5444  0.4571  0.9912
 H16E_3  H 1.0  0.9912  0.5444  0.4571
 H16E_4  H 1.0  0.5429  0.0088  0.4556
 H16E_5  H 1.0  0.4556  0.5429  0.0088
 H16E_6  H 1.0  0.0088  0.4556  0.5429
 H16F  H 1.0  0.4243  0.02  0.5715
 H16F_2  H 1.0  0.5715  0.4243  0.02
 H16F_3  H 1.0  0.02  0.5715  0.4243
 H16F_4  H 1.0  0.5757  0.98  0.4285
 H16F_5  H 1.0  0.4285  0.5757  0.98
 H16F_6  H 1.0  0.98  0.4285  0.5757
 H16G  H 1.0  0.4789  0.0655  0.5056
 H16G_2  H 1.0  0.5056  0.4789  0.0655
 H16G_3  H 1.0  0.0655  0.5056  0.4789
 H16G_4  H 1.0  0.5211  0.9345  0.4944
 H16G_5  H 1.0  0.4944  0.5211  0.9345
 H16G_6  H 1.0  0.9345  0.4944  0.5211
 H17A  H 1.0  0.6299  0.1191  0.644
 H17A_2  H 1.0  0.644  0.6299  0.1191
 H17A_3  H 1.0  0.1191  0.644  0.6299
 H17A_4  H 1.0  0.3701  0.8809  0.356
 H17A_5  H 1.0  0.356  0.3701  0.8809
 H17A_6  H 1.0  0.8809  0.356  0.3701
 H17B  H 1.0  0.5121  0.0366  0.4782
 H17B_2  H 1.0  0.4782  0.5121  0.0366
 H17B_3  H 1.0  0.0366  0.4782  0.5121
 H17B_4  H 1.0  0.4879  0.9634  0.5218
 H17B_5  H 1.0  0.5218  0.4879  0.9634
 H17B_6  H 1.0  0.9634  0.5218  0.4879
 H17C  H 1.0  0.4951  0.401  0.9409
 H17C_2  H 1.0  0.9409  0.4951  0.401
 H17C_3  H 1.0  0.401  0.9409  0.4951
 H17C_4  H 1.0  0.5049  0.599  0.0591
 H17C_5  H 1.0  0.0591  0.5049  0.599
 H17C_6  H 1.0  0.599  0.0591  0.5049
 H19A  H 1.0  0.6458  0.1416  0.6683
 H19A_2  H 1.0  0.6683  0.6458  0.1416
 H19A_3  H 1.0  0.1416  0.6683  0.6458
 H19A_4  H 1.0  0.3542  0.8584  0.3317
 H19A_5  H 1.0  0.3317  0.3542  0.8584
 H19A_6  H 1.0  0.8584  0.3317  0.3542
 H21A  H 1.0  0.5632  0.1258  0.7622
 H21A_2  H 1.0  0.7622  0.5632  0.1258
 H21A_3  H 1.0  0.1258  0.7622  0.5632
 H21A_4  H 1.0  0.4368  0.8742  0.2378
 H21A_5  H 1.0  0.2378  0.4368  0.8742
 H21A_6  H 1.0  0.8742  0.2378  0.4368
 H22A  H 1.0  0.5194  0.1192  0.8099
 H22A_2  H 1.0  0.8099  0.5194  0.1192
 H22A_3  H 1.0  0.1192  0.8099  0.5194
 H22A_4  H 1.0  0.4806  0.8808  0.1901
 H22A_5  H 1.0  0.1901  0.4806  0.8808
 H22A_6  H 1.0  0.8808  0.1901  0.4806
 H24A  H 1.0  0.5049  0.0975  0.7831
 H24A_2  H 1.0  0.7831  0.5049  0.0975
 H24A_3  H 1.0  0.0975  0.7831  0.5049
 H24A_4  H 1.0  0.4951  0.9025  0.2169
 H24A_5  H 1.0  0.2169  0.4951  0.9025
 H24A_6  H 1.0  0.9025  0.2169  0.4951
 H25A  H 1.0  0.5488  0.1043  0.7354
 H25A_2  H 1.0  0.7354  0.5488  0.1043
 H25A_3  H 1.0  0.1043  0.7354  0.5488
 H25A_4  H 1.0  0.4512  0.8957  0.2646
 H25A_5  H 1.0  0.2646  0.4512  0.8957
 H25A_6  H 1.0  0.8957  0.2646  0.4512
 H28A  H 1.0  0.7431  0.0834  0.5008
 H28A_2  H 1.0  0.5008  0.7431  0.0834
 H28A_3  H 1.0  0.0834  0.5008  0.7431
 H28A_4  H 1.0  0.2569  0.9166  0.4992
 H28A_5  H 1.0  0.4992  0.2569  0.9166
 H28A_6  H 1.0  0.9166  0.4992  0.2569
 H29A  H 1.0  0.7286  0.1071  0.5234
 H29A_2  H 1.0  0.5234  0.7286  0.1071
 H29A_3  H 1.0  0.1071  0.5234  0.7286
 H29A_4  H 1.0  0.2714  0.8929  0.4766
 H29A_5  H 1.0  0.4766  0.2714  0.8929
 H29A_6  H 1.0  0.8929  0.4766  0.2714
 H30A  H 1.0  0.8022  0.1564  0.564
 H30A_2  H 1.0  0.564  0.8022  0.1564
 H30A_3  H 1.0  0.1564  0.564  0.8022
 H30A_4  H 1.0  0.1978  0.8436  0.436
 H30A_5  H 1.0  0.436  0.1978  0.8436
 H30A_6  H 1.0  0.8436  0.436  0.1978
 H31A  H 1.0  0.7611  0.1626  0.5695
 H31A_2  H 1.0  0.5695  0.7611  0.1626
 H31A_3  H 1.0  0.1626  0.5695  0.7611
 H31A_4  H 1.0  0.2389  0.8374  0.4305
 H31A_5  H 1.0  0.4305  0.2389  0.8374
 H31A_6  H 1.0  0.8374  0.4305  0.2389
 H39A  H 1.0  0.6655  0.0706  0.6032
 H39A_2  H 1.0  0.6032  0.6655  0.0706
 H39A_3  H 1.0  0.0706  0.6032  0.6655
 H39A_4  H 1.0  0.3345  0.9294  0.3968
 H39A_5  H 1.0  0.3968  0.3345  0.9294
 H39A_6  H 1.0  0.9294  0.3968  0.3345
 H40A  H 1.0  0.6799  0.0466  0.5807
 H40A_2  H 1.0  0.5807  0.6799  0.0466
 H40A_3  H 1.0  0.0466  0.5807  0.6799
 H40A_4  H 1.0  0.3201  0.9534  0.4193
 H40A_5  H 1.0  0.4193  0.3201  0.9534
 H40A_6  H 1.0  0.9534  0.4193  0.3201
 H43A  H 1.0  0.7761  0.1864  0.7014
 H43A_2  H 1.0  0.7014  0.7761  0.1864
 H43A_3  H 1.0  0.1864  0.7014  0.7761
 H43A_4  H 1.0  0.2239  0.8136  0.2986
 H43A_5  H 1.0  0.2986  0.2239  0.8136
 H43A_6  H 1.0  0.8136  0.2986  0.2239
 H44A  H 1.0  0.796  0.1626  0.6756
 H44A_2  H 1.0  0.6756  0.796  0.1626
 H44A_3  H 1.0  0.1626  0.6756  0.796
 H44A_4  H 1.0  0.204  0.8374  0.3244
 H44A_5  H 1.0  0.3244  0.204  0.8374
 H44A_6  H 1.0  0.8374  0.3244  0.204
 H46A  H 1.0  0.8218  0.2366  0.6955
 H46A_2  H 1.0  0.6955  0.8218  0.2366
 H46A_3  H 1.0  0.2366  0.6955  0.8218
 H46A_4  H 1.0  0.1782  0.7634  0.3045
 H46A_5  H 1.0  0.3045  0.1782  0.7634
 H46A_6  H 1.0  0.7634  0.3045  0.1782
 H48A  H 1.0  0.7614  0.2487  0.7747
 H48A_2  H 1.0  0.7747  0.7614  0.2487
 H48A_3  H 1.0  0.2487  0.7747  0.7614
 H48A_4  H 1.0  0.2386  0.7513  0.2253
 H48A_5  H 1.0  0.2253  0.2386  0.7513
 H48A_6  H 1.0  0.7513  0.2253  0.2386
 H50A  H 1.0  0.7442  0.2219  0.756
 H50A_2  H 1.0  0.756  0.7442  0.2219
 H50A_3  H 1.0  0.2219  0.756  0.7442
 H50A_4  H 1.0  0.2558  0.7781  0.244
 H50A_5  H 1.0  0.244  0.2558  0.7781
 H50A_6  H 1.0  0.7781  0.244  0.2558
 H52A  H 1.0  0.6575  0.2186  0.8457
 H52A_2  H 1.0  0.8457  0.6575  0.2186
 H52A_3  H 1.0  0.2186  0.8457  0.6575
 H52A_4  H 1.0  0.3425  0.7814  0.1543
 H52A_5  H 1.0  0.1543  0.3425  0.7814
 H52A_6  H 1.0  0.7814  0.1543  0.3425
 H53A  H 1.0  0.6086  0.2233  0.8887
 H53A_2  H 1.0  0.8887  0.6086  0.2233
 H53A_3  H 1.0  0.2233  0.8887  0.6086
 H53A_4  H 1.0  0.3914  0.7767  0.1113
 H53A_5  H 1.0  0.1113  0.3914  0.7767
 H53A_6  H 1.0  0.7767  0.1113  0.3914
 H55A  H 1.0  0.6152  0.2704  0.8953
 H55A_2  H 1.0  0.8953  0.6152  0.2704
 H55A_3  H 1.0  0.2704  0.8953  0.6152
 H55A_4  H 1.0  0.3848  0.7296  0.1047
 H55A_5  H 1.0  0.1047  0.3848  0.7296
 H55A_6  H 1.0  0.7296  0.1047  0.3848
 H56A  H 1.0  0.664  0.2655  0.8523
 H56A_2  H 1.0  0.8523  0.664  0.2655
 H56A_3  H 1.0  0.2655  0.8523  0.664
 H56A_4  H 1.0  0.336  0.7345  0.1477
 H56A_5  H 1.0  0.1477  0.336  0.7345
 H56A_6  H 1.0  0.7345  0.1477  0.336
 H58A  H 1.0  0.9003  0.2999  0.641
 H58A_2  H 1.0  0.641  0.9003  0.2999
 H58A_3  H 1.0  0.2999  0.641  0.9003
 H58A_4  H 1.0  0.0997  0.7001  0.359
 H58A_5  H 1.0  0.359  0.0997  0.7001
 H58A_6  H 1.0  0.7001  0.359  0.0997
 H59A  H 1.0  0.8791  0.2683  0.6665
 H59A_2  H 1.0  0.6665  0.8791  0.2683
 H59A_3  H 1.0  0.2683  0.6665  0.8791
 H59A_4  H 1.0  0.1209  0.7317  0.3335
 H59A_5  H 1.0  0.3335  0.1209  0.7317
 H59A_6  H 1.0  0.7317  0.3335  0.1209
 H60A  H 1.0  0.8638  0.1937  0.6046
 H60A_2  H 1.0  0.6046  0.8638  0.1937
 H60A_3  H 1.0  0.1937  0.6046  0.8638
 H60A_4  H 1.0  0.1362  0.8063  0.3954
 H60A_5  H 1.0  0.3954  0.1362  0.8063
 H60A_6  H 1.0  0.8063  0.3954  0.1362
 H61A  H 1.0  0.8439  0.2175  0.6307
 H61A_2  H 1.0  0.6307  0.8439  0.2175
 H61A_3  H 1.0  0.2175  0.6307  0.8439
 H61A_4  H 1.0  0.1561  0.7825  0.3693
 H61A_5  H 1.0  0.3693  0.1561  0.7825
 H61A_6  H 1.0  0.7825  0.3693  0.1561
 H69A  H 1.0  0.8069  0.3016  0.7327
 H69A_2  H 1.0  0.7327  0.8069  0.3016
 H69A_3  H 1.0  0.3016  0.7327  0.8069
 H69A_4  H 1.0  0.1931  0.6984  0.2673
 H69A_5  H 1.0  0.2673  0.1931  0.6984
 H69A_6  H 1.0  0.6984  0.2673  0.1931
 H70A  H 1.0  0.8279  0.3333  0.7073
 H70A_2  H 1.0  0.7073  0.8279  0.3333
 H70A_3  H 1.0  0.3333  0.7073  0.8279
 H70A_4  H 1.0  0.1721  0.6667  0.2927
 H70A_5  H 1.0  0.2927  0.1721  0.6667
 H70A_6  H 1.0  0.6667  0.2927  0.1721
 H75A  H 1.0  0.1648  0.1016  0.5733
 H75A_2  H 1.0  0.5733  0.1648  0.1016
 H75A_3  H 1.0  0.1016  0.5733  0.1648
 H75A_4  H 1.0  0.8352  0.8984  0.4267
 H75A_5  H 1.0  0.4267  0.8352  0.8984
 H75A_6  H 1.0  0.8984  0.4267  0.8352
 H76A  H 1.0  0.18  0.0796  0.5483
 H76A_2  H 1.0  0.5483  0.18  0.0796
 H76A_3  H 1.0  0.0796  0.5483  0.18
 H76A_4  H 1.0  0.82  0.9204  0.4517
 H76A_5  H 1.0  0.4517  0.82  0.9204
 H76A_6  H 1.0  0.9204  0.4517  0.82
 H78A  H 1.0  0.2069  0.0863  0.6344
 H78A_2  H 1.0  0.6344  0.2069  0.0863
 H78A_3  H 1.0  0.0863  0.6344  0.2069
 H78A_4  H 1.0  0.7931  0.9137  0.3656
 H78A_5  H 1.0  0.3656  0.7931  0.9137
 H78A_6  H 1.0  0.9137  0.3656  0.7931
 H80A  H 1.0  0.1455  0.1681  0.6425
 H80A_2  H 1.0  0.6425  0.1455  0.1681
 H80A_3  H 1.0  0.1681  0.6425  0.1455
 H80A_4  H 1.0  0.8545  0.8319  0.3575
 H80A_5  H 1.0  0.3575  0.8545  0.8319
 H80A_6  H 1.0  0.8319  0.3575  0.8545
 H82A  H 1.0  0.1294  0.1433  0.6207
 H82A_2  H 1.0  0.6207  0.1294  0.1433
 H82A_3  H 1.0  0.1433  0.6207  0.1294
 H82A_4  H 1.0  0.8706  0.8567  0.3793
 H82A_5  H 1.0  0.3793  0.8706  0.8567
 H82A_6  H 1.0  0.8567  0.3793  0.8706
 H84A  H 1.0  0.0492  0.2353  0.6038
 H84A_2  H 1.0  0.6038  0.0492  0.2353
 H84A_3  H 1.0  0.2353  0.6038  0.0492
 H84A_4  H 1.0  0.9508  0.7647  0.3962
 H84A_5  H 1.0  0.3962  0.9508  0.7647
 H84A_6  H 1.0  0.7647  0.3962  0.9508
 H85A  H 1.0  0.0056  0.2832  0.5968
 H85A_2  H 1.0  0.5968  0.0056  0.2832
 H85A_3  H 1.0  0.2832  0.5968  0.0056
 H85A_4  H 1.0  0.9944  0.7168  0.4032
 H85A_5  H 1.0  0.4032  0.9944  0.7168
 H85A_6  H 1.0  0.7168  0.4032  0.9944
 H87A  H 1.0  0.0209  0.3108  0.6166
 H87A_2  H 1.0  0.6166  0.0209  0.3108
 H87A_3  H 1.0  0.3108  0.6166  0.0209
 H87A_4  H 1.0  0.9791  0.6892  0.3834
 H87A_5  H 1.0  0.3834  0.9791  0.6892
 H87A_6  H 1.0  0.6892  0.3834  0.9791
 H88A  H 1.0  0.0645  0.263  0.6235
 H88A_2  H 1.0  0.6235  0.0645  0.263
 H88A_3  H 1.0  0.263  0.6235  0.0645
 H88A_4  H 1.0  0.9355  0.737  0.3765
 H88A_5  H 1.0  0.3765  0.9355  0.737
 H88A_6  H 1.0  0.737  0.3765  0.9355
 H90A  H 1.0  0.3047  0.0627  0.6535
 H90A_2  H 1.0  0.6535  0.3047  0.0627
 H90A_3  H 1.0  0.0627  0.6535  0.3047
 H90A_4  H 1.0  0.6953  0.9373  0.3465
 H90A_5  H 1.0  0.3465  0.6953  0.9373
 H90A_6  H 1.0  0.9373  0.3465  0.6953
 H91A  H 1.0  0.263  0.0683  0.6608
 H91A_2  H 1.0  0.6608  0.263  0.0683
 H91A_3  H 1.0  0.0683  0.6608  0.263
 H91A_4  H 1.0  0.737  0.9317  0.3392
 H91A_5  H 1.0  0.3392  0.737  0.9317
 H91A_6  H 1.0  0.9317  0.3392  0.737
 H92A  H 1.0  0.2451  0.0005  0.583
 H92A_2  H 1.0  0.583  0.2451  0.0005
 H92A_3  H 1.0  0.0005  0.583  0.2451
 H92A_4  H 1.0  0.7549  0.9995  0.417
 H92A_5  H 1.0  0.417  0.7549  0.9995
 H92A_6  H 1.0  0.9995  0.417  0.7549
 H93A  H 1.0  0.2297  0.0227  0.6077
 H93A_2  H 1.0  0.6077  0.2297  0.0227
 H93A_3  H 1.0  0.0227  0.6077  0.2297
 H93A_4  H 1.0  0.7703  0.9773  0.3923
 H93A_5  H 1.0  0.3923  0.7703  0.9773
 H93A_6  H 1.0  0.9773  0.3923  0.7703
 O1  O 1.0  0.9506  0.0666  0.5936
 O1_2  O 1.0  0.5936  0.9506  0.0666
 O1_3  O 1.0  0.0666  0.5936  0.9506
 O1_4  O 1.0  0.0494  0.9334  0.4064
 O1_5  O 1.0  0.4064  0.0494  0.9334
 O1_6  O 1.0  0.9334  0.4064  0.0494
 O2  O 1.0  0.8184  0.1214  0.6284
 O2_2  O 1.0  0.6284  0.8184  0.1214
 O2_3  O 1.0  0.1214  0.6284  0.8184
 O2_4  O 1.0  0.1816  0.8786  0.3716
 O2_5  O 1.0  0.3716  0.1816  0.8786
 O2_6  O 1.0  0.8786  0.3716  0.1816
 O3  O 1.0  0.842  0.126  0.581
 O3_2  O 1.0  0.581  0.842  0.126
 O3_3  O 1.0  0.126  0.581  0.842
 O3_4  O 1.0  0.158  0.874  0.419
 O3_5  O 1.0  0.419  0.158  0.874
 O3_6  O 1.0  0.874  0.419  0.158
 O4  O 1.0  0.9388  0.1158  0.5718
 O4_2  O 1.0  0.5718  0.9388  0.1158
 O4_3  O 1.0  0.1158  0.5718  0.9388
 O4_4  O 1.0  0.0612  0.8842  0.4282
 O4_5  O 1.0  0.4282  0.0612  0.8842
 O4_6  O 1.0  0.8842  0.4282  0.0612
 O5  O 1.0  0.8364  0.1384  0.6384
 O5_2  O 1.0  0.6384  0.8364  0.1384
 O5_3  O 1.0  0.1384  0.6384  0.8364
 O5_4  O 1.0  0.1636  0.8616  0.3616
 O5_5  O 1.0  0.3616  0.1636  0.8616
 O5_6  O 1.0  0.8616  0.3616  0.1636
 O6  O 1.0  0.9337  0.0497  0.5827
 O6_2  O 1.0  0.5827  0.9337  0.0497
 O6_3  O 1.0  0.0497  0.5827  0.9337
 O6_4  O 1.0  0.0663  0.9503  0.4173
 O6_5  O 1.0  0.4173  0.0663  0.9503
 O6_6  O 1.0  0.9503  0.4173  0.0663
 O7  O 1.0  0.9039  0.0419  0.6449
 O7_2  O 1.0  0.6449  0.9039  0.0419
 O7_3  O 1.0  0.0419  0.6449  0.9039
 O7_4  O 1.0  0.0961  0.9581  0.3551
 O7_5  O 1.0  0.3551  0.0961  0.9581
 O7_6  O 1.0  0.9581  0.3551  0.0961
 O8  O 1.0  0.8534  0.0744  0.6644
 O8_2  O 1.0  0.6644  0.8534  0.0744
 O8_3  O 1.0  0.0744  0.6644  0.8534
 O8_4  O 1.0  0.1466  0.9256  0.3356
 O8_5  O 1.0  0.3356  0.1466  0.9256
 O8_6  O 1.0  0.9256  0.3356  0.1466
 O9  O 1.0  0.4688  0.1148  0.8478
 O9_2  O 1.0  0.8478  0.4688  0.1148
 O9_3  O 1.0  0.1148  0.8478  0.4688
 O9_4  O 1.0  0.5312  0.8852  0.1522
 O9_5  O 1.0  0.1522  0.5312  0.8852
 O9_6  O 1.0  0.8852  0.1522  0.5312
 O10  O 1.0  0.7454  0.0494  0.4974
 O10_2  O 1.0  0.4974  0.7454  0.0494
 O10_3  O 1.0  0.0494  0.4974  0.7454
 O10_4  O 1.0  0.2546  0.9506  0.5026
 O10_5  O 1.0  0.5026  0.2546  0.9506
 O10_6  O 1.0  0.9506  0.5026  0.2546
 O11  O 1.0  0.7114  0.0294  0.5394
 O11_2  O 1.0  0.5394  0.7114  0.0294
 O11_3  O 1.0  0.0294  0.5394  0.7114
 O11_4  O 1.0  0.2886  0.9706  0.4606
 O11_5  O 1.0  0.4606  0.2886  0.9706
 O11_6  O 1.0  0.9706  0.4606  0.2886
 O12  O 1.0  0.5627  0.2367  0.9347
 O12_2  O 1.0  0.9347  0.5627  0.2367
 O12_3  O 1.0  0.2367  0.9347  0.5627
 O12_4  O 1.0  0.4373  0.7633  0.0653
 O12_5  O 1.0  0.0653  0.4373  0.7633
 O12_6  O 1.0  0.7633  0.0653  0.4373
 O13  O 1.0  0.5666  0.2626  0.9376
 O13_2  O 1.0  0.9376  0.5666  0.2626
 O13_3  O 1.0  0.2626  0.9376  0.5666
 O13_4  O 1.0  0.4334  0.7374  0.0624
 O13_5  O 1.0  0.0624  0.4334  0.7374
 O13_6  O 1.0  0.7374  0.0624  0.4334
 O14  O 1.0  0.1939  0.9889  0.5339
 O14_2  O 1.0  0.5339  0.1939  0.9889
 O14_3  O 1.0  0.9889  0.5339  0.1939
 O14_4  O 1.0  0.8061  0.0111  0.4661
 O14_5  O 1.0  0.4661  0.8061  0.0111
 O14_6  O 1.0  0.0111  0.4661  0.8061
 O15  O 1.0  0.1819  0.0359  0.5199
 O15_2  O 1.0  0.5199  0.1819  0.0359
 O15_3  O 1.0  0.0359  0.5199  0.1819
 O15_4  O 1.0  0.8181  0.9641  0.4801
 O15_5  O 1.0  0.4801  0.8181  0.9641
 O15_6  O 1.0  0.9641  0.4801  0.8181
 O16  O 1.0  0.5123  0.3073  0.9643
 O16_2  O 1.0  0.9643  0.5123  0.3073
 O16_3  O 1.0  0.3073  0.9643  0.5123
 O16_4  O 1.0  0.4877  0.6927  0.0357
 O16_5  O 1.0  0.0357  0.4877  0.6927
 O16_6  O 1.0  0.6927  0.0357  0.4877
 O17  O 1.0  0.4654  0.3184  0.9794
 O17_2  O 1.0  0.9794  0.4654  0.3184
 O17_3  O 1.0  0.3184  0.9794  0.4654
 O17_4  O 1.0  0.5346  0.6816  0.0206
 O17_5  O 1.0  0.0206  0.5346  0.6816
 O17_6  O 1.0  0.6816  0.0206  0.5346
 O18  O 1.0  0.3426  0.0806  0.6256
 O18_2  O 1.0  0.6256  0.3426  0.0806
 O18_3  O 1.0  0.0806  0.6256  0.3426
 O18_4  O 1.0  0.6574  0.9194  0.3744
 O18_5  O 1.0  0.3744  0.6574  0.9194
 O18_6  O 1.0  0.9194  0.3744  0.6574
 O19  O 1.0  0.3188  0.1268  0.6218
 O19_2  O 1.0  0.6218  0.3188  0.1268
 O19_3  O 1.0  0.1268  0.6218  0.3188
 O19_4  O 1.0  0.6812  0.8732  0.3782
 O19_5  O 1.0  0.3782  0.6812  0.8732
 O19_6  O 1.0  0.8732  0.3782  0.6812
 O1A  O 1.0  0.8863  0.1079  0.5944
 O1A_2  O 1.0  0.5944  0.8863  0.1079
 O1A_3  O 1.0  0.1079  0.5944  0.8863
 O1A_4  O 1.0  0.1137  0.8921  0.4056
 O1A_5  O 1.0  0.4056  0.1137  0.8921
 O1A_6  O 1.0  0.8921  0.4056  0.1137
 O1B  O 1.0  0.7496  0.0097  0.4909
 O1B_2  O 1.0  0.4909  0.7496  0.0097
 O1B_3  O 1.0  0.0097  0.4909  0.7496
 O1B_4  O 1.0  0.2504  0.9903  0.5091
 O1B_5  O 1.0  0.5091  0.2504  0.9903
 O1B_6  O 1.0  0.9903  0.5091  0.2504
 O1C  O 1.0  0.9067  0.3912  0.6135
 O1C_2  O 1.0  0.6135  0.9067  0.3912
 O1C_3  O 1.0  0.3912  0.6135  0.9067
 O1C_4  O 1.0  0.0933  0.6088  0.3865
 O1C_5  O 1.0  0.3865  0.0933  0.6088
 O1C_6  O 1.0  0.6088  0.3865  0.0933
 O20  O 1.0  0.8366  0.4246  0.6466
 O20_2  O 1.0  0.6466  0.8366  0.4246
 O20_3  O 1.0  0.4246  0.6466  0.8366
 O20_4  O 1.0  0.1634  0.5754  0.3534
 O20_5  O 1.0  0.3534  0.1634  0.5754
 O20_6  O 1.0  0.5754  0.3534  0.1634
 O21  O 1.0  0.4614  0.1014  0.8344
 O21_2  O 1.0  0.8344  0.4614  0.1014
 O21_3  O 1.0  0.1014  0.8344  0.4614
 O21_4  O 1.0  0.5386  0.8986  0.1656
 O21_5  O 1.0  0.1656  0.5386  0.8986
 O21_6  O 1.0  0.8986  0.1656  0.5386
 O22  O 1.0  0.8734  0.1554  0.5994
 O22_2  O 1.0  0.5994  0.8734  0.1554
 O22_3  O 1.0  0.1554  0.5994  0.8734
 O22_4  O 1.0  0.1266  0.8446  0.4006
 O22_5  O 1.0  0.4006  0.1266  0.8446
 O22_6  O 1.0  0.8446  0.4006  0.1266
 O23  O 1.0  0.863  0.36  0.665
 O23_2  O 1.0  0.665  0.863  0.36
 O23_3  O 1.0  0.36  0.665  0.863
 O23_4  O 1.0  0.137  0.64  0.335
 O23_5  O 1.0  0.335  0.137  0.64
 O23_6  O 1.0  0.64  0.335  0.137
 O24  O 1.0  0.9018  0.3428  0.6278
 O24_2  O 1.0  0.6278  0.9018  0.3428
 O24_3  O 1.0  0.3428  0.6278  0.9018
 O24_4  O 1.0  0.0982  0.6572  0.3722
 O24_5  O 1.0  0.3722  0.0982  0.6572
 O24_6  O 1.0  0.6572  0.3722  0.0982
 O25  O 1.0  0.9621  0.3351  0.6001
 O25_2  O 1.0  0.6001  0.9621  0.3351
 O25_3  O 1.0  0.3351  0.6001  0.9621
 O25_4  O 1.0  0.0379  0.6649  0.3999
 O25_5  O 1.0  0.3999  0.0379  0.6649
 O25_6  O 1.0  0.6649  0.3999  0.0379
 O26  O 1.0  0.2474  0.9964  0.5494
 O26_2  O 1.0  0.5494  0.2474  0.9964
 O26_3  O 1.0  0.9964  0.5494  0.2474
 O26_4  O 1.0  0.7526  0.0036  0.4506
 O26_5  O 1.0  0.4506  0.7526  0.0036
 O26_6  O 1.0  0.0036  0.4506  0.7526
 O27  O 1.0  0.2125  0.0395  0.5295
 O27_2  O 1.0  0.5295  0.2125  0.0395
 O27_3  O 1.0  0.0395  0.5295  0.2125
 O27_4  O 1.0  0.7875  0.9605  0.4705
 O27_5  O 1.0  0.4705  0.7875  0.9605
 O27_6  O 1.0  0.9605  0.4705  0.7875
 O28  O 1.0  0.9695  0.3485  0.6135
 O28_2  O 1.0  0.6135  0.9695  0.3485
 O28_3  O 1.0  0.3485  0.6135  0.9695
 O28_4  O 1.0  0.0305  0.6515  0.3865
 O28_5  O 1.0  0.3865  0.0305  0.6515
 O28_6  O 1.0  0.6515  0.3865  0.0305
 O29  O 1.0  0.2279  0.0599  0.4679
 O29_2  O 1.0  0.4679  0.2279  0.0599
 O29_3  O 1.0  0.0599  0.4679  0.2279
 O29_4  O 1.0  0.7721  0.9401  0.5321
 O29_5  O 1.0  0.5321  0.7721  0.9401
 O29_6  O 1.0  0.9401  0.5321  0.7721
 O30  O 1.0  0.2737  0.0317  0.4407
 O30_2  O 1.0  0.4407  0.2737  0.0317
 O30_3  O 1.0  0.0317  0.4407  0.2737
 O30_4  O 1.0  0.7263  0.9683  0.5593
 O30_5  O 1.0  0.5593  0.7263  0.9683
 O30_6  O 1.0  0.9683  0.5593  0.7263
 O31  O 1.0  0.8561  0.4561  0.5971
 O31_2  O 1.0  0.5971  0.8561  0.4561
 O31_3  O 1.0  0.4561  0.5971  0.8561
 O31_4  O 1.0  0.1439  0.5439  0.4029
 O31_5  O 1.0  0.4029  0.1439  0.5439
 O31_6  O 1.0  0.5439  0.4029  0.1439
 O32  O 1.0  0.4333  0.5493  0.9063
 O32_2  O 1.0  0.9063  0.4333  0.5493
 O32_3  O 1.0  0.5493  0.9063  0.4333
 O32_4  O 1.0  0.5667  0.4507  0.0937
 O32_5  O 1.0  0.0937  0.5667  0.4507
 O32_6  O 1.0  0.4507  0.0937  0.5667
 O33  O 1.0  0.3831  0.5621  0.9281
 O33_2  O 1.0  0.9281  0.3831  0.5621
 O33_3  O 1.0  0.5621  0.9281  0.3831
 O33_4  O 1.0  0.6169  0.4379  0.0719
 O33_5  O 1.0  0.0719  0.6169  0.4379
 O33_6  O 1.0  0.4379  0.0719  0.6169
 O34  O 1.0  0.9068  0.0878  0.5538
 O34_2  O 1.0  0.5538  0.9068  0.0878
 O34_3  O 1.0  0.0878  0.5538  0.9068
 O34_4  O 1.0  0.0932  0.9122  0.4462
 O34_5  O 1.0  0.4462  0.0932  0.9122
 O34_6  O 1.0  0.9122  0.4462  0.0932
 O35  O 1.0  0.4345  0.0815  0.5505
 O35_2  O 1.0  0.5505  0.4345  0.0815
 O35_3  O 1.0  0.0815  0.5505  0.4345
 O35_4  O 1.0  0.5655  0.9185  0.4495
 O35_5  O 1.0  0.4495  0.5655  0.9185
 O35_6  O 1.0  0.9185  0.4495  0.5655
 O36  O 1.0  0.4076  0.0536  0.5876
 O36_2  O 1.0  0.5876  0.4076  0.0536
 O36_3  O 1.0  0.0536  0.5876  0.4076
 O36_4  O 1.0  0.5924  0.9464  0.4124
 O36_5  O 1.0  0.4124  0.5924  0.9464
 O36_6  O 1.0  0.9464  0.4124  0.5924
 Zn1  Zn 1.0  0.9183  0.0663  0.6043
 Zn1_2  Zn 1.0  0.6043  0.9183  0.0663
 Zn1_3  Zn 1.0  0.0663  0.6043  0.9183
 Zn1_4  Zn 1.0  0.0817  0.9337  0.3957
 Zn1_5  Zn 1.0  0.3957  0.0817  0.9337
 Zn1_6  Zn 1.0  0.9337  0.3957  0.0817
 Zn2  Zn 1.0  0.8797  0.1187  0.5647
 Zn2_2  Zn 1.0  0.5647  0.8797  0.1187
 Zn2_3  Zn 1.0  0.1187  0.5647  0.8797
 Zn2_4  Zn 1.0  0.1203  0.8813  0.4353
 Zn2_5  Zn 1.0  0.4353  0.1203  0.8813
 Zn2_6  Zn 1.0  0.8813  0.4353  0.1203
 Zn3  Zn 1.0  0.8989  0.1369  0.5759
 Zn3_2  Zn 1.0  0.5759  0.8989  0.1369
 Zn3_3  Zn 1.0  0.1369  0.5759  0.8989
 Zn3_4  Zn 1.0  0.1011  0.8631  0.4241
 Zn3_5  Zn 1.0  0.4241  0.1011  0.8631
 Zn3_6  Zn 1.0  0.8631  0.4241  0.1011
 Zn4  Zn 1.0  0.8479  0.1109  0.6319
 Zn4_2  Zn 1.0  0.6319  0.8479  0.1109
 Zn4_3  Zn 1.0  0.1109  0.6319  0.8479
 Zn4_4  Zn 1.0  0.1521  0.8891  0.3681
 Zn4_5  Zn 1.0  0.3681  0.1521  0.8891
 Zn4_6  Zn 1.0  0.8891  0.3681  0.1521
 Zn5  Zn 1.0  0.7804  0.9704  0.4934
 Zn5_2  Zn 1.0  0.4934  0.7804  0.9704
 Zn5_3  Zn 1.0  0.9704  0.4934  0.7804
 Zn5_4  Zn 1.0  0.2196  0.0296  0.5066
 Zn5_5  Zn 1.0  0.5066  0.2196  0.0296
 Zn5_6  Zn 1.0  0.0296  0.5066  0.2196
 Zn6  Zn 1.0  0.734  0.028  0.466
 Zn6_2  Zn 1.0  0.466  0.734  0.028
 Zn6_3  Zn 1.0  0.028  0.466  0.734
 Zn6_4  Zn 1.0  0.266  0.972  0.534
 Zn6_5  Zn 1.0  0.534  0.266  0.972
 Zn6_6  Zn 1.0  0.972  0.534  0.266
 Zn7  Zn 1.0  0.7183  0.0073  0.5303
 Zn7_2  Zn 1.0  0.5303  0.7183  0.0073
 Zn7_3  Zn 1.0  0.0073  0.5303  0.7183
 Zn7_4  Zn 1.0  0.2817  0.9927  0.4697
 Zn7_5  Zn 1.0  0.4697  0.2817  0.9927
 Zn7_6  Zn 1.0  0.9927  0.4697  0.2817
 Zn8  Zn 1.0  0.766  0.033  0.474
 Zn8_2  Zn 1.0  0.474  0.766  0.033
 Zn8_3  Zn 1.0  0.033  0.474  0.766
 Zn8_4  Zn 1.0  0.234  0.967  0.526
 Zn8_5  Zn 1.0  0.526  0.234  0.967
 Zn8_6  Zn 1.0  0.967  0.526  0.234
 Zn9  Zn 1.0  0.935  0.382  0.619
 Zn9_2  Zn 1.0  0.619  0.935  0.382
 Zn9_3  Zn 1.0  0.382  0.619  0.935
 Zn9_4  Zn 1.0  0.065  0.618  0.381
 Zn9_5  Zn 1.0  0.381  0.065  0.618
 Zn9_6  Zn 1.0  0.618  0.381  0.065
 Zn10  Zn 1.0  0.8966  0.4316  0.5826
 Zn10_2  Zn 1.0  0.5826  0.8966  0.4316
 Zn10_3  Zn 1.0  0.4316  0.5826  0.8966
 Zn10_4  Zn 1.0  0.1034  0.5684  0.4174
 Zn10_5  Zn 1.0  0.4174  0.1034  0.5684
 Zn10_6  Zn 1.0  0.5684  0.4174  0.1034
 Zn11  Zn 1.0  0.8703  0.3883  0.6513
 Zn11_2  Zn 1.0  0.6513  0.8703  0.3883
 Zn11_3  Zn 1.0  0.3883  0.6513  0.8703
 Zn11_4  Zn 1.0  0.1297  0.6117  0.3487
 Zn11_5  Zn 1.0  0.3487  0.1297  0.6117
 Zn11_6  Zn 1.0  0.6117  0.3487  0.1297
 Zn12  Zn 1.0  0.9244  0.3634  0.6014
 Zn12_2  Zn 1.0  0.6014  0.9244  0.3634
 Zn12_3  Zn 1.0  0.3634  0.6014  0.9244
 Zn12_4  Zn 1.0  0.0756  0.6366  0.3986
 Zn12_5  Zn 1.0  0.3986  0.0756  0.6366
 Zn12_6  Zn 1.0  0.6366  0.3986  0.0756

