#******************************************
#
# CIF file created by Zeo++
# Zeo++ is an open source package to
# analyze microporous materials
#
#*******************************************

_cell_length_a		21.4733(0)
_cell_length_b		21.4733(0)
_cell_length_c		60.3146(0)
_cell_angle_alpha		90(0)
_cell_angle_beta		90(0)
_cell_angle_gamma		120(0)

_symmetry_space_group_name_H-M		'P1'
_symmetry_Int_Tables_number		1
_symmetry_cell_setting		Monoclinic

loop_
_symmetry_equiv_pos_as_xyz
'+x,+y,+z'

loop_
_atom_site_label
_atom_site_type_symbol
_atom_site_fract_x
_atom_site_fract_y
_atom_site_fract_z
0	C	0.068478	0.84304	0.0572001
0	C	0.15696	0.22544	0.0572001
0	C	0.774557	0.931519	0.0572001
0	C	0.84304	0.0684799	0.4428
0	C	0.22544	0.15696	0.4428
0	C	0.931516	0.774559	0.4428
0	C	0.93152	0.15696	0.9428
0	C	0.843037	0.774559	0.9428
0	C	0.22544	0.0684799	0.9428
0	C	0.156958	0.931519	0.5572
0	C	0.774558	0.84304	0.5572
0	C	0.0684797	0.22544	0.5572
0	C	0.735148	0.176373	0.390534
0	C	0.823625	0.558775	0.390534
0	C	0.441226	0.264853	0.390534
0	C	0.509706	0.401814	0.776134
0	C	0.892107	0.490294	0.776134
0	C	0.598185	0.107893	0.776134
0	C	0.598186	0.490294	0.276134
0	C	0.509706	0.107893	0.276134
0	C	0.892104	0.401814	0.276134
0	C	0.823624	0.264853	0.890534
0	C	0.441226	0.176373	0.890534
0	C	0.735146	0.558775	0.890534
0	C	0.401813	0.509707	0.723866
0	C	0.490292	0.892108	0.723866
0	C	0.107892	0.598186	0.723866
0	C	0.176372	0.735148	0.109467
0	C	0.558772	0.823627	0.109467
0	C	0.264853	0.441227	0.109467
0	C	0.264851	0.823627	0.609466
0	C	0.176373	0.441227	0.609466
0	C	0.558772	0.735148	0.609466
0	C	0.490291	0.598186	0.223866
0	C	0.107892	0.509707	0.223866
0	C	0.401812	0.892108	0.223866
0	C	0.0648177	0.899749	0.06745
0	C	0.10025	0.16507	0.06745
0	C	0.834928	0.935181	0.06745
0	C	0.899752	0.0648201	0.43255
0	C	0.16507	0.10025	0.43255
0	C	0.935176	0.83493	0.43255
0	C	0.935182	0.10025	0.93255
0	C	0.899751	0.83493	0.93255
0	C	0.16507	0.0648201	0.93255
0	C	0.100248	0.935181	0.56745
0	C	0.834928	0.899749	0.56745
0	C	0.0648197	0.16507	0.56745
0	C	0.731486	0.233084	0.400784
0	C	0.766914	0.498404	0.400784
0	C	0.501596	0.268514	0.400784
0	C	0.566416	0.398154	0.765883
0	C	0.831736	0.433584	0.765883
0	C	0.601849	0.168264	0.765883
0	C	0.601846	0.433584	0.265883
0	C	0.566414	0.168264	0.265883
0	C	0.831736	0.398154	0.265883
0	C	0.766916	0.268514	0.900784
0	C	0.501596	0.233084	0.900784
0	C	0.731488	0.498404	0.900784
0	C	0.398152	0.566416	0.734117
0	C	0.433581	0.831736	0.734117
0	C	0.168262	0.601848	0.734117
0	C	0.233081	0.731486	0.0992166
0	C	0.498402	0.766917	0.0992166
0	C	0.268512	0.501597	0.0992166
0	C	0.268512	0.766917	0.599216
0	C	0.233082	0.501597	0.599216
0	C	0.498401	0.731486	0.599216
0	C	0.433583	0.601848	0.234117
0	C	0.168262	0.566416	0.234117
0	C	0.398151	0.831736	0.234117
0	H	0.0552972	0.898459	0.0851
0	H	0.10154	0.15684	0.0851
0	H	0.843157	0.944699	0.0851
0	H	0.898462	0.0553	0.4149
0	H	0.15684	0.10154	0.4149
0	H	0.944699	0.843163	0.4149
0	H	0.944699	0.10154	0.9149
0	H	0.89846	0.843163	0.9149
0	H	0.15684	0.0553	0.9149
0	H	0.101537	0.944699	0.5851
0	H	0.843157	0.898459	0.5851
0	H	0.0552996	0.15684	0.5851
0	H	0.721965	0.231794	0.418433
0	H	0.768205	0.490174	0.418433
0	H	0.509826	0.278034	0.418433
0	H	0.565126	0.388634	0.748233
0	H	0.823505	0.434874	0.748233
0	H	0.611366	0.176493	0.748233
0	H	0.611366	0.434874	0.248233
0	H	0.565127	0.176493	0.248233
0	H	0.823507	0.388634	0.248233
0	H	0.768207	0.278034	0.918433
0	H	0.509826	0.231794	0.918433
0	H	0.721966	0.490174	0.918433
0	H	0.388631	0.565126	0.751767
0	H	0.434873	0.823509	0.751767
0	H	0.176491	0.611366	0.751767
0	H	0.231792	0.721968	0.0815667
0	H	0.490172	0.768208	0.0815667
0	H	0.278032	0.509827	0.0815667
0	H	0.278032	0.768208	0.581567
0	H	0.231792	0.509827	0.581567
0	H	0.490172	0.721968	0.581567
0	H	0.434872	0.611366	0.251767
0	H	0.176492	0.565126	0.251767
0	H	0.388632	0.823509	0.251767
0	C	0.0733091	0.958223	0.0549
0	C	0.0417797	0.11509	0.0549
0	C	0.884908	0.92669	0.0549
0	C	0.958218	0.0733099	0.4451
0	C	0.11509	0.04178	0.4451
0	C	0.926688	0.884913	0.4451
0	C	0.926689	0.04178	0.9451
0	C	0.958221	0.884913	0.9451
0	C	0.11509	0.0733099	0.9451
0	C	0.041778	0.92669	0.5549
0	C	0.884909	0.958223	0.5549
0	C	0.0733097	0.11509	0.5549
0	C	0.739975	0.291554	0.388233
0	C	0.708445	0.448424	0.388233
0	C	0.551576	0.260023	0.388233
0	C	0.624886	0.406644	0.778433
0	C	0.781755	0.375114	0.778433
0	C	0.593355	0.218244	0.778433
0	C	0.593356	0.375114	0.278433
0	C	0.624888	0.218244	0.278433
0	C	0.781756	0.406644	0.278433
0	C	0.708446	0.260023	0.888233
0	C	0.551576	0.291554	0.888233
0	C	0.739977	0.448424	0.888233
0	C	0.406644	0.62489	0.721567
0	C	0.375113	0.781759	0.721567
0	C	0.218242	0.593357	0.721567
0	C	0.291551	0.739977	0.111767
0	C	0.448423	0.708449	0.111767
0	C	0.260024	0.55158	0.111767
0	C	0.260023	0.708449	0.611767
0	C	0.291554	0.55158	0.611767
0	C	0.448422	0.739977	0.611767
0	C	0.375112	0.593357	0.221567
0	C	0.218244	0.62489	0.221567
0	C	0.406643	0.781759	0.221567
0	H	0.0702902	0.00166	0.06287
0	H	0.99834	0.0686299	0.06287
0	H	0.931368	0.929712	0.06287
0	H	0.00165983	0.0702899	0.43713
0	H	0.0686298	0.998344	0.43713
0	H	0.92971	0.931374	0.43713
0	H	0.929709	0.998344	0.93713
0	H	0.00165965	0.931374	0.93713
0	H	0.0686298	0.0702899	0.93713
0	H	0.99834	0.929712	0.56287
0	H	0.931372	0.00166	0.56287
0	H	0.0702898	0.0686299	0.56287
0	H	0.736957	0.334994	0.396203
0	H	0.665006	0.401964	0.396203
0	H	0.598036	0.263044	0.396203
0	H	0.668325	0.403624	0.770464
0	H	0.735297	0.331674	0.770464
0	H	0.596376	0.264704	0.770464
0	H	0.596376	0.331674	0.270464
0	H	0.668329	0.264704	0.270464
0	H	0.735297	0.403624	0.270464
0	H	0.665007	0.263044	0.896203
0	H	0.598036	0.334994	0.896203
0	H	0.736958	0.401964	0.896203
0	H	0.403623	0.668328	0.729536
0	H	0.331672	0.735298	0.729536
0	H	0.264703	0.596379	0.729536
0	H	0.334993	0.73696	0.103797
0	H	0.401961	0.665005	0.103797
0	H	0.263041	0.598035	0.103797
0	H	0.263041	0.665005	0.603797
0	H	0.334991	0.598035	0.603797
0	H	0.401963	0.73696	0.603797
0	H	0.331673	0.596379	0.229536
0	H	0.264702	0.668328	0.229536
0	H	0.403622	0.735298	0.229536
0	C	0.0853982	0.960471	0.03207
0	C	0.0395297	0.12493	0.03207
0	C	0.875069	0.914602	0.03207
0	C	0.960472	0.0853999	0.46793
0	C	0.12493	0.03953	0.46793
0	C	0.914601	0.875073	0.46793
0	C	0.914602	0.03953	0.96793
0	C	0.960467	0.875073	0.96793
0	C	0.12493	0.0853999	0.96793
0	C	0.0395288	0.914602	0.53207
0	C	0.875068	0.960471	0.53207
0	C	0.0853997	0.12493	0.53207
0	C	0.752067	0.293804	0.365404
0	C	0.706198	0.458264	0.365404
0	C	0.541736	0.247933	0.365404
0	C	0.627136	0.418734	0.801264
0	C	0.791596	0.372864	0.801264
0	C	0.581268	0.208404	0.801264
0	C	0.581266	0.372864	0.301264
0	C	0.627135	0.208404	0.301264
0	C	0.791596	0.418734	0.301264
0	C	0.706196	0.247933	0.865404
0	C	0.541736	0.293804	0.865404
0	C	0.752064	0.458264	0.865404
0	C	0.418732	0.627138	0.698736
0	C	0.372863	0.791599	0.698736
0	C	0.208403	0.581268	0.698736
0	C	0.293803	0.75207	0.134597
0	C	0.458261	0.706196	0.134597
0	C	0.247933	0.541739	0.134597
0	C	0.247931	0.706196	0.634596
0	C	0.293803	0.541739	0.634596
0	C	0.458263	0.75207	0.634596
0	C	0.372863	0.581268	0.198736
0	C	0.208402	0.627138	0.198736
0	C	0.418733	0.791599	0.198736
0	H	0.0917701	0.00573998	0.0224
0	H	0.994261	0.0860301	0.0224
0	H	0.913967	0.90823	0.0224
0	H	0.00573973	0.0917699	0.477601
0	H	0.086029	0.994262	0.477601
0	H	0.908229	0.913973	0.477601
0	H	0.908229	0.994262	0.977601
0	H	0.00573914	0.913973	0.977601
0	H	0.0860298	0.0917699	0.977601
0	H	0.994258	0.90823	0.522399
0	H	0.913969	0.00573998	0.522399
0	H	0.0917698	0.0860301	0.522399
0	H	0.758435	0.339074	0.355733
0	H	0.660926	0.419364	0.355733
0	H	0.580636	0.241563	0.355733
0	H	0.672406	0.425104	0.810933
0	H	0.752695	0.327594	0.810933
0	H	0.574896	0.247304	0.810933
0	H	0.574896	0.327594	0.310933
0	H	0.672407	0.247304	0.310933
0	H	0.752696	0.425104	0.310933
0	H	0.660926	0.241563	0.855733
0	H	0.580636	0.339074	0.855733
0	H	0.758437	0.419364	0.855733
0	H	0.425103	0.67241	0.689067
0	H	0.327593	0.752699	0.689067
0	H	0.247302	0.574896	0.689067
0	H	0.339072	0.758437	0.144267
0	H	0.419363	0.660929	0.144267
0	H	0.241563	0.580639	0.144267
0	H	0.241563	0.660929	0.644267
0	H	0.339073	0.580639	0.644267
0	H	0.419362	0.758437	0.644267
0	H	0.327592	0.574896	0.189067
0	H	0.247303	0.67241	0.189067
0	H	0.425103	0.752699	0.189067
0	C	0.0897575	0.904449	0.0218
0	C	0.0955496	0.18531	0.0218
0	C	0.814688	0.910241	0.0218
0	C	0.90445	0.0897598	0.478199
0	C	0.18531	0.0955502	0.478199
0	C	0.910237	0.81469	0.478199
0	C	0.910241	0.0955502	0.978199
0	C	0.904449	0.81469	0.978199
0	C	0.18531	0.0897598	0.978199
0	C	0.0955484	0.910241	0.521801
0	C	0.814688	0.904449	0.521801
0	C	0.0897596	0.18531	0.521801
0	C	0.756427	0.237784	0.355133
0	C	0.762215	0.518644	0.355133
0	C	0.481356	0.243573	0.355133
0	C	0.571116	0.423094	0.811533
0	C	0.851977	0.428884	0.811533
0	C	0.576906	0.148024	0.811533
0	C	0.576906	0.428884	0.311533
0	C	0.571117	0.148024	0.311533
0	C	0.851974	0.423094	0.311533
0	C	0.762214	0.243573	0.855133
0	C	0.481356	0.237784	0.855133
0	C	0.756426	0.518644	0.855133
0	C	0.423092	0.571116	0.688467
0	C	0.428881	0.851977	0.688467
0	C	0.148023	0.576907	0.688467
0	C	0.237781	0.756426	0.144867
0	C	0.518642	0.762217	0.144867
0	C	0.243572	0.481357	0.144867
0	C	0.243572	0.762217	0.644867
0	C	0.237782	0.481357	0.644867
0	C	0.518641	0.756426	0.644867
0	C	0.428882	0.576907	0.188467
0	C	0.148022	0.571116	0.188467
0	C	0.423091	0.851977	0.188467
0	H	0.0998784	0.906541	0.00416
0	H	0.0934596	0.19334	0.00416
0	H	0.806658	0.90012	0.00416
0	H	0.906538	0.0998801	0.49584
0	H	0.19334	0.09346	0.49584
0	H	0.900118	0.806662	0.49584
0	H	0.90012	0.09346	0.99584
0	H	0.90654	0.806662	0.99584
0	H	0.19334	0.0998801	0.99584
0	H	0.0934581	0.90012	0.50416
0	H	0.806658	0.906541	0.50416
0	H	0.0998796	0.19334	0.50416
0	H	0.766549	0.239874	0.337494
0	H	0.760125	0.526674	0.337494
0	H	0.473326	0.233454	0.337494
0	H	0.573206	0.433214	0.829174
0	H	0.860008	0.426794	0.829174
0	H	0.566785	0.139993	0.829174
0	H	0.566786	0.426794	0.329174
0	H	0.573207	0.139993	0.329174
0	H	0.860005	0.433214	0.329174
0	H	0.760125	0.233454	0.837494
0	H	0.473326	0.239874	0.837494
0	H	0.766547	0.526674	0.837494
0	H	0.433213	0.573208	0.670826
0	H	0.426791	0.860005	0.670826
0	H	0.139992	0.566787	0.670826
0	H	0.239871	0.766546	0.162507
0	H	0.526671	0.760126	0.162507
0	H	0.233452	0.473327	0.162507
0	H	0.233451	0.760126	0.662506
0	H	0.239872	0.473327	0.662506
0	H	0.526671	0.766546	0.662506
0	H	0.426792	0.566787	0.170826
0	H	0.139993	0.573208	0.170826
0	H	0.433211	0.860005	0.170826
0	C	0.0816977	0.846099	0.0343399
0	C	0.1539	0.2356	0.0343399
0	C	0.764398	0.918301	0.0343399
0	C	0.846101	0.0817002	0.46566
0	C	0.2356	0.1539	0.46566
0	C	0.918297	0.764401	0.46566
0	C	0.918302	0.1539	0.96566
0	C	0.846098	0.764401	0.96566
0	C	0.2356	0.0817002	0.96566
0	C	0.153899	0.918301	0.53434
0	C	0.764398	0.846099	0.53434
0	C	0.0816997	0.2356	0.53434
0	C	0.748367	0.179434	0.367674
0	C	0.820563	0.568933	0.367674
0	C	0.431066	0.251634	0.367674
0	C	0.512766	0.415034	0.798994
0	C	0.902266	0.487234	0.798994
0	C	0.584965	0.0977334	0.798994
0	C	0.584966	0.487234	0.298994
0	C	0.512766	0.0977334	0.298994
0	C	0.902267	0.415034	0.298994
0	C	0.820567	0.251634	0.867674
0	C	0.431066	0.179434	0.867674
0	C	0.748365	0.568933	0.867674
0	C	0.415032	0.512767	0.701006
0	C	0.487231	0.902266	0.701006
0	C	0.0977329	0.584968	0.701006
0	C	0.179431	0.748365	0.132327
0	C	0.568932	0.820567	0.132327
0	C	0.251633	0.431067	0.132327
0	C	0.251632	0.820567	0.632326
0	C	0.179433	0.431067	0.632326
0	C	0.568931	0.748365	0.632326
0	C	0.487233	0.584968	0.201006
0	C	0.0977323	0.512767	0.201006
0	C	0.415031	0.902266	0.201006
0	H	0.0865492	0.803682	0.02644
0	H	0.196319	0.28287	0.02644
0	H	0.717128	0.913451	0.02644
0	H	0.80368	0.0865501	0.47356
0	H	0.28287	0.19632	0.47356
0	H	0.913449	0.717133	0.47356
0	H	0.913451	0.19632	0.97356
0	H	0.80368	0.717133	0.97356
0	H	0.28287	0.0865501	0.97356
0	H	0.196319	0.913451	0.52644
0	H	0.717129	0.803682	0.52644
0	H	0.0865496	0.28287	0.52644
0	H	0.753217	0.137014	0.359774
0	H	0.862986	0.616205	0.359774
0	H	0.383797	0.246784	0.359774
0	H	0.470346	0.419884	0.806893
0	H	0.949537	0.529654	0.806893
0	H	0.580116	0.0504634	0.806893
0	H	0.580116	0.529654	0.306893
0	H	0.470347	0.0504634	0.306893
0	H	0.949534	0.419884	0.306893
0	H	0.862984	0.246784	0.859774
0	H	0.383797	0.137014	0.859774
0	H	0.753216	0.616205	0.859774
0	H	0.419882	0.470347	0.693107
0	H	0.529652	0.949539	0.693107
0	H	0.0504623	0.580118	0.693107
0	H	0.137011	0.753216	0.140227
0	H	0.616203	0.86299	0.140227
0	H	0.246783	0.383797	0.140227
0	H	0.246783	0.86299	0.640226
0	H	0.137013	0.383797	0.640226
0	H	0.616201	0.753216	0.640226
0	H	0.529653	0.580118	0.193107
0	H	0.0504628	0.470347	0.193107
0	H	0.419882	0.949539	0.193107
0	C	0.923387	0.70711	0.057
0	C	0.292889	0.21628	0.057
0	C	0.783719	0.07661	0.057
0	C	0.70711	0.923394	0.443001
0	C	0.21628	0.292891	0.443001
0	C	0.0766089	0.783722	0.443001
0	C	0.0766095	0.292891	0.943001
0	C	0.707109	0.783722	0.943001
0	C	0.21628	0.923394	0.943001
0	C	0.29289	0.07661	0.556999
0	C	0.783718	0.70711	0.556999
0	C	0.923389	0.21628	0.556999
0	C	0.590055	0.0404434	0.390333
0	C	0.959553	0.549612	0.390333
0	C	0.450386	0.409944	0.390333
0	C	0.373776	0.256723	0.776333
0	C	0.882943	0.626223	0.776333
0	C	0.743274	0.117053	0.776333
0	C	0.743275	0.626223	0.276333
0	C	0.373776	0.117053	0.276333
0	C	0.882945	0.256723	0.276333
0	C	0.959555	0.409944	0.890333
0	C	0.450386	0.0404434	0.890333
0	C	0.590055	0.549612	0.890333
0	C	0.256723	0.373777	0.723667
0	C	0.62622	0.882945	0.723667
0	C	0.117052	0.743278	0.723667
0	C	0.0404412	0.590055	0.109667
0	C	0.549611	0.959557	0.109667
0	C	0.409942	0.450387	0.109667
0	C	0.409941	0.959557	0.609667
0	C	0.0404426	0.450387	0.609667
0	C	0.549611	0.590055	0.609667
0	C	0.626222	0.743278	0.223667
0	C	0.117053	0.373777	0.223667
0	C	0.256721	0.882945	0.223667
0	C	0.884138	0.738713	0.0657501
0	C	0.26129	0.14543	0.0657501
0	C	0.85457	0.11586	0.0657501
0	C	0.738707	0.884139	0.43425
0	C	0.14543	0.26129	0.43425
0	C	0.115857	0.854569	0.43425
0	C	0.11586	0.26129	0.93425
0	C	0.738707	0.854569	0.93425
0	C	0.145427	0.884139	0.93425
0	C	0.26129	0.11586	0.56575
0	C	0.854571	0.738713	0.56575
0	C	0.884141	0.14543	0.56575
0	C	0.550805	0.0720435	0.399084
0	C	0.927957	0.478764	0.399084
0	C	0.521236	0.449194	0.399084
0	C	0.405376	0.217474	0.767584
0	C	0.812095	0.594626	0.767584
0	C	0.782527	0.187904	0.767584
0	C	0.782528	0.594626	0.267584
0	C	0.405376	0.187904	0.267584
0	C	0.812098	0.217474	0.267584
0	C	0.927958	0.449194	0.899084
0	C	0.521238	0.0720435	0.899084
0	C	0.550806	0.478764	0.899084
0	C	0.217473	0.405377	0.732416
0	C	0.594622	0.812098	0.732416
0	C	0.187902	0.782528	0.732416
0	C	0.0720415	0.550806	0.100917
0	C	0.478762	0.927959	0.100917
0	C	0.449193	0.521237	0.100917
0	C	0.449192	0.927959	0.600916
0	C	0.0720424	0.521237	0.600916
0	C	0.478761	0.550806	0.600916
0	C	0.594622	0.782528	0.232416
0	C	0.187903	0.405377	0.232416
0	C	0.217472	0.812098	0.232416
0	C	0.8282	0.736863	0.0532601
0	C	0.26314	0.0913403	0.0532601
0	C	0.908661	0.1718	0.0532601
0	C	0.73686	0.828203	0.446739
0	C	0.0913395	0.26314	0.446739
0	C	0.171798	0.90866	0.446739
0	C	0.171799	0.26314	0.946739
0	C	0.736858	0.90866	0.946739
0	C	0.0913398	0.828203	0.946739
0	C	0.26314	0.1718	0.553261
0	C	0.908659	0.736863	0.553261
0	C	0.8282	0.0913403	0.553261
0	C	0.494866	0.0701932	0.386593
0	C	0.929804	0.424674	0.386593
0	C	0.575326	0.505134	0.386593
0	C	0.403526	0.161533	0.780073
0	C	0.758006	0.596476	0.780073
0	C	0.838464	0.241994	0.780073
0	C	0.838465	0.596476	0.280073
0	C	0.403526	0.241994	0.280073
0	C	0.758007	0.161533	0.280073
0	C	0.929807	0.505134	0.886593
0	C	0.575325	0.0701932	0.886593
0	C	0.494866	0.424674	0.886593
0	C	0.161533	0.403527	0.719927
0	C	0.596472	0.758007	0.719927
0	C	0.241992	0.838469	0.719927
0	C	0.0701924	0.494867	0.113407
0	C	0.424672	0.929809	0.113407
0	C	0.505132	0.575326	0.113407
0	C	0.505132	0.929809	0.613407
0	C	0.0701918	0.575326	0.613407
0	C	0.424673	0.494867	0.613407
0	C	0.596473	0.838469	0.219927
0	C	0.241993	0.403527	0.219927
0	C	0.161532	0.758007	0.219927
0	H	0.798548	0.761459	0.05976
0	H	0.23854	0.0370901	0.05976
0	H	0.962912	0.20145	0.05976
0	H	0.761459	0.798552	0.44024
0	H	0.0370894	0.23854	0.44024
0	H	0.201449	0.962912	0.44024
0	H	0.20145	0.23854	0.94024
0	H	0.761459	0.962912	0.94024
0	H	0.0370892	0.798552	0.94024
0	H	0.23854	0.20145	0.55976
0	H	0.962907	0.761459	0.55976
0	H	0.798551	0.0370901	0.55976
0	H	0.465216	0.0947936	0.393094
0	H	0.905208	0.370424	0.393094
0	H	0.629576	0.534784	0.393094
0	H	0.428127	0.131884	0.773574
0	H	0.703756	0.571874	0.773574
0	H	0.868118	0.296244	0.773574
0	H	0.868115	0.571874	0.273574
0	H	0.428126	0.296244	0.273574
0	H	0.703757	0.131884	0.273574
0	H	0.905206	0.534784	0.893094
0	H	0.629575	0.0947936	0.893094
0	H	0.465216	0.370424	0.893094
0	H	0.131883	0.428127	0.726426
0	H	0.571873	0.70376	0.726426
0	H	0.296243	0.86812	0.726426
0	H	0.0947928	0.465217	0.106907
0	H	0.370421	0.905207	0.106907
0	H	0.534783	0.629579	0.106907
0	H	0.534782	0.905207	0.606906
0	H	0.0947929	0.629579	0.606906
0	H	0.370423	0.465217	0.606906
0	H	0.571873	0.86812	0.226426
0	H	0.296243	0.428127	0.226426
0	H	0.131883	0.70376	0.226426
0	C	0.809318	0.702889	0.0326301
0	C	0.29711	0.10643	0.0326301
0	C	0.893568	0.19068	0.0326301
0	C	0.70289	0.809323	0.467369
0	C	0.106429	0.29711	0.467369
0	C	0.190678	0.893571	0.467369
0	C	0.190679	0.29711	0.967369
0	C	0.702888	0.893571	0.967369
0	C	0.10643	0.809323	0.967369
0	C	0.29711	0.19068	0.532631
0	C	0.893567	0.702889	0.532631
0	C	0.809321	0.10643	0.532631
0	C	0.475987	0.0362234	0.365963
0	C	0.963777	0.439764	0.365963
0	C	0.560236	0.524014	0.365963
0	C	0.369556	0.142653	0.800703
0	C	0.773096	0.630445	0.800703
0	C	0.857347	0.226904	0.800703
0	C	0.857345	0.630445	0.300703
0	C	0.369556	0.226904	0.300703
0	C	0.773096	0.142653	0.300703
0	C	0.963775	0.524014	0.865963
0	C	0.560236	0.0362234	0.865963
0	C	0.475986	0.439764	0.865963
0	C	0.142653	0.369557	0.699297
0	C	0.630441	0.773096	0.699297
0	C	0.226902	0.857349	0.699297
0	C	0.0362224	0.475987	0.134037
0	C	0.439762	0.963778	0.134037
0	C	0.524012	0.560237	0.134037
0	C	0.524012	0.963778	0.634037
0	C	0.0362225	0.560237	0.634037
0	C	0.439763	0.475987	0.634037
0	C	0.630442	0.857349	0.199297
0	C	0.226903	0.369557	0.199297
0	C	0.142651	0.773096	0.199297
0	C	0.847678	0.671641	0.0240201
0	C	0.328359	0.17604	0.0240201
0	C	0.823958	0.15232	0.0240201
0	C	0.671638	0.84768	0.475979
0	C	0.176039	0.32836	0.475979
0	C	0.152318	0.823961	0.475979
0	C	0.152319	0.32836	0.975979
0	C	0.671638	0.823961	0.975979
0	C	0.176038	0.84768	0.975979
0	C	0.32836	0.15232	0.524021
0	C	0.82396	0.671641	0.524021
0	C	0.847679	0.17604	0.524021
0	C	0.514346	0.0049733	0.357353
0	C	0.995024	0.509374	0.357353
0	C	0.490626	0.485654	0.357353
0	C	0.338306	0.181014	0.809313
0	C	0.842704	0.661693	0.809313
0	C	0.818984	0.157293	0.809313
0	C	0.818986	0.661693	0.309313
0	C	0.338306	0.157293	0.309313
0	C	0.842706	0.181014	0.309313
0	C	0.995025	0.485654	0.857353
0	C	0.490628	0.0049733	0.857353
0	C	0.514346	0.509374	0.857353
0	C	0.181013	0.338307	0.690687
0	C	0.661691	0.842706	0.690687
0	C	0.157291	0.818986	0.690687
0	C	0.00497233	0.514347	0.142647
0	C	0.509371	0.995026	0.142647
0	C	0.485652	0.490627	0.142647
0	C	0.485651	0.995026	0.642647
0	C	0.0049726	0.490627	0.642647
0	C	0.509373	0.514347	0.642647
0	C	0.661692	0.818986	0.190687
0	C	0.157293	0.338307	0.190687
0	C	0.181011	0.842706	0.190687
0	H	0.832931	0.645603	0.00796
0	H	0.3544	0.18733	0.00796
0	H	0.812668	0.16707	0.00796
0	H	0.645598	0.83293	0.49204
0	H	0.187329	0.3544	0.49204
0	H	0.16707	0.812673	0.49204
0	H	0.167069	0.3544	0.99204
0	H	0.6456	0.812673	0.99204
0	H	0.187328	0.83293	0.99204
0	H	0.3544	0.16707	0.50796
0	H	0.812669	0.645603	0.50796
0	H	0.832932	0.18733	0.50796
0	H	0.499596	0.978937	0.341294
0	H	0.0210659	0.520664	0.341294
0	H	0.479336	0.500404	0.341294
0	H	0.312267	0.166263	0.825374
0	H	0.853997	0.687735	0.825374
0	H	0.833737	0.146004	0.825374
0	H	0.833735	0.687735	0.325374
0	H	0.312266	0.146004	0.325374
0	H	0.853996	0.166263	0.325374
0	H	0.021066	0.500404	0.841294
0	H	0.479336	0.978937	0.841294
0	H	0.499596	0.520664	0.841294
0	H	0.166263	0.312267	0.674626
0	H	0.687732	0.853999	0.674626
0	H	0.146001	0.833737	0.674626
0	H	0.978931	0.499597	0.158707
0	H	0.520664	0.0210667	0.158707
0	H	0.500403	0.479337	0.158707
0	H	0.500402	0.0210667	0.658706
0	H	0.978934	0.479337	0.658706
0	H	0.520663	0.499597	0.658706
0	H	0.687732	0.833737	0.174626
0	H	0.146003	0.312267	0.174626
0	H	0.166262	0.853999	0.174626
0	C	0.904827	0.673641	0.03585
0	C	0.32636	0.23119	0.03585
0	C	0.768811	0.09517	0.03585
0	C	0.673638	0.904831	0.46415
0	C	0.23119	0.32636	0.46415
0	C	0.0951683	0.76881	0.46415
0	C	0.0951694	0.32636	0.96415
0	C	0.673638	0.76881	0.96415
0	C	0.231188	0.904831	0.96415
0	C	0.32636	0.09517	0.53585
0	C	0.768809	0.673641	0.53585
0	C	0.904831	0.23119	0.53585
0	C	0.571494	0.00697339	0.369183
0	C	0.993027	0.564523	0.369183
0	C	0.435476	0.428504	0.369183
0	C	0.340306	0.238164	0.797484
0	C	0.897852	0.659692	0.797484
0	C	0.761838	0.102143	0.797484
0	C	0.761835	0.659692	0.297484
0	C	0.340306	0.102143	0.297484
0	C	0.897858	0.238164	0.297484
0	C	0.993027	0.428504	0.869183
0	C	0.435477	0.00697339	0.869183
0	C	0.571495	0.564523	0.869183
0	C	0.238163	0.340307	0.702516
0	C	0.659691	0.897857	0.702516
0	C	0.102141	0.761836	0.702516
0	C	0.00697249	0.571498	0.130817
0	C	0.56452	0.993026	0.130817
0	C	0.428503	0.435477	0.130817
0	C	0.4285	0.993026	0.630817
0	C	0.00697264	0.435477	0.630817
0	C	0.564523	0.571498	0.630817
0	C	0.659691	0.761836	0.202516
0	C	0.102143	0.340307	0.202516
0	C	0.238161	0.897857	0.202516
0	C	0.897999	0.773392	0.08839
0	C	0.22661	0.12461	0.08839
0	C	0.875391	0.102	0.08839
0	C	0.773389	0.898002	0.41161
0	C	0.12461	0.226611	0.41161
0	C	0.101998	0.87539	0.41161
0	C	0.102	0.226611	0.91161
0	C	0.773388	0.87539	0.91161
0	C	0.124609	0.898002	0.91161
0	C	0.22661	0.102	0.58839
0	C	0.875389	0.773392	0.58839
0	C	0.897998	0.12461	0.58839
0	C	0.564666	0.106723	0.421724
0	C	0.893275	0.457944	0.421724
0	C	0.542056	0.435334	0.421724
0	C	0.440056	0.231333	0.744944
0	C	0.791274	0.559942	0.744944
0	C	0.768665	0.208724	0.744944
0	C	0.768665	0.559942	0.244944
0	C	0.440056	0.208724	0.244944
0	C	0.791277	0.231333	0.244944
0	C	0.893277	0.435334	0.921724
0	C	0.542057	0.106723	0.921724
0	C	0.564666	0.457944	0.921724
0	C	0.231333	0.440057	0.755056
0	C	0.559942	0.791277	0.755056
0	C	0.208723	0.76867	0.755056
0	C	0.106723	0.564668	0.0782767
0	C	0.457943	0.89328	0.0782767
0	C	0.435332	0.542057	0.0782767
0	C	0.435333	0.89328	0.578276
0	C	0.106722	0.542057	0.578276
0	C	0.457943	0.564668	0.578276
0	C	0.559944	0.76867	0.255056
0	C	0.208723	0.440057	0.255056
0	C	0.231332	0.791277	0.255056
0	H	0.90994	0.829752	0.0867599
0	H	0.17025	0.0801903	0.0867599
0	H	0.919809	0.0900599	0.0867599
0	H	0.829748	0.90994	0.41324
0	H	0.0801897	0.17025	0.41324
0	H	0.0900592	0.919812	0.41324
0	H	0.0900597	0.17025	0.91324
0	H	0.829749	0.919812	0.91324
0	H	0.0801878	0.90994	0.91324
0	H	0.17025	0.0900599	0.58676
0	H	0.919808	0.829752	0.58676
0	H	0.909938	0.0801903	0.58676
0	H	0.576607	0.163084	0.420094
0	H	0.836916	0.413524	0.420094
0	H	0.586476	0.423394	0.420094
0	H	0.496416	0.243273	0.746574
0	H	0.746857	0.503584	0.746574
0	H	0.756726	0.253144	0.746574
0	H	0.756725	0.503584	0.246574
0	H	0.496416	0.253144	0.246574
0	H	0.746854	0.243273	0.246574
0	H	0.836914	0.423394	0.920094
0	H	0.586476	0.163084	0.920094
0	H	0.576606	0.413524	0.920094
0	H	0.243272	0.496417	0.753426
0	H	0.503583	0.74686	0.753426
0	H	0.253142	0.756727	0.753426
0	H	0.163082	0.576606	0.0799067
0	H	0.413523	0.83692	0.0799067
0	H	0.423393	0.586479	0.0799067
0	H	0.423393	0.83692	0.579906
0	H	0.163083	0.586479	0.579906
0	H	0.413522	0.576606	0.579906
0	H	0.503582	0.756727	0.253426
0	H	0.253142	0.496417	0.253426
0	H	0.243273	0.74686	0.253426
0	H	0.943228	0.774101	0.09742
0	H	0.2259	0.16913	0.09742
0	H	0.83087	0.0567701	0.09742
0	H	0.774098	0.943231	0.402581
0	H	0.16913	0.2259	0.402581
0	H	0.0567684	0.83087	0.402581
0	H	0.0567696	0.2259	0.902581
0	H	0.774098	0.83087	0.902581
0	H	0.169128	0.943231	0.902581
0	H	0.2259	0.0567701	0.597419
0	H	0.830869	0.774101	0.597419
0	H	0.943231	0.16913	0.597419
0	H	0.609896	0.107434	0.430753
0	H	0.892567	0.502464	0.430753
0	H	0.497536	0.390104	0.430753
0	H	0.440766	0.276564	0.735913
0	H	0.835794	0.559232	0.735913
0	H	0.723438	0.164204	0.735913
0	H	0.723435	0.559232	0.235913
0	H	0.440766	0.164204	0.235913
0	H	0.835794	0.276564	0.235913
0	H	0.892564	0.390104	0.930753
0	H	0.497537	0.107434	0.930753
0	H	0.609896	0.502464	0.930753
0	H	0.276562	0.440767	0.764087
0	H	0.559231	0.835796	0.764087
0	H	0.164201	0.723436	0.764087
0	H	0.107432	0.609898	0.0692466
0	H	0.502461	0.892565	0.0692466
0	H	0.390102	0.497537	0.0692466
0	H	0.390101	0.892565	0.569247
0	H	0.107432	0.497537	0.569247
0	H	0.502462	0.609898	0.569247
0	H	0.559231	0.723436	0.264087
0	H	0.164202	0.440767	0.264087
0	H	0.276561	0.835796	0.264087
0	H	0.849298	0.74345	0.09879
0	H	0.25655	0.10585	0.09879
0	H	0.894148	0.1507	0.09879
0	H	0.743448	0.849299	0.40121
0	H	0.10585	0.25655	0.40121
0	H	0.150699	0.894152	0.40121
0	H	0.150699	0.25655	0.90121
0	H	0.743449	0.894152	0.90121
0	H	0.105847	0.849299	0.90121
0	H	0.25655	0.1507	0.59879
0	H	0.894149	0.74345	0.59879
0	H	0.8493	0.10585	0.59879
0	H	0.515966	0.0767831	0.432123
0	H	0.923218	0.439184	0.432123
0	H	0.560816	0.484034	0.432123
0	H	0.410117	0.182634	0.734544
0	H	0.772515	0.589883	0.734544
0	H	0.817369	0.227484	0.734544
0	H	0.817366	0.589883	0.234544
0	H	0.410116	0.227484	0.234544
0	H	0.772516	0.182634	0.234544
0	H	0.923215	0.484034	0.932123
0	H	0.560817	0.0767831	0.932123
0	H	0.515966	0.439184	0.932123
0	H	0.182633	0.410117	0.765456
0	H	0.589881	0.772515	0.765456
0	H	0.227482	0.817368	0.765456
0	H	0.0767824	0.515967	0.0678766
0	H	0.439181	0.923216	0.0678766
0	H	0.484033	0.560818	0.0678766
0	H	0.484031	0.923216	0.567877
0	H	0.0767828	0.560818	0.567877
0	H	0.439182	0.515967	0.567877
0	H	0.589882	0.817368	0.265456
0	H	0.227483	0.410117	0.265456
0	H	0.182631	0.772515	0.265456
0	C	0.747549	0.699372	0.0200399
0	C	0.30063	0.0481801	0.0200399
0	C	0.951817	0.25245	0.0200399
0	C	0.69937	0.747553	0.47996
0	C	0.0481797	0.30063	0.47996
0	C	0.252447	0.951819	0.47996
0	C	0.25245	0.30063	0.97996
0	C	0.699367	0.951819	0.97996
0	C	0.0481799	0.747553	0.97996
0	C	0.30063	0.25245	0.52004
0	C	0.951818	0.699372	0.52004
0	C	0.747551	0.0481801	0.52004
0	C	0.414216	0.0327034	0.353374
0	C	0.967297	0.381514	0.353374
0	C	0.618486	0.585785	0.353374
0	C	0.366037	0.0808834	0.813294
0	C	0.714847	0.633967	0.813294
0	C	0.919117	0.285154	0.813294
0	C	0.919116	0.633967	0.313294
0	C	0.366036	0.285154	0.313294
0	C	0.714846	0.0808834	0.313294
0	C	0.967296	0.585785	0.853374
0	C	0.618485	0.0327034	0.853374
0	C	0.414216	0.381514	0.853374
0	C	0.0808829	0.366037	0.686706
0	C	0.633963	0.714848	0.686706
0	C	0.285152	0.919119	0.686706
0	C	0.0327027	0.414217	0.146627
0	C	0.381513	0.9673	0.146627
0	C	0.585781	0.618485	0.146627
0	C	0.585783	0.9673	0.646626
0	C	0.0327015	0.618485	0.646626
0	C	0.381513	0.414217	0.646626
0	C	0.633962	0.919119	0.186706
0	C	0.285153	0.366037	0.186706
0	C	0.0808822	0.714848	0.186706
0	H	0.698708	0.67448	0.0304701
0	H	0.32552	0.0242301	0.0304701
0	H	0.975772	0.301291	0.0304701
0	H	0.674479	0.698711	0.46953
0	H	0.0242293	0.325521	0.46953
0	H	0.301287	0.97577	0.46953
0	H	0.30129	0.325521	0.96953
0	H	0.674477	0.97577	0.96953
0	H	0.0242285	0.698711	0.96953
0	H	0.325519	0.301291	0.53047
0	H	0.975766	0.67448	0.53047
0	H	0.698712	0.0242301	0.53047
0	H	0.365376	0.00781334	0.363804
0	H	0.992187	0.357564	0.363804
0	H	0.642435	0.634623	0.363804
0	H	0.341147	0.0320434	0.802864
0	H	0.690895	0.658853	0.802864
0	H	0.967957	0.309104	0.802864
0	H	0.967953	0.658853	0.302864
0	H	0.341146	0.309104	0.302864
0	H	0.690897	0.0320434	0.302864
0	H	0.992185	0.634623	0.863804
0	H	0.642434	0.00781334	0.863804
0	H	0.365376	0.357564	0.863804
0	H	0.0320426	0.341147	0.697136
0	H	0.658852	0.690897	0.697136
0	H	0.309101	0.967956	0.697136
0	H	0.00781289	0.365377	0.136197
0	H	0.357561	0.992187	0.136197
0	H	0.634622	0.642436	0.136197
0	H	0.634621	0.992187	0.636196
0	H	0.00781157	0.642436	0.636196
0	H	0.357563	0.365377	0.636196
0	H	0.658851	0.967956	0.197136
0	H	0.309103	0.341147	0.197136
0	H	0.032042	0.690897	0.197136
0	H	0.735418	0.665559	0.00502
0	H	0.33444	0.0698603	0.00502
0	H	0.930141	0.26458	0.00502
0	H	0.665559	0.735422	0.49498
0	H	0.0698595	0.334441	0.49498
0	H	0.264579	0.930142	0.49498
0	H	0.264579	0.334441	0.99498
0	H	0.665559	0.930142	0.99498
0	H	0.0698594	0.735422	0.99498
0	H	0.33444	0.26458	0.50502
0	H	0.930138	0.665559	0.50502
0	H	0.735418	0.0698603	0.50502
0	H	0.402084	0.998892	0.338353
0	H	0.00110596	0.403194	0.338353
0	H	0.596804	0.597911	0.338353
0	H	0.332227	0.0687536	0.828314
0	H	0.736526	0.667774	0.828314
0	H	0.931245	0.263474	0.828314
0	H	0.931246	0.667774	0.328314
0	H	0.332226	0.263474	0.328314
0	H	0.736528	0.0687536	0.328314
0	H	0.00110443	0.597911	0.838353
0	H	0.596804	0.998892	0.838353
0	H	0.402086	0.403194	0.838353
0	H	0.0687529	0.332227	0.671686
0	H	0.667773	0.73653	0.671686
0	H	0.263473	0.93125	0.671686
0	H	0.998894	0.402087	0.161647
0	H	0.403193	0.00110666	0.161647
0	H	0.597913	0.596809	0.161647
0	H	0.597914	0.00110666	0.661647
0	H	0.998892	0.596809	0.661647
0	H	0.403193	0.402087	0.661647
0	H	0.667773	0.93125	0.171686
0	H	0.263473	0.332227	0.171686
0	H	0.068753	0.73653	0.171686
0	H	0.760108	0.75427	0.01514
0	H	0.24573	0.00584	0.01514
0	H	0.994161	0.239891	0.01514
0	H	0.754268	0.760109	0.484859
0	H	0.00583974	0.24573	0.484859
0	H	0.239888	0.99416	0.484859
0	H	0.239889	0.24573	0.984859
0	H	0.754268	0.99416	0.984859
0	H	0.00583802	0.760109	0.984859
0	H	0.24573	0.239891	0.515141
0	H	0.99416	0.75427	0.515141
0	H	0.760111	0.00584	0.515141
0	H	0.426777	0.0876035	0.348473
0	H	0.912397	0.339174	0.348473
0	H	0.660826	0.573224	0.348473
0	H	0.420936	0.0934434	0.818193
0	H	0.672506	0.579064	0.818193
0	H	0.906557	0.327493	0.818193
0	H	0.906557	0.579064	0.318193
0	H	0.420936	0.327493	0.318193
0	H	0.672508	0.0934434	0.318193
0	H	0.912397	0.573224	0.848473
0	H	0.660828	0.0876035	0.848473
0	H	0.426776	0.339174	0.848473
0	H	0.0934428	0.420937	0.681807
0	H	0.579062	0.672507	0.681807
0	H	0.327491	0.906557	0.681807
0	H	0.0876026	0.426777	0.151527
0	H	0.339172	0.912397	0.151527
0	H	0.573222	0.660827	0.151527
0	H	0.573221	0.912397	0.651527
0	H	0.087602	0.660827	0.651527
0	H	0.339173	0.426777	0.651527
0	H	0.579062	0.906557	0.181807
0	H	0.327493	0.420937	0.181807
0	H	0.0934418	0.672507	0.181807
0	C	0.944519	0.639489	0.0255
0	C	0.36051	0.305031	0.0255
0	C	0.694969	0.0554801	0.0255
0	C	0.639489	0.944522	0.4745
0	C	0.305029	0.360511	0.4745
0	C	0.05548	0.694973	0.4745
0	C	0.0554795	0.360511	0.9745
0	C	0.63949	0.694973	0.9745
0	C	0.305029	0.944522	0.9745
0	C	0.36051	0.0554801	0.5255
0	C	0.694968	0.639489	0.5255
0	C	0.944521	0.305031	0.5255
0	C	0.611184	0.972823	0.358834
0	C	0.0271763	0.638365	0.358834
0	C	0.361636	0.388814	0.358834
0	C	0.306156	0.277854	0.807833
0	C	0.971696	0.693844	0.807833
0	C	0.722147	0.0283034	0.807833
0	C	0.722145	0.693844	0.307833
0	C	0.306157	0.0283034	0.307833
0	C	0.971695	0.277854	0.307833
0	C	0.0271761	0.388814	0.858834
0	C	0.361634	0.972823	0.858834
0	C	0.611186	0.638365	0.858834
0	C	0.277853	0.306157	0.692167
0	C	0.693842	0.971699	0.692167
0	C	0.0283009	0.722145	0.692167
0	C	0.972821	0.611188	0.141167
0	C	0.638364	0.0271767	0.141167
0	C	0.388813	0.361637	0.141167
0	C	0.388813	0.0271767	0.641166
0	C	0.972825	0.361637	0.641166
0	C	0.638363	0.611188	0.641166
0	C	0.693841	0.722145	0.192167
0	C	0.0283029	0.306157	0.192167
0	C	0.277852	0.971699	0.192167
0	H	0.00338013	0.676093	0.02657
0	H	0.323909	0.32729	0.02657
0	H	0.672709	0.996623	0.02657
0	H	0.67609	0.00338	0.473429
0	H	0.32729	0.323911	0.473429
0	H	0.99662	0.672711	0.473429
0	H	0.996619	0.323911	0.973429
0	H	0.676089	0.672711	0.973429
0	H	0.32729	0.00338	0.973429
0	H	0.323909	0.996623	0.526571
0	H	0.67271	0.676093	0.526571
0	H	0.00337928	0.32729	0.526571
0	H	0.670045	0.00942338	0.359903
0	H	0.990576	0.660622	0.359903
0	H	0.339376	0.329954	0.359903
0	H	0.342756	0.336714	0.806763
0	H	0.993954	0.657245	0.806763
0	H	0.663288	0.00604332	0.806763
0	H	0.663286	0.657245	0.306763
0	H	0.342757	0.00604332	0.306763
0	H	0.993958	0.336714	0.306763
0	H	0.990578	0.329954	0.859903
0	H	0.339377	0.00942338	0.859903
0	H	0.670045	0.660622	0.859903
0	H	0.336713	0.342757	0.693237
0	H	0.657241	0.993956	0.693237
0	H	0.00604313	0.66329	0.693237
0	H	0.0094228	0.670049	0.140097
0	H	0.660622	0.990579	0.140097
0	H	0.329953	0.339377	0.140097
0	H	0.329952	0.990579	0.640097
0	H	0.00942262	0.339377	0.640097
0	H	0.660623	0.670049	0.640097
0	H	0.657243	0.66329	0.193237
0	H	0.00604271	0.342757	0.193237
0	H	0.336711	0.993956	0.193237
0	H	0.930361	0.626503	0.00773
0	H	0.3735	0.30386	0.00773
0	H	0.696139	0.0696398	0.00773
0	H	0.626499	0.930363	0.492271
0	H	0.303859	0.3735	0.492271
0	H	0.0696385	0.69614	0.492271
0	H	0.0696392	0.3735	0.992271
0	H	0.626498	0.69614	0.992271
0	H	0.303859	0.930363	0.992271
0	H	0.3735	0.0696398	0.507729
0	H	0.69614	0.626503	0.507729
0	H	0.930361	0.30386	0.507729
0	H	0.597026	0.959836	0.341063
0	H	0.0401652	0.637193	0.341063
0	H	0.362806	0.402974	0.341063
0	H	0.293166	0.263694	0.825603
0	H	0.970527	0.706836	0.825603
0	H	0.736307	0.0294733	0.825603
0	H	0.736306	0.706836	0.325603
0	H	0.293167	0.0294733	0.325603
0	H	0.970525	0.263694	0.325603
0	H	0.040166	0.402974	0.841063
0	H	0.362806	0.959836	0.841063
0	H	0.597025	0.637193	0.841063
0	H	0.263693	0.293167	0.674397
0	H	0.706831	0.970527	0.674397
0	H	0.0294727	0.736309	0.674397
0	H	0.959832	0.59703	0.158937
0	H	0.637194	0.0401667	0.158937
0	H	0.402973	0.362807	0.158937
0	H	0.402973	0.0401667	0.658937
0	H	0.959835	0.362807	0.658937
0	H	0.637194	0.59703	0.658937
0	H	0.706833	0.736309	0.174397
0	H	0.0294727	0.293167	0.174397
0	H	0.263691	0.970527	0.174397
0	H	0.930439	0.588818	0.03417
0	H	0.41118	0.34162	0.03417
0	H	0.658382	0.0695602	0.03417
0	H	0.58882	0.930444	0.465831
0	H	0.341619	0.411181	0.465831
0	H	0.0695587	0.65838	0.465831
0	H	0.0695595	0.411181	0.965831
0	H	0.588818	0.65838	0.965831
0	H	0.34162	0.930444	0.965831
0	H	0.41118	0.0695602	0.534171
0	H	0.658378	0.588818	0.534171
0	H	0.930441	0.34162	0.534171
0	H	0.597106	0.922157	0.367503
0	H	0.0778452	0.674953	0.367503
0	H	0.325046	0.402894	0.367503
0	H	0.255486	0.263774	0.799163
0	H	0.00828566	0.744515	0.799163
0	H	0.736225	0.991713	0.799163
0	H	0.736226	0.744515	0.299163
0	H	0.255484	0.991713	0.299163
0	H	0.0082862	0.263774	0.299163
0	H	0.0778458	0.402894	0.867503
0	H	0.325046	0.922157	0.867503
0	H	0.597105	0.674953	0.867503
0	H	0.263773	0.255487	0.700837
0	H	0.744514	0.00828671	0.700837
0	H	0.991715	0.736229	0.700837
0	H	0.922149	0.597105	0.132497
0	H	0.674955	0.0778468	0.132497
0	H	0.402893	0.325047	0.132497
0	H	0.402893	0.0778468	0.632497
0	H	0.922155	0.325047	0.632497
0	H	0.674951	0.597105	0.632497
0	H	0.744513	0.736229	0.200837
0	H	0.991714	0.255487	0.200837
0	H	0.263773	0.00828671	0.200837
0	C	0.90965	0.52088	0.0727699
0	C	0.479119	0.38877	0.0727699
0	C	0.611231	0.0903503	0.0727699
0	C	0.520878	0.909649	0.42723
0	C	0.388769	0.479121	0.42723
0	C	0.0903492	0.611231	0.42723
0	C	0.0903493	0.479121	0.92723
0	C	0.520879	0.611231	0.92723
0	C	0.388767	0.909649	0.92723
0	C	0.47912	0.0903503	0.57277
0	C	0.611229	0.52088	0.57277
0	C	0.909649	0.38877	0.57277
0	C	0.576315	0.854214	0.406104
0	C	0.145784	0.722102	0.406104
0	C	0.277896	0.423684	0.406104
0	C	0.187546	0.242984	0.760564
0	C	0.0554345	0.812453	0.760564
0	C	0.757015	0.944565	0.760564
0	C	0.757015	0.812453	0.260564
0	C	0.187545	0.944565	0.260564
0	C	0.0554362	0.242984	0.260564
0	C	0.145786	0.423684	0.906104
0	C	0.277895	0.854214	0.906104
0	C	0.576314	0.722102	0.906104
0	C	0.242983	0.187547	0.739436
0	C	0.812451	0.0554365	0.739436
0	C	0.944563	0.757017	0.739436
0	C	0.854213	0.576316	0.0938967
0	C	0.722104	0.145787	0.0938967
0	C	0.423683	0.277897	0.0938967
0	C	0.423683	0.145787	0.593896
0	C	0.854213	0.277897	0.593896
0	C	0.722102	0.576316	0.593896
0	C	0.812452	0.757017	0.239436
0	C	0.944565	0.187547	0.239436
0	C	0.242983	0.0554365	0.239436
0	H	0.95582	0.524171	0.0644201
0	H	0.47583	0.431651	0.0644201
0	H	0.56835	0.0441801	0.0644201
0	H	0.524167	0.955819	0.435579
0	H	0.431649	0.475831	0.435579
0	H	0.0441794	0.568352	0.435579
0	H	0.0441793	0.475831	0.935579
0	H	0.524169	0.568352	0.935579
0	H	0.431647	0.955819	0.935579
0	H	0.47583	0.0441801	0.564421
0	H	0.568349	0.524171	0.564421
0	H	0.955818	0.431651	0.564421
0	H	0.622485	0.857505	0.397753
0	H	0.142497	0.764987	0.397753
0	H	0.235016	0.377514	0.397753
0	H	0.190836	0.289154	0.768913
0	H	0.0983141	0.809162	0.768913
0	H	0.710845	0.901685	0.768913
0	H	0.710844	0.809162	0.268913
0	H	0.190835	0.901685	0.268913
0	H	0.0983162	0.289154	0.268913
0	H	0.142496	0.377514	0.897753
0	H	0.235015	0.857505	0.897753
0	H	0.622487	0.764987	0.897753
0	H	0.289153	0.190837	0.731087
0	H	0.809162	0.0983169	0.731087
0	H	0.901682	0.710847	0.731087
0	H	0.857501	0.622486	0.102247
0	H	0.764984	0.142497	0.102247
0	H	0.377513	0.235017	0.102247
0	H	0.377513	0.142497	0.602247
0	H	0.857501	0.235017	0.602247
0	H	0.764982	0.622486	0.602247
0	H	0.809162	0.710847	0.231087
0	H	0.901684	0.190837	0.231087
0	H	0.289153	0.0983169	0.231087
0	C	0.844018	0.456351	0.07234
0	C	0.543649	0.387671	0.07234
0	C	0.612328	0.15598	0.07234
0	C	0.45635	0.844024	0.427659
0	C	0.387668	0.543648	0.427659
0	C	0.155978	0.612328	0.427659
0	C	0.155978	0.543648	0.927659
0	C	0.456348	0.612328	0.927659
0	C	0.38767	0.844024	0.927659
0	C	0.54365	0.15598	0.572341
0	C	0.612329	0.456351	0.572341
0	C	0.844019	0.387671	0.572341
0	C	0.510686	0.789685	0.405673
0	C	0.210316	0.721005	0.405673
0	C	0.278996	0.489314	0.405673
0	C	0.123016	0.177354	0.760993
0	C	0.0543362	0.876987	0.760993
0	C	0.822646	0.945667	0.760993
0	C	0.822647	0.876987	0.260993
0	C	0.123016	0.945667	0.260993
0	C	0.0543364	0.177354	0.260993
0	C	0.210316	0.489314	0.905673
0	C	0.278996	0.789685	0.905673
0	C	0.510686	0.721005	0.905673
0	C	0.177353	0.123017	0.739007
0	C	0.876982	0.0543369	0.739007
0	C	0.94566	0.822648	0.739007
0	C	0.78968	0.510687	0.0943267
0	C	0.721002	0.210317	0.0943267
0	C	0.489313	0.278997	0.0943267
0	C	0.489313	0.210317	0.594327
0	C	0.789682	0.278997	0.594327
0	C	0.721002	0.510687	0.594327
0	C	0.876982	0.822648	0.239007
0	C	0.945662	0.123017	0.239007
0	C	0.177353	0.0543369	0.239007
0	H	0.839191	0.41052	0.06341
0	H	0.589479	0.428671	0.06341
0	H	0.571331	0.16081	0.06341
0	H	0.410518	0.839189	0.436591
0	H	0.428669	0.58948	0.436591
0	H	0.160809	0.571331	0.436591
0	H	0.160808	0.58948	0.936591
0	H	0.410519	0.571331	0.936591
0	H	0.428668	0.839189	0.936591
0	H	0.589479	0.16081	0.563409
0	H	0.571329	0.41052	0.563409
0	H	0.839189	0.428671	0.563409
0	H	0.505855	0.743854	0.396743
0	H	0.256144	0.762002	0.396743
0	H	0.237996	0.494144	0.396743
0	H	0.0771865	0.172524	0.769923
0	H	0.0953344	0.922813	0.769923
0	H	0.827475	0.904664	0.769923
0	H	0.827474	0.922813	0.269923
0	H	0.0771851	0.904664	0.269923
0	H	0.0953364	0.172524	0.269923
0	H	0.256146	0.494144	0.896743
0	H	0.237995	0.743854	0.896743
0	H	0.505854	0.762002	0.896743
0	H	0.172523	0.077187	0.730077
0	H	0.922815	0.0953367	0.730077
0	H	0.904663	0.827477	0.730077
0	H	0.743853	0.505857	0.103257
0	H	0.762004	0.256147	0.103257
0	H	0.494143	0.237997	0.103257
0	H	0.494143	0.256147	0.603257
0	H	0.743853	0.237997	0.603257
0	H	0.762001	0.505857	0.603257
0	H	0.922811	0.827477	0.230077
0	H	0.904664	0.077187	0.230077
0	H	0.172523	0.0953367	0.230077
0	C	0.24808	0.878224	0.0663601
0	C	0.121779	0.36986	0.0663601
0	C	0.630138	0.75192	0.0663601
0	C	0.878218	0.24808	0.43364
0	C	0.36986	0.12178	0.43364
0	C	0.75192	0.630143	0.43364
0	C	0.75192	0.12178	0.93364
0	C	0.878221	0.630143	0.93364
0	C	0.36986	0.24808	0.93364
0	C	0.121778	0.75192	0.56636
0	C	0.63014	0.878224	0.56636
0	C	0.248079	0.36986	0.56636
0	C	0.914749	0.211554	0.399693
0	C	0.788446	0.703195	0.399693
0	C	0.296806	0.0852536	0.399693
0	C	0.544885	0.581414	0.766974
0	C	0.0365261	0.455114	0.766974
0	C	0.418586	0.963477	0.766974
0	C	0.418586	0.455114	0.266974
0	C	0.544886	0.963477	0.266974
0	C	0.0365256	0.581414	0.266974
0	C	0.788446	0.0852536	0.899693
0	C	0.296807	0.211554	0.899693
0	C	0.914747	0.703195	0.899693
0	C	0.581411	0.544885	0.733026
0	C	0.455113	0.0365267	0.733026
0	C	0.963471	0.418587	0.733026
0	C	0.211551	0.914747	0.100307
0	C	0.703193	0.788448	0.100307
0	C	0.0852527	0.296807	0.100307
0	C	0.0852521	0.788448	0.600307
0	C	0.211553	0.296807	0.600307
0	C	0.703191	0.914747	0.600307
0	C	0.455113	0.418587	0.233026
0	C	0.963472	0.544885	0.233026
0	C	0.581414	0.0365267	0.233026
0	C	0.237128	0.82766	0.0474101
0	C	0.172339	0.409471	0.0474101
0	C	0.59053	0.762873	0.0474101
0	C	0.827659	0.23713	0.45259
0	C	0.40947	0.17234	0.45259
0	C	0.762867	0.590528	0.45259
0	C	0.762871	0.17234	0.95259
0	C	0.827659	0.590528	0.95259
0	C	0.40947	0.23713	0.95259
0	C	0.17234	0.762873	0.54741
0	C	0.590528	0.82766	0.54741
0	C	0.237129	0.409471	0.54741
0	C	0.903798	0.160994	0.380744
0	C	0.839005	0.742805	0.380744
0	C	0.257197	0.0962036	0.380744
0	C	0.494326	0.570465	0.785924
0	C	0.076136	0.505674	0.785924
0	C	0.429536	0.923867	0.785924
0	C	0.429536	0.505674	0.285924
0	C	0.494326	0.923867	0.285924
0	C	0.0761363	0.570465	0.285924
0	C	0.839005	0.0962036	0.880744
0	C	0.257196	0.160994	0.880744
0	C	0.903797	0.742805	0.880744
0	C	0.570463	0.494327	0.714076
0	C	0.505672	0.0761368	0.714076
0	C	0.923862	0.429537	0.714076
0	C	0.160992	0.903799	0.119257
0	C	0.742801	0.839006	0.119257
0	C	0.0962029	0.257197	0.119257
0	C	0.0962012	0.839006	0.619256
0	C	0.160993	0.257197	0.619256
0	C	0.742802	0.903799	0.619256
0	C	0.505673	0.429537	0.214076
0	C	0.923863	0.494327	0.214076
0	C	0.570464	0.0761368	0.214076
0	H	0.2804	0.813663	0.0477001
0	H	0.186339	0.46674	0.0477001
0	H	0.533259	0.719602	0.0477001
0	H	0.813659	0.280401	0.4523
0	H	0.46674	0.18634	0.4523
0	H	0.719599	0.533261	0.4523
0	H	0.719599	0.18634	0.9523
0	H	0.813657	0.533261	0.9523
0	H	0.46674	0.280401	0.9523
0	H	0.186339	0.719602	0.5477
0	H	0.53326	0.813663	0.5477
0	H	0.280399	0.46674	0.5477
0	H	0.947065	0.146994	0.381034
0	H	0.853005	0.800074	0.381034
0	H	0.199927	0.0529334	0.381034
0	H	0.480324	0.613732	0.785634
0	H	0.133406	0.519674	0.785634
0	H	0.386264	0.866592	0.785634
0	H	0.386266	0.519674	0.285634
0	H	0.480324	0.866592	0.285634
0	H	0.133404	0.613732	0.285634
0	H	0.853005	0.0529334	0.881034
0	H	0.199926	0.146994	0.881034
0	H	0.947063	0.800074	0.881034
0	H	0.613733	0.480327	0.714366
0	H	0.519673	0.133407	0.714366
0	H	0.866592	0.386267	0.714366
0	H	0.146993	0.94707	0.118967
0	H	0.800073	0.853009	0.118967
0	H	0.0529329	0.199927	0.118967
0	H	0.0529326	0.853009	0.618966
0	H	0.146993	0.199927	0.618966
0	H	0.800073	0.94707	0.618966
0	H	0.519673	0.386267	0.214366
0	H	0.866592	0.480327	0.214366
0	H	0.613731	0.133407	0.214366
0	H	0.240098	0.854881	0.03147
0	H	0.145119	0.38522	0.03147
0	H	0.614778	0.7599	0.03147
0	H	0.854878	0.2401	0.46853
0	H	0.38522	0.14512	0.46853
0	H	0.759899	0.61478	0.46853
0	H	0.759902	0.14512	0.96853
0	H	0.854878	0.61478	0.96853
0	H	0.385219	0.2401	0.96853
0	H	0.145118	0.7599	0.53147
0	H	0.614778	0.854881	0.53147
0	H	0.240099	0.38522	0.53147
0	H	0.906767	0.188214	0.364804
0	H	0.811785	0.718553	0.364804
0	H	0.281447	0.0932336	0.364804
0	H	0.521545	0.573434	0.801864
0	H	0.0518857	0.478454	0.801864
0	H	0.426564	0.948114	0.801864
0	H	0.426566	0.478454	0.301864
0	H	0.521545	0.948114	0.301864
0	H	0.0518852	0.573434	0.301864
0	H	0.811785	0.0932336	0.864804
0	H	0.281447	0.188214	0.864804
0	H	0.906764	0.718553	0.864804
0	H	0.573432	0.521547	0.698136
0	H	0.478453	0.0518867	0.698136
0	H	0.948111	0.426567	0.698136
0	H	0.188212	0.906767	0.135197
0	H	0.718551	0.811786	0.135197
0	H	0.0932327	0.281447	0.135197
0	H	0.0932313	0.811786	0.635196
0	H	0.188213	0.281447	0.635196
0	H	0.718552	0.906767	0.635196
0	H	0.478453	0.426567	0.198136
0	H	0.948114	0.521547	0.198136
0	H	0.573432	0.0518867	0.198136
0	H	0.184918	0.776801	0.04787
0	H	0.223199	0.40812	0.04787
0	H	0.591879	0.815082	0.04787
0	H	0.776798	0.18492	0.452129
0	H	0.408119	0.2232	0.452129
0	H	0.815078	0.591883	0.452129
0	H	0.815078	0.2232	0.952129
0	H	0.776803	0.591883	0.952129
0	H	0.40812	0.18492	0.952129
0	H	0.223199	0.815082	0.547871
0	H	0.591879	0.776801	0.547871
0	H	0.184919	0.40812	0.547871
0	H	0.851586	0.110134	0.381203
0	H	0.889864	0.741455	0.381203
0	H	0.258547	0.148414	0.381203
0	H	0.443466	0.518254	0.785463
0	H	0.0747848	0.556532	0.785463
0	H	0.481746	0.925217	0.785463
0	H	0.481745	0.556532	0.285463
0	H	0.443466	0.925217	0.285463
0	H	0.0747857	0.518254	0.285463
0	H	0.889866	0.148414	0.881203
0	H	0.258547	0.110134	0.881203
0	H	0.851588	0.741455	0.881203
0	H	0.518252	0.443467	0.714537
0	H	0.556531	0.0747865	0.714537
0	H	0.925211	0.481748	0.714537
0	H	0.110133	0.85159	0.118797
0	H	0.741451	0.889866	0.118797
0	H	0.148413	0.258547	0.118797
0	H	0.148411	0.889866	0.618797
0	H	0.110133	0.258547	0.618797
0	H	0.741453	0.85159	0.618797
0	H	0.556533	0.481748	0.214537
0	H	0.925211	0.443467	0.214537
0	H	0.518255	0.0747865	0.214537
0	B	0.989726	0.71245	0.07009
0	B	0.28755	0.277281	0.07009
0	B	0.722719	0.01027	0.07009
0	B	0.712447	0.989729	0.429909
0	B	0.277279	0.28755	0.429909
0	B	0.0102686	0.722721	0.429909
0	B	0.0102696	0.28755	0.929909
0	B	0.712449	0.722721	0.929909
0	B	0.277277	0.989729	0.929909
0	B	0.28755	0.01027	0.570091
0	B	0.722718	0.71245	0.570091
0	B	0.989729	0.277281	0.570091
0	B	0.656395	0.0457834	0.403423
0	B	0.954213	0.610613	0.403423
0	B	0.389386	0.343604	0.403423
0	B	0.379116	0.323064	0.763243
0	B	0.943943	0.620884	0.763243
0	B	0.676935	0.0560533	0.763243
0	B	0.676935	0.620884	0.263243
0	B	0.379116	0.0560533	0.263243
0	B	0.943945	0.323064	0.263243
0	B	0.954215	0.343604	0.903423
0	B	0.389387	0.0457834	0.903423
0	B	0.656395	0.610613	0.903423
0	B	0.323062	0.379117	0.736757
0	B	0.620881	0.943946	0.736757
0	B	0.0560523	0.676937	0.736757
0	B	0.0457815	0.656396	0.0965766
0	B	0.610611	0.954217	0.0965766
0	B	0.343603	0.389387	0.0965766
0	B	0.343601	0.954217	0.596577
0	B	0.0457826	0.389387	0.596577
0	B	0.610611	0.656396	0.596577
0	B	0.620882	0.676937	0.236757
0	B	0.0560527	0.379117	0.236757
0	B	0.323061	0.943946	0.236757
0	N	0.0603799	0.783103	0.07006
0	N	0.2169	0.277281	0.07006
0	N	0.722719	0.939623	0.07006
0	N	0.783102	0.06038	0.429941
0	N	0.27728	0.2169	0.429941
0	N	0.939621	0.722721	0.429941
0	N	0.939621	0.2169	0.929941
0	N	0.783099	0.722721	0.929941
0	N	0.27728	0.06038	0.929941
0	N	0.216899	0.939623	0.570059
0	N	0.72272	0.783103	0.570059
0	N	0.0603797	0.277281	0.570059
0	N	0.727047	0.116433	0.403393
0	N	0.883567	0.610613	0.403393
0	N	0.389386	0.272954	0.403393
0	N	0.449766	0.393714	0.763273
0	N	0.943947	0.550236	0.763273
0	N	0.606284	0.0560533	0.763273
0	N	0.606286	0.550236	0.263273
0	N	0.449767	0.0560533	0.263273
0	N	0.943947	0.393714	0.263273
0	N	0.883567	0.272954	0.903393
0	N	0.389386	0.116433	0.903393
0	N	0.727045	0.610613	0.903393
0	N	0.393713	0.449767	0.736727
0	N	0.550231	0.943946	0.736727
0	N	0.0560532	0.606289	0.736727
0	N	0.116433	0.727049	0.0966066
0	N	0.610613	0.883569	0.0966066
0	N	0.272953	0.389387	0.0966066
0	N	0.272952	0.883569	0.596607
0	N	0.116433	0.389387	0.596607
0	N	0.610613	0.727049	0.596607
0	N	0.550233	0.606289	0.236727
0	N	0.0560524	0.449767	0.236727
0	N	0.393711	0.943946	0.236727
0	C	0.313277	0.943269	0.06684
0	C	0.0567292	0.37001	0.06684
0	C	0.629988	0.686719	0.06684
0	C	0.943268	0.313281	0.43316
0	C	0.37001	0.0567298	0.43316
0	C	0.68672	0.629993	0.43316
0	C	0.686722	0.0567298	0.93316
0	C	0.943268	0.629993	0.93316
0	C	0.37001	0.313281	0.93316
0	C	0.056728	0.686719	0.56684
0	C	0.629987	0.943269	0.56684
0	C	0.313279	0.37001	0.56684
0	C	0.979946	0.276604	0.400173
0	C	0.723396	0.703346	0.400173
0	C	0.296657	0.0200534	0.400173
0	C	0.609936	0.646614	0.766493
0	C	0.0366761	0.390064	0.766493
0	C	0.353386	0.963326	0.766493
0	C	0.353386	0.390064	0.266493
0	C	0.609936	0.963326	0.266493
0	C	0.0366758	0.646614	0.266493
0	C	0.723396	0.0200534	0.900173
0	C	0.296656	0.276604	0.900173
0	C	0.979945	0.703346	0.900173
0	C	0.646611	0.609935	0.733507
0	C	0.390063	0.0366767	0.733507
0	C	0.963321	0.353387	0.733507
0	C	0.276601	0.979948	0.0998267
0	C	0.703343	0.723398	0.0998267
0	C	0.0200526	0.296657	0.0998267
0	C	0.0200526	0.723398	0.599827
0	C	0.276603	0.296657	0.599827
0	C	0.703342	0.979948	0.599827
0	C	0.390063	0.353387	0.233507
0	C	0.963323	0.609935	0.233507
0	C	0.646611	0.0366767	0.233507
0	H	0.45584	0.10812	0.0761699
0	H	0.891881	0.347721	0.0761699
0	H	0.652278	0.544159	0.0761699
0	H	0.108119	0.45584	0.423829
0	H	0.347719	0.891882	0.423829
0	H	0.54416	0.652282	0.423829
0	H	0.544159	0.891882	0.923829
0	H	0.10812	0.652282	0.923829
0	H	0.347719	0.45584	0.923829
0	H	0.891881	0.544159	0.576171
0	H	0.652282	0.10812	0.576171
0	H	0.455839	0.347721	0.576171
0	H	0.122506	0.441454	0.409503
0	H	0.558547	0.681057	0.409503
0	H	0.318944	0.877492	0.409503
0	H	0.774785	0.789174	0.757163
0	H	0.0143861	0.225213	0.757163
0	H	0.210826	0.985615	0.757163
0	H	0.210826	0.225213	0.257163
0	H	0.774785	0.985615	0.257163
0	H	0.0143852	0.789174	0.257163
0	H	0.558544	0.877492	0.909503
0	H	0.318946	0.441454	0.909503
0	H	0.122507	0.681057	0.909503
0	H	0.789173	0.77479	0.742837
0	H	0.225213	0.0143867	0.742837
0	H	0.985613	0.210827	0.742837
0	H	0.441453	0.122507	0.0904967
0	H	0.681053	0.558549	0.0904967
0	H	0.877495	0.318947	0.0904967
0	H	0.877495	0.558549	0.590497
0	H	0.441453	0.318947	0.590497
0	H	0.681055	0.122507	0.590497
0	H	0.225213	0.210827	0.242837
0	H	0.985615	0.77479	0.242837
0	H	0.789174	0.0143867	0.242837
0	H	0.43381	0.07728	0.09761
0	H	0.922719	0.35653	0.09761
0	H	0.643469	0.56619	0.09761
0	H	0.0772791	0.43381	0.40239
0	H	0.356528	0.922722	0.40239
0	H	0.566188	0.643469	0.40239
0	H	0.566189	0.922722	0.90239
0	H	0.0772776	0.643469	0.90239
0	H	0.356529	0.43381	0.90239
0	H	0.922721	0.56619	0.59761
0	H	0.64347	0.07728	0.59761
0	H	0.433809	0.35653	0.59761
0	H	0.100476	0.410614	0.430944
0	H	0.589386	0.689865	0.430944
0	H	0.310135	0.899524	0.430944
0	H	0.743945	0.767143	0.735724
0	H	0.0231961	0.256054	0.735724
0	H	0.232854	0.976802	0.735724
0	H	0.232857	0.256054	0.235724
0	H	0.743943	0.976802	0.235724
0	H	0.0231948	0.767143	0.235724
0	H	0.589385	0.899524	0.930944
0	H	0.310136	0.410614	0.930944
0	H	0.100476	0.689865	0.930944
0	H	0.767141	0.743945	0.764276
0	H	0.256054	0.0231967	0.764276
0	H	0.976803	0.232857	0.764276
0	H	0.410613	0.100477	0.0690567
0	H	0.689863	0.589388	0.0690567
0	H	0.899522	0.310137	0.0690567
0	H	0.899523	0.589388	0.569056
0	H	0.410613	0.310137	0.569056
0	H	0.689865	0.100477	0.569056
0	H	0.256053	0.232857	0.264276
0	H	0.976801	0.743945	0.264276
0	H	0.767141	0.0231967	0.264276
0	H	0.39634	0.11478	0.08321
0	H	0.88522	0.28156	0.08321
0	H	0.718438	0.60366	0.08321
0	H	0.114779	0.396341	0.41679
0	H	0.281558	0.88522	0.41679
0	H	0.603658	0.71844	0.41679
0	H	0.603658	0.88522	0.91679
0	H	0.114779	0.71844	0.91679
0	H	0.281559	0.396341	0.91679
0	H	0.885218	0.60366	0.58321
0	H	0.718439	0.11478	0.58321
0	H	0.39634	0.28156	0.58321
0	H	0.0630058	0.448114	0.416543
0	H	0.551885	0.614893	0.416543
0	H	0.385104	0.936993	0.416543
0	H	0.781445	0.729673	0.750124
0	H	0.948225	0.218554	0.750124
0	H	0.270326	0.0517734	0.750124
0	H	0.270326	0.218554	0.250124
0	H	0.781448	0.0517734	0.250124
0	H	0.948225	0.729673	0.250124
0	H	0.551884	0.936993	0.916543
0	H	0.385106	0.448114	0.916543
0	H	0.0630053	0.614893	0.916543
0	H	0.729671	0.781447	0.749876
0	H	0.218551	0.948227	0.749876
0	H	0.0517728	0.270327	0.749876
0	H	0.448113	0.0630068	0.0834567
0	H	0.614892	0.551886	0.0834567
0	H	0.936994	0.385107	0.0834567
0	H	0.936991	0.551886	0.583457
0	H	0.448113	0.385107	0.583457
0	H	0.614893	0.0630068	0.583457
0	H	0.218553	0.270327	0.249876
0	H	0.0517714	0.781447	0.249876
0	H	0.729671	0.948227	0.249876
0	H	0.353319	0.954733	0.0541501
0	H	0.0452696	0.398591	0.0541501
0	H	0.601408	0.646679	0.0541501
0	H	0.954728	0.353321	0.445851
0	H	0.39859	0.0452701	0.445851
0	H	0.64668	0.601412	0.445851
0	H	0.64668	0.0452701	0.945851
0	H	0.954731	0.601412	0.945851
0	H	0.398589	0.353321	0.945851
0	H	0.045268	0.646679	0.554149
0	H	0.60141	0.954733	0.554149
0	H	0.353319	0.398591	0.554149
0	H	0.019986	0.288064	0.387483
0	H	0.711936	0.731927	0.387483
0	H	0.268074	0.980012	0.387483
0	H	0.621396	0.686654	0.779183
0	H	0.0652559	0.378604	0.779183
0	H	0.313346	0.934745	0.779183
0	H	0.313346	0.378604	0.279183
0	H	0.621396	0.934745	0.279183
0	H	0.0652556	0.686654	0.279183
0	H	0.711934	0.980012	0.887483
0	H	0.268076	0.288064	0.887483
0	H	0.0199864	0.731927	0.887483
0	H	0.686653	0.6214	0.720817
0	H	0.378603	0.0652567	0.720817
0	H	0.934741	0.313347	0.720817
0	H	0.288063	0.0199867	0.112517
0	H	0.731923	0.711939	0.112517
0	H	0.980014	0.268077	0.112517
0	H	0.980013	0.711939	0.612517
0	H	0.288063	0.268077	0.612517
0	H	0.731922	0.0199867	0.612517
0	H	0.378603	0.313347	0.220817
0	H	0.934743	0.6214	0.220817
0	H	0.686654	0.0652567	0.220817
0	C	0.91501	0.581672	0.0833301
0	C	0.418329	0.33334	0.0833301
0	C	0.666661	0.0849901	0.0833301
0	C	0.581668	0.91501	0.41667
0	C	0.333339	0.41833	0.41667
0	C	0.0849891	0.666661	0.41667
0	C	0.0849891	0.41833	0.91667
0	C	0.581669	0.666661	0.91667
0	C	0.333338	0.91501	0.91667
0	C	0.41833	0.0849901	0.58333
0	C	0.666659	0.581672	0.58333
0	C	0.915008	0.33334	0.58333
0	C	0.248336	0.248344	0.750004
0	C	4.19417e-06	0.751662	0.750004
0	C	0.751655	0.999995	0.750004
0	C	0.751654	0.751662	0.250004
0	C	0.248335	0.999995	0.250004
0	C	6.41132e-06	0.248344	0.250004
0	C	0.751662	6.67602e-06	0.749996
0	C	0.999992	0.751656	0.749996
0	C	0.999995	0.248337	0.249996
0	C	0.248343	6.67602e-06	0.249996
0	C	0.784347	0.451021	0.0833301
0	C	0.548979	0.333331	0.0833301
0	C	0.666668	0.21565	0.0833301
0	C	0.451019	0.784351	0.41667
0	C	0.33333	0.548983	0.41667
0	C	0.215649	0.666672	0.41667
0	C	0.21565	0.548983	0.91667
0	C	0.45102	0.666672	0.91667
0	C	0.333328	0.784351	0.91667
0	C	0.548979	0.21565	0.58333
0	C	0.666669	0.451021	0.58333
0	C	0.784348	0.333331	0.58333
0	C	0.117687	0.117684	0.750004
0	C	0.999994	0.882316	0.750004
0	C	0.882316	3.35764e-06	0.750004
0	C	0.882316	0.882316	0.250004
0	C	0.117686	3.35764e-06	0.250004
0	C	0.999996	0.117684	0.250004
0	C	0.882312	2.22045e-16	0.749996
0	C	1.08212e-06	0.882316	0.749996
0	C	3.05638e-06	0.117687	0.249996
0	C	0.117682	2.22045e-16	0.249996
0	H	0.734011	0.40068	0.0833301
0	H	0.59932	0.333331	0.0833301
0	H	0.666671	0.26599	0.0833301
0	H	0.40068	0.734013	0.41667
0	H	0.333329	0.59932	0.41667
0	H	0.265989	0.666672	0.41667
0	H	0.265989	0.59932	0.91667
0	H	0.400679	0.666672	0.91667
0	H	0.33333	0.734013	0.91667
0	H	0.599318	0.26599	0.58333
0	H	0.666667	0.40068	0.58333
0	H	0.734011	0.333331	0.58333
0	H	0.0673467	0.0673437	0.750004
0	H	0.999997	0.932654	0.750004
0	H	0.932658	3.35764e-06	0.750004
0	H	0.932653	0.932654	0.250004
0	H	0.0673467	3.35764e-06	0.250004
0	H	0.999997	0.0673437	0.250004
0	H	0.932653	2.22045e-16	0.749996
0	H	4.03845e-06	0.932659	0.749996
0	H	3.29662e-06	0.0673469	0.249996
0	H	0.0673427	2.22045e-16	0.249996
0	C	0.196528	0.863199	0.0833301
0	C	0.1368	0.333331	0.0833301
0	C	0.66667	0.803473	0.0833301
0	C	0.863201	0.196531	0.41667
0	C	0.33333	0.1368	0.41667
0	C	0.803467	0.666672	0.41667
0	C	0.803471	0.1368	0.91667
0	C	0.863202	0.666672	0.91667
0	C	0.33333	0.196531	0.91667
0	C	0.136799	0.803473	0.58333
0	C	0.666668	0.863199	0.58333
0	C	0.19653	0.333331	0.58333
0	C	0.529866	0.529864	0.750004
0	C	0.999997	0.470134	0.750004
0	C	0.470134	3.33774e-06	0.750004
0	C	0.470136	0.470134	0.250004
0	C	0.529869	3.33774e-06	0.250004
0	C	0.999997	0.529864	0.250004
0	C	0.470133	2.22045e-16	0.749996
0	C	2.57962e-06	0.470137	0.749996
0	C	2.63436e-06	0.529868	0.249996
0	C	0.529863	2.22045e-16	0.249996
0	B	0.123277	0.789949	0.0833301
0	B	0.21005	0.333331	0.0833301
0	B	0.66667	0.876723	0.0833301
0	B	0.789949	0.12328	0.41667
0	B	0.33333	0.21005	0.41667
0	B	0.876721	0.666672	0.41667
0	B	0.876718	0.21005	0.91667
0	B	0.789949	0.666672	0.91667
0	B	0.33333	0.12328	0.91667
0	B	0.21005	0.876723	0.58333
0	B	0.666668	0.789949	0.58333
0	B	0.12328	0.333331	0.58333
0	B	0.456616	0.456614	0.750004
0	B	0.999996	0.543385	0.750004
0	B	0.543388	3.33774e-06	0.750004
0	B	0.543386	0.543385	0.250004
0	B	0.456617	3.33774e-06	0.250004
0	B	0.999994	0.456614	0.250004
0	B	0.543383	2.22045e-16	0.749996
0	B	1.14615e-06	0.543385	0.749996
0	B	2.72349e-06	0.456617	0.249996
0	B	0.456613	2.22045e-16	0.249996
0	N	0.981969	0.648642	0.0833301
0	N	0.351359	0.333331	0.0833301
0	N	0.666669	0.01803	0.0833301
0	N	0.648637	0.98197	0.41667
0	N	0.33333	0.35136	0.41667
0	N	0.0180294	0.666672	0.41667
0	N	0.0180292	0.35136	0.91667
0	N	0.64864	0.666672	0.91667
0	N	0.333328	0.98197	0.91667
0	N	0.35136	0.01803	0.58333
0	N	0.666669	0.648642	0.58333
0	N	0.98197	0.333331	0.58333
0	N	0.315306	0.315303	0.750004
0	N	0.999994	0.684692	0.750004
0	N	0.684698	3.32806e-06	0.750004
0	N	0.684694	0.684692	0.250004
0	N	0.315307	3.32806e-06	0.250004
0	N	0.999995	0.315303	0.250004
0	N	0.684693	2.22045e-16	0.749996
0	N	1.77987e-06	0.684697	0.749996
0	N	2.69955e-06	0.315307	0.249996
0	N	0.315303	2.22045e-16	0.249996
0	C	0.327309	0.993972	0.0833301
0	C	0.00602943	0.33334	0.0833301
0	C	0.666658	0.672689	0.0833301
0	C	0.993969	0.327311	0.41667
0	C	0.33334	0.00603004	0.41667
0	C	0.672689	0.666661	0.41667
0	C	0.672689	0.00603004	0.91667
0	C	0.993968	0.666661	0.91667
0	C	0.33334	0.327311	0.91667
0	C	0.00602825	0.672689	0.58333
0	C	0.666659	0.993972	0.58333
0	C	0.327309	0.33334	0.58333
0	C	0.660635	0.660644	0.750004
0	C	6.07757e-06	0.339364	0.750004
0	C	0.339355	0.999995	0.750004
0	C	0.339356	0.339364	0.250004
0	C	0.660635	0.999995	0.250004
0	C	5.60339e-06	0.660644	0.250004
0	C	0.339363	6.65559e-06	0.749996
0	C	0.999993	0.339357	0.749996
0	C	0.999991	0.660639	0.249996
0	C	0.660642	6.65559e-06	0.249996
0	C	0.3965	0.0631703	0.0833301
0	C	0.93683	0.333331	0.0833301
0	C	0.666668	0.603499	0.0833301
0	C	0.0631694	0.3965	0.41667
0	C	0.333329	0.936832	0.41667
0	C	0.603499	0.666672	0.41667
0	C	0.603499	0.936832	0.91667
0	C	0.0631697	0.666672	0.91667
0	C	0.333329	0.3965	0.91667
0	C	0.93683	0.603499	0.58333
0	C	0.666671	0.0631703	0.58333
0	C	0.3965	0.333331	0.58333
0	C	0.729836	0.729835	0.750004
0	C	0.999997	0.270164	0.750004
0	C	0.270166	3.32806e-06	0.750004
0	C	0.270166	0.270164	0.250004
0	C	0.729838	3.32806e-06	0.250004
0	C	0.999997	0.729835	0.250004
0	C	0.270162	2.22045e-16	0.749996
0	C	2.93082e-06	0.270167	0.749996
0	C	3.35863e-06	0.72984	0.249996
0	C	0.729833	2.22045e-16	0.249996
