#******************************************
#
# CIF file created by Zeo++
# Zeo++ is an open source package to
# analyze microporous materials
#
#*******************************************

_cell_length_a		29.2327(0)
_cell_length_b		29.2101(0)
_cell_length_c		29.1534(0)
_cell_angle_alpha		90(0)
_cell_angle_beta		90(0)
_cell_angle_gamma		90(0)

_symmetry_space_group_name_H-M		'P1'
_symmetry_Int_Tables_number		1
_symmetry_cell_setting		Monoclinic

loop_
_symmetry_equiv_pos_as_xyz
'+x,+y,+z'

loop_
_atom_site_label
_atom_site_type_symbol
_atom_site_fract_x
_atom_site_fract_y
_atom_site_fract_z
0	Si	0.516306	0.584183	0.17589
0	Si	0.975888	0.910071	0.17626
0	Si	0.975429	0.583165	0.322311
0	Si	0.516717	0.907313	0.321547
0	Si	0.17525	0.516747	0.584668
0	Si	0.176361	0.97655	0.910259
0	Si	0.320234	0.976241	0.585157
0	Si	0.321055	0.517014	0.910022
0	Si	0.583897	0.175394	0.517542
0	Si	0.90722	0.175647	0.978154
0	Si	0.583471	0.321521	0.977376
0	Si	0.907951	0.321257	0.518173
0	Si	0.583698	0.51683	0.321715
0	Si	0.90723	0.976253	0.322236
0	Si	0.584086	0.976506	0.176061
0	Si	0.907721	0.516908	0.175994
0	Si	0.516468	0.175647	0.909806
0	Si	0.975896	0.175621	0.585488
0	Si	0.975615	0.321321	0.90963
0	Si	0.516632	0.321155	0.585157
0	Si	0.175418	0.584243	0.97802
0	Si	0.175287	0.908256	0.51772
0	Si	0.320969	0.584032	0.517821
0	Si	0.321209	0.908184	0.977699
0	Si	0.477281	0.410464	0.820301
0	Si	0.0180225	0.0864554	0.820505
0	Si	0.0179952	0.410208	0.674509
0	Si	0.477096	0.0861096	0.67445
0	Si	0.818232	0.477675	0.411291
0	Si	0.818322	0.018185	0.0868324
0	Si	0.672753	0.0181648	0.410941
0	Si	0.672705	0.477521	0.0864967
0	Si	0.410051	0.818866	0.478836
0	Si	0.0861233	0.819093	0.0186326
0	Si	0.409965	0.673232	0.0185997
0	Si	0.0858498	0.673093	0.478501
0	Si	0.410147	0.477666	0.67455
0	Si	0.0862222	0.0182743	0.674388
0	Si	0.40985	0.0180609	0.820369
0	Si	0.0859685	0.477607	0.820467
0	Si	0.477228	0.81888	0.0866028
0	Si	0.0179017	0.818854	0.410922
0	Si	0.0181037	0.673205	0.0868276
0	Si	0.477168	0.67331	0.411254
0	Si	0.818313	0.410234	0.0184647
0	Si	0.818388	0.0862033	0.478713
0	Si	0.672747	0.410466	0.478655
0	Si	0.672627	0.0863179	0.0187316
0	Si	0.621805	0.642137	0.00456663
0	Si	0.869781	0.849952	0.004268
0	Si	0.869772	0.642316	0.492979
0	Si	0.621872	0.84963	0.492707
0	Si	0.00402735	0.622366	0.643206
0	Si	0.00394961	0.87013	0.851599
0	Si	0.491328	0.870253	0.643551
0	Si	0.491265	0.622297	0.851251
0	Si	0.641595	0.00403234	0.623578
0	Si	0.84931	0.00386483	0.871516
0	Si	0.641889	0.49192	0.871537
0	Si	0.849084	0.491761	0.623593
0	Si	0.641841	0.622167	0.492748
0	Si	0.849019	0.870218	0.493109
0	Si	0.641718	0.87022	0.00426725
0	Si	0.849258	0.622414	0.00450111
0	Si	0.621988	0.00423436	0.851527
0	Si	0.869581	0.00397106	0.643324
0	Si	0.869667	0.491935	0.851213
0	Si	0.621789	0.491602	0.643547
0	Si	0.0038235	0.642039	0.871513
0	Si	0.00394939	0.849996	0.623695
0	Si	0.491282	0.64232	0.623458
0	Si	0.491514	0.849653	0.871567
0	Si	0.371871	0.352295	0.991829
0	Si	0.124038	0.14469	0.992157
0	Si	0.123934	0.352171	0.503398
0	Si	0.371838	0.144792	0.503634
0	Si	0.989642	0.371935	0.353159
0	Si	0.989932	0.124559	0.144897
0	Si	0.502275	0.124175	0.352866
0	Si	0.502441	0.372079	0.145152
0	Si	0.352103	0.990356	0.372848
0	Si	0.144419	0.990605	0.124966
0	Si	0.351899	0.502562	0.124744
0	Si	0.144618	0.502635	0.372726
0	Si	0.351897	0.37223	0.503641
0	Si	0.144625	0.124265	0.503328
0	Si	0.352001	0.124184	0.99211
0	Si	0.144519	0.372093	0.991936
0	Si	0.371755	0.990244	0.144953
0	Si	0.124048	0.99048	0.353076
0	Si	0.124052	0.502547	0.145156
0	Si	0.37186	0.502867	0.352879
0	Si	0.989869	0.352431	0.124833
0	Si	0.989766	0.144548	0.37274
0	Si	0.502412	0.352177	0.372872
0	Si	0.502197	0.144773	0.124862
0	C	0.734659	0.621873	0.225987
0	C	0.757887	0.870365	0.22615
0	C	0.757352	0.621839	0.271361
0	C	0.735154	0.870245	0.271506
0	C	0.224996	0.735105	0.62313
0	C	0.225282	0.75811	0.871823
0	C	0.270251	0.757808	0.623132
0	C	0.270527	0.73538	0.871796
0	C	0.621734	0.225323	0.73625
0	C	0.869435	0.225439	0.759419
0	C	0.621712	0.270689	0.758832
0	C	0.869476	0.270783	0.736781
0	C	0.621524	0.735297	0.271432
0	C	0.869529	0.757904	0.27139
0	C	0.62158	0.758005	0.22606
0	C	0.869543	0.735265	0.225978
0	C	0.734712	0.225357	0.871746
0	C	0.757593	0.22545	0.623189
0	C	0.757374	0.270666	0.871749
0	C	0.734915	0.270744	0.623129
0	C	0.225148	0.622118	0.759238
0	C	0.225048	0.870062	0.736438
0	C	0.270436	0.62209	0.736565
0	C	0.270363	0.870063	0.759071
0	C	0.258991	0.372553	0.770423
0	C	0.236264	0.124315	0.770416
0	C	0.236304	0.372561	0.725051
0	C	0.258922	0.124289	0.725021
0	C	0.768631	0.259268	0.37326
0	C	0.768591	0.236571	0.124745
0	C	0.723358	0.236601	0.373261
0	C	0.723301	0.259213	0.124713
0	C	0.372111	0.769144	0.260046
0	C	0.124225	0.769152	0.237286
0	C	0.372135	0.723823	0.237371
0	C	0.124208	0.723794	0.259904
0	C	0.372238	0.259237	0.725023
0	C	0.124184	0.236618	0.725042
0	C	0.372213	0.236535	0.770398
0	C	0.124194	0.259284	0.770443
0	C	0.259001	0.769146	0.124719
0	C	0.23623	0.769107	0.373276
0	C	0.236345	0.723836	0.12471
0	C	0.2589	0.723808	0.373308
0	C	0.768628	0.372425	0.23726
0	C	0.768658	0.124465	0.26003
0	C	0.723334	0.372437	0.259921
0	C	0.723348	0.124445	0.23739
0	C	0.6884	0.610005	0.221723
0	C	0.804076	0.882481	0.221847
0	C	0.803588	0.609903	0.275692
0	C	0.688906	0.882151	0.275768
0	C	0.220724	0.688836	0.611155
0	C	0.221014	0.804377	0.883791
0	C	0.274539	0.804095	0.611235
0	C	0.274828	0.689128	0.883837
0	C	0.609839	0.22093	0.689897
0	C	0.88137	0.221017	0.805761
0	C	0.609771	0.275122	0.805167
0	C	0.88158	0.275167	0.690476
0	C	0.609598	0.68902	0.275694
0	C	0.88146	0.804168	0.275802
0	C	0.609831	0.804318	0.221758
0	C	0.881552	0.689014	0.221649
0	C	0.688484	0.221048	0.88373
0	C	0.803866	0.221131	0.611392
0	C	0.80361	0.275039	0.8837
0	C	0.688684	0.275018	0.611139
0	C	0.2208	0.610277	0.805612
0	C	0.220669	0.882077	0.690107
0	C	0.274771	0.610129	0.690217
0	C	0.274804	0.882072	0.805399
0	C	0.305234	0.38447	0.774693
0	C	0.190031	0.112393	0.774773
0	C	0.190041	0.384399	0.720747
0	C	0.305136	0.112277	0.720694
0	C	0.772936	0.305542	0.38521
0	C	0.772958	0.190299	0.112829
0	C	0.719026	0.190307	0.385131
0	C	0.718955	0.305463	0.112689
0	C	0.384009	0.77348	0.306407
0	C	0.11223	0.77359	0.190963
0	C	0.384021	0.719472	0.191005
0	C	0.11216	0.719373	0.306218
0	C	0.384146	0.30552	0.720744
0	C	0.112244	0.190355	0.720672
0	C	0.384036	0.190239	0.774703
0	C	0.112181	0.30553	0.774787
0	C	0.305224	0.773466	0.112729
0	C	0.189968	0.773423	0.385121
0	C	0.190099	0.719489	0.112787
0	C	0.305141	0.719522	0.385259
0	C	0.772982	0.384308	0.190897
0	C	0.77305	0.11245	0.306357
0	C	0.718989	0.384373	0.306276
0	C	0.718938	0.112452	0.191054
0	H	0.669043	0.598437	0.251678
0	H	0.823395	0.89407	0.251821
0	H	0.822968	0.598317	0.245759
0	H	0.669564	0.893751	0.245818
0	H	0.2506	0.669458	0.59957
0	H	0.250916	0.823746	0.89533
0	H	0.244666	0.823486	0.59967
0	H	0.24497	0.669758	0.895467
0	H	0.598306	0.250779	0.67039
0	H	0.892886	0.250871	0.825273
0	H	0.598206	0.245301	0.824687
0	H	0.893202	0.245316	0.671037
0	H	0.598014	0.66966	0.245742
0	H	0.892994	0.823615	0.245889
0	H	0.598331	0.82374	0.251706
0	H	0.893121	0.669629	0.25159
0	H	0.669101	0.250933	0.89531
0	H	0.823293	0.251021	0.599886
0	H	0.82302	0.245169	0.895273
0	H	0.669335	0.24513	0.59952
0	H	0.250646	0.598779	0.825109
0	H	0.25051	0.893641	0.670636
0	H	0.244932	0.598545	0.670769
0	H	0.244994	0.893644	0.824899
0	H	0.324581	0.396055	0.744738
0	H	0.170632	0.100852	0.744836
0	H	0.170643	0.39593	0.750692
0	H	0.324505	0.100672	0.750625
0	H	0.743068	0.324937	0.396792
0	H	0.743104	0.170857	0.101301
0	H	0.748876	0.170875	0.396684
0	H	0.748796	0.324876	0.101082
0	H	0.395561	0.743604	0.325861
0	H	0.100683	0.743749	0.171462
0	H	0.395556	0.749333	0.171527
0	H	0.10056	0.749208	0.325698
0	H	0.395723	0.324897	0.750691
0	H	0.100705	0.17093	0.750598
0	H	0.395551	0.170834	0.744754
0	H	0.100593	0.324912	0.744851
0	H	0.324601	0.74358	0.101137
0	H	0.170559	0.743531	0.39665
0	H	0.170684	0.749368	0.101245
0	H	0.324509	0.749403	0.396868
0	H	0.743138	0.395828	0.171411
0	H	0.743211	0.10088	0.325824
0	H	0.748825	0.395951	0.325739
0	H	0.74876	0.100899	0.17156
0	C	0.666017	0.61303	0.17912
0	C	0.826441	0.879723	0.179198
0	C	0.825907	0.612869	0.318339
0	C	0.666518	0.879084	0.318366
0	C	0.178205	0.666469	0.614074
0	C	0.178496	0.826776	0.88092
0	C	0.317053	0.826462	0.614232
0	C	0.31735	0.666776	0.88089
0	C	0.612786	0.17832	0.667614
0	C	0.878486	0.178385	0.828036
0	C	0.612723	0.317753	0.827413
0	C	0.878704	0.317765	0.668161
0	C	0.6126	0.666624	0.3183
0	C	0.878512	0.826428	0.318491
0	C	0.612871	0.826674	0.179126
0	C	0.878661	0.666676	0.179002
0	C	0.666153	0.178484	0.88081
0	C	0.82618	0.17856	0.614391
0	C	0.825899	0.317625	0.880739
0	C	0.666316	0.317551	0.614125
0	C	0.178237	0.613222	0.827942
0	C	0.178098	0.879211	0.667787
0	C	0.317314	0.61309	0.667868
0	C	0.317404	0.879173	0.827654
0	C	0.327611	0.38146	0.817303
0	C	0.167727	0.115333	0.817431
0	C	0.167703	0.381389	0.678116
0	C	0.327457	0.115205	0.678046
0	C	0.815463	0.327886	0.382246
0	C	0.81552	0.168006	0.11576
0	C	0.676491	0.16799	0.382121
0	C	0.676401	0.327763	0.115609
0	C	0.381034	0.816054	0.328767
0	C	0.1151	0.816225	0.168694
0	C	0.381054	0.67689	0.168668
0	C	0.115041	0.676747	0.328496
0	C	0.381148	0.327892	0.678125
0	C	0.115165	0.168058	0.678001
0	C	0.381019	0.167882	0.817333
0	C	0.11509	0.327856	0.817443
0	C	0.327554	0.816033	0.11566
0	C	0.167639	0.815981	0.382115
0	C	0.167804	0.67691	0.115728
0	C	0.327492	0.676979	0.38226
0	C	0.815539	0.381353	0.168561
0	C	0.815629	0.115328	0.328667
0	C	0.676439	0.381405	0.32861
0	C	0.676349	0.115329	0.168777
0	C	0.690806	0.627235	0.139797
0	C	0.801694	0.865342	0.139922
0	C	0.801072	0.627152	0.357603
0	C	0.691261	0.864765	0.357681
0	C	0.138987	0.691262	0.628322
0	C	0.13928	0.801979	0.866711
0	C	0.356247	0.80161	0.628439
0	C	0.356526	0.691559	0.866486
0	C	0.626915	0.139124	0.692577
0	C	0.864302	0.139216	0.803071
0	C	0.626952	0.356898	0.802429
0	C	0.864285	0.356932	0.693018
0	C	0.626845	0.691413	0.35762
0	C	0.864243	0.801509	0.357718
0	C	0.626919	0.801775	0.139822
0	C	0.864339	0.691468	0.139717
0	C	0.690923	0.139247	0.86653
0	C	0.801296	0.139331	0.62847
0	C	0.801019	0.356799	0.866459
0	C	0.691082	0.356786	0.628438
0	C	0.139055	0.6273	0.802982
0	C	0.138932	0.864934	0.692678
0	C	0.356481	0.627349	0.692771
0	C	0.356506	0.864851	0.802687
0	C	0.302834	0.367218	0.856615
0	C	0.19258	0.129565	0.856701
0	C	0.192555	0.367229	0.638821
0	C	0.30269	0.129573	0.63877
0	C	0.854665	0.303055	0.368017
0	C	0.854693	0.192913	0.129929
0	C	0.637316	0.192887	0.367938
0	C	0.637244	0.302936	0.129963
0	C	0.366866	0.855268	0.303854
0	C	0.129359	0.85538	0.193645
0	C	0.36688	0.637695	0.193608
0	C	0.129415	0.637605	0.303589
0	C	0.3669	0.303087	0.638821
0	C	0.129418	0.19293	0.638742
0	C	0.366904	0.192762	0.856631
0	C	0.129429	0.303049	0.856713
0	C	0.302768	0.855257	0.129954
0	C	0.192506	0.855212	0.367991
0	C	0.192665	0.637708	0.129964
0	C	0.302708	0.637754	0.367966
0	C	0.854717	0.367231	0.193511
0	C	0.85478	0.129613	0.303759
0	C	0.637281	0.367156	0.303697
0	C	0.637217	0.12961	0.193721
0	C	0.737575	0.637851	0.144184
0	C	0.754969	0.8545	0.144351
0	C	0.754304	0.637768	0.353162
0	C	0.738017	0.854105	0.353298
0	C	0.143398	0.738046	0.639065
0	C	0.143689	0.755184	0.855975
0	C	0.351844	0.754791	0.639026
0	C	0.35211	0.738327	0.855713
0	C	0.637569	0.14366	0.739451
0	C	0.853593	0.143789	0.75621
0	C	0.637562	0.352349	0.755548
0	C	0.853478	0.352436	0.739854
0	C	0.637461	0.738218	0.353251
0	C	0.853594	0.754727	0.353188
0	C	0.637418	0.754942	0.144254
0	C	0.853572	0.738231	0.144175
0	C	0.737661	0.143695	0.855769
0	C	0.754509	0.143793	0.639035
0	C	0.754262	0.352314	0.855806
0	C	0.737844	0.35241	0.63911
0	C	0.14355	0.637905	0.756084
0	C	0.143452	0.854139	0.739524
0	C	0.352033	0.638007	0.739652
0	C	0.351944	0.854136	0.755832
0	C	0.25607	0.356575	0.852224
0	C	0.23933	0.14024	0.852217
0	C	0.23934	0.35668	0.64324
0	C	0.255947	0.140287	0.643208
0	C	0.850224	0.25627	0.357312
0	C	0.850184	0.2397	0.140626
0	C	0.641764	0.239701	0.357358
0	C	0.641704	0.256157	0.140686
0	C	0.356213	0.850794	0.256973
0	C	0.140123	0.850798	0.240494
0	C	0.356286	0.642164	0.240502
0	C	0.14017	0.642144	0.256738
0	C	0.356294	0.256282	0.643212
0	C	0.140082	0.239717	0.64323
0	C	0.356332	0.239576	0.852198
0	C	0.140181	0.256285	0.852243
0	C	0.256024	0.850805	0.140695
0	C	0.239281	0.850758	0.357381
0	C	0.239428	0.642171	0.140604
0	C	0.25594	0.642148	0.357326
0	C	0.85022	0.35658	0.240396
0	C	0.85025	0.140388	0.256909
0	C	0.641744	0.356522	0.256812
0	C	0.641751	0.140322	0.240582
0	H	0.757046	0.648366	0.113991
0	H	0.735527	0.843925	0.114168
0	H	0.734781	0.648268	0.383325
0	H	0.757474	0.843505	0.383473
0	H	0.113293	0.757537	0.649611
0	H	0.113575	0.735702	0.845457
0	H	0.381944	0.735254	0.649501
0	H	0.382188	0.75782	0.845085
0	H	0.648034	0.113581	0.759078
0	H	0.843094	0.11373	0.736582
0	H	0.648027	0.38241	0.735888
0	H	0.842866	0.38251	0.759419
0	H	0.647968	0.757712	0.383446
0	H	0.843071	0.735147	0.383315
0	H	0.647816	0.735396	0.114069
0	H	0.84299	0.757718	0.11401
0	H	0.757146	0.113586	0.845192
0	H	0.734959	0.113684	0.649469
0	H	0.734714	0.382396	0.845277
0	H	0.757321	0.382541	0.649663
0	H	0.113476	0.648331	0.736466
0	H	0.113393	0.843569	0.759096
0	H	0.382111	0.648519	0.759235
0	H	0.381967	0.843592	0.73619
0	H	0.236597	0.346047	0.882412
0	H	0.258852	0.150763	0.882366
0	H	0.258862	0.346226	0.61306
0	H	0.236459	0.15086	0.613042
0	H	0.880308	0.236744	0.34677
0	H	0.880248	0.259265	0.151137
0	H	0.61168	0.259261	0.346883
0	H	0.611631	0.236623	0.151252
0	H	0.345718	0.880889	0.237386
0	H	0.150669	0.880848	0.26012
0	H	0.345828	0.612066	0.260108
0	H	0.150741	0.612078	0.237139
0	H	0.345791	0.236775	0.613026
0	H	0.150591	0.259264	0.613075
0	H	0.345877	0.259107	0.882375
0	H	0.150761	0.236775	0.882395
0	H	0.236527	0.880909	0.151266
0	H	0.258815	0.880862	0.346901
0	H	0.258967	0.61207	0.151105
0	H	0.23645	0.612023	0.346788
0	H	0.880287	0.346107	0.260004
0	H	0.8803	0.150951	0.237317
0	H	0.611671	0.34602	0.237219
0	H	0.611707	0.150841	0.260207
0	C	0.759091	0.635509	0.18671
0	C	0.733461	0.856689	0.186878
0	C	0.73285	0.635453	0.31061
0	C	0.759535	0.8565	0.310775
0	C	0.185823	0.759555	0.636802
0	C	0.186098	0.733654	0.858188
0	C	0.309415	0.733299	0.636729
0	C	0.309677	0.759816	0.858037
0	C	0.635322	0.186184	0.760875
0	C	0.855812	0.186313	0.734794
0	C	0.635287	0.309813	0.734164
0	C	0.855748	0.309929	0.761312
0	C	0.63514	0.759741	0.310721
0	C	0.855892	0.733332	0.310593
0	C	0.635111	0.733464	0.186799
0	C	0.85585	0.75972	0.186728
0	C	0.759135	0.186164	0.858044
0	C	0.733065	0.186268	0.636754
0	C	0.73285	0.309821	0.858103
0	C	0.759341	0.309957	0.636794
0	C	0.186014	0.635666	0.734619
0	C	0.185927	0.856371	0.760987
0	C	0.309575	0.635717	0.761132
0	C	0.309444	0.856402	0.734436
0	C	0.234563	0.3589	0.809697
0	C	0.260763	0.137969	0.80965
0	C	0.260807	0.358994	0.685787
0	C	0.234482	0.137964	0.685759
0	C	0.807782	0.234791	0.359589
0	C	0.807714	0.261117	0.138393
0	C	0.684217	0.261148	0.359665
0	C	0.684157	0.234712	0.138383
0	C	0.358486	0.808308	0.235482
0	C	0.137903	0.808269	0.2619
0	C	0.358567	0.684659	0.261972
0	C	0.137886	0.684661	0.235314
0	C	0.35863	0.23477	0.685748
0	C	0.137805	0.261149	0.685806
0	C	0.358622	0.261055	0.80965
0	C	0.137896	0.234818	0.809682
0	C	0.234559	0.808334	0.138415
0	C	0.260734	0.808284	0.359657
0	C	0.260857	0.68466	0.138319
0	C	0.234452	0.684604	0.359665
0	C	0.807753	0.358818	0.26186
0	C	0.807771	0.138152	0.235462
0	C	0.684203	0.358827	0.235337
0	C	0.684241	0.138074	0.262002
0	H	0.79517	0.644879	0.189472
0	H	0.697414	0.847175	0.189652
0	H	0.696764	0.64481	0.307802
0	H	0.79559	0.847075	0.307992
0	H	0.188592	0.795648	0.64626
0	H	0.188856	0.697556	0.848725
0	H	0.306638	0.697177	0.646087
0	H	0.306877	0.795893	0.848544
0	H	0.644719	0.189061	0.797037
0	H	0.846366	0.189206	0.698648
0	H	0.644643	0.306911	0.697993
0	H	0.846236	0.307064	0.797436
0	H	0.644509	0.795848	0.307959
0	H	0.846488	0.697238	0.307717
0	H	0.644396	0.697331	0.189595
0	H	0.846368	0.795792	0.189539
0	H	0.795184	0.188962	0.848557
0	H	0.696966	0.189073	0.646094
0	H	0.696778	0.306986	0.848688
0	H	0.795414	0.307192	0.646214
0	H	0.188844	0.645024	0.698436
0	H	0.188781	0.846864	0.79712
0	H	0.306748	0.645116	0.797299
0	H	0.306542	0.846957	0.698288
0	H	0.19849	0.349509	0.806928
0	H	0.296824	0.147404	0.80681
0	H	0.296901	0.349664	0.688579
0	H	0.198423	0.147392	0.688565
0	H	0.804991	0.198699	0.350147
0	H	0.804866	0.297208	0.14785
0	H	0.687032	0.297267	0.350304
0	H	0.686981	0.198622	0.147821
0	H	0.349089	0.805478	0.199317
0	H	0.147394	0.805357	0.298035
0	H	0.349211	0.687489	0.298151
0	H	0.147336	0.68755	0.199171
0	H	0.349281	0.198658	0.688518
0	H	0.147216	0.297243	0.688651
0	H	0.349265	0.297167	0.806844
0	H	0.147364	0.198746	0.806855
0	H	0.198502	0.805533	0.147881
0	H	0.296818	0.805475	0.350264
0	H	0.296935	0.687475	0.147721
0	H	0.198369	0.687373	0.350284
0	H	0.80491	0.349407	0.298027
0	H	0.804905	0.147641	0.199325
0	H	0.687033	0.349455	0.199164
0	H	0.687118	0.147518	0.298153
0	C	0.618563	0.603011	0.176763
0	C	0.873807	0.890214	0.17682
0	C	0.873315	0.602664	0.320882
0	C	0.619051	0.889031	0.320725
0	C	0.175879	0.619013	0.603875
0	C	0.176303	0.874259	0.891058
0	C	0.319418	0.873954	0.604216
0	C	0.319828	0.619327	0.891111
0	C	0.602758	0.17593	0.620044
0	C	0.88852	0.17598	0.875611
0	C	0.602599	0.32032	0.874952
0	C	0.889001	0.320268	0.62065
0	C	0.602537	0.619147	0.320687
0	C	0.888525	0.87391	0.321062
0	C	0.602998	0.874192	0.176758
0	C	0.888865	0.619228	0.176614
0	C	0.61872	0.176157	0.890952
0	C	0.873662	0.176212	0.604473
0	C	0.873357	0.320146	0.890768
0	C	0.618875	0.319966	0.604024
0	C	0.175879	0.603226	0.875527
0	C	0.175715	0.889396	0.62024
0	C	0.319786	0.602971	0.620316
0	C	0.32	0.889327	0.875195
0	C	0.37505	0.391545	0.819631
0	C	0.120272	0.10531	0.819855
0	C	0.120231	0.391326	0.675663
0	C	0.374864	0.104978	0.675564
0	C	0.817776	0.375363	0.392347
0	C	0.817885	0.120505	0.105774
0	C	0.674009	0.120482	0.392049
0	C	0.673898	0.375209	0.105389
0	C	0.391093	0.818387	0.376336
0	C	0.104967	0.818669	0.121143
0	C	0.39106	0.674406	0.121093
0	C	0.104758	0.67419	0.376008
0	C	0.391247	0.375362	0.675694
0	C	0.105102	0.120584	0.675485
0	C	0.390926	0.12037	0.819695
0	C	0.104869	0.375298	0.819852
0	C	0.374982	0.818373	0.105501
0	C	0.120151	0.818312	0.392015
0	C	0.120348	0.674408	0.105709
0	C	0.37493	0.67454	0.392367
0	C	0.817887	0.39133	0.120972
0	C	0.818015	0.10513	0.376207
0	C	0.673951	0.391524	0.376162
0	C	0.673795	0.105195	0.121231
0	C	0.577821	0.594974	0.17556
0	C	0.91446	0.898722	0.175704
0	C	0.914005	0.594405	0.322378
0	C	0.578273	0.896872	0.321917
0	C	0.174775	0.578273	0.595646
0	C	0.17549	0.915028	0.899198
0	C	0.3206	0.914731	0.596176
0	C	0.321211	0.57858	0.899256
0	C	0.594712	0.174845	0.579196
0	C	0.896498	0.174945	0.916477
0	C	0.594453	0.321729	0.915768
0	C	0.897209	0.321572	0.57984
0	C	0.594477	0.578384	0.321957
0	C	0.896462	0.914697	0.322474
0	C	0.595069	0.914987	0.175596
0	C	0.897008	0.578475	0.175487
0	C	0.577984	0.175096	0.899049
0	C	0.914424	0.175098	0.596508
0	C	0.914111	0.321528	0.898735
0	C	0.578146	0.321303	0.595946
0	C	0.174815	0.595186	0.91638
0	C	0.174659	0.897524	0.579403
0	C	0.321138	0.594856	0.579487
0	C	0.321421	0.897407	0.916031
0	C	0.415779	0.399655	0.820753
0	C	0.0795143	0.0973455	0.821035
0	C	0.0794716	0.399253	0.674312
0	C	0.415572	0.0968105	0.674217
0	C	0.81881	0.416127	0.400469
0	C	0.818944	0.0797096	0.0978119
0	C	0.672615	0.0796875	0.39997
0	C	0.672522	0.415952	0.0972303
0	C	0.399201	0.819438	0.417177
0	C	0.0969124	0.819765	0.0802954
0	C	0.399066	0.673053	0.0802419
0	C	0.0965455	0.672827	0.416816
0	C	0.399362	0.416112	0.674364
0	C	0.0971078	0.0798072	0.674126
0	C	0.398851	0.0795732	0.820846
0	C	0.0966906	0.416043	0.820993
0	C	0.415711	0.819447	0.0973674
0	C	0.0793775	0.819404	0.399924
0	C	0.0795921	0.673023	0.0977507
0	C	0.415653	0.67318	0.400476
0	C	0.818936	0.399315	0.080107
0	C	0.819059	0.0969627	0.417037
0	C	0.672588	0.39966	0.416987
0	C	0.67241	0.097137	0.0803907
0	C	0.669242	0.631686	0.0964362
0	C	0.823122	0.860815	0.0964995
0	C	0.822596	0.6317	0.400977
0	C	0.669581	0.860186	0.400975
0	C	0.0957108	0.669728	0.632718
0	C	0.0959514	0.823406	0.862268
0	C	0.399516	0.823137	0.632963
0	C	0.399731	0.669921	0.861911
0	C	0.631263	0.0957713	0.671081
0	C	0.859879	0.0958262	0.824484
0	C	0.63144	0.400211	0.823976
0	C	0.859725	0.400182	0.671358
0	C	0.631354	0.669769	0.400944
0	C	0.859665	0.823005	0.401112
0	C	0.63133	0.823218	0.0963898
0	C	0.859848	0.669895	0.0963551
0	C	0.669393	0.0959449	0.862084
0	C	0.822689	0.0959573	0.632868
0	C	0.82251	0.400104	0.86188
0	C	0.669442	0.400019	0.63298
0	C	0.0957056	0.631653	0.82442
0	C	0.0956324	0.860519	0.671147
0	C	0.39972	0.631841	0.671147
0	C	0.399792	0.860296	0.824207
0	C	0.324411	0.362756	0.89997
0	C	0.171102	0.134076	0.9001
0	C	0.17105	0.362725	0.595436
0	C	0.324288	0.134152	0.595435
0	C	0.89795	0.324577	0.363613
0	C	0.898029	0.171503	0.134351
0	C	0.594039	0.171384	0.363427
0	C	0.594006	0.324515	0.134524
0	C	0.362483	0.8986	0.325389
0	C	0.133812	0.898742	0.172186
0	C	0.362408	0.594379	0.172072
0	C	0.133974	0.594308	0.325155
0	C	0.362394	0.32469	0.595475
0	C	0.133967	0.171427	0.59535
0	C	0.362464	0.171276	0.900037
0	C	0.133941	0.324619	0.900077
0	C	0.324309	0.898553	0.134421
0	C	0.171062	0.898557	0.363569
0	C	0.171171	0.594402	0.134507
0	C	0.324302	0.594497	0.363433
0	C	0.898043	0.362855	0.172032
0	C	0.898081	0.134046	0.325288
0	C	0.59402	0.362667	0.325278
0	C	0.593931	0.134138	0.172197
0	C	0.650988	0.636077	0.0592745
0	C	0.841056	0.856239	0.0592012
0	C	0.840805	0.636226	0.438146
0	C	0.651122	0.855705	0.438025
0	C	0.0586077	0.651535	0.637095
0	C	0.0587255	0.841329	0.857806
0	C	0.436611	0.841316	0.637464
0	C	0.436707	0.651509	0.857387
0	C	0.635574	0.0586287	0.652862
0	C	0.855459	0.0585989	0.842506
0	C	0.635886	0.437278	0.842315
0	C	0.855211	0.437179	0.652896
0	C	0.635802	0.65137	0.438033
0	C	0.85513	0.841224	0.438282
0	C	0.635705	0.841264	0.0591167
0	C	0.855404	0.651613	0.0592057
0	C	0.651185	0.0588302	0.857675
0	C	0.840661	0.0587241	0.63725
0	C	0.840714	0.437203	0.85734
0	C	0.65102	0.437017	0.63746
0	C	0.0585103	0.635998	0.842466
0	C	0.0585296	0.856133	0.65292
0	C	0.436721	0.636282	0.652732
0	C	0.436859	0.85577	0.842471
0	C	0.342698	0.358347	0.937114
0	C	0.152957	0.138555	0.937307
0	C	0.152891	0.358252	0.558238
0	C	0.342623	0.138668	0.558326
0	C	0.935049	0.342784	0.359241
0	C	0.935203	0.153461	0.138763
0	C	0.556947	0.153196	0.358953
0	C	0.556987	0.342844	0.139031
0	C	0.358137	0.935733	0.343619
0	C	0.13826	0.935905	0.154039
0	C	0.357961	0.557258	0.153847
0	C	0.138487	0.557239	0.343473
0	C	0.357952	0.343012	0.558346
0	C	0.138485	0.153247	0.55816
0	C	0.358049	0.15314	0.937261
0	C	0.138402	0.342915	0.937219
0	C	0.342555	0.935649	0.138843
0	C	0.152985	0.935735	0.359162
0	C	0.153007	0.55728	0.139022
0	C	0.342632	0.557452	0.358967
0	C	0.935187	0.358486	0.153889
0	C	0.935175	0.138445	0.343533
0	C	0.556974	0.358231	0.343601
0	C	0.556849	0.138641	0.153963
0	C	0.491698	0.604172	0.120498
0	C	0.000968579	0.889927	0.121101
0	C	0.000266786	0.603172	0.377626
0	C	0.492175	0.887175	0.37691
0	C	0.120067	0.49198	0.604701
0	C	0.121367	0.00171483	0.890115
0	C	0.375387	0.00112234	0.605212
0	C	0.376305	0.4925	0.889869
0	C	0.603819	0.120154	0.492731
0	C	0.887126	0.120549	0.0031644
0	C	0.603466	0.376765	0.00216375
0	C	0.887797	0.376492	0.493524
0	C	0.603669	0.492282	0.377147
0	C	0.887089	0.00110772	0.377482
0	C	0.604011	0.00149929	0.120794
0	C	0.887591	0.492192	0.120697
0	C	0.491742	0.120448	0.889676
0	C	0.00092268	0.120501	0.605524
0	C	0.000445351	0.376487	0.889472
0	C	0.492146	0.376492	0.605206
0	C	0.120301	0.60422	0.00301738
0	C	0.120183	0.888111	0.492869
0	C	0.376262	0.604025	0.493256
0	C	0.376363	0.888002	0.00244284
0	C	0.501943	0.39048	0.875674
0	C	0.992984	0.106599	0.875672
0	C	0.993189	0.390194	0.619193
0	C	0.501618	0.106259	0.619074
0	C	0.873418	0.502443	0.391286
0	C	0.873362	0.993082	0.106872
0	C	0.617574	0.993361	0.390889
0	C	0.617448	0.502025	0.106647
0	C	0.390083	0.874088	0.503666
0	C	0.106258	0.874165	0.993583
0	C	0.389983	0.617957	0.993886
0	C	0.105975	0.617827	0.503095
0	C	0.390158	0.50218	0.619111
0	C	0.10632	0.993401	0.619132
0	C	0.389908	0.993046	0.875619
0	C	0.106089	0.502351	0.875757
0	C	0.501987	0.874067	0.106735
0	C	0.992851	0.873958	0.390874
0	C	0.9933	0.618025	0.106969
0	C	0.501631	0.617972	0.391183
0	C	0.873416	0.390247	0.993449
0	C	0.873496	0.106308	0.503599
0	C	0.617449	0.390461	0.503197
0	C	0.617453	0.106451	0.993994
0	H	0.454256	0.598888	0.12007
0	H	0.0383748	0.895387	0.120823
0	H	0.0376752	0.597704	0.377947
0	H	0.454748	0.892543	0.377408
0	H	0.11971	0.454506	0.599446
0	H	0.121054	0.0391319	0.895708
0	H	0.375779	0.0385444	0.599651
0	H	0.376804	0.455033	0.895174
0	H	0.598516	0.119778	0.455192
0	H	0.892524	0.120242	0.0406868
0	H	0.598163	0.377124	0.0396945
0	H	0.893069	0.376964	0.455983
0	H	0.598393	0.454812	0.377613
0	H	0.892703	0.0385242	0.377873
0	H	0.598409	0.0389175	0.120468
0	H	0.892891	0.454725	0.120275
0	H	0.454305	0.120038	0.894998
0	H	0.0383244	0.120225	0.599983
0	H	0.0378446	0.376869	0.895035
0	H	0.454703	0.376971	0.599933
0	H	0.120021	0.598873	0.0405466
0	H	0.119803	0.893423	0.455333
0	H	0.376743	0.598759	0.455712
0	H	0.37677	0.893359	0.0399709
0	H	0.53937	0.395858	0.876133
0	H	0.955569	0.101155	0.87592
0	H	0.955788	0.39573	0.618827
0	H	0.539057	0.100975	0.618588
0	H	0.873833	0.539896	0.396694
0	H	0.873621	0.955657	0.101295
0	H	0.617174	0.955939	0.396471
0	H	0.616945	0.539494	0.101354
0	H	0.395442	0.874502	0.541196
0	H	0.101	0.874399	0.956042
0	H	0.395336	0.617551	0.956358
0	H	0.10069	0.617335	0.540637
0	H	0.395519	0.539636	0.618594
0	H	0.10081	0.95597	0.618785
0	H	0.395504	0.955629	0.875938
0	H	0.100812	0.539821	0.876161
0	H	0.539426	0.874449	0.10144
0	H	0.955451	0.874229	0.396424
0	H	0.95589	0.617678	0.101493
0	H	0.539061	0.617441	0.396545
0	H	0.873692	0.395607	0.955921
0	H	0.873862	0.101019	0.541139
0	H	0.616916	0.395824	0.540727
0	H	0.617078	0.101182	0.956453
0	H	0.506305	0.58596	0.0909694
0	H	0.986409	0.907831	0.0913646
0	H	0.985651	0.585114	0.407246
0	H	0.50686	0.905267	0.406475
0	H	0.0905838	0.506525	0.586454
0	H	0.0917393	0.987061	0.908044
0	H	0.404913	0.986413	0.587161
0	H	0.405788	0.507172	0.908019
0	H	0.585605	0.0906804	0.50735
0	H	0.905164	0.0909508	0.988567
0	H	0.585295	0.406274	0.987554
0	H	0.905865	0.406031	0.508192
0	H	0.585451	0.506928	0.406649
0	H	0.904955	0.986375	0.407158
0	H	0.586007	0.98681	0.0911788
0	H	0.905651	0.506797	0.0910792
0	H	0.506338	0.0909073	0.907819
0	H	0.986315	0.0909181	0.587454
0	H	0.985756	0.406086	0.907453
0	H	0.506784	0.40594	0.586942
0	H	0.0907855	0.586043	0.988455
0	H	0.0906356	0.906189	0.507474
0	H	0.40568	0.585793	0.507941
0	H	0.405905	0.906058	0.987786
0	H	0.487266	0.408625	0.905211
0	H	0.00751984	0.0885924	0.905366
0	H	0.00786267	0.408206	0.589572
0	H	0.486977	0.088152	0.589501
0	H	0.902892	0.487785	0.40946
0	H	0.90295	0.00769181	0.0888419
0	H	0.58804	0.00808981	0.408912
0	H	0.587978	0.487359	0.0884796
0	H	0.408221	0.903583	0.488991
0	H	0.0881485	0.903776	0.00806207
0	H	0.408121	0.588452	0.00854498
0	H	0.0878945	0.588308	0.488411
0	H	0.40828	0.487458	0.58959
0	H	0.0883796	0.00805025	0.589462
0	H	0.407892	0.0077252	0.905251
0	H	0.0879865	0.487765	0.905358
0	H	0.487421	0.903593	0.0885453
0	H	0.00745992	0.903554	0.40893
0	H	0.00791978	0.588437	0.088922
0	H	0.486916	0.588509	0.409355
0	H	0.902944	0.408407	0.00801551
0	H	0.90302	0.0881794	0.489008
0	H	0.588016	0.4086	0.488431
0	H	0.587924	0.0883212	0.00858229
0	H	0.497536	0.641099	0.115371
0	H	0.995373	0.852923	0.116226
0	H	0.99466	0.640149	0.382644
0	H	0.497934	0.850224	0.381932
0	H	0.114957	0.497848	0.641698
0	H	0.116456	0.996195	0.853035
0	H	0.38041	0.995566	0.642264
0	H	0.381306	0.498324	0.852851
0	H	0.640716	0.115002	0.498564
0	H	0.850183	0.115567	0.997453
0	H	0.640375	0.381855	0.996362
0	H	0.850875	0.381463	0.49937
0	H	0.640562	0.49813	0.382294
0	H	0.850105	0.995626	0.382375
0	H	0.64097	0.995992	0.115744
0	H	0.850664	0.498001	0.115712
0	H	0.497546	0.11543	0.852655
0	H	0.995363	0.115484	0.64258
0	H	0.994914	0.381393	0.852395
0	H	0.498004	0.381616	0.6422
0	H	0.1152	0.641164	0.997251
0	H	0.115199	0.851158	0.498683
0	H	0.381385	0.640946	0.49913
0	H	0.381312	0.851036	0.99669
0	H	0.496196	0.353531	0.880755
0	H	0.998615	0.143583	0.880635
0	H	0.998738	0.353206	0.6142
0	H	0.495783	0.143205	0.61407
0	H	0.878497	0.496716	0.354263
0	H	0.878377	0.99861	0.143936
0	H	0.61259	0.9989	0.353829
0	H	0.612427	0.496181	0.143659
0	H	0.353166	0.879171	0.497892
0	H	0.143179	0.879181	0.999417
0	H	0.353064	0.612888	0.999644
0	H	0.142896	0.612838	0.497252
0	H	0.35324	0.496415	0.614046
0	H	0.143283	0.99898	0.614179
0	H	0.352945	0.99855	0.880649
0	H	0.143006	0.496517	0.88078
0	H	0.496155	0.879125	0.143744
0	H	0.9984	0.878958	0.353813
0	H	0.998916	0.613062	0.144023
0	H	0.495858	0.612921	0.354166
0	H	0.8785	0.353296	0.999197
0	H	0.87853	0.143252	0.49776
0	H	0.612399	0.353516	0.497415
0	H	0.612441	0.143397	0.999831
0	C	0.492143	0.616598	0.225317
0	C	0.000228285	0.877809	0.22572
0	C	2.89744e-06	0.615363	0.272933
0	C	0.492641	0.874818	0.272143
0	C	0.224577	0.492625	0.617148
0	C	0.225754	0.000722683	0.87792
0	C	0.270972	0.00070743	0.617459
0	C	0.271833	0.492791	0.877468
0	C	0.616268	0.224788	0.493421
0	C	0.874885	0.225091	0.00223526
0	C	0.615767	0.272211	0.00177717
0	C	0.875474	0.271954	0.494002
0	C	0.616106	0.492587	0.272338
0	C	0.874985	0.000616263	0.272801
0	C	0.616245	0.000894994	0.22554
0	C	0.875255	0.492866	0.225442
0	C	0.492442	0.225008	0.877266
0	C	0.000218568	0.225027	0.617744
0	C	4.59571e-05	0.272012	0.877309
0	C	0.492369	0.271897	0.617664
0	C	0.224796	0.61655	0.00222554
0	C	0.224664	0.875793	0.493721
0	C	0.27173	0.616464	0.493515
0	C	0.271919	0.875818	0.00200623
0	C	0.501382	0.378025	0.770861
0	C	0.993756	0.1187	0.771006
0	C	0.993506	0.377982	0.723896
0	C	0.501244	0.118605	0.723837
0	C	0.768897	0.501716	0.378773
0	C	0.768961	0.993906	0.119146
0	C	0.722003	0.993636	0.378667
0	C	0.721944	0.501721	0.119047
0	C	0.377669	0.769463	0.502925
0	C	0.118471	0.769663	0.994532
0	C	0.377656	0.722511	0.99417
0	C	0.118346	0.722387	0.502677
0	C	0.377727	0.501912	0.72392
0	C	0.118469	0.99385	0.723793
0	C	0.377673	0.993676	0.770905
0	C	0.118419	0.501625	0.770994
0	C	0.501233	0.769489	0.119117
0	C	0.993593	0.76945	0.37866
0	C	0.993632	0.722497	0.119138
0	C	0.501411	0.722577	0.378743
0	C	0.768939	0.377916	0.994273
0	C	0.769003	0.11867	0.502695
0	C	0.721986	0.37802	0.502946
0	C	0.721883	0.118695	0.99437
0	H	0.455458	0.609281	0.229915
0	H	0.0368317	0.885461	0.230386
0	H	0.0366078	0.607663	0.268384
0	H	0.455929	0.882042	0.267594
0	H	0.229203	0.455915	0.60984
0	H	0.230485	0.0373488	0.885587
0	H	0.266398	0.0373395	0.60975
0	H	0.267319	0.456052	0.884709
0	H	0.608963	0.22943	0.456641
0	H	0.882293	0.229757	0.0389936
0	H	0.608323	0.267673	0.0385326
0	H	0.882667	0.267396	0.457191
0	H	0.60882	0.455865	0.267792
0	H	0.882616	0.0372594	0.268185
0	H	0.608508	0.0375118	0.230198
0	H	0.88248	0.456138	0.230073
0	H	0.455746	0.229635	0.884533
0	H	0.0368156	0.229678	0.610018
0	H	0.0366717	0.267465	0.884962
0	H	0.45567	0.267391	0.610367
0	H	0.229441	0.60908	0.0389694
0	H	0.229339	0.883017	0.456929
0	H	0.267192	0.609177	0.456721
0	H	0.267369	0.883211	0.0387771
0	H	0.538056	0.385364	0.766208
0	H	0.957119	0.111121	0.766427
0	H	0.956881	0.385625	0.728415
0	H	0.537928	0.111311	0.728464
0	H	0.76422	0.538418	0.386105
0	H	0.764359	0.957254	0.111518
0	H	0.72652	0.95699	0.386346
0	H	0.726542	0.538434	0.111733
0	H	0.384993	0.764771	0.539694
0	H	0.111155	0.765076	0.957746
0	H	0.385065	0.726994	0.957396
0	H	0.111079	0.727026	0.539464
0	H	0.385076	0.53861	0.728544
0	H	0.110869	0.957193	0.728345
0	H	0.38532	0.957031	0.766322
0	H	0.111157	0.538339	0.766319
0	H	0.537914	0.764825	0.111808
0	H	0.956968	0.764876	0.386305
0	H	0.956997	0.72699	0.11151
0	H	0.538085	0.727175	0.38611
0	H	0.764365	0.385305	0.957502
0	H	0.764294	0.111409	0.539477
0	H	0.726604	0.385372	0.539718
0	H	0.726367	0.111334	0.957585
0	H	0.495442	0.653803	0.220037
0	H	0.997313	0.840588	0.220273
0	H	0.997097	0.65259	0.278311
0	H	0.496019	0.837622	0.277447
0	H	0.219296	0.495944	0.654423
0	H	0.22035	0.997787	0.840625
0	H	0.276355	0.997792	0.654755
0	H	0.277165	0.496166	0.840202
0	H	0.653447	0.219547	0.496734
0	H	0.837699	0.219795	0.999043
0	H	0.652951	0.277518	0.998602
0	H	0.838312	0.277299	0.497404
0	H	0.653277	0.495914	0.277645
0	H	0.837789	0.997654	0.278164
0	H	0.653451	0.998015	0.220221
0	H	0.838088	0.496227	0.220111
0	H	0.495787	0.219696	0.839997
0	H	0.997323	0.219713	0.655051
0	H	0.997084	0.277381	0.840011
0	H	0.495704	0.277204	0.654935
0	H	0.21952	0.653769	0.999075
0	H	0.219374	0.838594	0.497095
0	H	0.277028	0.653664	0.496853
0	H	0.27725	0.83861	0.998789
0	H	0.498117	0.340822	0.776179
0	H	0.996781	0.155929	0.776326
0	H	0.996477	0.340754	0.718569
0	H	0.49795	0.1558	0.71845
0	H	0.774201	0.498434	0.341499
0	H	0.774266	0.996909	0.156447
0	H	0.716699	0.9966	0.341365
0	H	0.716576	0.498429	0.156314
0	H	0.340492	0.774744	0.499643
0	H	0.155653	0.774949	0.997826
0	H	0.340473	0.717224	0.997387
0	H	0.155508	0.716992	0.49936
0	H	0.340555	0.498666	0.71857
0	H	0.155663	0.996855	0.718429
0	H	0.34047	0.996651	0.77619
0	H	0.155587	0.498303	0.776342
0	H	0.497932	0.774805	0.15639
0	H	0.996582	0.774723	0.341353
0	H	0.996628	0.717155	0.156435
0	H	0.498163	0.717232	0.341471
0	H	0.77418	0.340699	0.997516
0	H	0.774319	0.155869	0.499362
0	H	0.716646	0.34082	0.499689
0	H	0.716562	0.155901	0.99763
0	H	0.509878	0.608097	0.25757
0	H	0.982364	0.885992	0.257979
0	H	0.982225	0.607127	0.240636
0	H	0.510287	0.88333	0.239851
0	H	0.256728	0.510405	0.608638
0	H	0.257876	0.982769	0.886159
0	H	0.238773	0.982895	0.609226
0	H	0.239606	0.510438	0.885946
0	H	0.607738	0.256945	0.511253
0	H	0.883336	0.257244	0.984363
0	H	0.607362	0.239986	0.984011
0	H	0.883933	0.23972	0.51171
0	H	0.607632	0.510277	0.240049
0	H	0.883252	0.982795	0.240532
0	H	0.607967	0.982991	0.257764
0	H	0.88373	0.510609	0.257701
0	H	0.510188	0.257195	0.885767
0	H	0.982332	0.257188	0.609419
0	H	0.982282	0.239783	0.88561
0	H	0.510012	0.239652	0.609174
0	H	0.256926	0.608102	0.984344
0	H	0.256801	0.884303	0.511549
0	H	0.239526	0.607986	0.511239
0	H	0.239718	0.884225	0.984245
0	H	0.483601	0.386479	0.738621
0	H	0.0115293	0.110342	0.738738
0	H	0.0112489	0.386303	0.756194
0	H	0.483509	0.110196	0.75611
0	H	0.736762	0.483895	0.387252
0	H	0.736795	0.0117299	0.1108
0	H	0.754208	0.0114034	0.38699
0	H	0.754132	0.483981	0.110619
0	H	0.386147	0.737318	0.485051
0	H	0.109983	0.73747	0.0123116
0	H	0.386096	0.754754	0.0118889
0	H	0.109951	0.754591	0.484883
0	H	0.386133	0.484139	0.756183
0	H	0.110188	0.0116141	0.756087
0	H	0.386002	0.0114891	0.738645
0	H	0.109972	0.483841	0.738755
0	H	0.483449	0.737321	0.110634
0	H	0.0113939	0.737259	0.387052
0	H	0.011349	0.754744	0.110811
0	H	0.483671	0.754787	0.387172
0	H	0.736779	0.386423	0.0120727
0	H	0.736879	0.110193	0.484835
0	H	0.75416	0.386437	0.485137
0	H	0.754108	0.11026	0.0120719
0	C	0.507134	0.521341	0.183041
0	C	0.984621	0.972977	0.183311
0	C	0.984157	0.520258	0.315287
0	C	0.507313	0.970152	0.31453
0	C	0.182431	0.507645	0.521708
0	C	0.18337	0.985361	0.973289
0	C	0.313316	0.985092	0.522129
0	C	0.314018	0.507717	0.97298
0	C	0.521096	0.182591	0.508424
0	C	0.970059	0.182767	0.987193
0	C	0.520645	0.314459	0.986343
0	C	0.970741	0.314226	0.508846
0	C	0.520904	0.507628	0.314632
0	C	0.970085	0.985263	0.315307
0	C	0.52122	0.985269	0.183147
0	C	0.970511	0.507604	0.183101
0	C	0.507233	0.182786	0.972768
0	C	0.984631	0.182689	0.522448
0	C	0.984514	0.314358	0.972664
0	C	0.507408	0.314092	0.522198
0	C	0.182567	0.52136	0.986922
0	C	0.182383	0.9711	0.508457
0	C	0.313912	0.521188	0.508616
0	C	0.314277	0.971066	0.986832
0	C	0.486462	0.473299	0.813128
0	C	0.00917157	0.0235425	0.813455
0	C	0.00917937	0.47312	0.681504
0	C	0.486399	0.023266	0.681478
0	C	0.811029	0.486847	0.474244
0	C	0.811202	0.00936069	0.0238061
0	C	0.679712	0.00932326	0.473972
0	C	0.679722	0.486812	0.0235321
0	C	0.472846	0.811677	0.487958
0	C	0.023297	0.811963	0.00958365
0	C	0.472797	0.680265	0.00960934
0	C	0.0230573	0.680134	0.487833
0	C	0.47294	0.48688	0.681619
0	C	0.0233619	0.0093467	0.68136
0	C	0.472703	0.00927108	0.813262
0	C	0.0231771	0.486876	0.813338
0	C	0.486448	0.811738	0.02364
0	C	0.00914813	0.811762	0.473956
0	C	0.00923522	0.680147	0.0237882
0	C	0.486404	0.680345	0.474216
0	C	0.811147	0.473111	0.00954296
0	C	0.81122	0.0233606	0.487927
0	C	0.679796	0.473311	0.487867
0	C	0.67961	0.0234346	0.009649
0	H	0.470517	0.51367	0.187311
0	H	0.0211733	0.980872	0.18773
0	H	0.0207207	0.512279	0.311152
0	H	0.470663	0.977713	0.310379
0	H	0.186715	0.471005	0.514005
0	H	0.187709	0.0219468	0.98121
0	H	0.309228	0.0216963	0.514182
0	H	0.309863	0.471046	0.980594
0	H	0.513388	0.186881	0.47172
0	H	0.977823	0.187202	0.0238675
0	H	0.512806	0.310262	0.0230249
0	H	0.978308	0.310043	0.4721
0	H	0.513238	0.47097	0.310489
0	H	0.977899	0.0218819	0.311117
0	H	0.51325	0.0218459	0.187418
0	H	0.978067	0.470938	0.187413
0	H	0.470607	0.187092	0.980397
0	H	0.0211749	0.186949	0.514432
0	H	0.0210882	0.3102	0.980592
0	H	0.470774	0.309973	0.514524
0	H	0.186893	0.513484	0.0235855
0	H	0.18671	0.978706	0.471734
0	H	0.309779	0.513505	0.471888
0	H	0.310049	0.978809	0.0235343
0	H	0.523082	0.480976	0.808891
0	H	0.972593	0.0156403	0.809288
0	H	0.972618	0.481077	0.685679
0	H	0.523025	0.0156832	0.685815
0	H	0.806783	0.523493	0.481937
0	H	0.807058	0.972752	0.0158907
0	H	0.683872	0.972728	0.481925
0	H	0.684037	0.523462	0.0159093
0	H	0.480564	0.807426	0.524666
0	H	0.0155465	0.807735	0.972881
0	H	0.480624	0.684494	0.972927
0	H	0.0154904	0.684493	0.524559
0	H	0.480602	0.523517	0.685939
0	H	0.0155325	0.972736	0.685596
0	H	0.480652	0.972671	0.809155
0	H	0.0155897	0.523538	0.809061
0	H	0.523074	0.807477	0.0159926
0	H	0.972583	0.807657	0.481964
0	H	0.972665	0.68433	0.0158654
0	H	0.523017	0.684643	0.481888
0	H	0.806976	0.480979	0.972859
0	H	0.806931	0.015721	0.524648
0	H	0.684111	0.480995	0.524573
0	H	0.683878	0.0156835	0.972953
0	H	0.525354	0.508152	0.213373
0	H	0.966188	0.986087	0.213554
0	H	0.965942	0.507208	0.284885
0	H	0.525401	0.983453	0.284171
0	H	0.212686	0.525899	0.508536
0	H	0.213548	0.966959	0.986457
0	H	0.283027	0.966894	0.508947
0	H	0.283726	0.525835	0.986251
0	H	0.507962	0.212864	0.526725
0	H	0.983192	0.212951	0.968735
0	H	0.507536	0.284157	0.968069
0	H	0.983996	0.283929	0.527013
0	H	0.507703	0.525757	0.284249
0	H	0.983272	0.967045	0.284966
0	H	0.508171	0.966924	0.213479
0	H	0.983762	0.525833	0.2134
0	H	0.525471	0.213038	0.986007
0	H	0.96629	0.212965	0.509378
0	H	0.966285	0.284043	0.985801
0	H	0.525503	0.28376	0.508953
0	H	0.212792	0.508284	0.96852
0	H	0.212595	0.984332	0.52676
0	H	0.28361	0.507979	0.526779
0	H	0.284049	0.984296	0.968552
0	H	0.468273	0.486462	0.782767
0	H	0.0273883	0.0104849	0.783051
0	H	0.0274398	0.486234	0.711854
0	H	0.468146	0.00995883	0.711735
0	H	0.780745	0.468631	0.487404
0	H	0.780856	0.0275658	0.0107558
0	H	0.709979	0.0275781	0.487133
0	H	0.709903	0.468548	0.0102108
0	H	0.485955	0.781372	0.469689
0	H	0.0102163	0.781639	0.0278499
0	H	0.485959	0.710521	0.0279235
0	H	0.00976927	0.710323	0.469513
0	H	0.486192	0.468597	0.711887
0	H	0.0101932	0.0276177	0.711677
0	H	0.485714	0.0274572	0.782821
0	H	0.0099838	0.468673	0.782996
0	H	0.468253	0.781444	0.0104401
0	H	0.0273479	0.781377	0.486974
0	H	0.0274876	0.710425	0.0106125
0	H	0.468148	0.710554	0.487522
0	H	0.780815	0.486141	0.0278043
0	H	0.780958	0.0102089	0.469655
0	H	0.709979	0.486566	0.469538
0	H	0.709817	0.0102167	0.0279692
0	H	0.519475	0.502084	0.15304
0	H	0.972275	0.9921	0.15323
0	H	0.971547	0.501105	0.345251
0	H	0.519693	0.989368	0.344529
0	H	0.152522	0.519991	0.502392
0	H	0.15336	0.972963	0.992416
0	H	0.343248	0.972501	0.503002
0	H	0.343921	0.520117	0.99226
0	H	0.501843	0.152658	0.520805
0	H	0.989228	0.152766	0.974867
0	H	0.501459	0.344377	0.973815
0	H	0.98996	0.344164	0.521241
0	H	0.50168	0.520073	0.344606
0	H	0.989189	0.97277	0.345328
0	H	0.50209	0.972768	0.153132
0	H	0.989737	0.519876	0.15307
0	H	0.51952	0.152823	0.992056
0	H	0.972104	0.152736	0.503279
0	H	0.971954	0.344302	0.991818
0	H	0.519846	0.344006	0.502919
0	H	0.152639	0.502157	0.974475
0	H	0.152436	0.990337	0.520761
0	H	0.343804	0.501951	0.521092
0	H	0.344224	0.990214	0.974374
0	H	0.474081	0.492572	0.843105
0	H	0.021756	0.00437894	0.843409
0	H	0.0217329	0.49222	0.651482
0	H	0.474163	0.00407306	0.651405
0	H	0.840914	0.474466	0.493574
0	H	0.841051	0.0219495	0.00456142
0	H	0.649768	0.0218653	0.493115
0	H	0.649734	0.474553	0.00429961
0	H	0.49211	0.841584	0.475529
0	H	0.00406674	0.841852	0.0220838
0	H	0.491937	0.650294	0.0220878
0	H	0.00386928	0.650116	0.475591
0	H	0.492121	0.474595	0.651551
0	H	0.00426359	0.0218035	0.651321
0	H	0.491882	0.0219094	0.843189
0	H	0.00391963	0.474543	0.843321
0	H	0.474104	0.841655	0.0043237
0	H	0.0218127	0.841632	0.493169
0	H	0.0217589	0.650178	0.00465724
0	H	0.474126	0.650328	0.49344
0	H	0.840994	0.492354	0.0221304
0	H	0.841111	0.00407594	0.475559
0	H	0.649807	0.4925	0.475551
0	H	0.649649	0.00428661	0.0220692
0	C	0.59664	0.700726	0.00172063
0	C	0.89497	0.791372	0.00140701
0	C	0.895037	0.700861	0.495946
0	C	0.596618	0.791075	0.495573
0	C	0.00123965	0.597193	0.701915
0	C	0.0010843	0.895345	0.792906
0	C	0.494322	0.895527	0.702214
0	C	0.49412	0.597074	0.792561
0	C	0.700131	0.00121764	0.598329
0	C	0.790789	0.00104808	0.896803
0	C	0.700389	0.494843	0.896878
0	C	0.790566	0.494581	0.598284
0	C	0.700374	0.596959	0.495659
0	C	0.790532	0.895544	0.496014
0	C	0.700228	0.895481	0.00133058
0	C	0.790725	0.597193	0.00172223
0	C	0.596808	0.00145896	0.792829
0	C	0.894825	0.00105373	0.701988
0	C	0.894965	0.494878	0.792568
0	C	0.596592	0.494496	0.702236
0	C	0.000962345	0.700609	0.896792
0	C	0.00120403	0.791417	0.598426
0	C	0.49418	0.700894	0.598188
0	C	0.494404	0.791104	0.896906
0	C	0.397023	0.293699	0.99468
0	C	0.0987318	0.20322	0.995034
0	C	0.0986759	0.293625	0.500435
0	C	0.397066	0.203359	0.500772
0	C	0.992447	0.397076	0.294436
0	C	0.992766	0.0993338	0.203585
0	C	0.49932	0.0988746	0.294215
0	C	0.499571	0.397313	0.203838
0	C	0.29355	0.993184	0.398055
0	C	0.202937	0.993387	0.0996693
0	C	0.293379	0.499638	0.0994543
0	C	0.203149	0.499795	0.398005
0	C	0.293353	0.397416	0.500735
0	C	0.203113	0.0989405	0.500429
0	C	0.293491	0.0989217	0.995017
0	C	0.203048	0.397322	0.994741
0	C	0.396956	0.993048	0.203642
0	C	0.0987856	0.993376	0.29442
0	C	0.0987493	0.499604	0.2038
0	C	0.397038	0.499965	0.294181
0	C	0.992705	0.293864	0.0995471
0	C	0.992539	0.203122	0.398021
0	C	0.499514	0.293592	0.398116
0	C	0.499316	0.203319	0.0995192
0	H	0.573463	0.706585	0.0310165
0	H	0.918236	0.785537	0.0306324
0	H	0.918202	0.70672	0.466641
0	H	0.573542	0.78522	0.466193
0	H	0.0303879	0.573904	0.707735
0	H	0.0301628	0.918722	0.787091
0	H	0.465099	0.918707	0.708109
0	H	0.464821	0.573985	0.78667
0	H	0.70593	0.0303632	0.574964
0	H	0.785007	0.0301593	0.920213
0	H	0.706238	0.465549	0.920053
0	H	0.784719	0.465252	0.575153
0	H	0.706265	0.573872	0.466282
0	H	0.784709	0.91871	0.466688
0	H	0.706055	0.91875	0.0305719
0	H	0.784904	0.573996	0.0310226
0	H	0.573501	0.0305984	0.787018
0	H	0.918221	0.0301197	0.707797
0	H	0.918138	0.465634	0.786709
0	H	0.57352	0.465179	0.708143
0	H	0.0300775	0.706402	0.920172
0	H	0.0303553	0.785643	0.575086
0	H	0.464882	0.706785	0.575057
0	H	0.465137	0.785254	0.920088
0	H	0.42009	0.287798	0.965305
0	H	0.0755479	0.209037	0.965739
0	H	0.0753993	0.287818	0.529661
0	H	0.420226	0.209217	0.530084
0	H	0.963208	0.420238	0.288557
0	H	0.963577	0.076095	0.209407
0	H	0.528462	0.0755708	0.288404
0	H	0.528803	0.420489	0.209723
0	H	0.287691	0.963961	0.421307
0	H	0.20873	0.964193	0.0763667
0	H	0.287561	0.528848	0.0761674
0	H	0.209009	0.529066	0.421207
0	H	0.287475	0.42059	0.530045
0	H	0.2089	0.0756636	0.529674
0	H	0.287663	0.0757345	0.96571
0	H	0.208925	0.420408	0.965364
0	H	0.420159	0.963835	0.209504
0	H	0.0754649	0.964248	0.288616
0	H	0.0754678	0.528769	0.209618
0	H	0.4202	0.529214	0.288287
0	H	0.963522	0.288073	0.0762512
0	H	0.963309	0.208952	0.421249
0	H	0.528746	0.287713	0.421334
0	H	0.528504	0.209127	0.0762298
0	H	0.576644	0.705641	0.970173
0	H	0.914834	0.786394	0.969788
0	H	0.915042	0.705716	0.527498
0	H	0.576481	0.786248	0.527048
0	H	0.969723	0.577289	0.706915
0	H	0.969495	0.915129	0.787886
0	H	0.525792	0.915552	0.707059
0	H	0.525509	0.576923	0.787709
0	H	0.705106	0.969658	0.578416
0	H	0.785769	0.969453	0.916645
0	H	0.705235	0.526291	0.91701
0	H	0.785723	0.525988	0.578085
0	H	0.705207	0.576813	0.527136
0	H	0.785661	0.91559	0.527548
0	H	0.705155	0.915391	0.969723
0	H	0.785799	0.577172	0.970182
0	H	0.576953	0.969895	0.787837
0	H	0.914552	0.969414	0.706983
0	H	0.914969	0.526372	0.787711
0	H	0.57646	0.525915	0.70707
0	H	0.969408	0.705618	0.916666
0	H	0.969692	0.78642	0.578479
0	H	0.52557	0.705726	0.578
0	H	0.525832	0.786235	0.917027
0	H	0.417127	0.288806	0.0261624
0	H	0.0787486	0.208127	0.0265894
0	H	0.07878	0.288745	0.468818
0	H	0.417092	0.208234	0.469234
0	H	0.0238899	0.417105	0.289463
0	H	0.024256	0.0793897	0.208587
0	H	0.467783	0.0789638	0.28934
0	H	0.468118	0.417358	0.208718
0	H	0.288594	0.0246792	0.418075
0	H	0.207933	0.0249066	0.0796994
0	H	0.288494	0.468122	0.0794415
0	H	0.208037	0.468333	0.418105
0	H	0.288488	0.417457	0.469196
0	H	0.20801	0.0790051	0.468828
0	H	0.288592	0.0789065	0.0265631
0	H	0.207949	0.417447	0.0262187
0	H	0.416912	0.0245526	0.208601
0	H	0.0789555	0.024956	0.28946
0	H	0.0788535	0.468046	0.208685
0	H	0.417063	0.468482	0.289317
0	H	0.0241952	0.288883	0.0795648
0	H	0.0239882	0.208092	0.418075
0	H	0.468061	0.288726	0.418199
0	H	0.467824	0.208215	0.079507
0	H	0.623169	0.727443	0.0029641
0	H	0.868423	0.76467	0.00278076
0	H	0.868521	0.7276	0.494761
0	H	0.623093	0.764297	0.494485
0	H	0.00261796	0.623742	0.728679
0	H	0.00255547	0.868784	0.766151
0	H	0.493161	0.868987	0.729005
0	H	0.493039	0.623588	0.765751
0	H	0.726829	0.00260347	0.62492
0	H	0.764099	0.00251154	0.870201
0	H	0.727114	0.493713	0.870296
0	H	0.763817	0.493491	0.624838
0	H	0.727091	0.623493	0.494586
0	H	0.763794	0.869025	0.494819
0	H	0.726917	0.86892	0.0026607
0	H	0.764003	0.623716	0.00298384
0	H	0.623309	0.00285527	0.76604
0	H	0.868299	0.00253929	0.728757
0	H	0.868475	0.493686	0.76575
0	H	0.623096	0.49343	0.729038
0	H	0.00239758	0.727309	0.870178
0	H	0.0026027	0.764679	0.624998
0	H	0.493113	0.727638	0.624769
0	H	0.493255	0.764352	0.87033
0	H	0.370478	0.266996	0.993556
0	H	0.125235	0.229975	0.99377
0	H	0.125161	0.266862	0.501746
0	H	0.370558	0.230102	0.501964
0	H	0.991211	0.370506	0.267691
0	H	0.991429	0.125897	0.230347
0	H	0.50063	0.125367	0.267385
0	H	0.500749	0.370781	0.230629
0	H	0.266875	0.991925	0.371438
0	H	0.229638	0.992038	0.126268
0	H	0.26665	0.500897	0.126025
0	H	0.229859	0.500973	0.371413
0	H	0.26665	0.370874	0.50191
0	H	0.229859	0.125448	0.501744
0	H	0.266773	0.125458	0.993779
0	H	0.229745	0.370766	0.993604
0	H	0.370428	0.991774	0.230412
0	H	0.12528	0.99198	0.267618
0	H	0.125227	0.500917	0.230627
0	H	0.370528	0.501133	0.267392
0	H	0.991362	0.267135	0.126135
0	H	0.991267	0.229836	0.371416
0	H	0.500683	0.266862	0.371528
0	H	0.500585	0.230081	0.126082
0	C	0.576149	0.5976	0.00207511
0	C	0.915343	0.894552	0.00132973
0	C	0.915383	0.59775	0.495648
0	C	0.576241	0.894191	0.495227
0	C	0.00149629	0.576678	0.598578
0	C	0.0010748	0.915734	0.896293
0	C	0.494024	0.9159	0.598899
0	C	0.493786	0.576599	0.895864
0	C	0.597068	0.00156214	0.577821
0	C	0.893909	0.00108721	0.917182
0	C	0.597351	0.494392	0.91728
0	C	0.893602	0.494305	0.577834
0	C	0.59736	0.576459	0.495201
0	C	0.893609	0.915806	0.49584
0	C	0.597135	0.915823	0.00161739
0	C	0.893795	0.576763	0.00188169
0	C	0.576355	0.00164715	0.89617
0	C	0.915144	0.00125892	0.598619
0	C	0.915248	0.494667	0.895894
0	C	0.576103	0.494048	0.598955
0	C	0.00120903	0.597428	0.917216
0	C	0.00132271	0.894576	0.57796
0	C	0.493718	0.597803	0.577661
0	C	0.494174	0.89425	0.917274
0	C	0.41752	0.396844	0.994302
0	C	0.0785038	0.10005	0.99495
0	C	0.0783058	0.396718	0.50072
0	C	0.417462	0.100229	0.501082
0	C	0.992157	0.41762	0.397796
0	C	0.992686	0.078952	0.100197
0	C	0.499629	0.0785055	0.397498
0	C	0.499929	0.417761	0.100523
0	C	0.396627	0.992842	0.418608
0	C	0.0998306	0.993327	0.0792863
0	C	0.3964	0.49999	0.0789733
0	C	0.100089	0.500066	0.418472
0	C	0.396373	0.417947	0.501193
0	C	0.100055	0.078663	0.500556
0	C	0.396565	0.0785628	0.994766
0	C	0.0999477	0.417711	0.994532
0	C	0.417355	0.992798	0.100275
0	C	0.0784772	0.993185	0.397773
0	C	0.0784578	0.499791	0.100492
0	C	0.417551	0.500417	0.397468
0	C	0.992479	0.397029	0.0791166
0	C	0.992362	0.0999321	0.418442
0	C	0.499968	0.39669	0.418675
0	C	0.499517	0.100194	0.0791422
0	H	0.590826	0.563053	0.00585608
0	H	0.900585	0.929067	0.00507448
0	H	0.900654	0.563184	0.492194
0	H	0.590912	0.92875	0.491618
0	H	0.00542838	0.591361	0.563981
0	H	0.00496367	0.900967	0.930861
0	H	0.490571	0.901164	0.564264
0	H	0.490211	0.591275	0.9305
0	H	0.562569	0.00550002	0.592541
0	H	0.928375	0.00500542	0.902395
0	H	0.562815	0.490907	0.902518
0	H	0.928137	0.490697	0.592537
0	H	0.562805	0.59113	0.491662
0	H	0.928117	0.901043	0.492281
0	H	0.562642	0.90104	0.00533493
0	H	0.928299	0.591455	0.00570952
0	H	0.591029	0.0056005	0.930758
0	H	0.900386	0.00511466	0.564046
0	H	0.900507	0.491161	0.93051
0	H	0.590752	0.490524	0.5643
0	H	0.00509954	0.562925	0.902423
0	H	0.00528474	0.92909	0.592682
0	H	0.490191	0.563221	0.59236
0	H	0.490621	0.928793	0.902504
0	H	0.402808	0.431387	0.990622
0	H	0.0932747	0.0655319	0.991305
0	H	0.0930181	0.43128	0.504323
0	H	0.402801	0.0656752	0.504763
0	H	0.988306	0.402908	0.432389
0	H	0.988877	0.0937207	0.065622
0	H	0.503216	0.0932204	0.43213
0	H	0.503584	0.403097	0.0658923
0	H	0.431124	0.98903	0.403857
0	H	0.0653503	0.989514	0.0940689
0	H	0.430936	0.503613	0.0937085
0	H	0.0655624	0.503768	0.403778
0	H	0.430916	0.403275	0.504839
0	H	0.0655398	0.0933825	0.504225
0	H	0.431066	0.0933497	0.991128
0	H	0.0654461	0.402986	0.990837
0	H	0.40265	0.988984	0.0656878
0	H	0.0932458	0.989405	0.432351
0	H	0.093159	0.503406	0.06587
0	H	0.402898	0.504044	0.432111
0	H	0.988667	0.431539	0.0939175
0	H	0.988532	0.06542	0.403687
0	H	0.503606	0.43126	0.403974
0	H	0.503181	0.0656446	0.0938691
0	H	0.557222	0.598941	0.969478
0	H	0.934162	0.893187	0.968682
0	H	0.934482	0.59931	0.528137
0	H	0.55724	0.892734	0.527787
0	H	0.968922	0.557852	0.599804
0	H	0.96846	0.934477	0.895043
0	H	0.526446	0.934981	0.600466
0	H	0.52624	0.557559	0.894377
0	H	0.598271	0.968963	0.558956
0	H	0.89271	0.968435	0.935944
0	H	0.598859	0.526796	0.936478
0	H	0.892144	0.52681	0.558794
0	H	0.598873	0.557353	0.527704
0	H	0.892141	0.934819	0.52839
0	H	0.598482	0.934791	0.969042
0	H	0.89249	0.557919	0.969226
0	H	0.55762	0.969004	0.894962
0	H	0.933953	0.968665	0.59987
0	H	0.934268	0.527139	0.894374
0	H	0.557014	0.52649	0.600485
0	H	0.968658	0.598639	0.936112
0	H	0.968703	0.893381	0.559177
0	H	0.526131	0.599317	0.558514
0	H	0.52663	0.892781	0.936341
0	H	0.436547	0.395457	0.0268389
0	H	0.0595611	0.101449	0.0275272
0	H	0.0593234	0.395243	0.468162
0	H	0.436392	0.101648	0.46848
0	H	0.0246862	0.436524	0.396534
0	H	0.0252306	0.0600887	0.101474
0	H	0.46716	0.0595029	0.396013
0	H	0.46743	0.43673	0.101963
0	H	0.395354	0.0253808	0.437572
0	H	0.101089	0.0259126	0.0604129
0	H	0.394953	0.4675	0.0599222
0	H	0.10149	0.467509	0.437425
0	H	0.394925	0.43697	0.468639
0	H	0.101479	0.0597624	0.467937
0	H	0.395167	0.0595254	0.0272976
0	H	0.101317	0.436674	0.0271164
0	H	0.436212	0.0253702	0.101553
0	H	0.0595964	0.0257338	0.39648
0	H	0.0595372	0.467258	0.101961
0	H	0.436557	0.467923	0.396001
0	H	0.0249841	0.395773	0.0601478
0	H	0.0249122	0.101189	0.437346
0	H	0.4675	0.395242	0.437732
0	H	0.466998	0.101614	0.06018
0	H	0.551427	0.602479	0.0302323
0	H	0.940149	0.889786	0.0294266
0	H	0.939949	0.602424	0.467318
0	H	0.551583	0.889391	0.466995
0	H	0.0294688	0.551835	0.603552
0	H	0.0290028	0.940641	0.891425
0	H	0.465797	0.94051	0.603583
0	H	0.46561	0.551944	0.891062
0	H	0.602031	0.0295503	0.552929
0	H	0.88903	0.0290181	0.942151
0	H	0.602074	0.466086	0.94187
0	H	0.888801	0.466137	0.553098
0	H	0.602137	0.551861	0.466898
0	H	0.888904	0.940476	0.467589
0	H	0.601911	0.940538	0.0298102
0	H	0.888916	0.551937	0.0299627
0	H	0.551466	0.0295772	0.891195
0	H	0.939967	0.0292633	0.603482
0	H	0.939879	0.466454	0.891197
0	H	0.551524	0.465799	0.603746
0	H	0.0292194	0.602321	0.942075
0	H	0.029236	0.889617	0.553002
0	H	0.465487	0.602582	0.553019
0	H	0.465989	0.889519	0.941976
0	H	0.442156	0.392026	0.966057
0	H	0.0537986	0.104773	0.966757
0	H	0.0536366	0.391962	0.528941
0	H	0.442176	0.105065	0.529261
0	H	0.964116	0.442399	0.392871
0	H	0.964664	0.0541412	0.105038
0	H	0.52778	0.053826	0.392723
0	H	0.52805	0.442472	0.105371
0	H	0.391745	0.964762	0.443412
0	H	0.104665	0.965305	0.0544098
0	H	0.391607	0.528167	0.0542536
0	H	0.104935	0.528164	0.443283
0	H	0.391538	0.442611	0.529428
0	H	0.10483	0.0538938	0.528707
0	H	0.391827	0.0539069	0.966516
0	H	0.104744	0.442432	0.966341
0	H	0.442137	0.964756	0.105166
0	H	0.053713	0.965124	0.39295
0	H	0.0537378	0.527915	0.10526
0	H	0.442198	0.528597	0.392625
0	H	0.964411	0.392177	0.0543174
0	H	0.96434	0.104811	0.443296
0	H	0.528124	0.391853	0.443391
0	H	0.527606	0.104998	0.0543464
0	C	0.664232	0.633303	0.957443
0	C	0.826957	0.858556	0.957462
0	C	0.827008	0.633515	0.539814
0	C	0.664368	0.858427	0.53979
0	C	0.956952	0.664751	0.634413
0	C	0.95713	0.827424	0.860242
0	C	0.538038	0.827458	0.634721
0	C	0.5382	0.664843	0.860082
0	C	0.632802	0.956871	0.665986
0	C	0.857922	0.956901	0.828851
0	C	0.63304	0.53881	0.828828
0	C	0.857842	0.538751	0.666212
0	C	0.63295	0.664707	0.539799
0	C	0.857715	0.827413	0.539956
0	C	0.632942	0.82751	0.95736
0	C	0.857956	0.6649	0.957376
0	C	0.6643	0.95707	0.860249
0	C	0.827	0.957053	0.634592
0	C	0.826889	0.53868	0.859965
0	C	0.664268	0.538591	0.634643
0	C	0.956895	0.633289	0.828876
0	C	0.956871	0.858671	0.666182
0	C	0.538221	0.633425	0.666064
0	C	0.538303	0.858392	0.828761
0	C	0.329421	0.361132	0.03893
0	C	0.166762	0.136041	0.039051
0	C	0.166684	0.360969	0.456548
0	C	0.329321	0.13601	0.456572
0	C	0.0367101	0.329546	0.361971
0	C	0.0368149	0.167183	0.136198
0	C	0.455517	0.166921	0.361685
0	C	0.455494	0.329551	0.136315
0	C	0.360905	0.0374703	0.330392
0	C	0.135797	0.0376211	0.167575
0	C	0.36073	0.455716	0.167505
0	C	0.135854	0.455659	0.330098
0	C	0.360778	0.329696	0.456587
0	C	0.135936	0.167048	0.456461
0	C	0.360761	0.166898	0.0390212
0	C	0.135804	0.329576	0.0390287
0	C	0.32942	0.0373833	0.136211
0	C	0.166629	0.0374066	0.361794
0	C	0.166803	0.455776	0.136404
0	C	0.32938	0.455879	0.361776
0	C	0.0368042	0.361171	0.167469
0	C	0.0368158	0.135851	0.330228
0	C	0.455476	0.361063	0.330264
0	C	0.455384	0.136035	0.16764
0	H	0.691515	0.659178	0.958727
0	H	0.799804	0.832553	0.958976
0	H	0.799735	0.659392	0.538294
0	H	0.691565	0.832459	0.538487
0	H	0.958168	0.692043	0.660347
0	H	0.958499	0.800235	0.834204
0	H	0.536554	0.800163	0.660649
0	H	0.536904	0.69206	0.834065
0	H	0.658654	0.958059	0.693342
0	H	0.83196	0.95823	0.801603
0	H	0.658879	0.537408	0.801458
0	H	0.831886	0.537431	0.693474
0	H	0.658796	0.692018	0.53847
0	H	0.83176	0.800211	0.538455
0	H	0.658796	0.80021	0.958808
0	H	0.83199	0.692098	0.958662
0	H	0.691484	0.958229	0.834222
0	H	0.799734	0.958424	0.660525
0	H	0.799704	0.537202	0.833943
0	H	0.691554	0.537282	0.660564
0	H	0.958219	0.659161	0.801523
0	H	0.958077	0.832683	0.693429
0	H	0.536908	0.659294	0.693426
0	H	0.536871	0.832427	0.801494
0	H	0.3022	0.335193	0.0376888
0	H	0.193985	0.161972	0.037558
0	H	0.193872	0.334997	0.457988
0	H	0.302033	0.161876	0.457982
0	H	0.0355577	0.30231	0.335978
0	H	0.0354577	0.19444	0.162166
0	H	0.456925	0.19413	0.335661
0	H	0.45687	0.302235	0.162225
0	H	0.334992	0.0363187	0.303095
0	H	0.161699	0.0362837	0.194881
0	H	0.334791	0.457076	0.194781
0	H	0.161703	0.45707	0.30274
0	H	0.334876	0.302438	0.457885
0	H	0.16183	0.194309	0.458006
0	H	0.334798	0.194099	0.0376568
0	H	0.16167	0.302288	0.0376631
0	H	0.302144	0.0361476	0.162137
0	H	0.193796	0.0361208	0.335753
0	H	0.194048	0.457294	0.162362
0	H	0.302146	0.457159	0.335799
0	H	0.0355672	0.33519	0.194722
0	H	0.035536	0.161738	0.30289
0	H	0.456762	0.33514	0.302953
0	H	0.456855	0.161936	0.194968
0	H	0.647689	0.63544	0.923661
0	H	0.843252	0.856451	0.923557
0	H	0.843241	0.63563	0.573749
0	H	0.647891	0.856398	0.573611
0	H	0.923305	0.648102	0.636587
0	H	0.923386	0.843885	0.858125
0	H	0.571871	0.843736	0.636839
0	H	0.571939	0.648368	0.858063
0	H	0.634974	0.923225	0.649255
0	H	0.855785	0.923178	0.845429
0	H	0.635147	0.572622	0.84523
0	H	0.855798	0.572508	0.649695
0	H	0.635038	0.648253	0.573635
0	H	0.855656	0.843686	0.57388
0	H	0.63509	0.843874	0.923483
0	H	0.855871	0.648327	0.923601
0	H	0.647597	0.923427	0.858148
0	H	0.843468	0.923299	0.636784
0	H	0.843144	0.572543	0.857924
0	H	0.647804	0.572352	0.636738
0	H	0.923183	0.635471	0.845426
0	H	0.923234	0.856562	0.64948
0	H	0.571959	0.635515	0.649563
0	H	0.572107	0.856339	0.845131
0	H	0.345972	0.359091	0.0727166
0	H	0.15041	0.138214	0.0729234
0	H	0.150423	0.358982	0.422621
0	H	0.345737	0.138187	0.422731
0	H	0.0703516	0.346224	0.359893
0	H	0.0705307	0.150672	0.138387
0	H	0.421696	0.150612	0.359694
0	H	0.421747	0.34599	0.138476
0	H	0.35883	0.0711295	0.347113
0	H	0.138021	0.0713194	0.150956
0	H	0.358745	0.421892	0.151114
0	H	0.138041	0.421888	0.346565
0	H	0.358765	0.346143	0.422743
0	H	0.138094	0.150778	0.422543
0	H	0.35875	0.15049	0.0728865
0	H	0.138013	0.346112	0.0728171
0	H	0.34609	0.0710359	0.138436
0	H	0.150115	0.0711467	0.359743
0	H	0.150549	0.42192	0.138541
0	H	0.345836	0.42211	0.359757
0	H	0.0705025	0.359128	0.150873
0	H	0.0704656	0.138082	0.346894
0	H	0.42173	0.35905	0.346755
0	H	0.421587	0.138185	0.151272
0	H	0.680357	0.599346	0.960204
0	H	0.810684	0.892434	0.960317
0	H	0.81089	0.599562	0.536899
0	H	0.680597	0.892326	0.536915
0	H	0.959604	0.680915	0.600401
0	H	0.959879	0.811137	0.894188
0	H	0.535144	0.811328	0.600702
0	H	0.535327	0.681087	0.894045
0	H	0.598876	0.959517	0.68217
0	H	0.891777	0.959611	0.812533
0	H	0.599102	0.535939	0.812683
0	H	0.89171	0.535897	0.682497
0	H	0.599018	0.680829	0.536941
0	H	0.891582	0.811166	0.537018
0	H	0.59901	0.811379	0.960193
0	H	0.891819	0.68117	0.960149
0	H	0.680569	0.95974	0.894201
0	H	0.810847	0.959764	0.600582
0	H	0.810656	0.535736	0.893924
0	H	0.680383	0.535756	0.600619
0	H	0.959595	0.599337	0.812694
0	H	0.959548	0.892553	0.682502
0	H	0.53538	0.599467	0.682219
0	H	0.535397	0.892289	0.812488
0	H	0.313214	0.395044	0.0361082
0	H	0.182943	0.102113	0.0362468
0	H	0.182913	0.394864	0.459529
0	H	0.313208	0.10205	0.459372
0	H	0.0340045	0.313304	0.39594
0	H	0.0341139	0.183376	0.102202
0	H	0.458475	0.183165	0.395647
0	H	0.458294	0.31343	0.102287
0	H	0.394785	0.0347578	0.314128
0	H	0.101898	0.0349796	0.183814
0	H	0.394606	0.45866	0.183767
0	H	0.101923	0.45844	0.313937
0	H	0.39467	0.313499	0.459489
0	H	0.102025	0.183216	0.459331
0	H	0.394628	0.183154	0.0361197
0	H	0.101881	0.313425	0.0363111
0	H	0.31327	0.0347685	0.102199
0	H	0.182907	0.0346256	0.395739
0	H	0.182952	0.458657	0.102398
0	H	0.313189	0.458762	0.39576
0	H	0.0340347	0.395057	0.183777
0	H	0.0341939	0.101909	0.314027
0	H	0.458364	0.394982	0.314034
0	H	0.458226	0.102092	0.183829
