#******************************************
#
# CIF file created by Zeo++
# Zeo++ is an open source package to
# analyze microporous materials
#
#*******************************************

_cell_length_a		17.7778(0)
_cell_length_b		25.4693(0)
_cell_length_c		29.816(0)
_cell_angle_alpha		90(0)
_cell_angle_beta		107.744(0)
_cell_angle_gamma		90(0)

_symmetry_space_group_name_H-M		'P1'
_symmetry_Int_Tables_number		1
_symmetry_cell_setting		Monoclinic

loop_
_symmetry_equiv_pos_as_xyz
'+x,+y,+z'

loop_
_atom_site_label
_atom_site_type_symbol
_atom_site_fract_x
_atom_site_fract_y
_atom_site_fract_z
0	S	0.193626	0.0154129	0.81322
0	S	0.834053	0.00481768	0.196003
0	S	0.702353	0.60287	0.833519
0	S	0.384151	0.557528	0.183221
0	S	0.488661	0.967466	0.886656
0	S	0.642396	0.929818	0.113959
0	S	0.948429	0.490705	0.880487
0	S	0.154166	0.447433	0.107008
0	S	0.405276	0.333538	0.722278
0	S	0.692236	0.330569	0.308606
0	S	0.895888	0.838177	0.710059
0	S	0.186529	0.8292	0.30327
0	P	0.121352	0.848729	0.856928
0	P	0.0245372	0.868642	0.167465
0	P	0.564281	0.372017	0.857179
0	P	0.536242	0.363133	0.1692
0	P	0.336446	0.00490881	0.0294287
0	P	0.76662	0.0158586	0.000108183
0	P	0.834031	0.520446	0.0303357
0	P	0.26467	0.498425	0.988251
0	S	0.651964	0.946447	0.620182
0	S	0.459603	0.958379	0.375146
0	S	0.162	0.455625	0.632772
0	S	0.960415	0.463967	0.377143
0	P	0.736337	0.873969	0.49703
0	P	0.356039	0.885599	0.521763
0	P	0.246599	0.386454	0.499131
0	P	0.867232	0.394035	0.528459
0	P	0.49992	0.528148	0.669725
0	P	0.608308	0.523992	0.356967
0	P	0.992389	0.0262811	0.635773
0	P	0.107349	0.0250872	0.351695
0	Cl	0.293269	0.807736	0.713555
0	Cl	0.789265	0.762242	0.29933
0	Cl	0.78884	0.30361	0.713934
0	Cl	0.302063	0.269948	0.310364
0	Cl	0.8414	0.0881652	0.759563
0	Cl	0.274414	0.0625557	0.216161
0	Cl	0.344673	0.585526	0.795315
0	Cl	0.771128	0.559246	0.201034
0	Cl	0.291477	0.218275	0.968211
0	Cl	0.767936	0.19702	0.0582791
0	Cl	0.816692	0.769199	0.974148
0	Cl	0.247701	0.729707	0.0425017
0	O	0.273687	0.0511476	0.00585679
0	O	0.837201	0.0585937	0.0171585
0	O	0.769849	0.567397	0.0145947
0	O	0.345327	0.53138	0.996216
0	F	0.425655	0.879433	0.916025
0	F	0.633224	0.81839	0.0795835
0	F	0.905862	0.364541	0.910863
0	F	0.15459	0.322053	0.0915784
0	F	0.652404	0.171801	0.603377
0	F	0.455806	0.131984	0.385789
0	F	0.169768	0.681758	0.615603
0	F	0.945264	0.637121	0.37227
0	O	0.40149	0.00917366	0.00102197
0	O	0.706086	0.0376622	0.0295776
0	O	0.898819	0.535346	0.0037439
0	O	0.213868	0.537709	0.0140597
0	O	0.613518	0.842709	0.910413
0	O	0.466399	0.790051	0.0994558
0	O	0.0960822	0.337326	0.911336
0	O	0.986572	0.28622	0.109597
0	F	0.517897	0.840704	0.967395
0	F	0.55095	0.759005	0.0457623
0	F	0.00142626	0.32935	0.963214
0	F	0.0734224	0.263692	0.0549102
0	O	0.137041	0.907162	0.877609
0	O	0.996932	0.908878	0.123607
0	O	0.590411	0.413096	0.900146
0	O	0.508297	0.400907	0.123355
0	O	0.552015	0.920237	0.905796
0	O	0.579419	0.89767	0.084296
0	O	0.963301	0.433004	0.885504
0	O	0.106247	0.405305	0.0813609
0	O	0.150615	0.850161	0.807587
0	O	0.0344035	0.910746	0.210452
0	O	0.570704	0.408872	0.812889
0	O	0.54227	0.407347	0.210213
0	O	0.426095	0.568511	0.660331
0	O	0.680611	0.565702	0.368495
0	O	0.916643	0.064497	0.630079
0	O	0.181512	0.0650256	0.370395
0	O	0.282412	0.954167	0.00716057
0	O	0.803799	0.965739	0.0318893
0	O	0.781553	0.472252	0.000698597
0	O	0.29297	0.453112	0.0275403
0	F	0.555079	0.15154	0.544683
0	F	0.518365	0.094448	0.448837
0	F	0.0831879	0.657932	0.552792
0	F	0.0132238	0.608104	0.438159
0	O	0.600469	0.981677	0.587324
0	O	0.533415	0.999747	0.391201
0	O	0.11325	0.492853	0.601081
0	O	0.0315049	0.507857	0.390718
0	O	0.674395	0.870603	0.450965
0	O	0.425211	0.890662	0.565613
0	O	0.183372	0.378718	0.454238
0	O	0.938166	0.400136	0.571276
0	O	0.710027	0.839555	0.538108
0	O	0.384766	0.852622	0.483417
0	O	0.223806	0.357597	0.544226
0	O	0.890722	0.358667	0.489505
0	O	0.411524	0.945461	0.860617
0	O	0.718474	0.905022	0.130586
0	O	0.864277	0.502998	0.854117
0	O	0.238676	0.441129	0.125396
0	O	0.130161	0.299369	0.661134
0	O	0.967191	0.284996	0.362928
0	O	0.62499	0.788833	0.657613
0	O	0.45504	0.768791	0.355434
0	O	0.197106	0.817579	0.890261
0	O	0.939927	0.843109	0.166964
0	O	0.644842	0.337944	0.86613
0	O	0.45014	0.33801	0.16563
0	O	0.735059	0.95748	0.638869
0	O	0.390408	0.986773	0.346443
0	O	0.24458	0.465024	0.655278
0	O	0.888288	0.488859	0.348174
0	O	0.760039	0.928821	0.524238
0	O	0.311336	0.938342	0.498025
0	O	0.270059	0.444462	0.519986
0	O	0.82228	0.445948	0.50328
0	O	0.24103	0.0217263	0.862257
0	O	0.758366	0.990615	0.159755
0	O	0.749528	0.62323	0.879241
0	O	0.330455	0.56689	0.13527
0	O	0.797803	0.896951	0.847391
0	O	0.293564	0.85499	0.16124
0	O	0.289157	0.385601	0.857504
0	O	0.808847	0.359869	0.159359
0	F	0.448121	0.798602	0.908304
0	F	0.646938	0.740322	0.105725
0	F	0.930382	0.283453	0.9069
0	F	0.167857	0.242866	0.115021
0	O	0.0425638	0.82423	0.848483
0	O	0.089007	0.831073	0.169239
0	O	0.490634	0.341171	0.850029
0	O	0.602588	0.326018	0.174975
0	F	0.646675	0.0959842	0.573186
0	F	0.420747	0.0559822	0.401149
0	F	0.177369	0.606465	0.586669
0	F	0.917262	0.563253	0.395931
0	O	0.348803	0.351727	0.678371
0	O	0.750346	0.349024	0.351419
0	O	0.837179	0.846352	0.663673
0	O	0.245916	0.84561	0.346348
0	O	0.349599	0.972706	0.723423
0	O	0.749692	0.916256	0.282817
0	O	0.854765	0.469652	0.705227
0	O	0.257388	0.432838	0.276153
0	O	0.111313	0.0304121	0.801429
0	O	0.888786	0.032686	0.177302
0	O	0.627152	0.629588	0.812173
0	O	0.461981	0.581059	0.192501
0	O	0.577252	0.212372	0.735491
0	O	0.495299	0.207463	0.30316
0	O	0.103237	0.727354	0.724656
0	O	0.991543	0.702723	0.289882
0	O	0.821631	0.848233	0.501756
0	O	0.281252	0.851072	0.52506
0	O	0.331587	0.359054	0.506986
0	O	0.792637	0.361558	0.534954
0	O	0.37652	0.00568932	0.0810394
0	O	0.727951	0.0108793	0.948875
0	O	0.874004	0.510484	0.0812329
0	O	0.217184	0.48589	0.93948
0	O	0.532199	0.138542	0.862343
0	O	0.516014	0.139872	0.170129
0	O	0.0777682	0.646865	0.854463
0	O	0.0243087	0.653925	0.158731
0	C	0.235079	0.201989	0.87439
0	C	0.834975	0.184138	0.15179
0	C	0.739873	0.742867	0.884456
0	C	0.32182	0.704797	0.132994
0	H	0.285739	0.173845	0.879777
0	H	0.783396	0.157845	0.149186
0	H	0.783571	0.709386	0.891784
0	H	0.273857	0.674758	0.127853
0	O	0.466227	0.296449	0.71913
0	O	0.625461	0.299526	0.312397
0	O	0.96182	0.803613	0.710635
0	O	0.118951	0.7987	0.306532
0	C	0.525207	0.219907	0.698802
0	C	0.550535	0.211906	0.338863
0	C	0.0465974	0.733829	0.690051
0	C	0.0455539	0.708405	0.32609
0	N	0.49721	0.00620645	0.928803
0	N	0.642007	0.979962	0.0682646
0	N	0.984072	0.523018	0.928188
0	N	0.144092	0.495723	0.0593197
0	N	0.75681	0.916463	0.810866
0	N	0.33392	0.879984	0.194928
0	N	0.252726	0.406206	0.820515
0	N	0.844374	0.380475	0.196791
0	C	0.348931	0.302832	0.752889
0	C	0.743339	0.293754	0.278268
0	C	0.843519	0.811301	0.745069
0	C	0.235219	0.794053	0.270764
0	O	0.581664	0.548937	0.683567
0	O	0.52594	0.544069	0.342094
0	O	0.0723337	0.0503369	0.649973
0	O	0.0259375	0.046705	0.334766
0	O	0.0209525	0.279345	0.674142
0	O	0.0713435	0.263016	0.344686
0	O	0.517565	0.776166	0.675042
0	O	0.559395	0.751513	0.335583
0	N	0.512601	0.858722	0.842064
0	N	0.572366	0.805482	0.164779
0	N	0.999214	0.344835	0.840731
0	N	0.0905238	0.310435	0.173327
0	N	0.647513	0.886843	0.58428
0	N	0.460532	0.929152	0.421312
0	N	0.16221	0.399954	0.593242
0	N	0.966213	0.43743	0.425382
0	O	0.416486	0.140561	0.872058
0	O	0.624757	0.131439	0.152684
0	O	0.97402	0.660999	0.875943
0	O	0.118652	0.616053	0.139825
0	N	0.199518	0.95328	0.792776
0	N	0.871833	0.949964	0.227004
0	N	0.6814	0.538588	0.839092
0	N	0.387601	0.492139	0.19448
0	N	0.592393	0.0968332	0.662485
0	N	0.514846	0.0589403	0.326847
0	N	0.106407	0.599964	0.668235
0	N	0.00690425	0.557526	0.319498
0	N	0.460463	0.137754	0.847551
0	N	0.587317	0.133737	0.18094
0	N	0.00695603	0.654341	0.846035
0	N	0.0906035	0.635253	0.168809
0	N	0.453384	0.385913	0.753057
0	N	0.652387	0.383745	0.274674
0	N	0.930443	0.895913	0.735479
0	N	0.147585	0.883957	0.271481
0	N	0.0949881	0.18919	0.833625
0	N	0.976447	0.172356	0.185918
0	N	0.598274	0.728883	0.848693
0	N	0.462975	0.687412	0.166378
0	O	0.482016	0.106006	0.598649
0	O	0.61448	0.067615	0.39752
0	O	0.00232622	0.610582	0.600656
0	O	0.108299	0.575539	0.387656
0	C	0.210602	0.224399	0.82502
0	C	0.865725	0.208773	0.200208
0	C	0.71282	0.755208	0.832346
0	C	0.353411	0.720595	0.184245
0	N	0.454575	0.191295	0.686137
0	N	0.621083	0.184218	0.346748
0	N	0.979792	0.701404	0.679811
0	N	0.118554	0.683936	0.334276
0	O	0.487379	0.487667	0.709822
0	O	0.624679	0.485492	0.316845
0	O	0.984396	0.981662	0.673616
0	O	0.127446	0.990946	0.310184
0	C	0.257949	0.249707	0.800745
0	C	0.823543	0.235605	0.226793
0	C	0.757926	0.771947	0.803008
0	C	0.312341	0.742705	0.213776
0	N	0.0929177	0.282172	0.686345
0	N	0.999729	0.267481	0.335587
0	N	0.589502	0.779878	0.686177
0	N	0.487875	0.756468	0.326546
0	O	0.468328	0.492959	0.622162
0	O	0.63685	0.488748	0.4047
0	O	0.961918	0.997157	0.584916
0	O	0.12979	0.985331	0.396465
0	C	0.496807	0.902897	0.683477
0	C	0.595128	0.867383	0.321271
0	C	0.997852	0.407838	0.68849
0	C	0.104065	0.37738	0.326564
0	H	0.433276	0.895312	0.673467
0	H	0.65413	0.849923	0.333099
0	H	0.933061	0.403052	0.676792
0	H	0.164755	0.362809	0.339064
0	C	0.613848	0.927101	0.662676
0	C	0.490597	0.918153	0.33624
0	C	0.118602	0.431848	0.672116
0	C	0.994099	0.423652	0.339558
0	C	0.60103	0.0184973	0.856478
0	C	0.535059	0.987795	0.137964
0	C	0.0802351	0.522722	0.855646
0	C	0.0380734	0.496562	0.130454
0	H	0.638322	0.0178682	0.893812
0	H	0.502366	0.98995	0.100265
0	H	0.113561	0.518943	0.893405
0	H	0.00383513	0.495892	0.0930219
0	O	0.335256	0.00706988	0.655391
0	O	0.770736	0.960999	0.346745
0	O	0.823941	0.53671	0.658859
0	O	0.284142	0.48587	0.335428
0	C	0.197607	0.0430759	0.0623603
0	C	0.893361	0.055128	0.951653
0	C	0.697586	0.535456	0.0682246
0	C	0.351864	0.548588	0.917336
0	H	0.164778	0.0109078	0.0404814
0	H	0.936209	0.0270273	0.973039
0	H	0.673045	0.503876	0.0428779
0	H	0.397529	0.517591	0.924618
0	H	0.156558	0.0638474	0.0771482
0	H	0.923909	0.0780012	0.931378
0	H	0.652416	0.545878	0.0849046
0	H	0.366342	0.577147	0.893716
0	H	0.242803	0.0256448	0.0925706
0	H	0.847095	0.0325915	0.925916
0	H	0.747262	0.518979	0.0966238
0	H	0.295921	0.529929	0.897299
0	C	0.478532	0.0481486	0.679012
0	C	0.628146	0.00577062	0.317529
0	C	0.983877	0.555343	0.677578
0	C	0.129662	0.515717	0.310008
0	H	0.440628	0.0507525	0.641984
0	H	0.658937	0.00665232	0.355923
0	H	0.950366	0.559672	0.639999
0	H	0.160032	0.516699	0.348334
0	C	0.545817	0.861211	0.894896
0	C	0.537443	0.790882	0.117972
0	C	0.0260784	0.34064	0.890004
0	C	0.0572522	0.291465	0.127766
0	C	0.579542	0.0428372	0.774306
0	C	0.542949	0.00835023	0.219129
0	C	0.0740101	0.545687	0.775153
0	C	0.0451105	0.517338	0.211515
0	C	0.277648	0.899977	0.0724378
0	C	0.852565	0.909724	0.981084
0	C	0.783557	0.396746	0.0500078
0	C	0.343614	0.389039	0.982163
0	H	0.316894	0.9235	0.100896
0	H	0.82517	0.926925	0.946144
0	H	0.818608	0.413489	0.0838931
0	H	0.315698	0.402667	0.945882
0	H	0.277195	0.859802	0.0855528
0	H	0.868734	0.86928	0.975324
0	H	0.789512	0.353989	0.0530048
0	H	0.357323	0.347348	0.979463
0	H	0.217385	0.915623	0.0659368
0	H	0.908279	0.930803	0.998142
0	H	0.7213	0.40647	0.0456747
0	H	0.400787	0.409545	0.996432
0	C	0.453528	0.0232701	0.713217
0	C	0.656881	0.980274	0.285717
0	C	0.951738	0.532468	0.709604
0	C	0.162593	0.495364	0.277851
0	C	0.437828	0.6241	0.675988
0	C	0.665687	0.621775	0.355328
0	C	0.927296	0.117922	0.650488
0	C	0.174203	0.120682	0.355589
0	C	0.476664	0.996742	0.798016
0	C	0.647878	0.957321	0.201798
0	C	0.957294	0.510582	0.792886
0	C	0.158308	0.476774	0.19384
0	H	0.417423	0.978564	0.788948
0	H	0.704027	0.935566	0.213935
0	H	0.894766	0.498896	0.780972
0	H	0.219483	0.461748	0.205864
0	C	0.412163	0.437422	0.746743
0	C	0.699504	0.433073	0.281385
0	C	0.897311	0.945764	0.712366
0	C	0.197112	0.932061	0.277208
0	H	0.444924	0.463074	0.77756
0	H	0.671873	0.459143	0.250384
0	H	0.926423	0.978424	0.736758
0	H	0.170381	0.957899	0.245844
0	H	0.351668	0.432205	0.749716
0	H	0.760186	0.42417	0.280116
0	H	0.832996	0.947509	0.708986
0	H	0.257115	0.921491	0.275778
0	C	0.543813	0.893447	0.731149
0	C	0.547769	0.859727	0.273496
0	C	0.0417212	0.393839	0.735519
0	C	0.057769	0.366745	0.279066
0	C	0.724462	0.860646	0.583461
0	C	0.359974	0.868733	0.434058
0	C	0.241623	0.382463	0.588187
0	C	0.867751	0.376365	0.440496
0	H	0.773955	0.889729	0.594571
0	H	0.324506	0.905187	0.427818
0	H	0.281703	0.417274	0.592988
0	H	0.832206	0.412846	0.434686
0	H	0.735738	0.825676	0.607492
0	H	0.323208	0.835462	0.415476
0	H	0.266815	0.350948	0.615035
0	H	0.830924	0.343547	0.421023
0	C	0.129851	0.217652	0.803535
0	C	0.94727	0.202462	0.217889
0	C	0.631654	0.746925	0.813465
0	C	0.434131	0.710557	0.201676
0	C	0.422948	0.135557	0.795596
0	C	0.631881	0.130616	0.231923
0	C	0.958945	0.656354	0.79543
0	C	0.139001	0.636824	0.219252
0	C	0.735246	0.980642	0.499404
0	C	0.343807	0.992393	0.510582
0	C	0.229479	0.493322	0.495382
0	C	0.853014	0.50062	0.514269
0	C	0.310055	0.0790731	0.802193
0	C	0.735656	0.0712344	0.218171
0	C	0.83575	0.623352	0.811593
0	C	0.261179	0.599448	0.204819
0	H	0.338443	0.0748321	0.840613
0	H	0.700744	0.0679812	0.180731
0	H	0.86652	0.622593	0.850002
0	H	0.23156	0.59977	0.166427
0	C	0.369073	0.00799537	0.949403
0	C	0.712751	0.0156294	0.074127
0	C	0.865758	0.54914	0.95355
0	C	0.216634	0.528832	0.0609796
0	H	0.310454	0.0276419	0.937177
0	H	0.707435	0.0496296	0.0966148
0	H	0.82317	0.582075	0.949755
0	H	0.210402	0.568561	0.0755375
0	H	0.361938	0.966363	0.938611
0	H	0.768044	0.992127	0.0899409
0	H	0.835476	0.514331	0.934113
0	H	0.27129	0.508421	0.0830143
0	C	0.50187	0.0204545	0.76151
0	C	0.617427	0.981033	0.235637
0	C	0.993473	0.528517	0.758775
0	C	0.124043	0.495899	0.227665
0	C	0.0916169	0.236792	0.757632
0	C	0.991048	0.222264	0.26251
0	C	0.591503	0.754877	0.765057
0	C	0.477879	0.722033	0.248939
0	H	0.0276475	0.230163	0.741307
0	H	0.0554162	0.215365	0.276108
0	H	0.52748	0.74664	0.751188
0	H	0.541196	0.710924	0.262532
0	O	0.780065	0.949035	0.787877
0	O	0.307747	0.913975	0.215012
0	O	0.281205	0.437555	0.798968
0	O	0.813221	0.409107	0.218881
0	C	0.605447	0.0668789	0.738571
0	C	0.511399	0.032152	0.251785
0	C	0.107167	0.568487	0.742028
0	C	0.0105119	0.537393	0.244211
0	C	0.463276	0.160492	0.768852
0	C	0.598995	0.156419	0.26199
0	C	0.996936	0.675711	0.764883
0	C	0.101294	0.656911	0.249719
0	H	0.523012	0.176973	0.784347
0	H	0.540539	0.175964	0.249362
0	H	0.0591746	0.688669	0.777072
0	H	0.0389233	0.670094	0.237341
0	C	0.136544	0.263396	0.734442
0	C	0.950777	0.249466	0.288192
0	C	0.634543	0.772586	0.736447
0	C	0.439159	0.746037	0.27711
0	C	0.627433	0.904882	0.744396
0	C	0.468361	0.879179	0.258525
0	C	0.125637	0.402073	0.75122
0	C	0.976749	0.383016	0.262909
0	C	0.426734	0.859658	0.760738
0	C	0.659369	0.813153	0.245724
0	C	0.918315	0.360439	0.759952
0	C	0.173957	0.321474	0.254855
0	H	0.386716	0.893967	0.74723
0	H	0.702593	0.846643	0.256501
0	H	0.87988	0.394522	0.743228
0	H	0.216026	0.355574	0.265745
0	C	0.310263	0.115916	0.725822
0	C	0.748475	0.104098	0.297465
0	C	0.836146	0.641606	0.730733
0	C	0.260053	0.619295	0.285028
0	C	0.236391	0.0904251	0.704946
0	C	0.822738	0.077514	0.313454
0	C	0.756887	0.622406	0.714342
0	C	0.338241	0.598319	0.301844
0	H	0.206593	0.0938807	0.667011
0	H	0.857097	0.0803014	0.350751
0	H	0.727648	0.619265	0.676455
0	H	0.367967	0.596873	0.339866
0	C	0.639273	0.885616	0.82759
0	C	0.448863	0.842904	0.179
0	C	0.130751	0.374605	0.83161
0	C	0.96319	0.345017	0.18467
0	H	0.672726	0.883018	0.865521
0	H	0.41144	0.835042	0.142597
0	H	0.162751	0.36921	0.869501
0	H	0.927598	0.335913	0.148159
0	C	0.38641	0.277869	0.796533
0	C	0.700326	0.266943	0.236571
0	C	0.883627	0.796956	0.792267
0	C	0.190736	0.771682	0.227114
0	H	0.451818	0.278649	0.811641
0	H	0.634909	0.268391	0.224689
0	H	0.948518	0.801417	0.806175
0	H	0.125252	0.773324	0.215893
0	N	0.373546	0.999307	0.696377
0	N	0.731645	0.950601	0.306485
0	N	0.870174	0.511624	0.690107
0	N	0.241308	0.469822	0.29785
0	C	0.389452	0.888889	0.0368456
0	C	0.713633	0.897333	0.987006
0	C	0.898334	0.413189	0.0184719
0	C	0.206994	0.37961	0.991928
0	H	0.409427	0.898047	0.006322
0	H	0.674482	0.901664	0.00879864
0	H	0.918288	0.433502	0.991536
0	H	0.169872	0.386818	0.0147187
0	H	0.401328	0.846651	0.0436462
0	H	0.707629	0.855683	0.975747
0	H	0.915999	0.371897	0.0178591
0	H	0.20227	0.337293	0.984167
0	H	0.429086	0.909003	0.067571
0	H	0.686285	0.919033	0.953923
0	H	0.932185	0.42788	0.0533981
0	H	0.177878	0.398768	0.95784
0	C	0.510947	0.875124	0.765272
0	C	0.577117	0.833801	0.240052
0	C	0.00461482	0.373365	0.767656
0	C	0.0903076	0.340601	0.247178
0	C	0.220126	0.27149	0.755073
0	C	0.867018	0.258517	0.271023
0	C	0.717981	0.782817	0.754405
0	C	0.356567	0.7589	0.260429
0	C	0.430624	0.0376771	0.932524
0	C	0.580245	0.984286	0.0308592
0	C	0.938245	0.56602	0.939108
0	C	0.0808985	0.500176	0.0227119
0	H	0.398855	0.0590405	0.899286
0	H	0.526847	0.9594	0.0249225
0	H	0.917985	0.595574	0.910028
0	H	0.0258655	0.477632	0.0178749
0	H	0.457854	0.0689681	0.959058
0	H	0.576124	0.0129537	0.00174177
0	H	0.979438	0.587741	0.969346
0	H	0.0774624	0.527241	0.992188
0	C	0.398798	0.812558	0.728347
0	C	0.684204	0.769166	0.281999
0	C	0.893878	0.311222	0.729683
0	C	0.197295	0.278253	0.292029
0	H	0.424243	0.774881	0.745346
0	H	0.657845	0.730508	0.268027
0	H	0.920829	0.274982	0.748703
0	H	0.170041	0.239722	0.278479
0	H	0.413889	0.816157	0.694995
0	H	0.66708	0.77758	0.314184
0	H	0.910212	0.313559	0.696645
0	H	0.179485	0.287871	0.323746
0	C	0.831788	0.812002	0.464821
0	C	0.271418	0.834551	0.570333
0	C	0.356705	0.338991	0.466803
0	C	0.787974	0.342819	0.58072
0	C	0.347959	0.110403	0.775457
0	C	0.705303	0.10264	0.248312
0	C	0.878059	0.639751	0.78005
0	C	0.21927	0.618533	0.235447
0	C	0.671834	0.90103	0.793686
0	C	0.419694	0.867535	0.211565
0	C	0.167394	0.393142	0.800225
0	C	0.930527	0.36952	0.215795
0	C	0.268408	0.29961	0.732768
0	C	0.824087	0.289206	0.295266
0	C	0.763478	0.803968	0.726611
0	C	0.315628	0.787102	0.287346
0	H	0.240276	0.318498	0.698395
0	H	0.856824	0.309156	0.328376
0	H	0.733302	0.814655	0.689653
0	H	0.349487	0.803335	0.321969
0	C	0.764967	0.983175	0.456599
0	C	0.332016	0.00638684	0.557853
0	C	0.237053	0.495663	0.446008
0	C	0.837797	0.516131	0.560297
0	H	0.829105	0.976347	0.466097
0	H	0.270143	0.00255928	0.55686
0	H	0.298243	0.495539	0.445512
0	H	0.775545	0.510906	0.558156
0	H	0.752785	0.0224545	0.440447
0	H	0.350097	0.0471599	0.567285
0	H	0.208694	0.532294	0.42842
0	H	0.852416	0.557703	0.568172
0	H	0.734939	0.955781	0.428392
0	H	0.366956	0.981682	0.586886
0	H	0.204591	0.46411	0.423015
0	H	0.873163	0.493314	0.590442
0	C	0.257811	0.246329	0.910642
0	C	0.811941	0.227187	0.114272
0	C	0.775215	0.790584	0.914305
0	C	0.291209	0.752365	0.101562
0	H	0.207331	0.272707	0.909309
0	H	0.863868	0.25022	0.112033
0	H	0.729452	0.820916	0.913777
0	H	0.339578	0.780147	0.101491
0	H	0.306097	0.270974	0.905649
0	H	0.768653	0.255182	0.120854
0	H	0.822594	0.809483	0.903103
0	H	0.245826	0.774562	0.11237
0	C	0.524465	0.99591	0.843807
0	C	0.608848	0.960704	0.15403
0	C	0.998998	0.509136	0.839697
0	C	0.116664	0.475978	0.146081
0	C	0.55507	0.0702986	0.692511
0	C	0.553611	0.0321993	0.300331
0	C	0.0621899	0.574042	0.694906
0	C	0.0512357	0.537141	0.293127
0	C	0.34159	0.252842	0.820321
0	C	0.739564	0.239515	0.210901
0	C	0.841683	0.778083	0.820584
0	C	0.228607	0.748154	0.19859
0	H	0.370006	0.234731	0.854613
0	H	0.706575	0.220601	0.177827
0	H	0.87233	0.767487	0.857161
0	H	0.194674	0.733991	0.163737
0	C	0.484234	0.844801	0.920883
0	C	0.592593	0.777486	0.0878788
0	C	0.965077	0.330866	0.916835
0	C	0.113711	0.280306	0.0980093
0	C	0.0989814	0.870598	0.770807
0	C	0.0620339	0.89426	0.258821
0	C	0.540698	0.389538	0.765728
0	C	0.566143	0.39233	0.259138
0	H	0.992184	0.898548	0.753578
0	H	0.0289388	0.859313	0.265003
0	H	0.567646	0.351032	0.76177
0	H	0.53328	0.357075	0.264887
0	H	0.121991	0.868856	0.740774
0	H	0.0478415	0.930524	0.27627
0	H	0.559795	0.421732	0.745796
0	H	0.548535	0.428645	0.274988
0	C	0.424808	0.165524	0.71988
0	C	0.642222	0.157106	0.310566
0	C	0.952789	0.680055	0.716707
0	C	0.144306	0.660364	0.298165
0	C	0.076837	0.935757	0.894476
0	C	0.0563734	0.934738	0.105085
0	C	0.537934	0.455831	0.907346
0	C	0.56719	0.428959	0.105745
0	C	0.0121432	0.954405	0.851246
0	C	0.123463	0.95726	0.145325
0	C	0.513959	0.491489	0.864497
0	C	0.619994	0.462166	0.145352
0	H	0.0366946	0.974555	0.825934
0	H	0.101593	0.975413	0.172594
0	H	0.56644	0.508106	0.857032
0	H	0.587921	0.478089	0.168695
0	H	0.973117	0.982811	0.860567
0	H	0.155336	0.988279	0.133147
0	H	0.478459	0.524773	0.869703
0	H	0.644222	0.496338	0.131946
0	H	0.974047	0.922553	0.832045
0	H	0.168457	0.927937	0.162877
0	H	0.479047	0.471969	0.83176
0	H	0.671456	0.440572	0.167788
0	C	0.779915	0.0178402	0.538321
0	C	0.288184	0.0226515	0.469774
0	C	0.280423	0.534074	0.528392
0	C	0.79856	0.528839	0.471707
0	H	0.844429	0.0134189	0.54637
0	H	0.227069	0.00751827	0.461431
0	H	0.343195	0.529733	0.530919
0	H	0.736613	0.516088	0.464514
0	H	0.767171	0.010358	0.57152
0	H	0.303594	0.017938	0.436963
0	H	0.277954	0.529812	0.564565
0	H	0.81309	0.519698	0.439235
0	H	0.765155	0.0588262	0.52844
0	H	0.287493	0.0646669	0.476916
0	H	0.261643	0.574019	0.516436
0	H	0.800917	0.571463	0.475933
0	C	0.473238	0.626028	0.729109
0	C	0.617542	0.626756	0.303625
0	C	0.974485	0.11565	0.702594
0	C	0.137106	0.12477	0.302363
0	H	0.538251	0.623562	0.741952
0	H	0.556572	0.612324	0.295802
0	H	0.0386181	0.115067	0.708708
0	H	0.0737884	0.115229	0.290546
0	H	0.451417	0.594329	0.746823
0	H	0.644335	0.60523	0.280303
0	H	0.960606	0.0804261	0.720037
0	H	0.166496	0.0986475	0.283459
0	H	0.458294	0.662758	0.743939
0	H	0.613613	0.667996	0.291906
0	H	0.961046	0.149315	0.721867
0	H	0.143715	0.16476	0.290062
0	C	0.202209	0.0602973	0.731647
0	C	0.851558	0.0488584	0.283249
0	C	0.718093	0.607476	0.745557
0	C	0.376061	0.579269	0.271404
0	H	0.145214	0.0405538	0.714545
0	H	0.910126	0.0296841	0.296255
0	H	0.656435	0.593309	0.732527
0	H	0.436209	0.562418	0.285305
0	C	0.660645	0.919443	0.7088
0	C	0.442689	0.91021	0.291224
0	C	0.162573	0.41949	0.717659
0	C	0.947416	0.413052	0.294728
0	H	0.725151	0.925204	0.717996
0	H	0.38402	0.929243	0.279166
0	H	0.227478	0.423621	0.728671
0	H	0.88664	0.428696	0.282297
0	C	0.556704	0.872438	0.81323
0	C	0.529053	0.827426	0.193695
0	C	0.0482389	0.364184	0.814528
0	C	0.0441349	0.331698	0.20081
0	C	0.627845	0.0410754	0.822363
0	C	0.503478	0.0107416	0.169496
0	C	0.116715	0.540767	0.824078
0	C	0.00444364	0.517094	0.161998
0	H	0.686565	0.0587537	0.831951
0	H	0.446463	0.0312296	0.156398
0	H	0.178475	0.552911	0.836389
0	H	0.943785	0.532943	0.149076
0	C	0.159989	0.171876	0.876817
0	C	0.906418	0.151109	0.147636
0	C	0.6633	0.723942	0.894853
0	C	0.394481	0.679588	0.122224
0	H	0.168402	0.128575	0.87547
0	H	0.899372	0.108251	0.154614
0	H	0.67068	0.682529	0.907386
0	H	0.383425	0.637159	0.113344
0	H	0.14536	0.181124	0.909551
0	H	0.914223	0.154447	0.112269
0	H	0.648779	0.749589	0.92143
0	H	0.407858	0.699748	0.0923929
0	C	0.646601	0.985301	0.486986
0	C	0.429531	0.995637	0.512047
0	C	0.144245	0.492612	0.495175
0	C	0.939454	0.504368	0.51731
0	H	0.626034	0.0201874	0.464277
0	H	0.44763	0.0366832	0.510497
0	H	0.111626	0.525687	0.473725
0	H	0.957095	0.545598	0.515917
0	H	0.625068	0.989932	0.517503
0	H	0.440885	0.976156	0.481555
0	H	0.136662	0.496658	0.530067
0	H	0.952395	0.485062	0.487198
0	H	0.612994	0.953084	0.465266
0	H	0.471442	0.979195	0.543988
0	H	0.110078	0.458345	0.477418
0	H	0.980313	0.488208	0.549706
0	C	0.302279	0.901082	0.0277092
0	C	0.798653	0.910901	0.0122602
0	C	0.809165	0.417333	0.00877572
0	C	0.292125	0.396226	0.0142916
0	C	0.239707	0.0544043	0.780716
0	C	0.805643	0.0442305	0.235216
0	C	0.75739	0.610226	0.794791
0	C	0.337066	0.580849	0.222155
0	C	0.168568	0.108019	0.99491
0	C	0.924449	0.124926	0.0150734
0	C	0.651443	0.608662	0.00836664
0	C	0.424637	0.60113	0.99008
0	H	0.195272	0.133869	0.974526
0	H	0.900061	0.149256	0.037756
0	H	0.672195	0.637859	0.987634
0	H	0.417754	0.622582	0.0204721
0	H	0.129603	0.13165	0.00900601
0	H	0.951867	0.151297	0.995592
0	H	0.611752	0.628393	0.0246132
0	H	0.44471	0.628952	0.968185
0	H	0.132728	0.079072	0.970156
0	H	0.970677	0.100104	0.0381388
0	H	0.617421	0.579376	0.982973
0	H	0.471733	0.572091	0.00394081
0	C	0.232742	0.0805946	0.0341274
0	C	0.860196	0.091016	0.982107
0	C	0.721615	0.583195	0.044882
0	C	0.347608	0.574336	0.962616
0	C	0.352072	0.643034	0.659533
0	C	0.750259	0.641154	0.364561
0	C	0.840985	0.133159	0.642499
0	C	0.260794	0.13717	0.370947
0	H	0.315238	0.619593	0.67576
0	H	0.778902	0.620856	0.341567
0	H	0.81344	0.107755	0.66287
0	H	0.293158	0.116571	0.350162
0	H	0.327263	0.638978	0.621211
0	H	0.786376	0.632693	0.400828
0	H	0.807029	0.128293	0.605189
0	H	0.290061	0.126651	0.407898
0	H	0.347605	0.684328	0.668684
0	H	0.752876	0.683339	0.358285
0	H	0.835426	0.173963	0.652506
0	H	0.268098	0.179389	0.366825
0	C	0.673861	0.113717	0.691684
0	C	0.436905	0.0784868	0.295093
0	C	0.183631	0.618371	0.702025
0	C	0.92815	0.575177	0.287085
0	H	0.678698	0.157246	0.692521
0	H	0.434514	0.121966	0.297343
0	H	0.183781	0.662012	0.705413
0	H	0.920685	0.618133	0.290584
0	H	0.719137	0.0977604	0.676399
0	H	0.387492	0.0612458	0.306065
0	H	0.23428	0.60689	0.689309
0	H	0.879744	0.554314	0.296408
0	C	0.172532	0.736939	0.84166
0	C	0.975316	0.757089	0.202167
0	C	0.603273	0.248534	0.842513
0	C	0.484163	0.261379	0.216344
0	H	0.109531	0.74162	0.822253
0	H	0.0387884	0.758995	0.205448
0	H	0.539352	0.256563	0.832663
0	H	0.548758	0.264856	0.224437
0	H	0.1844	0.694495	0.842649
0	H	0.959862	0.71508	0.200891
0	H	0.611887	0.206805	0.852065
0	H	0.471488	0.21968	0.221225
0	H	0.206008	0.754987	0.820101
0	H	0.968211	0.772073	0.235258
0	H	0.621502	0.2543	0.810706
0	H	0.467687	0.282612	0.244135
0	C	0.195751	0.759069	0.891526
0	C	0.924194	0.786011	0.158972
0	C	0.650336	0.283168	0.883173
0	C	0.438967	0.280533	0.16715
0	C	0.429366	0.846984	0.812564
0	C	0.655686	0.794422	0.195207
0	C	0.914214	0.351844	0.810956
0	C	0.173759	0.301806	0.205174
0	H	0.387119	0.871464	0.824337
0	H	0.698384	0.816122	0.181619
0	H	0.888429	0.386933	0.823539
0	H	0.216026	0.324362	0.191978
0	H	0.415632	0.804941	0.816554
0	H	0.668747	0.751612	0.195124
0	H	0.879218	0.316712	0.813772
0	H	0.189477	0.259305	0.206264
0	C	0.530229	0.92078	0.650785
0	C	0.567063	0.895223	0.352215
0	C	0.0347187	0.427877	0.658069
0	C	0.0728314	0.404477	0.35645
0	H	0.492299	0.930744	0.614854
0	H	0.603591	0.899994	0.38943
0	H	0.999156	0.441128	0.622492
0	H	0.108424	0.411372	0.393517
0	C	0.683973	0.0924943	0.742349
0	C	0.434035	0.0609012	0.244307
0	C	0.188075	0.592685	0.750344
0	C	0.930205	0.56224	0.236196
0	H	0.693794	0.126531	0.767443
0	H	0.431818	0.0961999	0.221579
0	H	0.19661	0.624444	0.77764
0	H	0.926696	0.599706	0.215966
0	C	0.282001	0.747598	0.918305
0	C	0.836543	0.783367	0.15515
0	C	0.739285	0.274299	0.895362
0	C	0.349674	0.277575	0.157905
0	H	0.31937	0.750183	0.895185
0	H	0.826762	0.789687	0.189273
0	H	0.759967	0.283964	0.865208
0	H	0.331657	0.30139	0.183528
0	H	0.289493	0.708111	0.934144
0	H	0.812127	0.74475	0.142208
0	H	0.755697	0.233715	0.905769
0	H	0.330848	0.237012	0.160441
0	H	0.305346	0.776273	0.946755
0	H	0.802681	0.813274	0.130562
0	H	0.77166	0.300373	0.924469
0	H	0.318009	0.292716	0.122754
0	C	0.580266	0.867518	0.558274
0	C	0.437851	0.874055	0.421938
0	C	0.0972617	0.376903	0.568356
0	C	0.946296	0.382313	0.429257
0	H	0.576523	0.832697	0.535487
0	H	0.485807	0.854429	0.450554
0	H	0.0970101	0.344512	0.543489
0	H	0.99462	0.365491	0.459467
0	H	0.520841	0.884495	0.557117
0	H	0.434	0.851089	0.389516
0	H	0.036269	0.38797	0.569889
0	H	0.945614	0.357051	0.398616
0	C	0.262764	0.930943	0.790085
0	C	0.86548	0.903488	0.209177
0	C	0.710378	0.498025	0.824732
0	C	0.387649	0.454454	0.165711
0	H	0.323286	0.947298	0.799883
0	H	0.837599	0.892168	0.17184
0	H	0.754925	0.496727	0.805839
0	H	0.389091	0.457083	0.129104
0	H	0.258714	0.890192	0.776684
0	H	0.889886	0.870027	0.232521
0	H	0.689734	0.458894	0.83204
0	H	0.385603	0.41357	0.178002
0	C	0.752934	0.0542017	0.75842
0	C	0.362949	0.0257403	0.222044
0	C	0.25448	0.55236	0.766081
0	C	0.863154	0.526021	0.209598
0	H	0.746839	0.0198785	0.73469
0	H	0.361362	0.99083	0.244161
0	H	0.263511	0.530008	0.736264
0	H	0.861292	0.489261	0.229126
0	H	0.760384	0.0385179	0.794266
0	H	0.361106	0.0121389	0.186428
0	H	0.24362	0.523274	0.791196
0	H	0.867531	0.515759	0.174133
0	C	0.487667	0.651692	0.64951
0	C	0.6249	0.6465	0.388388
0	C	0.966301	0.152152	0.621806
0	C	0.126384	0.148817	0.383044
0	H	0.483513	0.694551	0.652424
0	H	0.624042	0.689553	0.385504
0	H	0.964502	0.193802	0.630763
0	H	0.130322	0.19165	0.380037
0	H	0.467343	0.642378	0.611779
0	H	0.655629	0.636687	0.425256
0	H	0.935981	0.14825	0.58387
0	H	0.148666	0.139233	0.420684
0	H	0.550469	0.64108	0.662888
0	H	0.563331	0.63364	0.380797
0	H	0.0284405	0.141618	0.627412
0	H	0.0635888	0.138173	0.370888
0	C	0.769378	0.768919	0.454556
0	C	0.336777	0.795965	0.594596
0	C	0.299588	0.29689	0.440308
0	C	0.85128	0.3011	0.599729
0	H	0.76445	0.750722	0.486953
0	H	0.343078	0.765094	0.570275
0	H	0.292807	0.26523	0.463761
0	H	0.852595	0.272808	0.572133
0	H	0.784187	0.737319	0.433621
0	H	0.323857	0.776592	0.624273
0	H	0.320623	0.278782	0.412856
0	H	0.839676	0.278725	0.628337
0	H	0.710089	0.782936	0.434266
0	H	0.395071	0.814774	0.608575
0	H	0.239826	0.312028	0.422517
0	H	0.911212	0.317512	0.613413
0	C	0.249626	0.867025	0.988663
0	C	0.832014	0.881027	0.0581167
0	C	0.763211	0.392751	0.961882
0	C	0.329406	0.372515	0.0627916
0	H	0.186724	0.877435	0.980684
0	H	0.887975	0.899138	0.0796338
0	H	0.69896	0.396752	0.955219
0	H	0.392411	0.383075	0.0773321
0	H	0.256162	0.825187	0.997427
0	H	0.844275	0.839679	0.0523487
0	H	0.776796	0.351	0.959444
0	H	0.325345	0.329631	0.0622777
0	H	0.263758	0.872221	0.95533
0	H	0.79247	0.882058	0.0801713
0	H	0.775178	0.413069	0.932219
0	H	0.301005	0.38717	0.0884531
0	C	0.602376	0.132439	0.58514
0	C	0.48439	0.0848666	0.402971
0	C	0.126097	0.640473	0.595064
0	C	0.978212	0.5928	0.393724
0	C	0.139842	0.742603	0.918844
0	C	0.939331	0.76894	0.11353
0	C	0.62147	0.278532	0.926227
0	C	0.464771	0.253546	0.128643
0	H	0.156033	0.760653	0.953865
0	H	0.903828	0.791712	0.0829092
0	H	0.648276	0.308244	0.953035
0	H	0.435757	0.270249	0.0937592
0	H	0.140256	0.699755	0.923496
0	H	0.92422	0.727286	0.106116
0	H	0.636992	0.240069	0.943189
0	H	0.450213	0.211414	0.126809
0	H	0.077929	0.75333	0.90101
0	H	0.00172837	0.772279	0.114941
0	H	0.556973	0.282086	0.917584
0	H	0.528899	0.255756	0.134479
0	C	0.552821	0.111073	0.616158
0	C	0.543023	0.056806	0.379827
0	C	0.0718438	0.616378	0.621942
0	C	0.0373844	0.562128	0.372545
0	C	0.461885	0.446453	0.555072
0	C	0.635929	0.425105	0.459313
0	C	0.961334	0.937788	0.526212
0	C	0.122369	0.928008	0.454346
0	H	0.446011	0.409119	0.568364
0	H	0.658927	0.393178	0.442447
0	H	0.930816	0.90697	0.540061
0	H	0.14378	0.891272	0.443246
0	H	0.484856	0.437701	0.525858
0	H	0.608489	0.40763	0.483857
0	H	0.991232	0.919015	0.503373
0	H	0.0937506	0.918526	0.480916
0	H	0.405252	0.467769	0.54119
0	H	0.689121	0.446894	0.479918
0	H	0.913402	0.962971	0.504374
0	H	0.177143	0.950571	0.471512
0	C	0.389765	0.19297	0.63969
0	C	0.682947	0.173674	0.393245
0	C	0.910983	0.702412	0.635147
0	C	0.181765	0.676748	0.380832
0	H	0.411072	0.173964	0.6121
0	H	0.655436	0.152285	0.417036
0	H	0.927999	0.680408	0.607405
0	H	0.157876	0.651638	0.404237
0	H	0.372615	0.234028	0.628766
0	H	0.709297	0.210919	0.41005
0	H	0.894729	0.743108	0.622509
0	H	0.200717	0.715135	0.398044
0	C	0.520076	0.47826	0.593748
0	C	0.579757	0.460833	0.423256
0	C	0.0184277	0.969133	0.565779
0	C	0.0689868	0.958867	0.412924
0	C	0.0459764	0.900448	0.926359
0	C	0.0843206	0.893704	0.0764461
0	C	0.467323	0.430926	0.918055
0	C	0.612899	0.388413	0.0868948
0	H	0.00831674	0.868251	0.907114
0	H	0.118051	0.861828	0.098784
0	H	0.425544	0.411792	0.887244
0	H	0.654466	0.365341	0.115161
0	H	0.00938715	0.923066	0.943083
0	H	0.123846	0.911225	0.0583741
0	H	0.433303	0.461039	0.93021
0	H	0.649055	0.407255	0.0672233
0	H	0.0947394	0.883121	0.954877
0	H	0.0346862	0.875223	0.0498901
0	H	0.485558	0.400785	0.945451
0	H	0.573575	0.360252	0.0632356
0	C	0.408526	0.465699	0.700709
0	C	0.703682	0.463163	0.326726
0	C	0.907623	0.956124	0.663825
0	C	0.203114	0.963554	0.322086
0	H	0.395859	0.438996	0.669898
0	H	0.716106	0.437601	0.358267
0	H	0.910212	0.919989	0.643733
0	H	0.210659	0.938548	0.35359
0	H	0.363757	0.497646	0.693025
0	H	0.748666	0.495072	0.333107
0	H	0.858781	0.981412	0.64237
0	H	0.251939	0.992854	0.329193
0	C	0.348922	0.145829	0.699071
0	C	0.715038	0.131748	0.328148
0	C	0.874335	0.663706	0.699717
0	C	0.221332	0.641163	0.315877
0	C	0.291412	0.119098	0.0653685
0	C	0.789895	0.123363	0.953353
0	C	0.770944	0.622301	0.0806298
0	C	0.276296	0.61018	0.955125
0	H	0.33646	0.0993469	0.0941831
0	H	0.745289	0.0995831	0.927611
0	H	0.819341	0.603221	0.107801
0	H	0.221943	0.594726	0.929947
0	H	0.261634	0.147542	0.0817218
0	H	0.80873	0.154241	0.933491
0	H	0.735033	0.643056	0.0989485
0	H	0.286776	0.64876	0.940992
0	H	0.323102	0.141215	0.045139
0	H	0.759657	0.142845	0.975889
0	H	0.797783	0.65177	0.0633413
0	H	0.263002	0.618516	0.988182
0	C	0.12823	0.979827	0.922112
0	C	0.00484779	0.977192	0.0745191
0	C	0.594952	0.482413	0.9502
0	C	0.511256	0.461448	0.0664782
0	H	0.177697	0.96425	0.951329
0	H	0.959206	0.960193	0.0440945
0	H	0.599197	0.461726	0.983022
0	H	0.470842	0.436293	0.0395505
0	H	0.0948835	0.00737922	0.936687
0	H	0.0393618	0.0056047	0.0616709
0	H	0.579896	0.52372	0.953817
0	H	0.543242	0.486633	0.048774
0	H	0.157368	0.00210254	0.900355
0	H	0.971547	0.998651	0.0944844
0	H	0.655763	0.482536	0.947165
0	H	0.472879	0.486728	0.0799295
0	C	0.588885	0.445327	0.623668
0	C	0.520088	0.430129	0.384437
0	C	0.0724859	0.933679	0.603144
0	C	0.0187094	0.923533	0.373924
0	H	0.633653	0.469127	0.649307
0	H	0.476802	0.455585	0.359534
0	H	0.121902	0.954921	0.627757
0	H	0.975338	0.945248	0.345834
0	H	0.619587	0.425465	0.601675
0	H	0.485413	0.403322	0.399369
0	H	0.0989717	0.902975	0.586947
0	H	0.984693	0.895498	0.387983
0	H	0.569013	0.41475	0.643356
0	H	0.548814	0.405844	0.364027
0	H	0.0405085	0.913336	0.624275
0	H	0.0553294	0.900234	0.357683
0	C	0.547797	0.527907	0.574759
0	C	0.539892	0.501765	0.445939
0	C	0.0644345	0.0105383	0.547949
0	C	0.0197539	0.000444876	0.428029
0	H	0.498249	0.554069	0.557866
0	H	0.583544	0.528395	0.468746
0	H	0.0246182	0.0392761	0.525216
0	H	0.0572784	0.0294272	0.451765
0	H	0.577357	0.518289	0.548468
0	H	0.507018	0.483192	0.467303
0	H	0.100068	0.99263	0.527791
0	H	0.981346	0.982643	0.446433
0	H	0.590643	0.550513	0.60254
0	H	0.497619	0.526141	0.419444
0	H	0.105371	0.0327594	0.576908
0	H	0.980873	0.0221733	0.397877
0	C	0.914457	0.790926	0.489587
0	C	0.190678	0.807838	0.552538
0	C	0.437339	0.316376	0.493862
0	C	0.704812	0.319277	0.565661
0	H	0.955625	0.823011	0.504697
0	H	0.145019	0.835393	0.533054
0	H	0.478093	0.346988	0.512781
0	H	0.660378	0.348935	0.548999
0	H	0.938118	0.76884	0.465341
0	H	0.172828	0.791233	0.581519
0	H	0.464538	0.29601	0.470355
0	H	0.68973	0.302476	0.595597
0	H	0.914442	0.764839	0.518839
0	H	0.191823	0.775921	0.527944
0	H	0.432024	0.288005	0.520494
0	H	0.699622	0.288109	0.539417
0	F	0.535044	0.237137	0.619941
0	F	0.556341	0.233347	0.420497
0	F	0.0417611	0.756811	0.609281
0	F	0.0464499	0.725751	0.407712
0	F	0.999799	0.172402	0.90195
0	F	0.0580233	0.156163	0.108291
0	F	0.51392	0.696688	0.918569
0	F	0.542468	0.647425	0.0972141
0	F	0.49849	0.301791	0.652554
0	F	0.592643	0.293038	0.381959
0	F	0.00488387	0.816315	0.647608
0	F	0.0773109	0.789404	0.371182
0	F	0.0126365	0.101148	0.867986
0	F	0.0537494	0.0866752	0.146967
0	F	0.533515	0.628415	0.883254
0	F	0.51549	0.581518	0.132924
0	F	0.90602	0.144837	0.844268
0	F	0.158342	0.132579	0.163751
0	F	0.42188	0.665945	0.861438
0	F	0.631314	0.613445	0.153942
0	F	0.617088	0.275072	0.677538
0	F	0.471304	0.272614	0.365181
0	F	0.12607	0.795731	0.665148
0	F	0.958565	0.762825	0.352243
0	Cl	0.218159	0.213063	0.57569
0	Cl	0.858416	0.159484	0.462057
0	Cl	0.737106	0.720188	0.572602
0	Cl	0.355784	0.679773	0.449559
0	O	0.966389	0.198705	0.788222
0	O	0.106852	0.194109	0.217464
0	O	0.47038	0.718916	0.801499
0	O	0.591833	0.676973	0.211176
0	C	0.984473	0.149953	0.859449
0	C	0.0797602	0.136076	0.151919
0	C	0.499581	0.675774	0.87561
0	C	0.554982	0.626721	0.140296
0	C	0.542171	0.258296	0.662278
0	C	0.544039	0.251982	0.376841
0	C	0.0532835	0.775248	0.653027
0	C	0.0334354	0.745862	0.364534
0	C	0.243396	0.192218	0.63558
0	C	0.828518	0.158627	0.399113
0	C	0.767355	0.707923	0.634587
0	C	0.328723	0.676235	0.386749
0	H	0.248522	0.227629	0.657848
0	H	0.833595	0.199092	0.386789
0	H	0.777174	0.746485	0.652693
0	H	0.325929	0.716852	0.373056
0	H	0.193897	0.168038	0.639619
0	H	0.870805	0.133298	0.388136
0	H	0.717862	0.688165	0.643107
0	H	0.376663	0.655263	0.377445
0	C	0.0141844	0.181612	0.823579
0	C	0.0550112	0.170368	0.188143
0	C	0.522146	0.709615	0.838172
0	C	0.537679	0.664735	0.176689
0	C	0.320031	0.160697	0.647495
0	C	0.744727	0.137126	0.381171
0	C	0.841771	0.674139	0.647383
0	C	0.250259	0.647157	0.368898
0	H	0.310465	0.124397	0.62511
0	H	0.741215	0.097339	0.397202
0	H	0.828787	0.635709	0.628102
0	H	0.256021	0.60696	0.385303
0	C	0.828881	0.844854	0.421529
0	C	0.269846	0.882634	0.600621
0	C	0.362966	0.385335	0.435712
0	C	0.794841	0.389171	0.614198
0	H	0.769403	0.859713	0.403273
0	H	0.328366	0.900399	0.61588
0	H	0.306061	0.396665	0.410629
0	H	0.856312	0.402011	0.630447
0	H	0.847139	0.821713	0.395534
0	H	0.24852	0.872058	0.630365
0	H	0.402146	0.376118	0.414342
0	H	0.771543	0.379088	0.643279
0	H	0.868261	0.878985	0.430681
0	H	0.230441	0.913343	0.580526
0	H	0.387946	0.420216	0.456613
0	H	0.760867	0.423255	0.596339
