#******************************************
#
# CIF file created by Zeo++
# Zeo++ is an open source package to
# analyze microporous materials
#
#*******************************************

_cell_length_a		27.0272(0)
_cell_length_b		27.1747(0)
_cell_length_c		11.5821(0)
_cell_angle_alpha		90(0)
_cell_angle_beta		90(0)
_cell_angle_gamma		120.628(0)

_symmetry_space_group_name_H-M		'P1'
_symmetry_Int_Tables_number		1
_symmetry_cell_setting		Monoclinic

loop_
_symmetry_equiv_pos_as_xyz
'+x,+y,+z'

loop_
_atom_site_label
_atom_site_type_symbol
_atom_site_fract_x
_atom_site_fract_y
_atom_site_fract_z
0	Cl	0.289608	0.924522	0.434515
0	Cl	0.0921854	0.366164	0.432751
0	Cl	0.6558	0.730012	0.432888
0	Cl	0.734551	0.0878792	0.626218
0	Cl	0.932124	0.646395	0.624604
0	Cl	0.368636	0.282659	0.624962
0	Cl	0.953623	0.250903	0.761642
0	Cl	0.76894	0.705681	0.768739
0	Cl	0.313127	0.0641631	0.75879
0	Cl	0.398351	0.42113	0.964382
0	Cl	0.600298	0.980727	0.964188
0	Cl	0.0394899	0.618765	0.966576
0	Cl	0.626189	0.591438	0.0940532
0	Cl	0.42436	0.0320726	0.0945053
0	Cl	0.985112	0.393637	0.0921438
0	Cl	0.0706008	0.761598	0.297741
0	Cl	0.255579	0.306846	0.289707
0	Cl	0.713046	0.948526	0.299561
0	C	0.427388	0.0517132	0.589405
0	C	0.965791	0.375559	0.588805
0	C	0.64196	0.591864	0.585632
0	C	0.597245	0.960889	0.469485
0	C	0.058744	0.63706	0.469373
0	C	0.383038	0.421016	0.472298
0	C	0.0863016	0.381336	0.921723
0	C	0.638881	0.710402	0.921079
0	C	0.310174	0.933079	0.919626
0	C	0.258031	0.293536	0.817795
0	C	0.727988	0.970813	0.817016
0	C	0.0513864	0.756996	0.819667
0	C	0.766501	0.719099	0.24047
0	C	0.296575	0.0417929	0.241579
0	C	0.972581	0.255254	0.239331
0	C	0.938204	0.631282	0.136743
0	C	0.385615	0.302158	0.137256
0	C	0.714646	0.079552	0.141629
0	C	0.455042	0.0239319	0.640988
0	C	0.994314	0.431306	0.640524
0	C	0.586257	0.565033	0.638664
0	C	0.569692	0.988735	0.417719
0	C	0.0302664	0.581238	0.417936
0	C	0.438719	0.447736	0.419487
0	C	0.11638	0.356105	0.97285
0	C	0.66577	0.766169	0.972608
0	C	0.254358	0.903041	0.971186
0	C	0.231402	0.321444	0.76298
0	C	0.699812	0.915963	0.762482
0	C	0.106453	0.783997	0.764798
0	C	0.79318	0.691229	0.295236
0	C	0.324767	0.0966004	0.296313
0	C	0.917622	0.228512	0.29428
0	C	0.908223	0.656566	0.0853878
0	C	0.358731	0.246366	0.0858597
0	C	0.770091	0.109726	0.0886206
0	C	0.432766	0.965536	0.615071
0	C	0.0531391	0.468111	0.614529
0	C	0.550298	0.587368	0.612684
0	C	0.591958	0.0471161	0.44393
0	C	0.971472	0.544379	0.444012
0	C	0.474579	0.425358	0.445689
0	C	0.0954984	0.29749	0.950463
0	C	0.725041	0.803649	0.95066
0	C	0.216221	0.923225	0.948628
0	C	0.254428	0.380185	0.785796
0	C	0.640648	0.879391	0.784211
0	C	0.142756	0.761881	0.78787
0	C	0.770178	0.632495	0.272504
0	C	0.383951	0.133193	0.274679
0	C	0.881523	0.250822	0.271326
0	C	0.929113	0.71519	0.107847
0	C	0.299493	0.208838	0.107991
0	C	0.808423	0.08962	0.108975
0	H	0.454515	0.944205	0.648687
0	H	0.0749037	0.511381	0.648352
0	H	0.506983	0.565584	0.647793
0	H	0.570306	0.0685071	0.410079
0	H	0.949785	0.501052	0.410482
0	H	0.517935	0.447151	0.410832
0	H	0.119495	0.278631	0.984515
0	H	0.745155	0.847127	0.983597
0	H	0.173025	0.899376	0.983822
0	H	0.232529	0.40111	0.750923
0	H	0.619187	0.836252	0.749206
0	H	0.185987	0.784055	0.752649
0	H	0.792047	0.611578	0.307594
0	H	0.405424	0.176288	0.309877
0	H	0.838306	0.22878	0.306627
0	H	0.905249	0.734103	0.073301
0	H	0.279427	0.165324	0.0753113
0	H	0.851399	0.113439	0.0726545
0	C	0.380022	0.932432	0.558555
0	C	0.0859425	0.448935	0.557602
0	C	0.570505	0.639609	0.555548
0	C	0.644571	0.080132	0.50091
0	C	0.938543	0.56356	0.500435
0	C	0.454153	0.373071	0.502793
0	C	0.0431732	0.262011	0.894121
0	C	0.760022	0.785886	0.897566
0	C	0.233206	0.974682	0.890645
0	C	0.307581	0.413622	0.841193
0	C	0.607588	0.898766	0.839646
0	C	0.122931	0.709499	0.844225
0	C	0.716997	0.599022	0.217271
0	C	0.416975	0.11386	0.219018
0	C	0.901493	0.303115	0.214447
0	C	0.981354	0.750612	0.164433
0	C	0.264483	0.226629	0.160826
0	C	0.791917	0.0381056	0.166385
0	C	0.35111	0.960847	0.515551
0	C	0.056666	0.391272	0.514516
0	C	0.628515	0.668067	0.512189
0	C	0.673332	0.0516325	0.544343
0	C	0.967759	0.621296	0.543215
0	C	0.396096	0.344675	0.545806
0	C	0.0131206	0.288649	0.847857
0	C	0.73197	0.728468	0.852733
0	C	0.290564	0.00491959	0.844509
0	C	0.335807	0.384894	0.886177
0	C	0.636676	0.955839	0.885775
0	C	0.0654589	0.680826	0.889718
0	C	0.688732	0.627707	0.172249
0	C	0.387877	0.0568229	0.172775
0	C	0.958923	0.331525	0.168905
0	C	0.0112889	0.723912	0.211032
0	C	0.292516	0.284061	0.205621
0	C	0.7349	0.00775467	0.214137
0	C	0.374548	0.0186379	0.529845
0	C	0.998511	0.356173	0.52903
0	C	0.662507	0.644404	0.526157
0	C	0.649915	0.99387	0.529734
0	C	0.0259099	0.656437	0.528766
0	C	0.362171	0.368437	0.53161
0	C	0.034313	0.346165	0.86125
0	C	0.673763	0.692656	0.864256
0	C	0.327239	0.984368	0.858271
0	C	0.311211	0.326659	0.875654
0	C	0.695242	0.990221	0.875807
0	C	0.0314387	0.704642	0.878976
0	C	0.713294	0.68594	0.182745
0	C	0.329322	0.0224343	0.182634
0	C	0.992815	0.307522	0.179768
0	C	0.990088	0.666403	0.197589
0	C	0.35072	0.319892	0.194081
0	C	0.698108	0.0282828	0.20259
0	H	0.353405	0.040565	0.492726
0	H	0.975875	0.312843	0.491666
0	H	0.70584	0.665058	0.488282
0	H	0.670892	0.971835	0.567153
0	H	0.0484889	0.699822	0.565911
0	H	0.318774	0.347779	0.569054
0	H	0.012014	0.365908	0.820772
0	H	0.652779	0.650103	0.824475
0	H	0.369745	0.00636787	0.817482
0	H	0.331609	0.304666	0.915531
0	H	0.717947	0.032595	0.916308
0	H	0.988801	0.684361	0.919524
0	H	0.692834	0.707891	0.142966
0	H	0.306614	0.980114	0.141907
0	H	0.035423	0.327671	0.139203
0	H	0.0122768	0.646616	0.238328
0	H	0.371677	0.36245	0.233833
0	H	0.656041	0.00614251	0.244999
0	N	0.35632	0.873787	0.539321
0	N	0.145065	0.484493	0.538638
0	N	0.535733	0.663506	0.536673
0	N	0.668295	0.138787	0.520368
0	N	0.879438	0.527994	0.519118
0	N	0.488868	0.349114	0.521869
0	N	0.0204903	0.203218	0.87749
0	N	0.819282	0.821809	0.883083
0	N	0.196625	0.996594	0.872153
0	N	0.331602	0.472437	0.856498
0	N	0.548372	0.863539	0.854243
0	N	0.157909	0.685858	0.861134
0	N	0.692963	0.540195	0.202097
0	N	0.476198	0.14908	0.204217
0	N	0.866566	0.326813	0.197111
0	N	0.00405651	0.80943	0.181282
0	N	0.20522	0.190726	0.175039
0	N	0.828626	0.0163392	0.18277
0	C	0.298272	0.833832	0.59021
0	C	0.184491	0.466373	0.589083
0	C	0.554874	0.720753	0.590412
0	C	0.726355	0.178685	0.469384
0	C	0.839994	0.546121	0.468791
0	C	0.469744	0.291927	0.467881
0	C	0.962759	0.164077	0.930587
0	C	0.857816	0.802388	0.932699
0	C	0.21552	0.053751	0.926201
0	C	0.390338	0.512351	0.809083
0	C	0.50906	0.882337	0.807147
0	C	0.138905	0.62808	0.81086
0	C	0.634217	0.500307	0.249498
0	C	0.515528	0.130323	0.251391
0	C	0.885572	0.38457	0.247531
0	C	0.0617574	0.848538	0.127983
0	C	0.166708	0.210211	0.125631
0	C	0.809488	0.958945	0.129847
0	H	0.270064	0.852611	0.590182
0	H	0.164696	0.419083	0.589427
0	H	0.602468	0.748373	0.592182
0	H	0.75461	0.159951	0.470116
0	H	0.85981	0.593415	0.468206
0	H	0.422158	0.264348	0.46593
0	H	0.934023	0.182233	0.925093
0	H	0.837499	0.755161	0.930807
0	H	0.262968	0.0827247	0.921604
0	H	0.417412	0.492402	0.805646
0	H	0.530029	0.929661	0.803035
0	H	0.0913305	0.600631	0.807388
0	H	0.607176	0.520287	0.253045
0	H	0.494564	0.0830015	0.255542
0	H	0.933152	0.412027	0.250964
0	H	0.0905485	0.83044	0.133966
0	H	0.187053	0.257439	0.127559
0	H	0.761979	0.930265	0.133776
0	H	0.30341	0.825842	0.682696
0	H	0.193133	0.479974	0.681331
0	H	0.540546	0.714746	0.682234
0	H	0.721243	0.186398	0.37673
0	H	0.831247	0.532426	0.376618
0	H	0.484143	0.298004	0.376111
0	H	0.968855	0.159664	0.0243166
0	H	0.865585	0.814714	0.0255268
0	H	0.204413	0.0473518	0.0196655
0	H	0.386257	0.523336	0.71821
0	H	0.4973	0.866796	0.716537
0	H	0.154089	0.633074	0.719916
0	H	0.638289	0.489261	0.340321
0	H	0.527306	0.145888	0.341985
0	H	0.870397	0.379549	0.338489
0	H	0.0556714	0.852775	0.0341826
0	H	0.158901	0.197938	0.0327948
0	H	0.820871	0.965004	0.0364433
0	C	0.270326	0.778234	0.520388
0	C	0.240187	0.494287	0.518388
0	C	0.52821	0.749292	0.52053
0	C	0.754212	0.234475	0.538576
0	C	0.784382	0.518325	0.539716
0	C	0.496337	0.263312	0.537767
0	C	0.934065	0.105901	0.869933
0	C	0.91469	0.830627	0.86589
0	C	0.185754	0.0814255	0.864389
0	C	0.418307	0.565766	0.885561
0	C	0.455743	0.857006	0.884656
0	C	0.164752	0.600332	0.885591
0	C	0.606184	0.446914	0.172938
0	C	0.568828	0.155635	0.173847
0	C	0.859703	0.412296	0.172828
0	C	0.0904545	0.906853	0.188143
0	C	0.109855	0.181993	0.192492
0	C	0.838768	0.931211	0.193305
0	H	0.226864	0.74825	0.554465
0	H	0.269723	0.480456	0.550884
0	H	0.542939	0.792711	0.554227
0	H	0.797632	0.264423	0.504299
0	H	0.754835	0.532168	0.507242
0	H	0.481632	0.219896	0.50401
0	H	0.892373	0.07704	0.912917
0	H	0.943256	0.816126	0.901756
0	H	0.199872	0.123881	0.903417
0	H	0.46286	0.59589	0.856537
0	H	0.425983	0.871412	0.856866
0	H	0.150037	0.556318	0.856189
0	H	0.561616	0.416833	0.201888
0	H	0.598604	0.14125	0.201697
0	H	0.874403	0.456316	0.202196
0	H	0.132066	0.935679	0.144861
0	H	0.0812751	0.196509	0.156813
0	H	0.824687	0.888604	0.155064
0	H	0.263369	0.78716	0.430113
0	H	0.230453	0.478811	0.427671
0	H	0.543921	0.755362	0.429846
0	H	0.761241	0.225825	0.629008
0	H	0.794216	0.533882	0.63037
0	H	0.480536	0.257203	0.628389
0	H	0.92247	0.110066	0.779739
0	H	0.9069	0.815807	0.774603
0	H	0.200549	0.091067	0.773186
0	H	0.421718	0.553024	0.975557
0	H	0.469585	0.873569	0.974378
0	H	0.148598	0.596637	0.975887
0	H	0.602837	0.459717	0.0829577
0	H	0.554969	0.139043	0.0841683
0	H	0.875844	0.415961	0.0825329
0	H	0.102199	0.902875	0.278346
0	H	0.11767	0.196787	0.283795
0	H	0.823527	0.921873	0.284231
0	C	0.307487	0.750549	0.521859
0	C	0.269159	0.559595	0.521539
0	C	0.462429	0.712755	0.52312
0	C	0.716964	0.262061	0.536542
0	C	0.755366	0.453008	0.536809
0	C	0.562132	0.299856	0.5354
0	C	0.97231	0.0794134	0.87186
0	C	0.943805	0.895921	0.87238
0	C	0.120168	0.042853	0.870097
0	C	0.38234	0.594793	0.885046
0	C	0.425356	0.791587	0.885115
0	C	0.23052	0.63664	0.88496
0	C	0.642086	0.417824	0.173439
0	C	0.599204	0.221053	0.173286
0	C	0.793935	0.37597	0.173485
0	C	0.0521257	0.933244	0.186204
0	C	0.0807073	0.116682	0.185848
0	C	0.90441	0.969593	0.188418
0	H	0.28733	0.711503	0.467422
0	H	0.308614	0.579201	0.467643
0	H	0.443575	0.733211	0.470239
0	H	0.737054	0.301236	0.590633
0	H	0.715943	0.433475	0.590775
0	H	0.580933	0.279307	0.588185
0	H	0.951733	0.038826	0.821214
0	H	0.985006	0.916878	0.822458
0	H	0.0990118	0.0629124	0.822816
0	H	0.402291	0.632837	0.942233
0	H	0.387484	0.773583	0.94292
0	H	0.248891	0.61677	0.940606
0	H	0.62211	0.379799	0.116209
0	H	0.637043	0.239037	0.11535
0	H	0.77554	0.39581	0.117785
0	H	0.0726892	0.973893	0.236688
0	H	0.039498	0.095712	0.235737
0	H	0.925166	0.949587	0.237263
0	H	0.309614	0.736269	0.610363
0	H	0.28348	0.575647	0.610491
0	H	0.446386	0.710321	0.612309
0	H	0.714802	0.27612	0.447836
0	H	0.740981	0.436891	0.447912
0	H	0.578195	0.302295	0.446209
0	H	0.976019	0.067581	0.961822
0	H	0.955894	0.910092	0.9633
0	H	0.105806	0.0387926	0.961163
0	H	0.381754	0.610733	0.797189
0	H	0.40875	0.774595	0.797777
0	H	0.247249	0.638285	0.796812
0	H	0.642636	0.401833	0.261262
0	H	0.615867	0.238074	0.26058
0	H	0.777205	0.374347	0.261618
0	H	0.0483286	0.944963	0.0962038
0	H	0.0686271	0.102564	0.0948983
0	H	0.919018	0.973049	0.0977064
0	C	0.368115	0.792902	0.477828
0	C	0.227461	0.578037	0.47806
0	C	0.442628	0.652442	0.47789
0	C	0.65636	0.219738	0.580721
0	C	0.797086	0.434573	0.580268
0	C	0.581924	0.360104	0.580682
0	C	0.0320159	0.121601	0.823194
0	C	0.903027	0.91501	0.826484
0	C	0.101903	0.98364	0.820262
0	C	0.320763	0.552568	0.92476
0	C	0.466992	0.772252	0.924477
0	C	0.250099	0.697365	0.927262
0	C	0.70368	0.460007	0.133781
0	C	0.557551	0.240372	0.134006
0	C	0.774335	0.315234	0.131298
0	C	0.992481	0.891048	0.235078
0	C	0.121462	0.0975579	0.23165
0	C	0.922988	0.0292083	0.236387
0	H	0.396037	0.774214	0.486007
0	H	0.247122	0.624949	0.486996
0	H	0.395415	0.625071	0.486753
0	H	0.628365	0.238328	0.572189
0	H	0.777357	0.387641	0.571553
0	H	0.629163	0.387462	0.572025
0	H	0.060654	0.103744	0.830668
0	H	0.923176	0.961925	0.835474
0	H	0.05467	0.954577	0.828597
0	H	0.293955	0.572487	0.917879
0	H	0.446052	0.725141	0.918412
0	H	0.297441	0.724651	0.920623
0	H	0.730439	0.440035	0.14069
0	H	0.578479	0.287489	0.140119
0	H	0.726999	0.287954	0.138006
0	H	0.96379	0.908834	0.227661
0	H	0.101246	0.050597	0.222674
0	H	0.970266	0.0579319	0.228052
0	H	0.366585	0.800625	0.384091
0	H	0.21968	0.56906	0.384144
0	H	0.452072	0.654317	0.384155
0	H	0.657915	0.212207	0.67455
0	H	0.804965	0.443663	0.674129
0	H	0.572402	0.358211	0.674407
0	H	0.0286865	0.127593	0.729374
0	H	0.895772	0.905714	0.732694
0	H	0.110882	0.987315	0.726218
0	H	0.320919	0.542374	0.0176527
0	H	0.477876	0.783016	0.017146
0	H	0.239523	0.696311	0.0203365
0	H	0.703564	0.4702	0.0408721
0	H	0.546664	0.229647	0.0413094
0	H	0.784868	0.316224	0.0381956
0	H	0.995901	0.885125	0.328917
0	H	0.12876	0.106839	0.325402
0	H	0.913978	0.0262332	0.33036
0	C	0.395758	0.850087	0.543446
0	C	0.169867	0.547999	0.543495
0	C	0.471722	0.624485	0.542666
0	C	0.628815	0.162439	0.515566
0	C	0.854596	0.464483	0.51456
0	C	0.552895	0.388119	0.515921
0	C	0.0599592	0.179694	0.885364
0	C	0.844929	0.885383	0.889996
0	C	0.132886	0.956508	0.880694
0	C	0.292922	0.496988	0.85359
0	C	0.522588	0.799941	0.852167
0	C	0.221949	0.724964	0.857674
0	C	0.731596	0.515592	0.204942
0	C	0.501956	0.212668	0.206292
0	C	0.80253	0.287681	0.200861
0	C	0.964568	0.832923	0.173093
0	C	0.179514	0.127144	0.16801
0	C	0.892347	0.0562697	0.174413
0	H	0.405243	0.844222	0.63418
0	H	0.176004	0.563149	0.634441
0	H	0.456876	0.615629	0.633851
0	H	0.619395	0.168115	0.424672
0	H	0.848334	0.449247	0.42368
0	H	0.567755	0.396976	0.424748
0	H	0.0691748	0.175538	0.977266
0	H	0.850357	0.899184	0.981763
0	H	0.119546	0.946738	0.97247
0	H	0.285176	0.505139	0.763298
0	H	0.513696	0.783556	0.762023
0	H	0.237889	0.733209	0.767139
0	H	0.739328	0.507423	0.295253
0	H	0.51083	0.22909	0.296407
0	H	0.786661	0.279468	0.291457
0	H	0.95538	0.837003	0.0811247
0	H	0.174053	0.113367	0.0761967
0	H	0.905828	0.0656015	0.0826369
0	H	0.437503	0.88058	0.500024
0	H	0.13979	0.559358	0.500325
0	H	0.459366	0.582793	0.499724
0	H	0.587053	0.131986	0.558981
0	H	0.884686	0.453144	0.557643
0	H	0.565267	0.42981	0.558866
0	H	0.10158	0.209345	0.841441
0	H	0.815731	0.897694	0.846759
0	H	0.120855	0.915368	0.836126
0	H	0.250393	0.466109	0.893706
0	H	0.553209	0.788315	0.891962
0	H	0.233822	0.767029	0.898778
0	H	0.774124	0.546454	0.164796
0	H	0.47132	0.224274	0.166474
0	H	0.790636	0.245585	0.159853
0	H	0.92293	0.803286	0.216962
0	H	0.208712	0.114777	0.211098
0	H	0.90442	0.0976422	0.217952
0	N	0.501136	0.0538905	0.716845
0	N	0.964536	0.447122	0.716095
0	N	0.569783	0.519809	0.715746
0	N	0.523689	0.958909	0.341685
0	N	0.0600382	0.565403	0.342398
0	N	0.455025	0.492909	0.342318
0	N	0.164399	0.388459	0.0437043
0	N	0.634273	0.782361	0.0429647
0	N	0.238698	0.855605	0.0423566
0	N	0.185162	0.290875	0.687421
0	N	0.730945	0.90112	0.687941
0	N	0.121893	0.829619	0.689017
0	N	0.839516	0.721954	0.370605
0	N	0.293643	0.111409	0.370887
0	N	0.902277	0.182794	0.369885
0	N	0.860241	0.624262	0.0144702
0	N	0.390177	0.230213	0.0153481
0	N	0.785161	0.157416	0.018298
0	C	0.539582	0.0308161	0.744834
0	C	0.988216	0.508998	0.743543
0	C	0.507567	0.480872	0.744192
0	C	0.485276	0.982011	0.313642
0	C	0.0364067	0.503512	0.315156
0	C	0.51721	0.531914	0.31392
0	C	0.20246	0.364624	0.0710083
0	C	0.658474	0.844816	0.0666255
0	C	0.176094	0.816194	0.0681651
0	C	0.146483	0.313736	0.659572
0	C	0.707668	0.839403	0.659369
0	C	0.184016	0.869156	0.660681
0	C	0.878188	0.699089	0.398532
0	C	0.316867	0.173123	0.399428
0	C	0.840164	0.143276	0.398106
0	C	0.822185	0.648108	0.987201
0	C	0.366262	0.167762	0.992303
0	C	0.847674	0.196666	0.991469
0	H	0.547998	0.0137112	0.664918
0	H	0.00537454	0.534578	0.663294
0	H	0.481535	0.472964	0.664465
0	H	0.476965	0.999293	0.393421
0	H	0.0193564	0.477989	0.395496
0	H	0.543239	0.53982	0.393655
0	H	0.208916	0.346325	0.990052
0	H	0.675758	0.868381	0.98378
0	H	0.151469	0.80931	0.986515
0	H	0.138327	0.330775	0.740362
0	H	0.690106	0.813645	0.739837
0	H	0.209905	0.877723	0.741139
0	H	0.886425	0.682136	0.317721
0	H	0.334521	0.198882	0.31898
0	H	0.814325	0.134769	0.317597
0	H	0.815838	0.666494	0.0681434
0	H	0.34907	0.144316	0.0752914
0	H	0.872453	0.203906	0.0730068
0	H	0.519127	0.995636	0.809455
0	H	0.0237552	0.524574	0.807923
0	H	0.492605	0.500079	0.81072
0	H	0.505708	0.0170779	0.248762
0	H	0.000780113	0.487822	0.250958
0	H	0.532178	0.512737	0.247319
0	H	0.182544	0.329638	0.136426
0	H	0.694561	0.862005	0.130263
0	H	0.159403	0.834673	0.133091
0	H	0.166304	0.349048	0.595014
0	H	0.672404	0.823379	0.594059
0	H	0.199954	0.850227	0.59531
0	H	0.858329	0.663727	0.462952
0	H	0.352048	0.18914	0.464927
0	H	0.824162	0.162142	0.463511
0	H	0.842064	0.683009	0.921589
0	H	0.330153	0.150229	0.928708
0	H	0.864124	0.177856	0.926893
0	C	0.596563	0.0795277	0.792787
0	C	0.939729	0.516821	0.791476
0	C	0.499351	0.423849	0.788411
0	C	0.428225	0.933274	0.266033
0	C	0.084883	0.495728	0.26705
0	C	0.52529	0.588894	0.269842
0	C	0.260935	0.412625	0.115139
0	C	0.610784	0.854902	0.110928
0	C	0.166557	0.758579	0.111701
0	C	0.0891325	0.264776	0.613253
0	C	0.756973	0.832047	0.613658
0	C	0.191556	0.925769	0.615267
0	C	0.935479	0.748066	0.445056
0	C	0.267474	0.180442	0.444747
0	C	0.832625	0.0866307	0.443349
0	C	0.763658	0.600064	0.943425
0	C	0.414209	0.157975	0.948365
0	C	0.857166	0.254075	0.946798
0	H	0.61861	0.113794	0.727813
0	H	0.905382	0.504185	0.726428
0	H	0.511029	0.402991	0.720149
0	H	0.406251	0.899065	0.331139
0	H	0.119315	0.508471	0.331954
0	H	0.513548	0.609663	0.338189
0	H	0.283304	0.444189	0.0452771
0	H	0.578678	0.844663	0.0416422
0	H	0.1771	0.737674	0.0416601
0	H	0.0669491	0.231779	0.680854
0	H	0.789713	0.843244	0.682181
0	H	0.179972	0.946715	0.683659
0	H	0.957648	0.781143	0.377568
0	H	0.234823	0.169236	0.376021
0	H	0.844067	0.065663	0.374759
0	H	0.741417	0.568526	0.0134109
0	H	0.446483	0.16879	0.0175704
0	H	0.846683	0.275334	0.0161655
0	H	0.626161	0.0637296	0.809968
0	H	0.956216	0.562458	0.808862
0	H	0.45348	0.394132	0.807042
0	H	0.398628	0.949079	0.248946
0	H	0.0684278	0.45008	0.249845
0	H	0.571147	0.618675	0.251203
0	H	0.288847	0.394995	0.136223
0	H	0.629054	0.900822	0.130721
0	H	0.120411	0.729386	0.131465
0	H	0.0602581	0.281242	0.593519
0	H	0.740157	0.786483	0.593125
0	H	0.237419	0.955661	0.595863
0	H	0.964418	0.731669	0.464719
0	H	0.284232	0.226001	0.465205
0	H	0.786774	0.0568241	0.463071
0	H	0.735661	0.617623	0.922596
0	H	0.396276	0.112031	0.929399
0	H	0.90326	0.283112	0.926778
0	C	0.586027	0.104376	0.902078
0	C	0.914231	0.48114	0.900665
0	C	0.536124	0.433023	0.895519
0	C	0.438592	0.908324	0.156713
0	C	0.110225	0.53131	0.157678
0	C	0.488474	0.579685	0.162785
0	C	0.254236	0.442977	0.21976
0	C	0.580431	0.818276	0.216822
0	C	0.204016	0.765917	0.216661
0	C	0.0984529	0.237091	0.506935
0	C	0.78547	0.869765	0.507757
0	C	0.153808	0.91598	0.509344
0	C	0.926016	0.775603	0.551476
0	C	0.238873	0.142713	0.550549
0	C	0.870469	0.0963987	0.549151
0	C	0.770241	0.569664	0.838748
0	C	0.444211	0.194335	0.841964
0	C	0.819603	0.246147	0.841757
0	H	0.56774	0.0715116	0.971377
0	H	0.94714	0.496033	0.970222
0	H	0.522165	0.450101	0.967476
0	H	0.456707	0.941093	0.0872099
0	H	0.0772397	0.516322	0.088286
0	H	0.502459	0.562668	0.0907628
0	H	0.236994	0.413409	0.294268
0	H	0.610393	0.831511	0.291129
0	H	0.19103	0.782308	0.291167
0	H	0.116974	0.268434	0.435287
0	H	0.754167	0.856521	0.435738
0	H	0.166952	0.898412	0.43699
0	H	0.907406	0.744143	0.622872
0	H	0.270117	0.155931	0.622679
0	H	0.85733	0.113931	0.621597
0	H	0.787477	0.599212	0.764267
0	H	0.414068	0.18077	0.767935
0	H	0.832458	0.229295	0.767857
0	H	0.626917	0.139354	0.937583
0	H	0.879304	0.486698	0.935897
0	H	0.530179	0.391948	0.927056
0	H	0.397656	0.87331	0.1215
0	H	0.145148	0.525773	0.122346
0	H	0.494344	0.620739	0.131336
0	H	0.296626	0.478221	0.247327
0	H	0.545331	0.825217	0.244286
0	H	0.197351	0.724025	0.243549
0	H	0.0570453	0.201911	0.474137
0	H	0.820899	0.864264	0.475959
0	H	0.159511	0.956916	0.477793
0	H	0.967373	0.810796	0.58447
0	H	0.203412	0.148225	0.582182
0	H	0.864794	0.0554644	0.580591
0	H	0.727826	0.534423	0.811317
0	H	0.479358	0.187498	0.814372
0	H	0.826229	0.287868	0.813778
0	C	0.545744	0.127042	0.874465
0	C	0.890758	0.417835	0.873412
0	C	0.599583	0.473959	0.866439
0	C	0.478941	0.885712	0.184062
0	C	0.133658	0.594626	0.184758
0	C	0.42504	0.53866	0.191852
0	C	0.214783	0.466058	0.189147
0	C	0.556383	0.755132	0.188215
0	C	0.267243	0.806551	0.186538
0	C	0.138062	0.214174	0.538669
0	C	0.808436	0.932457	0.539754
0	C	0.0907455	0.875311	0.5416
0	C	0.886346	0.79845	0.519736
0	C	0.215915	0.0800288	0.518515
0	C	0.93352	0.137138	0.516928
0	C	0.809693	0.546553	0.869217
0	C	0.468054	0.257508	0.869923
0	C	0.756396	0.205732	0.872464
0	H	0.567885	0.164857	0.816855
0	H	0.852623	0.401524	0.81623
0	H	0.61453	0.453293	0.804122
0	H	0.456855	0.847845	0.241529
0	H	0.171855	0.611031	0.241798
0	H	0.410037	0.559254	0.254228
0	H	0.235266	0.499803	0.122596
0	H	0.522311	0.741018	0.121835
0	H	0.281008	0.787203	0.119101
0	H	0.116445	0.17933	0.603167
0	H	0.843358	0.94639	0.604446
0	H	0.0771834	0.895939	0.607015
0	H	0.907952	0.833316	0.455254
0	H	0.181081	0.0661354	0.453667
0	H	0.947068	0.116595	0.451262
0	H	0.789237	0.512813	0.935781
0	H	0.502285	0.271945	0.936008
0	H	0.74268	0.22556	0.938962
0	H	0.534919	0.141697	0.956095
0	H	0.875945	0.3923	0.955242
0	H	0.626098	0.483525	0.946088
0	H	0.489754	0.871157	0.102285
0	H	0.148354	0.620086	0.102806
0	H	0.398513	0.529105	0.112231
0	H	0.207835	0.485996	0.265767
0	H	0.536266	0.728684	0.265855
0	H	0.294591	0.813735	0.262903
0	H	0.146917	0.195663	0.461704
0	H	0.827116	0.960168	0.462838
0	H	0.0627977	0.866037	0.465023
0	H	0.877422	0.816914	0.596681
0	H	0.197118	0.0522742	0.595403
0	H	0.961497	0.14632	0.593427
0	H	0.816567	0.526601	0.792545
0	H	0.487905	0.28375	0.791907
0	H	0.729003	0.198044	0.795974
0	C	0.489756	0.0813501	0.818043
0	C	0.936126	0.40784	0.817
0	C	0.609378	0.530355	0.815911
0	C	0.534959	0.931375	0.240484
0	C	0.0883064	0.604599	0.241303
0	C	0.415377	0.482282	0.24219
0	C	0.156392	0.418438	0.144856
0	C	0.603698	0.74452	0.144747
0	C	0.277121	0.864197	0.143601
0	C	0.195364	0.261762	0.587551
0	C	0.760519	0.940947	0.588325
0	C	0.0819155	0.81877	0.589455
0	C	0.829117	0.750817	0.470699
0	C	0.263868	0.0715187	0.47029
0	C	0.942244	0.193698	0.469509
0	C	0.868133	0.594165	0.913396
0	C	0.420634	0.267972	0.91342
0	C	0.746397	0.14831	0.917316
0	H	0.463053	0.0472961	0.882286
0	H	0.969898	0.414973	0.881493
0	H	0.601278	0.554965	0.882883
0	H	0.561685	0.965418	0.176231
0	H	0.0544333	0.597366	0.176991
0	H	0.423512	0.457741	0.175158
0	H	0.132797	0.386495	0.214376
0	H	0.635673	0.753558	0.214551
0	H	0.267947	0.886588	0.213664
0	H	0.219968	0.293926	0.518949
0	H	0.728398	0.933039	0.519727
0	H	0.0901064	0.795159	0.520372
0	H	0.804536	0.718528	0.53912
0	H	0.295862	0.0793474	0.539136
0	H	0.933983	0.217177	0.538739
0	H	0.891747	0.626065	0.843774
0	H	0.388623	0.258855	0.843678
0	H	0.754969	0.125219	0.847827
0	H	0.464457	0.10142	0.7915
0	H	0.915287	0.362283	0.789964
0	H	0.65507	0.557365	0.789353
0	H	0.560243	0.911285	0.266981
0	H	0.109123	0.650178	0.268196
0	H	0.369671	0.455163	0.268583
0	H	0.129473	0.436869	0.120541
0	H	0.584603	0.698796	0.121041
0	H	0.322968	0.892217	0.119821
0	H	0.222278	0.243671	0.614709
0	H	0.778835	0.986135	0.615592
0	H	0.036433	0.790817	0.616403
0	H	0.802101	0.768816	0.443697
0	H	0.245571	0.0263406	0.442916
0	H	0.987739	0.2218	0.442812
0	H	0.894992	0.575668	0.937783
0	H	0.439682	0.3137	0.937078
0	H	0.700613	0.120766	0.942201
0	N	0.4509	0.112581	0.586103
0	N	0.904437	0.337596	0.585857
0	N	0.67824	0.567268	0.580836
0	N	0.57367	0.900019	0.472628
0	N	0.120071	0.675067	0.472387
0	N	0.347079	0.446029	0.475291
0	N	0.106702	0.441943	0.917289
0	N	0.577696	0.671812	0.909799
0	N	0.350742	0.91323	0.915761
0	N	0.232386	0.232292	0.82566
0	N	0.78963	0.00785179	0.822659
0	N	0.0145713	0.78105	0.825281
0	N	0.792075	0.780344	0.232712
0	N	0.234926	0.00478087	0.235812
0	N	0.0090603	0.230715	0.235702
0	N	0.917747	0.570667	0.141162
0	N	0.446802	0.340738	0.148255
0	N	0.673833	0.0990921	0.14646
0	O	0.502995	0.145408	0.59298
0	O	0.871817	0.356433	0.593103
0	O	0.657008	0.515189	0.583359
0	O	0.521576	0.867244	0.464774
0	O	0.152736	0.656297	0.464762
0	O	0.368695	0.498153	0.477294
0	O	0.158197	0.476514	0.906435
0	O	0.544959	0.6906	0.906249
0	O	0.333489	0.862251	0.902691
0	O	0.180031	0.201672	0.835511
0	O	0.82047	0.987309	0.835518
0	O	0.0356196	0.832828	0.835944
0	O	0.844391	0.811025	0.222464
0	O	0.20413	0.0253496	0.222773
0	O	0.987889	0.179201	0.220152
0	O	0.866209	0.536112	0.151496
0	O	0.47958	0.321999	0.151456
0	O	0.690801	0.150041	0.158855
0	O	0.416787	0.129602	0.572239
0	O	0.886596	0.286201	0.571738
0	O	0.73036	0.600375	0.569617
0	O	0.607624	0.882893	0.487424
0	O	0.137878	0.726443	0.486976
0	O	0.294767	0.413078	0.479213
0	O	0.0703207	0.456528	0.919738
0	O	0.560425	0.620347	0.897353
0	O	0.402314	0.949664	0.92082
0	O	0.264963	0.213131	0.827766
0	O	0.808681	0.0597455	0.819141
0	O	0.962393	0.747357	0.824458
0	O	0.759425	0.799425	0.231059
0	O	0.215834	0.952883	0.239425
0	O	0.0610641	0.263854	0.24448
0	O	0.954088	0.556028	0.139297
0	O	0.464034	0.392175	0.160696
0	O	0.622331	0.062329	0.142645
