#******************************************
#
# CIF file created by Zeo++
# Zeo++ is an open source package to
# analyze microporous materials
#
#*******************************************

_cell_length_a		18.2647(0)
_cell_length_b		19.6878(0)
_cell_length_c		35.8293(0)
_cell_angle_alpha		90(0)
_cell_angle_beta		90(0)
_cell_angle_gamma		90(0)

_symmetry_space_group_name_H-M		'P1'
_symmetry_Int_Tables_number		1
_symmetry_cell_setting		Monoclinic

loop_
_symmetry_equiv_pos_as_xyz
'+x,+y,+z'

loop_
_atom_site_label
_atom_site_type_symbol
_atom_site_fract_x
_atom_site_fract_y
_atom_site_fract_z
0	O	0.966329	0.0702317	0.189983
0	O	0.00970883	0.986409	0.678316
0	O	0.457554	0.973478	0.238523
0	O	0.511135	0.088147	0.665893
0	H	0.910248	0.0738093	0.189553
0	H	0.0652824	0.982257	0.676779
0	H	0.411148	0.978983	0.223164
0	H	0.566081	0.091406	0.670033
0	O	0.0680456	0.0181721	0.237288
0	O	0.897767	0.0423818	0.716606
0	O	0.578164	0.0406413	0.26028
0	O	0.405697	0.0236239	0.703696
0	H	0.0221709	0.0188137	0.221066
0	H	0.948019	0.0398685	0.704708
0	H	0.5251	0.0351118	0.252462
0	H	0.453036	0.0290431	0.689181
0	O	0.195851	0.997	0.246339
0	O	0.769195	0.0683784	0.716854
0	O	0.701995	0.0749479	0.244591
0	O	0.277293	0.998408	0.711057
0	H	0.151456	0.972203	0.235915
0	H	0.817588	0.0921532	0.711651
0	H	0.650754	0.0949485	0.245149
0	H	0.323564	0.974675	0.702177
0	O	0.321159	0.000218676	0.208593
0	O	0.661761	0.0775091	0.666762
0	O	0.807124	0.0715184	0.18884
0	O	0.160505	0.995539	0.666024
0	H	0.281956	0.980296	0.225275
0	H	0.694967	0.0931895	0.687863
0	H	0.776507	0.092121	0.209457
0	H	0.197895	0.977445	0.684585
0	C	0.934785	0.171442	0.136459
0	C	0.0527628	0.883712	0.626824
0	C	0.416019	0.888196	0.175526
0	C	0.553843	0.198531	0.620884
0	H	0.897602	0.128089	0.13718
0	H	0.0900715	0.926903	0.629329
0	H	0.385878	0.93617	0.177377
0	H	0.593821	0.157637	0.623536
0	H	0.925092	0.20524	0.113151
0	H	0.0679618	0.848401	0.604918
0	H	0.395811	0.855519	0.153528
0	H	0.567722	0.235531	0.599748
0	C	0.986839	0.18154	0.161738
0	C	0.994442	0.875187	0.648456
0	C	0.471136	0.871751	0.19792
0	C	0.49358	0.202192	0.641573
0	H	0.0235255	0.2254	0.160365
0	H	0.957329	0.831632	0.645115
0	H	0.500242	0.823494	0.194669
0	H	0.453712	0.24324	0.638113
0	C	3.60488e-05	0.135988	0.195202
0	C	0.972788	0.921895	0.680304
0	C	0.500941	0.914743	0.229557
0	C	0.474461	0.151951	0.672203
0	C	0.966134	0.170022	0.229983
0	C	0.992773	0.886416	0.717362
0	C	0.502022	0.871355	0.265607
0	C	0.498923	0.182153	0.709993
0	H	0.98498	0.223548	0.232174
0	H	0.971193	0.833733	0.71713
0	H	0.532004	0.823356	0.260711
0	H	0.474014	0.233026	0.7137
0	H	0.905882	0.173026	0.226472
0	H	0.0530269	0.881509	0.719363
0	H	0.445187	0.857008	0.27284
0	H	0.558841	0.190597	0.709717
0	C	0.984987	0.130809	0.265478
0	C	0.963094	0.92465	0.751285
0	C	0.536461	0.910768	0.297882
0	C	0.477743	0.135732	0.742467
0	H	0.959962	0.0793524	0.264006
0	H	0.991231	0.974428	0.753801
0	H	0.500709	0.955185	0.304582
0	H	0.507779	0.0868587	0.740183
0	H	0.960621	0.155762	0.290316
0	H	0.975557	0.896041	0.777072
0	H	0.537772	0.878665	0.323216
0	H	0.494554	0.158914	0.769233
0	C	0.0680176	0.123631	0.270353
0	C	0.880337	0.936182	0.748128
0	C	0.613795	0.935249	0.288582
0	C	0.395203	0.121877	0.742714
0	H	0.0938245	0.174175	0.27315
0	H	0.8511	0.886703	0.747562
0	H	0.650732	0.890787	0.285761
0	H	0.364916	0.16982	0.747617
0	H	0.0795454	0.0954751	0.296469
0	H	0.860567	0.963959	0.773017
0	H	0.634658	0.966652	0.312107
0	H	0.381592	0.0872178	0.766057
0	C	0.101308	0.0848423	0.237085
0	C	0.861657	0.977203	0.712795
0	C	0.616631	0.977915	0.252664
0	C	0.369865	0.089191	0.705837
0	C	0.186294	0.0695526	0.241139
0	C	0.777573	0.996232	0.709496
0	C	0.69735	0.00174039	0.242036
0	C	0.28534	0.0710859	0.705548
0	C	0.221895	0.100479	0.276152
0	C	0.727973	0.961468	0.738359
0	C	0.755942	0.97585	0.269469
0	C	0.240975	0.103661	0.737274
0	H	0.216426	0.156479	0.275699
0	H	0.729229	0.904935	0.734074
0	H	0.75233	0.919552	0.271677
0	H	0.241734	0.160394	0.734141
0	H	0.193348	0.081432	0.301593
0	H	0.747886	0.971355	0.76695
0	H	0.745387	0.997304	0.297548
0	H	0.264987	0.0911791	0.764671
0	C	0.303065	0.0808769	0.278541
0	C	0.648997	0.986978	0.734662
0	C	0.833621	0.994641	0.257049
0	C	0.161248	0.0793404	0.73608
0	H	0.327737	0.103479	0.303916
0	H	0.614007	0.961788	0.755772
0	H	0.873938	0.97361	0.277063
0	H	0.130204	0.102752	0.759267
0	H	0.307925	0.0249003	0.282018
0	H	0.646936	0.0421778	0.740693
0	H	0.840451	0.0506098	0.257517
0	H	0.159018	0.0236319	0.740374
0	C	0.345256	0.103549	0.243922
0	C	0.619074	0.972872	0.695553
0	C	0.848663	0.967258	0.217901
0	C	0.126028	0.0982935	0.698796
0	H	0.403366	0.0880467	0.246148
0	H	0.562581	0.99303	0.692872
0	H	0.905701	0.977981	0.209393
0	H	0.068721	0.0798868	0.697815
0	H	0.345	0.160333	0.241719
0	H	0.615635	0.917064	0.691282
0	H	0.842024	0.910479	0.217494
0	H	0.124262	0.154923	0.696472
0	C	0.311701	0.0735564	0.208032
0	C	0.667721	0.00411189	0.66474
0	C	0.79477	0.998419	0.189537
0	C	0.168719	0.0689484	0.665278
0	C	0.228765	0.0911932	0.205456
0	C	0.748681	0.982176	0.66942
0	C	0.71524	0.980858	0.201262
0	C	0.25058	0.0892628	0.667286
0	H	0.226086	0.148363	0.203553
0	H	0.74929	0.925238	0.665355
0	H	0.712536	0.923229	0.20072
0	H	0.251711	0.146616	0.664956
0	C	0.193249	0.0600822	0.170643
0	C	0.799491	0.0135817	0.640154
0	C	0.657472	0.00903742	0.174354
0	C	0.297803	0.0617035	0.63545
0	H	0.224185	0.0762611	0.145565
0	H	0.775643	0.00666375	0.611813
0	H	0.670176	0.992583	0.145521
0	H	0.269163	0.0685399	0.608248
0	H	0.198836	0.00371629	0.171749
0	H	0.803176	0.0694931	0.644586
0	H	0.660911	0.0655859	0.17394
0	H	0.305901	0.00636081	0.638824
0	C	0.112379	0.0799819	0.166503
0	C	0.875714	0.980971	0.641633
0	C	0.579781	0.985751	0.184901
0	C	0.371571	0.0991315	0.634518
0	H	0.078184	0.0333843	0.162911
0	H	0.91858	0.0205872	0.638595
0	H	0.543995	0.0302201	0.190036
0	H	0.415714	0.0634835	0.626279
0	H	0.104488	0.109789	0.140583
0	H	0.882858	0.946344	0.617436
0	H	0.554678	0.958131	0.161225
0	H	0.370223	0.13899	0.612529
0	C	0.0833667	0.121314	0.199808
0	C	0.8899	0.939941	0.67753
0	C	0.579496	0.940086	0.219712
0	C	0.391667	0.133503	0.671818
0	H	0.111845	0.171816	0.200305
0	H	0.858887	0.890468	0.675641
0	H	0.613166	0.893534	0.213676
0	H	0.360286	0.183055	0.67395
0	C	0.35379	0.0994327	0.174517
0	C	0.638234	0.982486	0.627063
0	C	0.812583	0.973234	0.150612
0	C	0.134135	0.0943843	0.629472
0	H	0.355035	0.15539	0.173051
0	H	0.646148	0.928022	0.621517
0	H	0.782242	0.927281	0.142479
0	H	0.140001	0.149531	0.625564
0	C	0.387173	0.0604448	0.149495
0	C	0.604824	0.0235564	0.603085
0	C	0.862674	0.00101939	0.128463
0	C	0.0988315	0.0553849	0.605151
0	H	0.386847	0.00527429	0.15112
0	H	0.59581	0.0773493	0.608899
0	H	0.894308	0.0458449	0.136377
0	H	0.0925243	0.000786355	0.609142
0	H	0.417385	0.08018	0.126004
0	H	0.583234	0.00711048	0.576527
0	H	0.876241	0.981938	0.101079
0	H	0.0730671	0.0745642	0.580095
0	O	0.913572	0.0316318	0.434696
0	O	0.081984	0.0339406	0.938779
0	O	0.412767	0.047341	0.434747
0	O	0.576742	0.0285873	0.919973
0	H	0.967558	0.0178473	0.433373
0	H	0.0283269	0.0479992	0.936284
0	H	0.46672	0.0609815	0.43372
0	H	0.527802	0.0160271	0.931612
0	O	0.80218	0.00347941	0.392758
0	O	0.19185	0.0654114	0.896788
0	O	0.302274	0.0704032	0.390587
0	O	0.696853	0.00248517	0.884898
0	H	0.848681	0.99546	0.408059
0	H	0.146668	0.0719769	0.913271
0	H	0.347942	0.080113	0.406337
0	H	0.653843	0.990871	0.901496
0	O	0.677522	0.0135357	0.413188
0	O	0.317157	0.0556311	0.915741
0	O	0.177227	0.0631654	0.410625
0	O	0.820123	0.00951787	0.90611
0	H	0.711625	0.975559	0.405873
0	H	0.282995	0.0937502	0.908523
0	H	0.212189	0.0998573	0.402292
0	H	0.788179	0.972671	0.895106
0	O	0.558796	0.074786	0.440664
0	O	0.437242	0.996332	0.942327
0	O	0.0585368	0.00544737	0.440419
0	O	0.935777	0.0628571	0.939314
0	H	0.588544	0.0343744	0.432457
0	H	0.406076	0.0363757	0.934966
0	H	0.0881453	0.0446801	0.430421
0	H	0.906449	0.0246986	0.928109
0	C	0.982487	0.119908	0.483646
0	C	0.0262129	0.943621	0.989962
0	C	0.480517	0.96246	0.486351
0	C	0.523196	0.105899	0.98068
0	H	0.996744	0.0662534	0.485308
0	H	0.0199094	0.997692	0.995081
0	H	0.494459	0.0162145	0.487165
0	H	0.516344	0.0510534	0.98245
0	H	0.00723616	0.150235	0.505421
0	H	0.00325416	0.912092	0.0117106
0	H	0.504245	0.933561	0.508974
0	H	0.499549	0.132662	0.00410818
0	C	0.938947	0.145181	0.457366
0	C	0.0588478	0.919023	0.959681
0	C	0.438043	0.935403	0.460157
0	C	0.55658	0.136687	0.952389
0	H	0.924998	0.198954	0.456186
0	H	0.0648751	0.86463	0.954879
0	H	0.424453	0.881463	0.4599
0	H	0.562377	0.191848	0.951269
0	C	0.9046	0.102847	0.42655
0	C	0.0916563	0.963222	0.929245
0	C	0.404096	0.975461	0.428342
0	C	0.591019	0.10022	0.919482
0	C	0.941737	0.120703	0.389002
0	C	0.0539752	0.94734	0.891581
0	C	0.441743	0.955191	0.391262
0	C	0.559406	0.12794	0.882359
0	H	0.944939	0.176575	0.386055
0	H	0.0523459	0.891651	0.887365
0	H	0.445441	0.899221	0.389445
0	H	0.563353	0.183901	0.881606
0	H	0.999515	0.102463	0.389413
0	H	0.995854	0.964053	0.892797
0	H	0.499327	0.974072	0.391401
0	H	0.500128	0.11529	0.881
0	C	0.902785	0.0901985	0.355053
0	C	0.0913141	0.981231	0.858102
0	C	0.40257	0.983215	0.356742
0	C	0.598372	0.0968348	0.848537
0	H	0.913799	0.0347561	0.353983
0	H	0.0800903	0.0366772	0.85873
0	H	0.410439	0.0391263	0.355363
0	H	0.584961	0.0417875	0.847179
0	H	0.926789	0.112004	0.329138
0	H	0.06661	0.962061	0.83189
0	H	0.428538	0.962851	0.330904
0	H	0.577131	0.119769	0.822498
0	C	0.819572	0.101489	0.354768
0	C	0.17457	0.970471	0.856917
0	C	0.320194	0.967807	0.356505
0	C	0.681992	0.104694	0.849948
0	H	0.806151	0.155705	0.35054
0	H	0.188137	0.916669	0.850924
0	H	0.309874	0.912602	0.354975
0	H	0.697921	0.158675	0.847213
0	H	0.796185	0.0739189	0.330481
0	H	0.197074	0.000407568	0.83331
0	H	0.295802	0.99001	0.330844
0	H	0.705677	0.0780065	0.825473
0	C	0.785815	0.075216	0.391329
0	C	0.209179	0.993925	0.893859
0	C	0.285587	0.998583	0.391774
0	C	0.712675	0.0744339	0.88628
0	C	0.699171	0.0753413	0.394193
0	C	0.29593	0.994408	0.89614
0	C	0.199024	0.99887	0.394372
0	C	0.799227	0.0745667	0.890549
0	C	0.661887	0.0759092	0.355749
0	C	0.331787	0.995756	0.85731
0	C	0.162041	0.992774	0.355981
0	C	0.838598	0.0827897	0.852867
0	H	0.679631	0.120887	0.339434
0	H	0.315696	0.950035	0.841114
0	H	0.179132	0.944988	0.342046
0	H	0.822982	0.131584	0.839565
0	H	0.679324	0.0308166	0.339196
0	H	0.311168	0.0399448	0.84131
0	H	0.180909	0.0345984	0.337263
0	H	0.820452	0.0424698	0.833352
0	C	0.57828	0.0760405	0.358858
0	C	0.4154	0.999004	0.859886
0	C	0.0784579	0.994241	0.359014
0	C	0.921902	0.0798202	0.857358
0	H	0.554076	0.0779526	0.330418
0	H	0.439328	0.998397	0.831464
0	H	0.053829	0.989114	0.330868
0	H	0.948548	0.0866604	0.829827
0	H	0.559148	0.027391	0.371459
0	H	0.432637	0.0479685	0.872695
0	H	0.0601106	0.0443617	0.370029
0	H	0.93826	0.0285672	0.867411
0	C	0.551142	0.135855	0.382368
0	C	0.445899	0.939691	0.882705
0	C	0.0508569	0.937395	0.384543
0	C	0.948886	0.134002	0.884731
0	H	0.490716	0.133918	0.384975
0	H	0.506245	0.945137	0.885416
0	H	0.990464	0.939751	0.387001
0	H	0.00895839	0.130029	0.888308
0	H	0.563669	0.184393	0.368135
0	H	0.436519	0.891214	0.867832
0	H	0.0633654	0.88725	0.372101
0	H	0.938702	0.185325	0.873227
0	C	0.585816	0.134974	0.42161
0	C	0.411758	0.93682	0.922046
0	C	0.0853796	0.942894	0.423723
0	C	0.91142	0.126646	0.923135
0	C	0.671026	0.13298	0.419926
0	C	0.326378	0.936182	0.920757
0	C	0.170565	0.944686	0.422245
0	C	0.826269	0.126814	0.919823
0	H	0.689625	0.182126	0.407489
0	H	0.309395	0.887277	0.907457
0	H	0.189407	0.894073	0.411863
0	H	0.809543	0.178281	0.909753
0	C	0.702506	0.126171	0.459752
0	C	0.295176	0.939303	0.960755
0	C	0.201473	0.956676	0.461818
0	C	0.791438	0.1137	0.958403
0	H	0.701189	0.176529	0.473475
0	H	0.297426	0.887905	0.973167
0	H	0.199853	0.908328	0.477558
0	H	0.792714	0.161332	0.974764
0	H	0.665974	0.0929105	0.476527
0	H	0.331485	0.971502	0.978264
0	H	0.16474	0.992098	0.477068
0	H	0.82604	0.0769918	0.974035
0	C	0.780336	0.0969472	0.460552
0	C	0.216948	0.967564	0.962549
0	C	0.279282	0.985898	0.461616
0	C	0.712955	0.0859329	0.956156
0	H	0.778254	0.040592	0.4637
0	H	0.218404	0.0235077	0.96679
0	H	0.277085	0.0427069	0.462405
0	H	0.714191	0.029265	0.95694
0	H	0.810346	0.116157	0.485188
0	H	0.187672	0.94648	0.986922
0	H	0.309216	0.97053	0.487099
0	H	0.681296	0.102057	0.980908
0	C	0.820758	0.114632	0.424405
0	C	0.175592	0.952043	0.926344
0	C	0.320188	0.963471	0.426415
0	C	0.675639	0.109499	0.920117
0	H	0.813131	0.170247	0.41875
0	H	0.183416	0.896872	0.919579
0	H	0.312617	0.907265	0.422993
0	H	0.685051	0.165641	0.917205
0	C	0.560789	0.195286	0.444527
0	C	0.439878	0.87561	0.943249
0	C	0.059656	0.885401	0.448505
0	C	0.93712	0.182115	0.949302
0	H	0.562881	0.243543	0.429634
0	H	0.434734	0.827918	0.927961
0	H	0.0643582	0.835324	0.435705
0	H	0.927058	0.233351	0.93891
0	C	0.539747	0.191006	0.479986
0	C	0.467786	0.878311	0.977493
0	C	0.0347156	0.893849	0.483062
0	C	0.968729	0.170653	0.982132
0	H	0.537062	0.143133	0.494997
0	H	0.473301	0.925317	0.993043
0	H	0.0295401	0.943441	0.496073
0	H	0.978948	0.119939	0.992808
0	H	0.523016	0.234301	0.496495
0	H	0.487366	0.834193	0.992441
0	H	0.0169722	0.852491	0.500753
0	H	0.986893	0.21056	0.000678852
0	O	0.463224	0.494885	0.429078
0	O	0.549529	0.583028	0.924737
0	O	0.961222	0.579566	0.421348
0	O	0.0556278	0.501054	0.928882
0	H	0.457414	0.525879	0.407538
0	H	0.545624	0.561903	0.899918
0	H	0.952445	0.549597	0.399638
0	H	0.0671899	0.52857	0.906568
0	O	0.354839	0.545708	0.466428
0	O	0.656065	0.525534	0.964541
0	O	0.850454	0.530885	0.462278
0	O	0.165999	0.547972	0.971657
0	H	0.408381	0.537349	0.463598
0	H	0.605229	0.531649	0.955056
0	H	0.903799	0.534573	0.456164
0	H	0.113669	0.546974	0.963405
0	O	0.23305	0.578532	0.460718
0	O	0.779546	0.495085	0.962242
0	O	0.727172	0.514457	0.47553
0	O	0.288426	0.557085	0.990395
0	H	0.189368	0.595469	0.446533
0	H	0.825306	0.479318	0.949397
0	H	0.682219	0.49277	0.464202
0	H	0.33517	0.57606	0.979524
0	O	0.109406	0.572442	0.419222
0	O	0.906642	0.505099	0.923526
0	O	0.609195	0.502622	0.432289
0	O	0.410176	0.560989	0.947357
0	H	0.0588434	0.589914	0.424839
0	H	0.957709	0.489446	0.929828
0	H	0.557534	0.487418	0.437638
0	H	0.462377	0.57655	0.946884
0	C	0.512854	0.407284	0.372468
0	C	0.50627	0.685164	0.873026
0	C	0.00525568	0.667135	0.363198
0	C	0.0139118	0.411839	0.871095
0	H	0.555833	0.43736	0.3856
0	H	0.460056	0.657387	0.884495
0	H	0.0490055	0.635432	0.374362
0	H	0.970662	0.446297	0.880192
0	H	0.530314	0.383634	0.346623
0	H	0.492474	0.713585	0.848056
0	H	0.019918	0.691159	0.336968
0	H	0.00122292	0.386787	0.844952
0	C	0.446098	0.400245	0.386751
0	C	0.572838	0.684411	0.888061
0	C	0.941058	0.675679	0.38005
0	C	0.0752751	0.401392	0.890208
0	H	0.404356	0.369242	0.3729
0	H	0.617946	0.713601	0.875862
0	H	0.898552	0.708369	0.368142
0	H	0.117123	0.365772	0.880426
0	C	0.421557	0.432547	0.423061
0	C	0.592345	0.645488	0.923198
0	C	0.921062	0.643252	0.417025
0	C	0.0927342	0.435331	0.927108
0	C	0.442748	0.386948	0.456272
0	C	0.567697	0.685552	0.9579
0	C	0.948825	0.687478	0.449486
0	C	0.0585182	0.394947	0.959452
0	H	0.41816	0.335642	0.451988
0	H	0.592752	0.737018	0.957078
0	H	0.923671	0.73889	0.447327
0	H	0.0803304	0.342359	0.959311
0	H	0.502835	0.379374	0.456679
0	H	0.507658	0.693441	0.956926
0	H	0.0087102	0.695014	0.446985
0	H	0.998638	0.390301	0.955178
0	C	0.41722	0.416585	0.493542
0	C	0.589019	0.648956	0.993919
0	C	0.930323	0.654908	0.48704
0	C	0.0743398	0.429647	0.996758
0	H	0.449937	0.46264	0.500172
0	H	0.557487	0.600938	0.996493
0	H	0.960585	0.606223	0.490071
0	H	0.0459966	0.479538	0.997791
0	H	0.428543	0.380213	0.516558
0	H	0.573459	0.679979	0.018645
0	H	0.949343	0.687619	0.510483
0	H	0.0509165	0.399237	0.0200825
0	C	0.335788	0.434842	0.493389
0	C	0.670981	0.633159	0.995299
0	C	0.848118	0.641877	0.490783
0	C	0.156479	0.439865	0.00291495
0	H	0.301552	0.388199	0.492035
0	H	0.703528	0.680652	0.996378
0	H	0.818224	0.691093	0.491768
0	H	0.183312	0.39006	0.00708174
0	H	0.322516	0.460502	0.520527
0	H	0.682702	0.605007	0.0218532
0	H	0.837799	0.615253	0.517748
0	H	0.164301	0.469688	0.0291984
0	C	0.31581	0.483539	0.4611
0	C	0.694694	0.588559	0.961937
0	C	0.817934	0.596791	0.459054
0	C	0.193747	0.479882	0.971247
0	C	0.232491	0.505734	0.460539
0	C	0.778562	0.567796	0.96265
0	C	0.73269	0.583859	0.462834
0	C	0.279241	0.487998	0.977524
0	C	0.190778	0.482771	0.495802
0	C	0.817694	0.590443	0.998759
0	C	0.693567	0.627231	0.492669
0	C	0.312916	0.443236	0.008406
0	H	0.190894	0.426805	0.498356
0	H	0.814725	0.64616	0.00228829
0	H	0.696666	0.682146	0.485382
0	H	0.307933	0.388503	0.00135913
0	H	0.219225	0.502816	0.521156
0	H	0.789293	0.567551	0.0233263
0	H	0.720764	0.62138	0.520153
0	H	0.283498	0.450648	0.0351781
0	C	0.112244	0.509437	0.495049
0	C	0.897554	0.567159	0.998633
0	C	0.613438	0.6051	0.496426
0	C	0.393777	0.461774	0.0139074
0	H	0.0840213	0.495296	0.521321
0	H	0.923867	0.581757	0.0252752
0	H	0.585951	0.636095	0.518112
0	H	0.417509	0.429987	0.0363947
0	H	0.112872	0.565943	0.494569
0	H	0.899883	0.510853	0.997314
0	H	0.610851	0.551888	0.506623
0	H	0.3983	0.515004	0.0238794
0	C	0.0707857	0.481812	0.461215
0	C	0.938978	0.597654	0.965515
0	C	0.572147	0.611508	0.459466
0	C	0.438343	0.452717	0.978102
0	H	0.0142626	0.502499	0.460541
0	H	0.996709	0.580068	0.965565
0	H	0.516053	0.590585	0.462628
0	H	0.494685	0.47193	0.9827
0	H	0.0649972	0.425954	0.463723
0	H	0.940737	0.653716	0.968179
0	H	0.565316	0.66609	0.452646
0	H	0.443911	0.397717	0.972
0	C	0.110457	0.499075	0.424504
0	C	0.902447	0.578423	0.928246
0	C	0.611035	0.575696	0.426759
0	C	0.404569	0.488033	0.94375
0	C	0.192492	0.478358	0.425104
0	C	0.819759	0.596587	0.927875
0	C	0.693482	0.594146	0.424656
0	C	0.321132	0.474489	0.940508
0	H	0.193279	0.421375	0.426717
0	H	0.817319	0.65349	0.929483
0	H	0.695444	0.649845	0.417815
0	H	0.316295	0.418655	0.934181
0	C	0.231012	0.50134	0.389076
0	C	0.782871	0.57235	0.891701
0	C	0.734396	0.554018	0.394461
0	C	0.285154	0.515685	0.909129
0	H	0.209998	0.471259	0.365252
0	H	0.807772	0.598428	0.867459
0	H	0.703802	0.554669	0.36782
0	H	0.319264	0.514881	0.883598
0	H	0.215807	0.554975	0.383287
0	H	0.794753	0.517336	0.888037
0	H	0.736864	0.499829	0.403231
0	H	0.282569	0.569808	0.918009
0	C	0.314843	0.495783	0.39112
0	C	0.699498	0.583148	0.891695
0	C	0.812218	0.581358	0.388335
0	C	0.207851	0.489451	0.900488
0	H	0.338087	0.547303	0.395729
0	H	0.672123	0.532829	0.893445
0	H	0.85025	0.537641	0.385809
0	H	0.171681	0.533654	0.895111
0	H	0.33631	0.477302	0.363981
0	H	0.682357	0.606194	0.864925
0	H	0.814937	0.609109	0.361258
0	H	0.208384	0.45914	0.874426
0	C	0.338799	0.449694	0.423343
0	C	0.674696	0.626508	0.924915
0	C	0.837934	0.627936	0.420192
0	C	0.176086	0.446706	0.932593
0	H	0.308636	0.399996	0.421058
0	H	0.705988	0.675627	0.924794
0	H	0.808256	0.677842	0.417922
0	H	0.202813	0.395407	0.93245
0	C	0.0715486	0.4695	0.390754
0	C	0.942028	0.607973	0.894652
0	C	0.573303	0.588638	0.38959
0	C	0.443223	0.46715	0.907828
0	H	0.074663	0.502656	0.366303
0	H	0.92948	0.580609	0.868796
0	H	0.592446	0.554274	0.367585
0	H	0.409295	0.473726	0.882807
0	C	0.0374486	0.409892	0.38971
0	C	0.988034	0.660287	0.89505
0	C	0.52217	0.635196	0.383022
0	C	0.511263	0.443565	0.905287
0	H	0.033895	0.375523	0.413237
0	H	0.00198722	0.68912	0.919759
0	H	0.501564	0.670574	0.403617
0	H	0.547951	0.436348	0.928765
0	H	0.010489	0.390557	0.364992
0	H	0.0151468	0.678943	0.870208
0	H	0.496752	0.642012	0.35596
0	H	0.536106	0.428937	0.879046
0	O	0.393395	0.575241	0.115915
0	O	0.607661	0.484574	0.593139
0	O	0.978011	0.444303	0.163601
0	O	0.0304622	0.623257	0.655864
0	H	0.367484	0.553713	0.0942657
0	H	0.638196	0.509803	0.574456
0	H	0.977061	0.483414	0.145273
0	H	0.0216848	0.586254	0.637132
0	O	0.282437	0.556859	0.0688944
0	O	0.728055	0.51151	0.553106
0	O	0.888845	0.519777	0.114811
0	O	0.124586	0.540852	0.603284
0	H	0.284299	0.553815	0.0400563
0	H	0.728804	0.516087	0.524338
0	H	0.934346	0.52909	0.0998659
0	H	0.0708449	0.541239	0.59709
0	O	0.153605	0.538124	0.072867
0	O	0.856651	0.531474	0.561258
0	O	0.769005	0.553704	0.0938573
0	O	0.245132	0.508906	0.58292
0	H	0.198401	0.512538	0.0816523
0	H	0.808989	0.556157	0.565531
0	H	0.812797	0.571962	0.10775
0	H	0.199517	0.48812	0.59352
0	O	0.0274447	0.548159	0.1085
0	O	0.974412	0.525478	0.604544
0	O	0.633264	0.553245	0.123173
0	O	0.376147	0.502011	0.617056
0	H	0.0684604	0.525891	0.0937618
0	H	0.935482	0.546681	0.588003
0	H	0.677759	0.573939	0.110769
0	H	0.333278	0.4845	0.601953
0	C	0.451834	0.64369	0.175097
0	C	0.540847	0.40681	0.64701
0	C	0.966086	0.348735	0.215241
0	C	0.0624689	0.712934	0.708641
0	H	0.488698	0.608722	0.160536
0	H	0.504515	0.441654	0.632035
0	H	0.997886	0.394237	0.220859
0	H	0.0400996	0.664021	0.716781
0	H	0.471642	0.659478	0.2021
0	H	0.51715	0.387019	0.672391
0	H	0.965433	0.31246	0.237931
0	H	0.0662029	0.749118	0.731198
0	C	0.388422	0.66356	0.160501
0	C	0.607978	0.391791	0.635274
0	C	0.931502	0.338859	0.183031
0	C	0.0830446	0.726381	0.673805
0	H	0.351497	0.698086	0.174967
0	H	0.643785	0.35747	0.650629
0	H	0.899115	0.2934	0.177473
0	H	0.105049	0.775727	0.665697
0	C	0.362931	0.64149	0.122065
0	C	0.63993	0.418944	0.599166
0	C	0.933547	0.389097	0.150863
0	C	0.07854	0.675096	0.642117
0	C	0.394732	0.691477	0.0928465
0	C	0.616548	0.371033	0.566984
0	C	0.971484	0.355703	0.116843
0	C	0.0431057	0.708414	0.607502
0	H	0.383017	0.744228	0.101552
0	H	0.629559	0.317937	0.574654
0	H	0.945984	0.305996	0.110705
0	H	0.0695641	0.758066	0.601665
0	H	0.455248	0.686134	0.0931507
0	H	0.556123	0.373852	0.564407
0	H	0.0292168	0.344993	0.124555
0	H	0.985227	0.720045	0.614506
0	C	0.365791	0.6785	0.0534541
0	C	0.652274	0.38965	0.529798
0	C	0.969065	0.401596	0.0824565
0	C	0.0468956	0.662996	0.57298
0	H	0.388213	0.629654	0.0429691
0	H	0.630197	0.439076	0.519978
0	H	0.00246309	0.447916	0.0877961
0	H	0.013024	0.616672	0.577344
0	H	0.386259	0.718106	0.034199
0	H	0.637244	0.351999	0.508198
0	H	0.995243	0.375962	0.0582545
0	H	0.0223096	0.689382	0.548652
0	C	0.281855	0.67612	0.0519204
0	C	0.73592	0.394231	0.532921
0	C	0.890709	0.42201	0.0724018
0	C	0.125816	0.642654	0.564145
0	H	0.258592	0.726551	0.0587994
0	H	0.758806	0.343462	0.539676
0	H	0.859288	0.376288	0.0640621
0	H	0.158309	0.688811	0.557766
0	H	0.264763	0.663807	0.0228856
0	H	0.758679	0.409807	0.505403
0	H	0.890916	0.455766	0.0476001
0	H	0.127497	0.610786	0.538561
0	C	0.251997	0.622482	0.0791472
0	C	0.758413	0.445672	0.563122
0	C	0.851997	0.45721	0.105171
0	C	0.161237	0.604629	0.596975
0	C	0.16613	0.610551	0.0775167
0	C	0.844038	0.45925	0.566344
0	C	0.770541	0.480157	0.0954644
0	C	0.243457	0.581928	0.588616
0	C	0.130735	0.643337	0.0431276
0	C	0.887777	0.42487	0.535025
0	C	0.743647	0.457505	0.0567433
0	C	0.27565	0.610489	0.552168
0	H	0.143987	0.698007	0.0420523
0	H	0.875619	0.369908	0.53438
0	H	0.744624	0.401586	0.0545206
0	H	0.274128	0.666691	0.552243
0	H	0.155027	0.619082	0.0176166
0	H	0.869319	0.447054	0.507849
0	H	0.780418	0.477442	0.0344251
0	H	0.242374	0.593753	0.527638
0	C	0.0476841	0.633821	0.0422055
0	C	0.970283	0.435801	0.539053
0	C	0.666438	0.484388	0.0489378
0	C	0.353981	0.58499	0.546123
0	H	0.0246001	0.662068	0.0182303
0	H	0.999386	0.406591	0.51721
0	H	0.648935	0.468178	0.0206008
0	H	0.375651	0.606102	0.519648
0	H	0.0354218	0.579241	0.0373022
0	H	0.982768	0.490315	0.533821
0	H	0.668348	0.541084	0.0475288
0	H	0.351916	0.528868	0.541533
0	C	0.0106923	0.656824	0.0783436
0	C	0.99941	0.416084	0.577559
0	C	0.611318	0.462292	0.0785265
0	C	0.404909	0.600737	0.578704
0	H	0.951118	0.646518	0.077112
0	H	0.0584812	0.428766	0.579643
0	H	0.557938	0.487475	0.0734676
0	H	0.458765	0.576049	0.574067
0	H	0.0158891	0.712448	0.0820653
0	H	0.995685	0.360474	0.581979
0	H	0.601013	0.407127	0.0767416
0	H	0.416043	0.655851	0.580761
0	C	0.043672	0.619939	0.112452
0	C	0.957767	0.453648	0.608854
0	C	0.636664	0.48082	0.118505
0	C	0.374152	0.574939	0.616386
0	C	0.127999	0.631518	0.114433
0	C	0.873795	0.440672	0.605558
0	C	0.716152	0.455448	0.125964
0	C	0.294126	0.600295	0.622019
0	H	0.13692	0.6875	0.118205
0	H	0.865392	0.384393	0.609347
0	H	0.714734	0.398666	0.124566
0	H	0.297038	0.65752	0.623225
0	C	0.160626	0.593572	0.14811
0	C	0.831846	0.478566	0.636366
0	C	0.742451	0.477067	0.164878
0	C	0.260824	0.573774	0.658499
0	H	0.143022	0.619349	0.174086
0	H	0.847223	0.456978	0.663835
0	H	0.703352	0.458903	0.186271
0	H	0.298481	0.583582	0.682071
0	H	0.136262	0.541945	0.149736
0	H	0.850489	0.532182	0.637246
0	H	0.740664	0.533281	0.16673
0	H	0.256154	0.517695	0.656758
0	C	0.24441	0.588236	0.146962
0	C	0.748439	0.475928	0.631449
0	C	0.819748	0.451079	0.173715
0	C	0.18567	0.605545	0.666392
0	H	0.267288	0.596476	0.175216
0	H	0.721927	0.462785	0.658295
0	H	0.818673	0.41787	0.198621
0	H	0.188323	0.638142	0.691501
0	H	0.261714	0.536143	0.139144
0	H	0.726771	0.52689	0.624136
0	H	0.855994	0.494328	0.181139
0	H	0.145185	0.565104	0.672874
0	C	0.277882	0.638897	0.119314
0	C	0.724912	0.425317	0.601198
0	C	0.85451	0.412634	0.140845
0	C	0.156449	0.647267	0.633311
0	H	0.257241	0.691299	0.126262
0	H	0.746921	0.373371	0.608428
0	H	0.821762	0.365671	0.135108
0	H	0.192506	0.693376	0.629224
0	C	0.00689106	0.644118	0.147744
0	C	0.985368	0.431335	0.646643
0	C	0.582635	0.450666	0.146049
0	C	0.42483	0.597772	0.647501
0	H	0.0133719	0.699208	0.152404
0	H	0.988058	0.375547	0.64955
0	H	0.596941	0.399727	0.15624
0	H	0.404559	0.640191	0.664447
0	C	0.969705	0.605149	0.1713
0	C	0.00383063	0.472085	0.674641
0	C	0.521133	0.481512	0.156301
0	C	0.49049	0.570569	0.653193
0	H	0.961523	0.550713	0.1671
0	H	0.00149141	0.527252	0.672986
0	H	0.505295	0.531801	0.145998
0	H	0.51196	0.529051	0.636138
0	H	0.943607	0.624151	0.19649
0	H	0.0229662	0.453703	0.701357
0	H	0.481975	0.459847	0.175471
0	H	0.527441	0.586789	0.674908
0	O	0.244495	0.334025	0.298205
0	O	0.805438	0.740576	0.795694
0	O	0.724513	0.740216	0.29763
0	O	0.286537	0.329846	0.796987
0	H	0.258287	0.338849	0.32516
0	H	0.782556	0.738445	0.82108
0	H	0.742644	0.735915	0.323912
0	H	0.265232	0.331793	0.822653
0	O	0.325714	0.27127	0.247086
0	O	0.711571	0.791926	0.748876
0	O	0.799295	0.809819	0.246512
0	O	0.201978	0.269504	0.746974
0	H	0.295463	0.276059	0.27024
0	H	0.75204	0.794873	0.767627
0	H	0.770992	0.801723	0.270045
0	H	0.235257	0.27315	0.769068
0	O	0.295029	0.238943	0.18547
0	O	0.743768	0.831682	0.689513
0	O	0.773887	0.841086	0.184592
0	O	0.209191	0.235239	0.68506
0	H	0.268761	0.22775	0.161474
0	H	0.767467	0.848164	0.665496
0	H	0.751296	0.853152	0.159613
0	H	0.233731	0.218599	0.66125
0	O	0.22865	0.261633	0.119348
0	O	0.804876	0.821908	0.621244
0	O	0.710581	0.819193	0.117977
0	O	0.289907	0.241993	0.621826
0	H	0.224347	0.24321	0.0930911
0	H	0.805253	0.845397	0.596096
0	H	0.70687	0.836468	0.0914094
0	H	0.295716	0.221889	0.595932
0	C	0.12708	0.421374	0.303715
0	C	0.926838	0.660445	0.802806
0	C	0.611844	0.647305	0.302012
0	C	0.397735	0.42138	0.808315
0	H	0.120885	0.370054	0.314213
0	H	0.926834	0.710753	0.81514
0	H	0.603662	0.697341	0.313934
0	H	0.399003	0.373569	0.823295
0	H	0.0801376	0.453509	0.308708
0	H	0.97673	0.632215	0.807402
0	H	0.566483	0.612929	0.306234
0	H	0.444516	0.453501	0.813667
0	C	0.1869	0.442351	0.285998
0	C	0.87048	0.636501	0.783369
0	C	0.672176	0.63022	0.283526
0	C	0.344105	0.438057	0.784961
0	H	0.192007	0.49395	0.275189
0	H	0.871296	0.586175	0.770619
0	H	0.679341	0.579866	0.271286
0	H	0.344295	0.485879	0.769522
0	C	0.252155	0.396908	0.277843
0	C	0.800936	0.676568	0.776016
0	C	0.735216	0.678643	0.276262
0	C	0.278356	0.393205	0.776908
0	C	0.323666	0.433493	0.289207
0	C	0.733784	0.635115	0.789142
0	C	0.80825	0.644654	0.287375
0	C	0.207961	0.430176	0.789482
0	H	0.324835	0.484574	0.276203
0	H	0.737499	0.582937	0.777656
0	H	0.812774	0.594687	0.27329
0	H	0.206291	0.481349	0.776581
0	H	0.324193	0.442838	0.319802
0	H	0.735506	0.62889	0.819894
0	H	0.808408	0.633129	0.31781
0	H	0.209648	0.439141	0.819995
0	C	0.392034	0.393819	0.277499
0	C	0.660735	0.666969	0.77751
0	C	0.874301	0.688666	0.277143
0	C	0.138832	0.390717	0.778846
0	H	0.396281	0.346672	0.294651
0	H	0.651506	0.714453	0.793953
0	H	0.875475	0.734361	0.295568
0	H	0.136118	0.342537	0.795241
0	H	0.441643	0.424097	0.283678
0	H	0.615281	0.632133	0.784563
0	H	0.925544	0.660462	0.282912
0	H	0.089599	0.420392	0.786421
0	C	0.391991	0.373813	0.236116
0	C	0.657083	0.685406	0.735899
0	C	0.874246	0.712324	0.236393
0	C	0.136694	0.372932	0.737222
0	H	0.396763	0.419339	0.218265
0	H	0.657716	0.639407	0.718311
0	H	0.885529	0.668777	0.217514
0	H	0.132427	0.419487	0.720124
0	H	0.441428	0.342279	0.230502
0	H	0.604226	0.711367	0.730488
0	H	0.920784	0.748708	0.232586
0	H	0.086802	0.34236	0.73146
0	C	0.322442	0.332997	0.225967
0	C	0.721362	0.733057	0.725816
0	C	0.802075	0.748003	0.225353
0	C	0.204836	0.331221	0.725766
0	C	0.317826	0.308857	0.183813
0	C	0.721761	0.76222	0.684696
0	C	0.797733	0.771717	0.18307
0	C	0.204382	0.307832	0.683483
0	C	0.392721	0.311029	0.164055
0	C	0.644915	0.761725	0.666936
0	C	0.87286	0.770622	0.163534
0	C	0.132801	0.324631	0.662528
0	H	0.416474	0.362729	0.165127
0	H	0.622965	0.709371	0.665752
0	H	0.897108	0.719256	0.165038
0	H	0.124127	0.380163	0.661115
0	H	0.431731	0.277666	0.179612
0	H	0.606883	0.791091	0.685146
0	H	0.911021	0.80509	0.178903
0	H	0.0855312	0.303219	0.678134
0	C	0.38768	0.288036	0.123341
0	C	0.64506	0.792456	0.627743
0	C	0.868504	0.792848	0.122682
0	C	0.134305	0.294434	0.623124
0	H	0.442659	0.291209	0.110317
0	H	0.588602	0.790233	0.615985
0	H	0.923759	0.790034	0.109998
0	H	0.0816638	0.304991	0.608878
0	H	0.370676	0.233983	0.122156
0	H	0.659725	0.847403	0.629248
0	H	0.851414	0.846873	0.12119
0	H	0.138921	0.238045	0.625011
0	C	0.33311	0.331333	0.101333
0	C	0.698603	0.755207	0.602144
0	C	0.814556	0.748975	0.100594
0	C	0.198127	0.322712	0.600258
0	H	0.329018	0.312153	0.0720991
0	H	0.699896	0.780212	0.574136
0	H	0.810959	0.767722	0.0712509
0	H	0.200224	0.297018	0.572453
0	H	0.353189	0.38424	0.09919
0	H	0.679108	0.702781	0.597022
0	H	0.834671	0.696106	0.0986841
0	H	0.188902	0.377196	0.594204
0	C	0.256849	0.330186	0.119743
0	C	0.776699	0.753452	0.618612
0	C	0.737857	0.750141	0.118675
0	C	0.272541	0.313574	0.620162
0	C	0.259546	0.350471	0.161672
0	C	0.778612	0.725555	0.659248
0	C	0.740688	0.729357	0.160566
0	C	0.270982	0.337341	0.661632
0	H	0.276264	0.405059	0.162821
0	H	0.76276	0.670806	0.657955
0	H	0.758701	0.675046	0.161354
0	H	0.265525	0.393953	0.661248
0	C	0.182844	0.342613	0.17921
0	C	0.856985	0.731129	0.675176
0	C	0.66382	0.734752	0.178072
0	C	0.343209	0.318107	0.680993
0	H	0.147092	0.38443	0.169433
0	H	0.890078	0.687463	0.665249
0	H	0.629342	0.6928	0.167221
0	H	0.389003	0.344666	0.666904
0	H	0.157224	0.295172	0.168742
0	H	0.884532	0.776993	0.66359
0	H	0.637509	0.782431	0.168441
0	H	0.352902	0.262506	0.676774
0	C	0.18518	0.341068	0.222036
0	C	0.858508	0.734439	0.717958
0	C	0.665602	0.733182	0.220921
0	C	0.343611	0.334026	0.722903
0	H	0.185775	0.287773	0.232113
0	H	0.854843	0.788106	0.727471
0	H	0.662499	0.785603	0.2322
0	H	0.346873	0.286201	0.739216
0	H	0.135166	0.364593	0.233621
0	H	0.911277	0.714682	0.728551
0	H	0.617191	0.705924	0.231749
0	H	0.393283	0.363333	0.730227
0	C	0.254284	0.37719	0.235984
0	C	0.793933	0.694301	0.734012
0	C	0.73668	0.70001	0.234612
0	C	0.274976	0.373218	0.734995
0	H	0.259541	0.426595	0.220529
0	H	0.791349	0.64425	0.719046
0	H	0.744941	0.651562	0.218579
0	H	0.272204	0.421812	0.718776
0	C	0.205789	0.377192	0.0984831
0	C	0.824348	0.710613	0.593034
0	C	0.686654	0.703556	0.0973172
0	C	0.330321	0.35252	0.59853
0	H	0.221805	0.430775	0.0986485
0	H	0.809398	0.656953	0.5923
0	H	0.701924	0.649461	0.0982083
0	H	0.319709	0.407562	0.597085
0	C	0.145766	0.3556	0.0812435
0	C	0.879131	0.735306	0.57278
0	C	0.627276	0.724742	0.0793518
0	C	0.389104	0.325363	0.582593
0	H	0.12886	0.302606	0.0809529
0	H	0.896121	0.788297	0.573713
0	H	0.610404	0.777601	0.0783245
0	H	0.401947	0.271495	0.583619
0	H	0.108724	0.38888	0.0664349
0	H	0.911781	0.704846	0.553833
0	H	0.590943	0.690801	0.0642755
0	H	0.428983	0.355238	0.567355
0	O	0.646148	0.312508	0.266344
0	O	0.35775	0.777808	0.761886
0	O	0.113379	0.759103	0.266108
0	O	0.85788	0.297401	0.756973
0	H	0.614621	0.330078	0.245327
0	H	0.38593	0.749794	0.74328
0	H	0.0844488	0.743165	0.243829
0	H	0.892717	0.316838	0.737982
0	O	0.57299	0.30867	0.201705
0	O	0.421209	0.748615	0.697358
0	O	0.0534992	0.767201	0.198252
0	O	0.935592	0.301406	0.693644
0	H	0.587424	0.335371	0.178485
0	H	0.402309	0.712529	0.679396
0	H	0.0690941	0.740923	0.175286
0	H	0.925638	0.331767	0.671452
0	O	0.595022	0.288276	0.136731
0	O	0.385536	0.737299	0.633396
0	O	0.0770156	0.790264	0.13369
0	O	0.924233	0.291317	0.627176
0	H	0.631595	0.293444	0.115945
0	H	0.342089	0.724731	0.617066
0	H	0.112791	0.781716	0.112778
0	H	0.890235	0.304128	0.60598
0	O	0.692986	0.247471	0.0869151
0	O	0.282796	0.760977	0.583094
0	O	0.186346	0.816832	0.0872218
0	O	0.82954	0.268875	0.572813
0	H	0.681974	0.247096	0.0602911
0	H	0.293634	0.743596	0.557793
0	H	0.178041	0.822567	0.0604634
0	H	0.849684	0.269033	0.547516
0	C	0.765492	0.264543	0.301923
0	C	0.249419	0.846384	0.795008
0	C	0.224932	0.802658	0.309022
0	C	0.737519	0.246537	0.790214
0	H	0.750581	0.317738	0.304627
0	H	0.26328	0.795456	0.804231
0	H	0.205412	0.75077	0.311712
0	H	0.756459	0.297149	0.797417
0	H	0.8148	0.250775	0.316647
0	H	0.203784	0.868833	0.809738
0	H	0.271642	0.814185	0.326308
0	H	0.686927	0.232098	0.803588
0	C	0.726003	0.221269	0.281769
0	C	0.285634	0.87724	0.767646
0	C	0.193766	0.846954	0.285956
0	C	0.773736	0.206928	0.766509
0	H	0.740839	0.167686	0.278592
0	H	0.27157	0.928389	0.757838
0	H	0.213371	0.899193	0.282887
0	H	0.754776	0.155953	0.75899
0	C	0.65677	0.240965	0.26099
0	C	0.350176	0.845468	0.747449
0	C	0.128094	0.830366	0.261682
0	C	0.844911	0.227403	0.74779
0	C	0.590745	0.202439	0.277957
0	C	0.420467	0.886282	0.756428
0	C	0.0608217	0.870806	0.275555
0	C	0.908059	0.183876	0.763845
0	H	0.601533	0.146736	0.277578
0	H	0.412228	0.940696	0.749228
0	H	0.0738597	0.925947	0.276367
0	H	0.895083	0.129037	0.760614
0	H	0.584971	0.217015	0.307594
0	H	0.430516	0.88417	0.786811
0	H	0.0485709	0.855353	0.304544
0	H	0.91248	0.193817	0.794119
0	C	0.520293	0.218408	0.256661
0	C	0.48645	0.85803	0.73523
0	C	0.994303	0.858574	0.250599
0	C	0.98057	0.200079	0.744481
0	H	0.507365	0.273473	0.259207
0	H	0.497958	0.805404	0.744766
0	H	0.977449	0.804043	0.251828
0	H	0.996256	0.253635	0.750047
0	H	0.473154	0.191223	0.269322
0	H	0.536003	0.888209	0.74175
0	H	0.946501	0.887798	0.26099
0	H	0.0251519	0.168318	0.756029
0	C	0.526761	0.200298	0.215169
0	C	0.473609	0.857297	0.692866
0	C	0.0102377	0.877229	0.209905
0	C	0.975203	0.189013	0.70222
0	H	0.53224	0.144791	0.211651
0	H	0.467983	0.909803	0.682256
0	H	0.0194744	0.932719	0.207286
0	H	0.965512	0.134421	0.696225
0	H	0.474958	0.216078	0.200891
0	H	0.522498	0.834266	0.6793
0	H	0.960932	0.864349	0.192705
0	H	0.0284956	0.203084	0.68932
0	C	0.591689	0.237852	0.197094
0	C	0.40496	0.815544	0.683134
0	C	0.0762239	0.8372	0.194865
0	C	0.913996	0.232566	0.685089
0	C	0.602702	0.22236	0.153949
0	C	0.387993	0.809551	0.639758
0	C	0.094918	0.853204	0.152478
0	C	0.906207	0.224459	0.641162
0	C	0.542342	0.176981	0.137193
0	C	0.450052	0.836292	0.614612
0	C	0.0469159	0.908899	0.134898
0	C	0.962362	0.175462	0.623878
0	H	0.542522	0.126416	0.150679
0	H	0.459125	0.891085	0.619457
0	H	0.0541566	0.957967	0.150078
0	H	0.956138	0.123791	0.635818
0	H	0.488009	0.199705	0.14327
0	H	0.50216	0.809852	0.622128
0	H	0.988257	0.895143	0.137914
0	H	0.0183959	0.192547	0.631443
0	C	0.551707	0.169814	0.0948932
0	C	0.433271	0.822604	0.573387
0	C	0.064494	0.91827	0.0934067
0	C	0.955633	0.172871	0.581295
0	H	0.507283	0.137928	0.0833276
0	H	0.478526	0.841678	0.555751
0	H	0.0295417	0.958946	0.081637
0	H	0.996056	0.135971	0.57008
0	H	0.545987	0.220618	0.081762
0	H	0.430936	0.766809	0.568791
0	H	0.0501313	0.87108	0.0781587
0	H	0.970321	0.223174	0.569558
0	C	0.6262	0.139155	0.0850364
0	C	0.36096	0.855292	0.561474
0	C	0.145276	0.935557	0.0871503
0	C	0.878412	0.152749	0.568985
0	H	0.633198	0.136657	0.0543943
0	H	0.348678	0.842839	0.532013
0	H	0.157065	0.940039	0.0569564
0	H	0.874215	0.153132	0.538159
0	H	0.628749	0.0855829	0.0946386
0	H	0.36612	0.91143	0.562294
0	H	0.157301	0.986627	0.0988404
0	H	0.86741	0.099267	0.577231
0	C	0.68987	0.179301	0.102745
0	C	0.296792	0.833471	0.586699
0	C	0.196477	0.882751	0.105288
0	C	0.81966	0.199268	0.58629
0	C	0.679021	0.191256	0.145234
0	C	0.313869	0.84289	0.628917
0	C	0.177223	0.870742	0.146949
0	C	0.827385	0.204042	0.629347
0	H	0.680822	0.139576	0.159074
0	H	0.319299	0.898775	0.63421
0	H	0.188041	0.92052	0.161705
0	H	0.816969	0.15112	0.640529
0	C	0.74236	0.234291	0.160837
0	C	0.249522	0.815442	0.65226
0	C	0.226185	0.81583	0.164312
0	C	0.769609	0.25215	0.64586
0	H	0.79273	0.202719	0.160969
0	H	0.202782	0.8511	0.649652
0	H	0.284492	0.830402	0.160973
0	H	0.714314	0.231037	0.640364
0	H	0.753945	0.277234	0.141649
0	H	0.229764	0.766328	0.64021
0	H	0.220149	0.767525	0.148457
0	H	0.770891	0.301766	0.630808
0	C	0.727334	0.261576	0.200179
0	C	0.268647	0.804919	0.693503
0	C	0.209222	0.804229	0.205758
0	C	0.779616	0.263617	0.687909
0	H	0.71455	0.316666	0.199232
0	H	0.277104	0.750186	0.699547
0	H	0.197191	0.749746	0.210923
0	H	0.793228	0.317578	0.693636
0	H	0.77732	0.257679	0.217535
0	H	0.221908	0.820212	0.711316
0	H	0.258386	0.815504	0.222808
0	H	0.727244	0.25452	0.702679
0	C	0.663794	0.223611	0.218746
0	C	0.337575	0.844393	0.704435
0	C	0.144724	0.847058	0.219942
0	C	0.839649	0.218437	0.704626
0	H	0.674782	0.167511	0.217051
0	H	0.33094	0.899065	0.695694
0	H	0.15995	0.902383	0.218641
0	H	0.825633	0.16354	0.699427
0	C	0.760833	0.142349	0.094533
0	C	0.228742	0.872255	0.575087
0	C	0.275327	0.905088	0.100569
0	C	0.744402	0.174392	0.574931
0	H	0.770853	0.0986772	0.112865
0	H	0.223483	0.922308	0.588089
0	H	0.288362	0.952709	0.114846
0	H	0.727889	0.12706	0.588615
0	C	0.807285	0.159673	0.0676103
0	C	0.179318	0.849147	0.550995
0	C	0.325288	0.87094	0.0811984
0	C	0.701141	0.20603	0.550704
0	H	0.799793	0.203154	0.049566
0	H	0.182117	0.799629	0.537992
0	H	0.314181	0.823053	0.0673224
0	H	0.71552	0.253758	0.537406
0	H	0.857156	0.131914	0.061873
0	H	0.131582	0.878053	0.5427
0	H	0.381315	0.887849	0.0780153
0	H	0.64768	0.187241	0.542749
0	O	0.324826	0.207625	0.549145
0	O	0.685209	0.849601	0.0430134
0	O	0.826909	0.864945	0.548266
0	O	0.194465	0.225296	0.0464487
0	H	0.304717	0.25076	0.537417
0	H	0.708357	0.808825	0.0303794
0	H	0.804474	0.822246	0.537054
0	H	0.213801	0.26604	0.0323284
0	O	0.246862	0.282292	0.503678
0	O	0.767226	0.784163	0.994853
0	O	0.746691	0.790371	0.504332
0	O	0.267732	0.291113	0.995127
0	H	0.267789	0.319934	0.487497
0	H	0.74984	0.748108	0.977006
0	H	0.769829	0.753996	0.488021
0	H	0.248268	0.32522	0.976728
0	O	0.232246	0.319907	0.440932
0	O	0.790007	0.75616	0.93136
0	O	0.732937	0.752752	0.441613
0	O	0.285686	0.316629	0.930898
0	H	0.250717	0.337306	0.415898
0	H	0.776762	0.740232	0.905339
0	H	0.750136	0.736868	0.415972
0	H	0.267544	0.330223	0.905278
0	O	0.288377	0.312329	0.371562
0	O	0.734742	0.765268	0.863298
0	O	0.781494	0.763977	0.369981
0	O	0.221252	0.301993	0.864905
0	H	0.341798	0.322237	0.373216
0	H	0.683247	0.748814	0.863743
0	H	0.835497	0.75726	0.369123
0	H	0.168672	0.314874	0.866073
0	C	0.424225	0.106713	0.547122
0	C	0.597609	0.956339	0.0565268
0	C	0.92362	0.968025	0.549543
0	C	0.110866	0.116877	0.0626313
0	H	0.440695	0.155928	0.557968
0	H	0.591917	0.910993	0.0735718
0	H	0.936417	0.921402	0.564433
0	H	0.104586	0.162924	0.0790488
0	H	0.46542	0.0677607	0.550314
0	H	0.555993	0.994193	0.0616285
0	H	0.965461	0.00659257	0.551952
0	H	0.0707832	0.0781805	0.0689254
0	C	0.358806	0.0955938	0.532011
0	C	0.650895	0.963756	0.0315692
0	C	0.861784	0.976591	0.530535
0	C	0.162971	0.109654	0.0370187
0	H	0.34317	0.0458787	0.521114
0	H	0.656193	0.00935893	0.0145002
0	H	0.850003	0.0234678	0.515392
0	H	0.168667	0.0635059	0.0203998
0	C	0.300307	0.149667	0.527785
0	C	0.709714	0.910857	0.0246333
0	C	0.802333	0.923247	0.527261
0	C	0.219364	0.163875	0.0282891
0	C	0.227157	0.125033	0.544491
0	C	0.781888	0.933756	0.0431858
0	C	0.730652	0.949156	0.545003
0	C	0.293947	0.144169	0.0454442
0	H	0.210705	0.0763912	0.53154
0	H	0.796806	0.9852	0.0333902
0	H	0.714444	0.99807	0.532272
0	H	0.310126	0.092969	0.0357955
0	H	0.235237	0.113578	0.574762
0	H	0.772893	0.938254	0.0737112
0	H	0.740708	0.960415	0.575093
0	H	0.287964	0.140446	0.0761919
0	C	0.167107	0.178268	0.539327
0	C	0.843871	0.883585	0.0353688
0	C	0.669293	0.896912	0.540787
0	C	0.353026	0.196226	0.0357044
0	H	0.181691	0.225226	0.555333
0	H	0.830894	0.833642	0.0488311
0	H	0.683372	0.850371	0.557236
0	H	0.339414	0.246084	0.0490952
0	H	0.114937	0.159705	0.551208
0	H	0.895331	0.90151	0.0482812
0	H	0.617833	0.916998	0.552804
0	H	0.406276	0.180474	0.0475584
0	C	0.156733	0.197339	0.498171
0	C	0.854866	0.872091	0.993471
0	C	0.656754	0.876084	0.500063
0	C	0.359915	0.206799	0.993508
0	H	0.136863	0.152874	0.482192
0	H	0.873136	0.919762	0.979962
0	H	0.635738	0.919861	0.483865
0	H	0.379543	0.1595	0.980084
0	H	0.114405	0.237486	0.496031
0	H	0.898753	0.833958	0.989231
0	H	0.61421	0.835932	0.499155
0	H	0.401419	0.24668	0.987995
0	C	0.22876	0.223741	0.481079
0	C	0.78393	0.846363	0.974986
0	C	0.727532	0.849068	0.481979
0	C	0.286428	0.22849	0.97613
0	C	0.220859	0.247388	0.438929
0	C	0.793684	0.829379	0.932011
0	C	0.71706	0.824695	0.440145
0	C	0.292027	0.243459	0.932753
0	C	0.144383	0.235729	0.42202
0	C	0.868178	0.850436	0.915542
0	C	0.638265	0.832017	0.425517
0	C	0.365637	0.223908	0.914876
0	H	0.130039	0.181073	0.423094
0	H	0.87658	0.905819	0.919148
0	H	0.620612	0.885793	0.426832
0	H	0.375905	0.168768	0.918314
0	H	0.103127	0.26289	0.439137
0	H	0.912572	0.824761	0.931267
0	H	0.600817	0.802888	0.443908
0	H	0.410662	0.250757	0.929518
0	C	0.140161	0.26176	0.381761
0	C	0.874685	0.831182	0.87422
0	C	0.631416	0.805338	0.38552
0	C	0.36777	0.243231	0.873454
0	H	0.0850118	0.251902	0.370183
0	H	0.927664	0.849308	0.86298
0	H	0.574499	0.811677	0.375479
0	H	0.420571	0.227203	0.861064
0	H	0.147165	0.317888	0.381537
0	H	0.87575	0.774936	0.871483
0	H	0.642273	0.749819	0.384964
0	H	0.366049	0.299425	0.870685
0	C	0.198331	0.229372	0.356753
0	C	0.811931	0.85985	0.850739
0	C	0.684362	0.841758	0.359247
0	C	0.304444	0.211955	0.851463
0	H	0.195658	0.252116	0.328266
0	H	0.817069	0.841609	0.821405
0	H	0.679537	0.820121	0.330569
0	H	0.305867	0.230737	0.822105
0	H	0.187227	0.174513	0.352836
0	H	0.815458	0.916039	0.849102
0	H	0.669032	0.896059	0.356613
0	H	0.311065	0.156081	0.849454
0	C	0.27591	0.238595	0.372719
0	C	0.736529	0.839709	0.866411
0	C	0.764263	0.836761	0.372499
0	C	0.22934	0.227964	0.868807
0	C	0.280341	0.214633	0.413879
0	C	0.730514	0.859389	0.908264
0	C	0.772663	0.859566	0.413734
0	C	0.227842	0.210519	0.911009
0	H	0.268522	0.15808	0.413392
0	H	0.736948	0.916699	0.909137
0	H	0.759823	0.91592	0.414133
0	H	0.235953	0.153439	0.912623
0	C	0.356339	0.225846	0.430851
0	C	0.656782	0.841429	0.925984
0	C	0.850752	0.849417	0.428466
0	C	0.155219	0.227644	0.93022
0	H	0.399264	0.205693	0.412022
0	H	0.611067	0.856971	0.907535
0	H	0.890749	0.871968	0.408796
0	H	0.108394	0.210448	0.913017
0	H	0.367412	0.281365	0.433541
0	H	0.652026	0.785395	0.929129
0	H	0.863978	0.794227	0.429818
0	H	0.149346	0.283538	0.932867
0	C	0.363393	0.192413	0.469309
0	C	0.64797	0.875159	0.964308
0	C	0.860911	0.88078	0.467313
0	C	0.150935	0.194677	0.968982
0	H	0.399913	0.147209	0.467319
0	H	0.611441	0.920098	0.961853
0	H	0.897785	0.92573	0.465312
0	H	0.116583	0.148072	0.967621
0	H	0.390928	0.227578	0.489021
0	H	0.61935	0.839913	0.98364
0	H	0.88938	0.8444	0.485966
0	H	0.122126	0.229195	0.988582
0	C	0.290048	0.169678	0.485949
0	C	0.720613	0.897612	0.982033
0	C	0.789049	0.903282	0.485618
0	C	0.226008	0.175503	0.985316
0	H	0.271865	0.122155	0.470855
0	H	0.737384	0.947375	0.969008
0	H	0.769472	0.950647	0.470998
0	H	0.243774	0.126011	0.97264
0	C	0.331185	0.201773	0.348755
0	C	0.676113	0.87116	0.843428
0	C	0.813238	0.878312	0.347316
0	C	0.169671	0.191375	0.847653
0	H	0.328701	0.146029	0.351829
0	H	0.664782	0.924441	0.850648
0	H	0.808539	0.933497	0.352128
0	H	0.160453	0.139086	0.857446
0	C	0.377668	0.230424	0.325023
0	C	0.640366	0.840612	0.815875
0	C	0.85747	0.854161	0.321127
0	C	0.132925	0.216778	0.818887
0	H	0.381215	0.284777	0.319331
0	H	0.651041	0.788914	0.80604
0	H	0.863675	0.80052	0.314112
0	H	0.141788	0.267329	0.806976
0	H	0.415267	0.201537	0.307491
0	H	0.59835	0.865445	0.799416
0	H	0.890116	0.886464	0.302834
0	H	0.0916083	0.18861	0.803605
