#******************************************
#
# CIF file created by Zeo++
# Zeo++ is an open source package to
# analyze microporous materials
#
#*******************************************

_cell_length_a		14.0455(0)
_cell_length_b		13.0178(0)
_cell_length_c		40.147(0)
_cell_angle_alpha		90(0)
_cell_angle_beta		90(0)
_cell_angle_gamma		90(0)

_symmetry_space_group_name_H-M		'P1'
_symmetry_Int_Tables_number		1
_symmetry_cell_setting		Monoclinic

loop_
_symmetry_equiv_pos_as_xyz
'+x,+y,+z'

loop_
_atom_site_label
_atom_site_type_symbol
_atom_site_fract_x
_atom_site_fract_y
_atom_site_fract_z
0	H	0.712274	0.37088	0.718374
0	H	0.339688	0.69257	0.173481
0	H	0.613556	0.810363	0.953137
0	H	0.364842	0.262988	0.480362
0	H	0.383394	0.395477	0.708991
0	H	0.587333	0.693869	0.178178
0	H	0.645305	0.451668	0.938709
0	H	0.363807	0.630582	0.447896
0	H	0.506122	0.264524	0.680638
0	H	0.478081	0.834936	0.151344
0	H	0.774599	0.565305	0.902476
0	H	0.242284	0.501879	0.419113
0	H	0.410029	0.225326	0.655245
0	H	0.581681	0.88285	0.1315
0	H	0.777574	0.453431	0.877667
0	H	0.212125	0.605109	0.392466
0	H	0.386873	0.425414	0.64234
0	H	0.615876	0.703495	0.108783
0	H	0.587845	0.460534	0.880126
0	H	0.398735	0.625831	0.382626
0	H	0.504746	0.484774	0.686348
0	H	0.511499	0.61064	0.1532
0	H	0.589451	0.603498	0.925383
0	H	0.446558	0.502721	0.42895
0	H	0.598884	0.426312	0.663678
0	H	0.410353	0.64977	0.130032
0	H	0.628871	0.690496	0.894168
0	H	0.394018	0.399391	0.406706
0	H	0.532994	0.529073	0.646067
0	H	0.496438	0.567222	0.112105
0	H	0.51785	0.629576	0.890155
0	H	0.49192	0.466197	0.389607
0	H	0.437577	0.296901	0.600099
0	H	0.537762	0.834475	0.0733093
0	H	0.672488	0.488266	0.827629
0	H	0.285448	0.567901	0.338983
0	H	0.507266	0.409276	0.595569
0	H	0.486113	0.713114	0.0649626
0	H	0.593571	0.594249	0.831797
0	H	0.38978	0.491632	0.337064
0	H	0.556647	0.299506	0.614595
0	H	0.423841	0.804047	0.0893714
0	H	0.7163	0.609512	0.840334
0	H	0.284988	0.440964	0.354829
0	H	0.0939486	0.312788	0.664846
0	H	0.889226	0.763852	0.146702
0	H	0.717009	0.126091	0.906131
0	H	0.293906	0.945072	0.404107
0	H	0.0268345	0.423766	0.729713
0	H	0.9313	0.681862	0.218183
0	H	0.661225	0.0731772	0.979264
0	H	0.372384	0.0144063	0.473178
0	H	0.876279	0.321289	0.71756
0	H	0.0908269	0.769097	0.207366
0	H	0.757832	0.914605	0.96642
0	H	0.30235	0.182814	0.458936
0	H	0.900675	0.411736	0.686004
0	H	0.0718973	0.665386	0.179802
0	H	0.659062	0.92238	0.939345
0	H	0.379578	0.149984	0.426
0	H	0.925886	0.280347	0.679127
0	H	0.056178	0.79299	0.165575
0	H	0.774889	0.956658	0.924793
0	H	0.255062	0.134993	0.420882
0	H	0.00713372	0.244399	0.752328
0	H	0.950107	0.869629	0.23113
0	H	0.836066	0.076299	0.990125
0	H	0.203937	0.0293059	0.489037
0	H	0.0609318	0.192439	0.716199
0	H	0.917941	0.903046	0.189716
0	H	0.859963	0.110691	0.94814
0	H	0.164351	0.00266261	0.447914
0	H	0.12765	0.270626	0.743796
0	H	0.833323	0.845996	0.216919
0	H	0.802088	0.198354	0.975413
0	H	0.216396	0.904267	0.472452
0	H	0.0338708	0.316683	0.629033
0	H	0.961672	0.752994	0.115309
0	H	0.700408	0.022696	0.879542
0	H	0.302793	0.0131593	0.369997
0	H	0.943408	0.380903	0.605635
0	H	0.0520585	0.681674	0.0940509
0	H	0.622517	0.929598	0.860801
0	H	0.36671	0.111152	0.347798
0	H	0.0669381	0.393657	0.593707
0	H	0.928829	0.669904	0.0814539
0	H	0.623607	0.0611892	0.846374
0	H	0.378224	0.977622	0.335946
0	H	0.732713	0.729581	0.576705
0	H	0.259659	0.324219	0.0715046
0	H	0.284191	0.777923	0.833501
0	H	0.707774	0.282379	0.323231
0	H	0.70532	0.634632	0.60751
0	H	0.278594	0.42402	0.10142
0	H	0.370834	0.726962	0.862054
0	H	0.621979	0.344558	0.349603
0	H	0.610784	0.700611	0.586399
0	H	0.378712	0.361511	0.082794
0	H	0.302748	0.641651	0.836587
0	H	0.695679	0.420163	0.322996
0	H	0.700502	0.0237589	0.662739
0	H	0.255946	0.0189286	0.162318
0	H	0.00710068	0.745184	0.918501
0	H	0.972491	0.348262	0.411089
0	H	0.736585	0.152757	0.65404
0	H	0.274915	0.89328	0.144478
0	H	0.886126	0.769064	0.906536
0	H	0.0944985	0.312252	0.40598
0	H	0.627659	0.106912	0.637183
0	H	0.364753	0.989068	0.140684
0	H	0.943186	0.655185	0.892603
0	H	0.0523675	0.42556	0.38624
0	H	0.259597	0.997347	0.679936
0	H	0.730122	0.0602501	0.161704
0	H	0.0947574	0.314646	0.954388
0	H	0.902401	0.745822	0.440455
0	H	0.235051	0.998372	0.635861
0	H	0.767129	0.073692	0.118983
0	H	0.0709161	0.320056	0.910259
0	H	0.927641	0.758813	0.39663
0	H	0.155767	0.0602907	0.663813
0	H	0.839915	0.00547039	0.147546
0	H	0.0162699	0.222946	0.93507
0	H	0.980755	0.845003	0.425664
0	H	0.509832	0.424115	0.826588
0	H	0.451169	0.637473	0.301057
0	H	0.658653	0.576524	0.0594718
0	H	0.361011	0.521061	0.570244
0	H	0.384946	0.453643	0.823753
0	H	0.578943	0.633543	0.304569
0	H	0.646226	0.438881	0.0583519
0	H	0.384708	0.656583	0.565912
0	H	0.425519	0.325586	0.816929
0	H	0.521241	0.750057	0.293556
0	H	0.7544	0.497725	0.0450098
0	H	0.268862	0.606757	0.557153
0	H	0.334609	0.0903433	0.742672
0	H	0.613514	0.996113	0.219083
0	H	0.943818	0.423285	0.956726
0	H	0.075025	0.699709	0.473338
0	H	0.237141	0.164617	0.727336
0	H	0.723362	0.92903	0.212903
0	H	0.876552	0.306388	0.957242
0	H	0.154892	0.802003	0.4629
0	H	0.321006	0.110485	0.69846
0	H	0.656871	0.974308	0.177643
0	H	0.894849	0.373008	0.918539
0	H	0.111368	0.717878	0.430651
0	H	0.288909	0.499989	0.716759
0	H	0.679091	0.587418	0.194186
0	H	0.559011	0.341689	0.960303
0	H	0.457089	0.73977	0.461788
0	H	0.165294	0.516878	0.724505
0	H	0.798376	0.572725	0.207742
0	H	0.565471	0.21515	0.976202
0	H	0.465156	0.873089	0.470792
0	H	0.228333	0.418747	0.746414
0	H	0.728035	0.673545	0.225116
0	H	0.658465	0.304137	0.986209
0	H	0.36947	0.799965	0.48825
0	H	0.916196	0.708016	0.664455
0	H	0.069236	0.360781	0.15889
0	H	0.319071	0.938903	0.921016
0	H	0.671807	0.126789	0.409476
0	H	0.869398	0.947283	0.6484
0	H	0.122485	0.118275	0.139488
0	H	0.0930364	0.911631	0.901992
0	H	0.903855	0.161134	0.397427
0	H	0.113875	0.675908	0.707495
0	H	0.867026	0.39691	0.195544
0	H	0.388492	0.146749	0.961936
0	H	0.619271	0.921379	0.456276
0	H	0.339221	0.722635	0.749608
0	H	0.643273	0.34382	0.238109
0	H	0.36504	0.387479	0.00140832
0	H	0.651875	0.676196	0.498238
0	H	0.962804	0.904718	0.580196
0	H	0.00742634	0.155705	0.0761606
0	H	0.142954	0.989207	0.833315
0	H	0.852745	0.0955668	0.322559
0	H	0.17823	0.944274	0.56885
0	H	0.794806	0.137756	0.0560532
0	H	0.114006	0.224925	0.82717
0	H	0.887324	0.860364	0.317772
0	H	0.123699	0.581321	0.554653
0	H	0.880505	0.505104	0.0442696
0	H	0.443986	0.162821	0.818642
0	H	0.550216	0.914632	0.298847
0	H	0.945722	0.783361	0.527225
0	H	0.0292908	0.274867	0.0200232
0	H	0.25824	0.95381	0.789246
0	H	0.74085	0.0801449	0.270848
0	H	0.0239761	0.678971	0.520538
0	H	0.970685	0.39384	0.0137323
0	H	0.348808	0.0446875	0.781286
0	H	0.64331	0.994738	0.268657
0	H	0.901611	0.656586	0.52891
0	H	0.0946515	0.389871	0.0226281
0	H	0.378702	0.915659	0.791
0	H	0.624301	0.129773	0.269204
0	H	0.647549	0.681247	0.741558
0	H	0.341731	0.373187	0.235719
0	H	0.31539	0.642818	0.997629
0	H	0.650214	0.425627	0.484582
0	H	0.622655	0.76233	0.70736
0	H	0.366035	0.301333	0.199455
0	H	0.254344	0.615204	0.960153
0	H	0.713695	0.458651	0.448129
0	H	0.607045	0.627915	0.703715
0	H	0.378755	0.436821	0.198963
0	H	0.380211	0.603406	0.961818
0	H	0.587508	0.456667	0.447943
0	H	0.594243	0.880449	0.589593
0	H	0.403842	0.18057	0.0896473
0	H	0.140627	0.621744	0.841599
0	H	0.852217	0.445688	0.330683
0	H	0.606527	0.93073	0.630873
0	H	0.381082	0.132878	0.13072
0	H	0.092696	0.628921	0.882986
0	H	0.893789	0.447158	0.372937
0	H	0.873652	0.0609311	0.581577
0	H	0.131197	0.993845	0.0739214
0	H	0.980328	0.927491	0.837512
0	H	0.0251884	0.148085	0.334865
0	H	0.789869	0.256084	0.615785
0	H	0.205205	0.806921	0.114899
0	H	0.797673	0.849046	0.873585
0	H	0.200698	0.238636	0.372426
0	H	0.895757	0.253395	0.592392
0	H	0.101288	0.80362	0.0903107
0	H	0.806902	0.960499	0.848639
0	H	0.197862	0.125855	0.348173
0	H	0.694992	0.194383	0.566687
0	H	0.302742	0.85667	0.064016
0	H	0.847656	0.738424	0.824592
0	H	0.160694	0.347948	0.323812
0	H	0.710819	0.357294	0.533977
0	H	0.280542	0.678719	0.035886
0	H	0.69171	0.751405	0.795748
0	H	0.312401	0.323851	0.293163
0	H	0.722613	0.384365	0.577254
0	H	0.293976	0.674008	0.0800555
0	H	0.673234	0.774492	0.8387
0	H	0.333805	0.296117	0.335636
0	H	0.823618	0.382191	0.551429
0	H	0.181453	0.657606	0.0620911
0	H	0.673678	0.877673	0.810064
0	H	0.322801	0.195427	0.306533
0	H	0.820575	0.0933408	0.536634
0	H	0.169644	0.93888	0.030639
0	H	0.93783	0.866386	0.790815
0	H	0.0581005	0.230906	0.290821
0	H	0.772086	0.188552	0.51013
0	H	0.22864	0.841591	0.00749874
0	H	0.841247	0.819029	0.767107
0	H	0.155539	0.269958	0.26598
0	H	0.885158	0.207505	0.527981
0	H	0.116114	0.816639	0.0250983
0	H	0.83411	0.942108	0.785117
0	H	0.154664	0.145763	0.283441
0	H	0.0430163	0.0578089	0.675548
0	H	0.949967	0.0109407	0.168631
0	H	0.00253581	0.0989033	0.933627
0	H	0.994862	0.968884	0.425793
0	H	0.914579	0.896325	0.711325
0	H	0.084628	0.17788	0.199056
0	H	0.139759	0.940976	0.966722
0	H	0.859178	0.117068	0.463845
0	H	0.00356314	0.954978	0.761522
0	H	0.00133787	0.130563	0.252162
0	H	0.0957306	0.0295274	0.0183277
0	H	0.914509	0.014716	0.512721
0	H	0.0875837	0.921147	0.730994
0	H	0.916351	0.168365	0.222479
0	H	0.122319	0.127735	0.989988
0	H	0.872892	0.928517	0.482357
0	H	0.062622	0.0519021	0.738952
0	H	0.932244	0.0370011	0.231892
0	H	0.00206725	0.0982405	0.999297
0	H	0.99679	0.946161	0.488367
0	H	0.810656	0.0418972	0.703303
0	H	0.183033	0.0274779	0.192853
0	H	0.0028091	0.837966	0.956438
0	H	0.997692	0.221978	0.455687
0	H	0.855021	0.0551981	0.744199
0	H	0.144038	0.0253673	0.234701
0	H	0.983676	0.883764	0.997329
0	H	0.0172108	0.165194	0.495052
0	H	0.901392	0.133098	0.711942
0	H	0.0909601	0.941523	0.205412
0	H	0.920767	0.939674	0.96375
0	H	0.0783317	0.117811	0.459663
0	H	0.156854	0.731876	0.65834
0	H	0.832175	0.332101	0.146361
0	H	0.313855	0.192195	0.915073
0	H	0.681951	0.880581	0.407093
0	H	0.279532	0.812129	0.620447
0	H	0.710929	0.248387	0.108155
0	H	0.245073	0.337403	0.881737
0	H	0.754245	0.74696	0.369103
0	H	0.345086	0.857509	0.65533
0	H	0.64341	0.207864	0.143158
0	H	0.215417	0.405718	0.918647
0	H	0.781773	0.667608	0.403846
0	H	0.372658	0.680953	0.67605
0	H	0.617332	0.386183	0.161958
0	H	0.385379	0.417743	0.935513
0	H	0.61053	0.65228	0.418951
0	H	0.486015	0.760716	0.635151
0	H	0.505389	0.309853	0.120523
0	H	0.30629	0.550409	0.899302
0	H	0.69315	0.528466	0.380102
0	H	0.481887	0.625859	0.630349
0	H	0.516097	0.443952	0.114129
0	H	0.430063	0.543396	0.891476
0	H	0.569934	0.537314	0.371422
0	H	0.422284	0.707154	0.601314
0	H	0.5737	0.355748	0.0867488
0	H	0.348194	0.487712	0.862983
0	H	0.653819	0.599873	0.345211
0	H	0.231698	0.586224	0.658634
0	H	0.758216	0.479953	0.147057
0	H	0.464126	0.26872	0.913107
0	H	0.541623	0.812906	0.397632
0	H	0.249522	0.612069	0.616065
0	H	0.753555	0.445637	0.104667
0	H	0.422743	0.288289	0.872306
0	H	0.573194	0.785265	0.356146
0	H	0.328559	0.529122	0.637773
0	H	0.669633	0.532871	0.121472
0	H	0.510044	0.371668	0.889358
0	H	0.485908	0.709788	0.376747
0	H	0.160926	0.795454	0.768987
0	H	0.819366	0.272663	0.256088
0	H	0.294334	0.191809	0.0272877
0	H	0.730763	0.866803	0.517212
0	H	0.038129	0.682249	0.79322
0	H	0.944582	0.377036	0.281342
0	H	0.435127	0.0709193	0.0455059
0	H	0.631451	0.00405041	0.541884
0	H	0.99577	0.721707	0.753709
0	H	0.986231	0.347521	0.240853
0	H	0.350895	0.0165328	0.0175604
0	H	0.668778	0.0473708	0.502225
0	H	0.0416271	0.595665	0.759274
0	H	0.940433	0.471878	0.249679
0	H	0.464421	0.0568954	0.00301393
0	H	0.550142	0.00348852	0.508259
0	H	0.370063	0.581215	0.808376
0	H	0.614247	0.503499	0.292364
0	H	0.525147	0.415417	0.0515566
0	H	0.511642	0.65482	0.555383
0	H	0.538456	0.646647	0.80512
0	H	0.447478	0.43958	0.294815
0	H	0.46451	0.601562	0.0533162
0	H	0.560627	0.471774	0.556547
0	H	0.515095	0.711593	0.766877
0	H	0.463511	0.35921	0.259373
0	H	0.373621	0.571139	0.0240907
0	H	0.623225	0.481692	0.518018
0	H	0.460144	0.753006	0.804179
0	H	0.523084	0.3314	0.297087
0	H	0.372785	0.514044	0.0640286
0	H	0.667272	0.544254	0.553963
0	H	0.511888	0.378298	0.730404
0	H	0.495893	0.673696	0.204059
0	H	0.654584	0.573629	0.961655
0	H	0.338841	0.498494	0.47406
0	H	0.579993	0.268649	0.794986
0	H	0.37459	0.769733	0.260826
0	H	0.771621	0.673902	0.0187807
0	H	0.213168	0.441987	0.534953
0	H	0.612853	0.235791	0.754045
0	H	0.367953	0.810457	0.219162
0	H	0.769594	0.711896	0.976632
0	H	0.215871	0.382854	0.495446
0	H	0.652572	0.443758	0.788928
0	H	0.344419	0.582972	0.239716
0	H	0.591073	0.703957	0.0219339
0	H	0.383505	0.387811	0.545647
0	H	0.750883	0.299496	0.810692
0	H	0.221985	0.692714	0.26832
0	H	0.701515	0.834262	0.0437437
0	H	0.248774	0.279976	0.565717
0	H	0.785188	0.262868	0.770035
0	H	0.184138	0.742835	0.229511
0	H	0.72229	0.885912	0.00359845
0	H	0.243387	0.213389	0.527357
0	H	0.822863	0.381635	0.78653
0	H	0.170315	0.610686	0.238448
0	H	0.609405	0.899033	0.0223415
0	H	0.343877	0.200395	0.553274
0	H	0.631905	0.471422	0.727789
0	H	0.355244	0.561994	0.183619
0	H	0.559212	0.68898	0.959777
0	H	0.437383	0.373726	0.48525
0	H	0.753343	0.482926	0.738375
0	H	0.239645	0.615096	0.180994
0	H	0.509861	0.800762	0.977752
0	H	0.461589	0.261426	0.508366
0	N	0.161001	0.721038	0.721265
0	N	0.821079	0.34982	0.208962
0	N	0.34779	0.193641	0.97729
0	N	0.65906	0.868702	0.469968
0	C	0.150693	0.716196	0.757867
0	C	0.8313	0.352337	0.245589
0	C	0.364608	0.182621	0.0134028
0	C	0.65699	0.880688	0.506595
0	C	0.0512047	0.676563	0.766282
0	C	0.931052	0.389502	0.254634
0	C	0.405901	0.0759754	0.0201623
0	C	0.624829	0.989741	0.514998
0	C	0.226363	0.646217	0.774407
0	C	0.75611	0.423289	0.261818
0	C	0.432391	0.265495	0.0275519
0	C	0.590259	0.802488	0.523853
0	O	0.206307	0.579034	0.794739
0	O	0.776387	0.492942	0.281161
0	O	0.492307	0.245294	0.0489163
0	O	0.531887	0.827522	0.545187
0	N	0.320859	0.667438	0.766993
0	N	0.661391	0.397969	0.255808
0	N	0.419874	0.366186	0.0170416
0	N	0.603565	0.699554	0.516165
0	C	0.398951	0.612052	0.783852
0	C	0.584119	0.461133	0.270005
0	C	0.47983	0.449255	0.0306426
0	C	0.543618	0.620277	0.531982
0	C	0.482338	0.684405	0.790151
0	C	0.500112	0.394716	0.280703
0	C	0.42005	0.538063	0.0436645
0	C	0.60125	0.524727	0.540616
0	C	0.433597	0.52228	0.761787
0	C	0.550226	0.539359	0.24359
0	C	0.543961	0.491272	0.00257197
0	C	0.464675	0.587232	0.507485
0	O	0.442463	0.531033	0.731437
0	O	0.546944	0.519442	0.213692
0	O	0.516386	0.503931	0.973815
0	O	0.480118	0.573021	0.477674
0	N	0.45505	0.42851	0.776738
0	N	0.526657	0.638081	0.254441
0	N	0.638924	0.511646	0.0105511
0	N	0.372572	0.574313	0.519665
0	C	0.443665	0.407686	0.812723
0	C	0.518428	0.665284	0.290142
0	C	0.67558	0.506741	0.0450727
0	C	0.346224	0.58991	0.554992
0	C	0.497464	0.345514	0.756083
0	C	0.489773	0.712179	0.229443
0	C	0.697895	0.567262	0.985672
0	C	0.302292	0.520204	0.498203
0	C	0.591427	0.301906	0.769807
0	C	0.385298	0.743035	0.234849
0	C	0.725349	0.676618	0.996385
0	C	0.261651	0.421828	0.514029
0	C	0.673456	0.380595	0.771253
0	C	0.316844	0.65359	0.226931
0	C	0.637287	0.744614	0.00337843
0	C	0.338751	0.346831	0.526742
0	C	0.762701	0.328211	0.785287
0	C	0.218364	0.676411	0.241563
0	C	0.669318	0.846052	0.0191656
0	C	0.29094	0.255458	0.54413
0	C	0.693741	0.428468	0.737146
0	C	0.3125	0.630783	0.189421
0	C	0.577798	0.762286	0.971945
0	C	0.404011	0.30972	0.498678
0	C	0.425337	0.255975	0.754089
0	C	0.551746	0.809956	0.230744
0	C	0.78777	0.501598	0.979982
0	C	0.220589	0.596837	0.491698
0	O	0.415794	0.193694	0.776975
0	O	0.557501	0.863602	0.255837
0	O	0.85575	0.500694	0.9994
0	O	0.156032	0.609745	0.512116
0	N	0.372245	0.241096	0.725425
0	N	0.597674	0.841575	0.201788
0	N	0.793654	0.442653	0.951279
0	N	0.217647	0.652041	0.462213
0	C	0.313038	0.146854	0.72317
0	C	0.650687	0.940147	0.202834
0	C	0.882252	0.383142	0.945487
0	C	0.135036	0.721437	0.456826
0	C	0.366911	0.317038	0.697822
0	C	0.610629	0.775583	0.172007
0	C	0.715422	0.429184	0.926779
0	C	0.292999	0.651567	0.436161
0	C	0.43812	0.29136	0.669846
0	C	0.549645	0.812594	0.142495
0	C	0.732784	0.496345	0.895836
0	C	0.270173	0.573943	0.408351
0	C	0.456209	0.383309	0.646353
0	C	0.541916	0.728377	0.115494
0	C	0.638116	0.528136	0.879378
0	C	0.358758	0.551678	0.3867
0	C	0.527497	0.459069	0.66144
0	C	0.486958	0.634758	0.12832
0	C	0.592028	0.61739	0.898245
0	C	0.425631	0.475759	0.404012
0	C	0.491319	0.344971	0.61235
0	C	0.494857	0.772741	0.0842335
0	C	0.65619	0.556361	0.842913
0	C	0.327942	0.510981	0.352522
0	C	0.264673	0.314229	0.683267
0	C	0.717176	0.776725	0.162033
0	C	0.711722	0.314786	0.916142
0	C	0.298341	0.760657	0.420735
0	O	0.241634	0.251493	0.661894
0	O	0.748782	0.841199	0.142646
0	O	0.751954	0.28458	0.890867
0	O	0.252736	0.783457	0.395767
0	N	0.199103	0.385625	0.694906
0	N	0.775391	0.699735	0.174787
0	N	0.661696	0.246504	0.936149
0	N	0.356154	0.833449	0.436063
0	C	0.221902	0.458009	0.722171
0	C	0.743185	0.631124	0.20196
0	C	0.609552	0.278981	0.966363
0	C	0.414048	0.810081	0.465884
0	C	0.0987184	0.378388	0.683589
0	C	0.878802	0.704111	0.167251
0	C	0.667965	0.135213	0.928593
0	C	0.350059	0.941635	0.42464
0	C	0.0273733	0.35617	0.712487
0	C	0.940465	0.738529	0.197502
0	C	0.711529	0.0716841	0.957692
0	C	0.318697	0.0172792	0.452647
0	C	0.927369	0.341782	0.698012
0	C	0.0451417	0.741328	0.186969
0	C	0.726117	0.960681	0.94621
0	C	0.314043	0.126777	0.438745
0	C	0.0575912	0.260893	0.732136
0	C	0.908523	0.84477	0.209443
0	C	0.807349	0.117112	0.968426
0	C	0.220988	0.986524	0.466306
0	C	0.0710988	0.481096	0.667021
0	C	0.911245	0.597303	0.155121
0	C	0.566589	0.0975697	0.920287
0	C	0.448246	0.972875	0.410809
0	O	0.0836906	0.56429	0.681187
0	O	0.894342	0.517784	0.170779
0	O	0.497404	0.119242	0.937888
0	O	0.522838	0.959537	0.426532
0	H	0.035564	0.643904	0.635116
0	H	0.95244	0.427654	0.1278
0	H	0.403076	0.061677	0.897442
0	H	0.603662	0.00151285	0.379986
0	H	0.964001	0.53494	0.570309
0	H	0.0368127	0.524523	0.0628088
0	H	0.485866	0.988946	0.829203
0	H	0.50848	0.0856015	0.315014
0	H	0.918161	0.728475	0.586125
0	H	0.0668907	0.329379	0.0797321
0	H	0.306084	0.936928	0.848351
0	H	0.681871	0.143265	0.32718
0	H	0.0866274	0.764545	0.608243
0	H	0.896372	0.307504	0.101255
0	H	0.267547	0.11488	0.868735
0	H	0.729497	0.985401	0.35976
0	H	0.129511	0.757696	0.566877
0	H	0.854358	0.318416	0.0599002
0	H	0.286869	0.165197	0.828331
0	H	0.716497	0.90855	0.323698
0	H	0.120343	0.110747	0.549321
0	H	0.854027	0.968492	0.0362343
0	H	0.971991	0.157979	0.796075
0	H	0.0218374	0.9465	0.283569
0	H	0.00276639	0.0858333	0.562941
0	H	0.958987	0.979075	0.0604011
0	H	0.980608	0.0376285	0.816604
0	H	0.0191954	0.0510073	0.311935
0	H	0.0928304	0.113032	0.592411
0	H	0.848808	0.959748	0.0802771
0	H	0.94744	0.148861	0.839313
0	H	0.053554	0.927016	0.325861
0	H	0.717086	0.61864	0.653887
0	H	0.270548	0.444026	0.149056
0	H	0.382954	0.716716	0.911147
0	H	0.604865	0.346987	0.397369
0	H	0.787608	0.605307	0.712601
0	H	0.199526	0.455353	0.208314
0	H	0.396141	0.795126	0.970514
0	H	0.59029	0.26333	0.457138
0	H	0.799336	0.741351	0.713935
0	H	0.188053	0.319438	0.208708
0	H	0.269585	0.808422	0.970932
0	H	0.716774	0.265578	0.458568
0	N	0.0257473	0.480377	0.636386
0	N	0.966002	0.591127	0.126359
0	N	0.552534	0.0345895	0.892803
0	N	0.453003	0.0211776	0.380022
0	C	0.0172906	0.388298	0.615044
0	C	0.977387	0.678123	0.103009
0	C	0.628765	0.0110051	0.86854
0	C	0.370824	0.0313441	0.35721
0	C	0.99395	0.580038	0.622305
0	C	0.997036	0.488234	0.114651
0	C	0.453244	0.0107865	0.882569
0	C	0.548031	0.0509815	0.367096
0	C	0.00823839	0.591923	0.584121
0	C	0.98685	0.472702	0.0764024
0	C	0.434231	0.0319906	0.845039
0	C	0.5609	0.0375945	0.32892
0	O	0.106466	0.566657	0.578539
0	O	0.891136	0.504704	0.0691241
0	O	0.455334	0.139464	0.842113
0	O	0.538649	0.931651	0.322893
0	C	0.984059	0.703038	0.572732
0	C	0.00356388	0.359414	0.0658739
0	C	0.330888	0.00588935	0.834117
0	C	0.663754	0.0645424	0.317668
0	C	0.962628	0.704986	0.535403
0	C	0.0256567	0.354799	0.0285859
0	C	0.329679	0.978161	0.797074
0	C	0.667724	0.0677532	0.279641
0	C	0.0654794	0.777265	0.581791
0	C	0.916525	0.292845	0.0747881
0	C	0.262581	0.0953486	0.841783
0	C	0.73582	0.987148	0.332045
0	C	0.0386231	0.887911	0.577576
0	C	0.934766	0.180168	0.0706694
0	C	0.161021	0.0709807	0.833494
0	C	0.836607	0.0132671	0.323299
0	C	0.102718	0.961611	0.571611
0	C	0.867209	0.113177	0.061778
0	C	0.0961572	0.143452	0.82701
0	C	0.903161	0.942281	0.317245
0	C	0.0782083	0.0727583	0.568752
0	C	0.88341	0.000150972	0.0593785
0	C	0.994417	0.120601	0.819307
0	C	0.00416989	0.968033	0.309283
0	C	0.886381	0.588702	0.630194
0	C	0.103402	0.477484	0.124137
0	C	0.435452	0.896394	0.890409
0	C	0.561949	0.16584	0.375624
0	O	0.825	0.536486	0.616582
0	O	0.166933	0.527335	0.11075
0	O	0.481621	0.825693	0.878241
0	O	0.51611	0.234882	0.36233
0	N	0.863839	0.661053	0.65429
0	N	0.122805	0.407	0.149173
0	N	0.360787	0.87885	0.912273
0	N	0.631816	0.185673	0.399074
0	C	0.764617	0.67996	0.664846
0	C	0.221204	0.384078	0.15982
0	C	0.330953	0.77416	0.921868
0	C	0.656949	0.291491	0.409089
0	C	0.756297	0.677994	0.703102
0	C	0.230489	0.383632	0.198092
0	C	0.329058	0.762404	0.96001
0	C	0.65377	0.303794	0.447259
0	C	0.65311	0.687704	0.714387
0	C	0.33444	0.373253	0.208507
0	C	0.319339	0.650297	0.970161
0	C	0.651204	0.416586	0.457255
0	C	0.735692	0.787285	0.65168
0	C	0.248391	0.276027	0.146824
0	C	0.230133	0.756159	0.90741
0	C	0.759099	0.313084	0.396296
0	O	0.753495	0.866412	0.667211
0	O	0.226647	0.197168	0.161859
0	O	0.157357	0.777166	0.922922
0	O	0.830001	0.296611	0.413373
0	N	0.680676	0.791375	0.622761
0	N	0.308592	0.270981	0.119145
0	N	0.224287	0.705882	0.876705
0	N	0.76781	0.360843	0.365321
0	C	0.682876	0.709768	0.597107
0	C	0.30589	0.349027	0.092377
0	C	0.299499	0.714378	0.851067
0	C	0.694642	0.350864	0.339019
0	C	0.646796	0.892264	0.610519
0	C	0.346153	0.169613	0.108793
0	C	0.13016	0.67467	0.86359
0	C	0.862059	0.396535	0.353557
0	C	0.729889	0.956192	0.597262
0	C	0.266842	0.103828	0.0938288
0	C	0.0736745	0.768048	0.851761
0	C	0.925962	0.305966	0.344189
0	O	0.776116	0.929129	0.572824
0	O	0.223762	0.130656	0.0686747
0	O	0.100541	0.820668	0.82817
0	O	0.908496	0.252118	0.319797
0	N	0.751789	0.0488334	0.613023
0	N	0.244292	0.010063	0.108825
0	N	0.987545	0.79151	0.867455
0	N	0.00747687	0.286359	0.363012
0	C	0.701402	0.0846597	0.643298
0	C	0.287126	0.976364	0.140722
0	C	0.954593	0.737398	0.897834
0	C	0.032781	0.346302	0.393101
0	C	0.841682	0.101905	0.604053
0	C	0.155463	0.957349	0.0982183
0	C	0.942704	0.892107	0.860058
0	C	0.0585946	0.188263	0.357512
0	C	0.825263	0.215021	0.59502
0	C	0.1719	0.842145	0.0926004
0	C	0.836227	0.881779	0.851968
0	C	0.165225	0.20331	0.350616
0	C	0.766937	0.229275	0.562815
0	C	0.232156	0.817498	0.0615004
0	C	0.815808	0.816322	0.820734
0	C	0.186591	0.267864	0.319259
0	C	0.75505	0.344424	0.556045
0	C	0.248188	0.701164	0.0597915
0	C	0.707862	0.804392	0.816187
0	C	0.294539	0.271001	0.31342
0	C	0.813857	0.176841	0.532882
0	C	0.184053	0.855605	0.0296361
0	C	0.859627	0.863628	0.789365
0	C	0.136072	0.226105	0.288269
0	C	0.916829	0.0941412	0.632105
0	C	0.0731003	0.972321	0.123458
0	C	0.956367	0.969198	0.889043
0	C	0.045432	0.112979	0.386971
0	O	0.973068	0.16426	0.637796
0	O	0.012103	0.905967	0.127608
0	O	0.893574	0.0301539	0.896848
0	O	0.110668	0.0578097	0.396652
0	N	0.923014	0.0013674	0.648956
0	N	0.0668638	0.0664126	0.139563
0	N	0.0451344	0.971051	0.904301
0	N	0.954086	0.103969	0.399987
0	C	0.994821	0.987933	0.675375
0	C	0.99701	0.0817592	0.166602
0	C	0.0628588	0.0411759	0.932482
0	C	0.934996	0.0273083	0.426212
0	C	0.950491	0.973331	0.710698
0	C	0.046102	0.102335	0.200891
0	C	0.0708482	0.984818	0.966661
0	C	0.92795	0.073692	0.461969
0	C	0.0302694	0.975544	0.736646
0	C	0.970028	0.109669	0.228025
0	C	0.0723952	0.064596	0.994643
0	C	0.928077	0.985981	0.487376
0	C	0.875605	0.0556892	0.717853
0	C	0.119486	0.0191306	0.208859
0	C	0.989759	0.907723	0.971233
0	C	0.00982814	0.14857	0.468417
0	C	0.051066	0.889367	0.667247
0	C	0.93855	0.178294	0.157951
0	C	0.159507	0.0937095	0.92612
0	C	0.838323	0.977178	0.418033
0	O	0.0116556	0.80502	0.665487
0	O	0.975223	0.26443	0.157688
0	O	0.23343	0.0438431	0.922781
0	O	0.765645	0.0285875	0.414076
0	N	0.14949	0.894676	0.663999
0	N	0.840846	0.170208	0.153355
0	N	0.164912	0.200375	0.924926
0	N	0.832009	0.870696	0.416017
0	C	0.202753	0.992263	0.660892
0	C	0.792077	0.072984	0.145114
0	C	0.0824006	0.268061	0.931615
0	C	0.914982	0.801487	0.419999
0	C	0.204412	0.797151	0.667162
0	C	0.784355	0.267102	0.155202
0	C	0.261465	0.247969	0.926666
0	C	0.735556	0.822277	0.416549
0	C	0.296569	0.795511	0.646879
0	C	0.693379	0.267954	0.134326
0	C	0.266974	0.350143	0.90796
0	C	0.730791	0.726263	0.394641
0	C	0.349835	0.691787	0.649501
0	C	0.642597	0.373392	0.135743
0	C	0.367165	0.399382	0.908952
0	C	0.6309	0.676627	0.393126
0	C	0.439664	0.696874	0.627816
0	C	0.55502	0.370624	0.113018
0	C	0.362699	0.500644	0.889529
0	C	0.637388	0.580471	0.371147
0	C	0.286926	0.600704	0.639779
0	C	0.709047	0.462063	0.126505
0	C	0.444439	0.328696	0.895098
0	C	0.554469	0.749753	0.3801
0	C	0.224101	0.785816	0.70499
0	C	0.761927	0.280516	0.192741
0	C	0.283051	0.262591	0.964146
0	C	0.716997	0.798316	0.453786
0	O	0.287004	0.831988	0.720035
0	O	0.700069	0.2328	0.207754
0	O	0.243852	0.327833	0.981542
0	O	0.754314	0.726582	0.468766
