#******************************************
#
# CIF file created by Zeo++
# Zeo++ is an open source package to
# analyze microporous materials
#
#*******************************************

_cell_length_a		25.2709(0)
_cell_length_b		25.2827(0)
_cell_length_c		25.2716(0)
_cell_angle_alpha		90(0)
_cell_angle_beta		90(0)
_cell_angle_gamma		90(0)

_symmetry_space_group_name_H-M		'P1'
_symmetry_Int_Tables_number		1
_symmetry_cell_setting		Monoclinic

loop_
_symmetry_equiv_pos_as_xyz
'+x,+y,+z'

loop_
_atom_site_label
_atom_site_type_symbol
_atom_site_fract_x
_atom_site_fract_y
_atom_site_fract_z
0	N	0.79427	0.211776	0.0313134
0	N	0.211095	0.289679	0.533077
0	N	0.712125	0.714187	0.974096
0	N	0.294076	0.794617	0.473348
0	N	0.0310609	0.794326	0.21092
0	N	0.531926	0.210317	0.292981
0	N	0.975009	0.71181	0.712816
0	N	0.473434	0.293311	0.794498
0	N	0.211073	0.0309088	0.794728
0	N	0.292648	0.532189	0.210431
0	N	0.712907	0.97409	0.712067
0	N	0.79446	0.473024	0.293847
0	N	0.962116	0.0441651	0.725204
0	N	0.0431322	0.460317	0.222924
0	N	0.46157	0.961592	0.782966
0	N	0.543572	0.544387	0.281607
0	N	0.54463	0.281528	0.543543
0	N	0.961871	0.782691	0.461515
0	N	0.460533	0.222718	0.0431315
0	N	0.0443607	0.724967	0.962014
0	N	0.782944	0.461248	0.96185
0	N	0.281633	0.543366	0.544634
0	N	0.725211	0.96174	0.0443096
0	N	0.222796	0.0429715	0.460599
0	N	0.795553	0.712863	0.532615
0	N	0.21055	0.794155	0.0310243
0	N	0.711746	0.2112	0.472932
0	N	0.293836	0.292413	0.974509
0	N	0.0310551	0.293061	0.712701
0	N	0.532361	0.711833	0.794218
0	N	0.974284	0.210549	0.21087
0	N	0.473235	0.795252	0.29269
0	N	0.211225	0.53222	0.293945
0	N	0.293244	0.0304514	0.712078
0	N	0.712808	0.472991	0.210466
0	N	0.794969	0.974459	0.794938
0	N	0.962484	0.544722	0.222919
0	N	0.0435269	0.960869	0.725213
0	N	0.462126	0.460908	0.281784
0	N	0.544184	0.0436467	0.782798
0	N	0.545076	0.782274	0.0432351
0	N	0.961288	0.280217	0.962104
0	N	0.460993	0.723502	0.543522
0	N	0.0437446	0.222568	0.461381
0	N	0.782868	0.962366	0.460684
0	N	0.280276	0.0434142	0.044407
0	N	0.723877	0.461861	0.544555
0	N	0.222745	0.543948	0.961732
0	N	0.294878	0.208802	0.531758
0	N	0.711085	0.293398	0.0308347
0	N	0.210541	0.713122	0.472941
0	N	0.795713	0.795477	0.974932
0	N	0.532323	0.795265	0.712756
0	N	0.0309463	0.210088	0.794606
0	N	0.47298	0.71162	0.2113
0	N	0.974577	0.293684	0.29273
0	N	0.7124	0.0313368	0.293522
0	N	0.794606	0.532671	0.712111
0	N	0.210845	0.973921	0.210553
0	N	0.292778	0.472448	0.795065
0	N	0.461508	0.0435541	0.22267
0	N	0.543522	0.460752	0.723857
0	N	0.962235	0.961029	0.280442
0	N	0.0432055	0.544826	0.782539
0	N	0.044464	0.280062	0.0436064
0	N	0.460668	0.782517	0.962616
0	N	0.961734	0.222518	0.544106
0	N	0.544548	0.723517	0.462055
0	N	0.281792	0.461999	0.461073
0	N	0.782749	0.543929	0.0438521
0	N	0.2228	0.962258	0.544881
0	N	0.725216	0.0432744	0.961172
0	N	0.293664	0.712347	0.0310852
0	N	0.711938	0.794187	0.532662
0	N	0.21059	0.210662	0.974318
0	N	0.795402	0.292541	0.473128
0	N	0.532153	0.293776	0.211478
0	N	0.0310374	0.711334	0.292851
0	N	0.473456	0.209694	0.713088
0	N	0.97496	0.795091	0.794601
0	N	0.713115	0.532816	0.795609
0	N	0.794209	0.0314098	0.210437
0	N	0.211522	0.471884	0.711277
0	N	0.292724	0.974178	0.293634
0	N	0.462056	0.544274	0.723865
0	N	0.544125	0.961461	0.222681
0	N	0.962616	0.46044	0.782733
0	N	0.043616	0.0442896	0.280233
0	N	0.0438557	0.782503	0.544201
0	N	0.461078	0.281726	0.46215
0	N	0.961127	0.724935	0.0435156
0	N	0.544979	0.22267	0.962498
0	N	0.28046	0.961909	0.961318
0	N	0.782666	0.0429854	0.545023
0	N	0.222735	0.461204	0.0437379
0	N	0.723859	0.543239	0.460939
0	C	0.860204	0.199376	0.122804
0	C	0.145306	0.30304	0.624657
0	C	0.646537	0.701305	0.882211
0	C	0.359251	0.806094	0.380845
0	C	0.122829	0.859954	0.199112
0	C	0.624257	0.145289	0.304527
0	C	0.88277	0.646595	0.700924
0	C	0.381041	0.358601	0.806089
0	C	0.199223	0.122601	0.860292
0	C	0.304565	0.624282	0.145197
0	C	0.700961	0.882033	0.646848
0	C	0.806165	0.38066	0.359135
0	C	0.951343	0.10856	0.632189
0	C	0.0541818	0.395142	0.130277
0	C	0.449846	0.897008	0.875318
0	C	0.555608	0.609683	0.373737
0	C	0.609977	0.373599	0.555603
0	C	0.897291	0.874981	0.449775
0	C	0.395347	0.130113	0.0541936
0	C	0.108733	0.631952	0.951274
0	C	0.875326	0.449573	0.897267
0	C	0.373771	0.555341	0.60996
0	C	0.632198	0.95098	0.108692
0	C	0.130241	0.0540832	0.395373
0	C	0.860948	0.700813	0.624669
0	C	0.145088	0.805903	0.122866
0	C	0.646101	0.199398	0.380869
0	C	0.35914	0.304262	0.882256
0	C	0.123379	0.357919	0.700395
0	C	0.624728	0.64665	0.806246
0	C	0.882299	0.145295	0.199091
0	C	0.380813	0.860206	0.304423
0	C	0.19942	0.624515	0.359302
0	C	0.305366	0.122191	0.6468
0	C	0.700555	0.381046	0.145204
0	C	0.806742	0.882713	0.860354
0	C	0.951301	0.609989	0.130339
0	C	0.0541676	0.896582	0.632134
0	C	0.449932	0.395486	0.373733
0	C	0.555718	0.108091	0.875332
0	C	0.610264	0.874876	0.0542629
0	C	0.896863	0.373089	0.951251
0	C	0.395677	0.631419	0.555538
0	C	0.108278	0.130166	0.449764
0	C	0.875209	0.950972	0.395314
0	C	0.373365	0.0540853	0.108698
0	C	0.631792	0.449752	0.609963
0	C	0.130143	0.555407	0.897318
0	C	0.35979	0.198185	0.624598
0	C	0.64618	0.30493	0.123356
0	C	0.145175	0.700819	0.380923
0	C	0.860903	0.806542	0.882584
0	C	0.624631	0.860273	0.701027
0	C	0.122998	0.144825	0.806147
0	C	0.380813	0.646119	0.199469
0	C	0.882279	0.358828	0.304675
0	C	0.700438	0.123295	0.358808
0	C	0.80657	0.624711	0.646606
0	C	0.199152	0.882143	0.145077
0	C	0.304737	0.380333	0.860327
0	C	0.449862	0.108097	0.130203
0	C	0.555534	0.395478	0.631703
0	C	0.951306	0.896557	0.373288
0	C	0.0542536	0.610004	0.875177
0	C	0.108731	0.373146	0.0542505
0	C	0.395289	0.874864	0.951252
0	C	0.89734	0.130012	0.555656
0	C	0.60997	0.631484	0.449923
0	C	0.373735	0.449784	0.395608
0	C	0.87534	0.555444	0.108285
0	C	0.130321	0.950977	0.610213
0	C	0.632134	0.0539873	0.896896
0	C	0.358944	0.70035	0.123214
0	C	0.646472	0.806044	0.624773
0	C	0.145073	0.198782	0.882522
0	C	0.860455	0.304402	0.380779
0	C	0.62434	0.359256	0.199547
0	C	0.123287	0.646338	0.304879
0	C	0.381305	0.144449	0.701313
0	C	0.882882	0.860421	0.806116
0	C	0.700949	0.625127	0.860669
0	C	0.80591	0.123323	0.145074
0	C	0.19976	0.379237	0.646112
0	C	0.30471	0.882078	0.358872
0	C	0.449963	0.609664	0.631797
0	C	0.555619	0.897045	0.130123
0	C	0.951291	0.395074	0.875128
0	C	0.0542158	0.108585	0.373311
0	C	0.108305	0.874977	0.555743
0	C	0.395604	0.373617	0.449922
0	C	0.896875	0.631827	0.054168
0	C	0.610296	0.130155	0.951275
0	C	0.373321	0.950971	0.896851
0	C	0.875262	0.0540926	0.610213
0	C	0.130214	0.449616	0.108273
0	C	0.631706	0.555258	0.395628
0	C	0.816636	0.166737	0.112116
0	C	0.188897	0.335506	0.613585
0	C	0.690069	0.668779	0.893293
0	C	0.315676	0.838634	0.391718
0	C	0.112147	0.816506	0.166337
0	C	0.61334	0.188697	0.337276
0	C	0.89372	0.690039	0.668244
0	C	0.391934	0.315107	0.838716
0	C	0.166491	0.111945	0.81678
0	C	0.337218	0.613392	0.188705
0	C	0.668278	0.892941	0.690318
0	C	0.838735	0.391578	0.315587
0	C	0.918678	0.0650897	0.643114
0	C	0.0866588	0.438788	0.141025
0	C	0.417054	0.940346	0.864273
0	C	0.588163	0.56613	0.362856
0	C	0.566405	0.362721	0.58816
0	C	0.940655	0.863959	0.416989
0	C	0.439018	0.140851	0.0866628
0	C	0.0652589	0.64289	0.918596
0	C	0.864284	0.416801	0.940623
0	C	0.362898	0.587898	0.566398
0	C	0.643151	0.918287	0.0652452
0	C	0.14101	0.0866086	0.438983
0	C	0.817419	0.668204	0.613783
0	C	0.18855	0.838676	0.11216
0	C	0.689628	0.166765	0.391668
0	C	0.315576	0.336818	0.893133
0	C	0.112429	0.314241	0.668041
0	C	0.613782	0.690264	0.838694
0	C	0.89311	0.188687	0.166285
0	C	0.391879	0.816831	0.337155
0	C	0.166813	0.613569	0.315788
0	C	0.337826	0.111597	0.690513
0	C	0.667934	0.39197	0.188724
0	C	0.839398	0.893304	0.816776
0	C	0.91884	0.566337	0.141092
0	C	0.0868493	0.940043	0.643057
0	C	0.417294	0.438978	0.362841
0	C	0.588424	0.0646871	0.864311
0	C	0.566528	0.86421	0.0866628
0	C	0.940332	0.362183	0.918548
0	C	0.439176	0.642349	0.588178
0	C	0.0649075	0.141196	0.416997
0	C	0.864481	0.918466	0.438949
0	C	0.362449	0.0867173	0.0651952
0	C	0.642732	0.417144	0.566458
0	C	0.14124	0.588178	0.940661
0	C	0.316305	0.165503	0.613792
0	C	0.689692	0.337535	0.112416
0	C	0.188642	0.668166	0.391946
0	C	0.817453	0.839313	0.893323
0	C	0.61367	0.816861	0.668306
0	C	0.112223	0.188209	0.838979
0	C	0.39171	0.689574	0.166789
0	C	0.893197	0.31527	0.337206
0	C	0.667804	0.112498	0.315275
0	C	0.839181	0.613864	0.690146
0	C	0.166333	0.892833	0.188516
0	C	0.337398	0.391273	0.816841
0	C	0.417092	0.0647555	0.141278
0	C	0.588165	0.438959	0.642651
0	C	0.918617	0.940022	0.362397
0	C	0.0866648	0.5663	0.864488
0	C	0.0652036	0.362247	0.0868731
0	C	0.438981	0.864178	0.918792
0	C	0.940695	0.141088	0.588432
0	C	0.566462	0.642422	0.417303
0	C	0.362834	0.417157	0.439115
0	C	0.864299	0.588124	0.0648635
0	C	0.141094	0.918478	0.566589
0	C	0.643112	0.0866799	0.940339
0	C	0.31541	0.667755	0.11234
0	C	0.690086	0.838572	0.614001
0	C	0.188545	0.166026	0.893246
0	C	0.816979	0.337035	0.3918
0	C	0.613427	0.315757	0.16693
0	C	0.112387	0.689913	0.3374
0	C	0.392351	0.187701	0.668398
0	C	0.893687	0.817059	0.838967
0	C	0.668345	0.614004	0.817189
0	C	0.838698	0.112545	0.188513
0	C	0.167074	0.390473	0.689493
0	C	0.337219	0.892909	0.315258
0	C	0.417334	0.566178	0.642721
0	C	0.588412	0.940371	0.141208
0	C	0.91881	0.438731	0.864431
0	C	0.0868429	0.065069	0.362451
0	C	0.0648822	0.863978	0.588453
0	C	0.439116	0.362724	0.417284
0	C	0.94034	0.642798	0.0868525
0	C	0.56662	0.140897	0.91882
0	C	0.362388	0.918268	0.9403
0	C	0.86454	0.0865282	0.56653
0	C	0.141299	0.416862	0.0649191
0	C	0.642657	0.587875	0.439127
0	C	0.781118	0.177083	0.0664873
0	C	0.224191	0.324804	0.567864
0	C	0.725388	0.679438	0.939002
0	C	0.280159	0.828083	0.437286
0	C	0.066584	0.780916	0.176675
0	C	0.567719	0.224176	0.326767
0	C	0.939346	0.725487	0.678813
0	C	0.437509	0.279591	0.828205
0	C	0.176869	0.0664053	0.78119
0	C	0.326658	0.567798	0.224187
0	C	0.678875	0.938502	0.725816
0	C	0.828161	0.437126	0.280073
0	C	0.929065	0.0298268	0.688909
0	C	0.0761408	0.474412	0.186504
0	C	0.427718	0.975691	0.818602
0	C	0.577545	0.530661	0.317279
0	C	0.530921	0.317163	0.577547
0	C	0.975987	0.818286	0.42764
0	C	0.474638	0.186323	0.076148
0	C	0.0299907	0.688674	0.928991
0	C	0.81862	0.427469	0.975991
0	C	0.31732	0.577312	0.530909
0	C	0.688962	0.92865	0.0299813
0	C	0.1865	0.0761357	0.474611
0	C	0.781956	0.678704	0.568145
0	C	0.224113	0.8283	0.0665753
0	C	0.725191	0.177151	0.43724
0	C	0.280053	0.326197	0.938693
0	C	0.0666425	0.279058	0.678746
0	C	0.568126	0.725633	0.828066
0	C	0.938803	0.224107	0.176636
0	C	0.437488	0.781383	0.326523
0	C	0.177286	0.567956	0.280335
0	C	0.327034	0.0661607	0.726109
0	C	0.678579	0.437573	0.224165
0	C	0.828825	0.93874	0.781111
0	C	0.929319	0.53074	0.186595
0	C	0.0764164	0.97533	0.688822
0	C	0.427814	0.474414	0.317213
0	C	0.577669	0.0293089	0.818693
0	C	0.530908	0.818742	0.0761455
0	C	0.975582	0.316379	0.9289
0	C	0.474672	0.687904	0.577574
0	C	0.0295437	0.186832	0.427692
0	C	0.818934	0.92887	0.474514
0	C	0.316653	0.0763085	0.0299276
0	C	0.688335	0.427702	0.530989
0	C	0.186856	0.577415	0.976068
0	C	0.280797	0.175789	0.568171
0	C	0.725116	0.326947	0.066779
0	C	0.224071	0.678753	0.437593
0	C	0.781869	0.82899	0.938891
0	C	0.567964	0.781496	0.678769
0	C	0.0666239	0.223736	0.828601
0	C	0.437301	0.725086	0.177233
0	C	0.938756	0.279792	0.326481
0	C	0.678403	0.0669561	0.279756
0	C	0.828605	0.568354	0.72571
0	C	0.176675	0.938393	0.224095
0	C	0.326743	0.436798	0.781302
0	C	0.427791	0.0293953	0.186931
0	C	0.577553	0.474436	0.688226
0	C	0.928953	0.975257	0.316571
0	C	0.0761534	0.530689	0.819
0	C	0.0299312	0.316479	0.0764264
0	C	0.474555	0.818661	0.929221
0	C	0.97605	0.186726	0.577687
0	C	0.530988	0.688	0.427871
0	C	0.317202	0.427671	0.474562
0	C	0.818686	0.57734	0.0294674
0	C	0.186607	0.928926	0.530989
0	C	0.688904	0.0762473	0.975611
0	C	0.279978	0.6783	0.0666904
0	C	0.725614	0.828064	0.568432
0	C	0.224058	0.176368	0.938878
0	C	0.781524	0.326389	0.437412
0	C	0.567843	0.28026	0.177438
0	C	0.0667395	0.725286	0.326704
0	C	0.437908	0.223249	0.678922
0	C	0.939217	0.781455	0.828531
0	C	0.678951	0.568291	0.78188
0	C	0.828265	0.0670077	0.22409
0	C	0.177527	0.436182	0.724835
0	C	0.326455	0.938376	0.279692
0	C	0.427891	0.530711	0.688316
0	C	0.577674	0.975752	0.186837
0	C	0.929228	0.47431	0.818904
0	C	0.0764222	0.0297831	0.316685
0	C	0.0295083	0.818367	0.577704
0	C	0.474558	0.317105	0.427789
0	C	0.975615	0.688567	0.0764052
0	C	0.531025	0.186396	0.929284
0	C	0.316543	0.928588	0.975532
0	C	0.81904	0.0760348	0.530925
0	C	0.186937	0.427584	0.0295278
0	C	0.688236	0.57727	0.474617
0	C	0.759439	0.222201	0.98532
0	C	0.245624	0.279599	0.486755
0	C	0.746958	0.724457	0.0201604
0	C	0.258828	0.784016	0.519007
0	C	0.985231	0.759362	0.221563
0	C	0.486049	0.245182	0.282178
0	C	0.0207979	0.74683	0.723541
0	C	0.519194	0.258157	0.784059
0	C	0.221667	0.984987	0.759901
0	C	0.281938	0.486268	0.245262
0	C	0.723578	0.0199721	0.74695
0	C	0.783971	0.518735	0.258657
0	C	0.972636	0.00932111	0.771181
0	C	0.0328624	0.495386	0.268787
0	C	0.472549	0.996226	0.736969
0	C	0.532952	0.509369	0.235797
0	C	0.509594	0.235737	0.532938
0	C	0.996494	0.736701	0.472521
0	C	0.495622	0.268555	0.0328529
0	C	0.00949799	0.770909	0.97258
0	C	0.736956	0.472248	0.996501
0	C	0.235819	0.532782	0.5096
0	C	0.771172	0.972306	0.00945566
0	C	0.268662	0.032678	0.495669
0	C	0.760614	0.723464	0.486724
0	C	0.245474	0.783425	0.985171
0	C	0.74691	0.221482	0.518729
0	C	0.258714	0.281684	0.0202389
0	C	0.985116	0.258266	0.723518
0	C	0.48651	0.746855	0.783718
0	C	0.0202373	0.245368	0.221509
0	C	0.519078	0.760311	0.281922
0	C	0.221598	0.48647	0.258769
0	C	0.282137	0.984692	0.746966
0	C	0.723606	0.518923	0.24526
0	C	0.784029	0.0202049	0.759985
0	C	0.972697	0.509607	0.26876
0	C	0.0329467	0.995662	0.771212
0	C	0.472628	0.495821	0.235868
0	C	0.533073	0.00893749	0.73689
0	C	0.509927	0.736491	0.032923
0	C	0.996056	0.234197	0.972629
0	C	0.495969	0.769342	0.532929
0	C	0.00900658	0.268456	0.472455
0	C	0.736948	0.97253	0.495714
0	C	0.234337	0.0327545	0.009556
0	C	0.769708	0.472384	0.509515
0	C	0.268663	0.532809	0.996432
0	C	0.259474	0.219382	0.486217
0	C	0.74612	0.282558	0.985068
0	C	0.245328	0.723704	0.518954
0	C	0.760539	0.784746	0.0206042
0	C	0.486403	0.760387	0.723385
0	C	0.985108	0.245041	0.783927
0	C	0.518799	0.746746	0.221599
0	C	0.0203033	0.258604	0.281915
0	C	0.723144	0.985537	0.258554
0	C	0.784086	0.486921	0.747236
0	C	0.221456	0.019814	0.24543
0	C	0.281952	0.518226	0.760075
0	C	0.472526	0.00883698	0.268597
0	C	0.532929	0.495722	0.769711
0	C	0.9727	0.995774	0.23438
0	C	0.0329155	0.509712	0.736716
0	C	0.00961769	0.234127	0.0329596
0	C	0.495696	0.736608	0.972761
0	C	0.99638	0.268467	0.532992
0	C	0.509503	0.76932	0.472601
0	C	0.235874	0.472497	0.496002
0	C	0.736855	0.53276	0.00912643
0	C	0.268642	0.972515	0.509765
0	C	0.771207	0.0326272	0.995965
0	C	0.258666	0.723036	0.985257
0	C	0.747019	0.783753	0.486843
0	C	0.245472	0.221307	0.0202292
0	C	0.760493	0.281774	0.519003
0	C	0.486362	0.258629	0.221825
0	C	0.98518	0.746219	0.281991
0	C	0.519331	0.244634	0.723725
0	C	0.0207666	0.760084	0.783944
0	C	0.723749	0.486879	0.760759
0	C	0.783551	0.985547	0.245335
0	C	0.221656	0.517753	0.746391
0	C	0.281876	0.0199025	0.258596
0	C	0.4726	0.50925	0.76969
0	C	0.533048	0.99613	0.268627
0	C	0.972759	0.495464	0.736813
0	C	0.0330079	0.00943794	0.234287
0	C	0.0091389	0.736616	0.533056
0	C	0.495995	0.235815	0.472626
0	C	0.99592	0.770921	0.0329052
0	C	0.509854	0.268501	0.972689
0	C	0.234419	0.97243	0.996079
0	C	0.736843	0.0326668	0.509907
0	C	0.268631	0.472281	0.00898406
0	C	0.769724	0.532672	0.495919
0	C	0.790931	0.207426	0.935041
0	C	0.21361	0.294203	0.436766
0	C	0.715431	0.709694	0.0704111
0	C	0.289889	0.798583	0.569596
0	C	0.934813	0.790632	0.206823
0	C	0.435665	0.213632	0.296391
0	C	0.0712731	0.715622	0.7089
0	C	0.569684	0.2893	0.798783
0	C	0.206659	0.934715	0.791245
0	C	0.296209	0.435957	0.213643
0	C	0.708678	0.0702966	0.715652
0	C	0.798784	0.569228	0.289729
0	C	0.958302	0.0408066	0.821576
0	C	0.0469475	0.46379	0.319182
0	C	0.457733	0.964815	0.686677
0	C	0.547359	0.540696	0.185331
0	C	0.540949	0.185292	0.547314
0	C	0.965102	0.686428	0.457644
0	C	0.464023	0.318936	0.0469149
0	C	0.0409394	0.821297	0.958178
0	C	0.686659	0.457359	0.965121
0	C	0.185361	0.547166	0.540965
0	C	0.821568	0.95789	0.0409013
0	C	0.319055	0.0468897	0.464116
0	C	0.792108	0.709167	0.436321
0	C	0.214101	0.798022	0.934771
0	C	0.715699	0.206679	0.569158
0	C	0.289801	0.296309	0.0708006
0	C	0.93471	0.289611	0.708938
0	C	0.43607	0.715591	0.798341
0	C	0.0705509	0.213896	0.206843
0	C	0.569519	0.791782	0.296118
0	C	0.206804	0.43599	0.289861
0	C	0.296606	0.934232	0.715692
0	C	0.709283	0.569216	0.213632
0	C	0.798567	0.0706426	0.791282
0	C	0.958538	0.541118	0.319188
0	C	0.0472159	0.964082	0.821565
0	C	0.458114	0.464358	0.185517
0	C	0.547754	0.0402292	0.686478
0	C	0.541421	0.686036	0.0469459
0	C	0.964506	0.183892	0.958193
0	C	0.464523	0.819709	0.547385
0	C	0.0402583	0.318827	0.457605
0	C	0.686623	0.958286	0.464076
0	C	0.183902	0.0470502	0.0409874
0	C	0.820145	0.457921	0.54088
0	C	0.319021	0.547632	0.965119
0	C	0.29043	0.205353	0.435416
0	C	0.714946	0.296919	0.934483
0	C	0.213655	0.709243	0.569202
0	C	0.791759	0.798898	0.0712304
0	C	0.436022	0.791881	0.709036
0	C	0.934682	0.213735	0.79855
0	C	0.569218	0.71554	0.206768
0	C	0.0708637	0.289692	0.296524
0	C	0.708525	0.935106	0.289809
0	C	0.798687	0.436468	0.716001
0	C	0.206706	0.0701024	0.21399
0	C	0.295935	0.568678	0.791601
0	C	0.457736	0.0401391	0.318966
0	C	0.54739	0.464305	0.820108
0	C	0.958329	0.964174	0.18407
0	C	0.0469351	0.541219	0.68625
0	C	0.041061	0.183717	0.047265
0	C	0.464056	0.686292	0.958553
0	C	0.964997	0.318776	0.547773
0	C	0.540834	0.819741	0.458083
0	C	0.185514	0.458063	0.464504
0	C	0.686404	0.547434	0.0403773
0	C	0.319077	0.958269	0.541236
0	C	0.821571	0.0469296	0.96442
0	C	0.289843	0.708322	0.934778
0	C	0.715714	0.798378	0.436422
0	C	0.21402	0.20665	0.0705641
0	C	0.792042	0.295937	0.56941
0	C	0.435893	0.289705	0.206907
0	C	0.934732	0.714957	0.296607
0	C	0.569712	0.213145	0.709363
0	C	0.0711948	0.791365	0.798629
0	C	0.709348	0.436546	0.792282
0	C	0.798205	0.935219	0.213922
0	C	0.206734	0.568102	0.715145
0	C	0.296469	0.0703915	0.289771
0	C	0.458085	0.540577	0.820128
0	C	0.54778	0.964741	0.318959
0	C	0.958565	0.463842	0.686466
0	C	0.0472294	0.0409071	0.183854
0	C	0.0403913	0.686207	0.547789
0	C	0.464488	0.185495	0.458143
0	C	0.964369	0.821258	0.0472461
0	C	0.541382	0.318897	0.958512
0	C	0.1841	0.957987	0.964532
0	C	0.686371	0.0467075	0.541406
0	C	0.319025	0.457392	0.0402071
0	C	0.820115	0.547077	0.464454
0	C	0.760143	0.222498	0.885036
0	C	0.244276	0.279603	0.386548
0	C	0.746398	0.724424	0.120415
0	C	0.258502	0.7835	0.619218
0	C	0.884954	0.759726	0.222118
0	C	0.385822	0.244452	0.280899
0	C	0.121065	0.746632	0.72422
0	C	0.61942	0.25805	0.783799
0	C	0.221848	0.884793	0.760416
0	C	0.280787	0.38608	0.244427
0	C	0.723857	0.120144	0.746617
0	C	0.783841	0.618904	0.25839
0	C	0.973237	0.0096707	0.871401
0	C	0.0321432	0.49497	0.369011
0	C	0.473131	0.995575	0.636765
0	C	0.53225	0.509532	0.135584
0	C	0.50976	0.135569	0.532227
0	C	0.995835	0.636525	0.473101
0	C	0.49523	0.36873	0.0321011
0	C	0.00980151	0.871086	0.973181
0	C	0.636718	0.472774	0.995836
0	C	0.135595	0.532114	0.509793
0	C	0.871395	0.972874	0.00978774
0	C	0.368881	0.0319895	0.495269
0	C	0.761102	0.724376	0.386499
0	C	0.244895	0.782601	0.884879
0	C	0.746886	0.22157	0.618967
0	C	0.258566	0.281123	0.120491
0	C	0.884892	0.258575	0.72411
0	C	0.386284	0.746754	0.783334
0	C	0.12052	0.244624	0.222135
0	C	0.619296	0.76077	0.280773
0	C	0.221707	0.386307	0.258512
0	C	0.281022	0.884537	0.746689
0	C	0.724737	0.619114	0.244369
0	C	0.783017	0.120381	0.760339
0	C	0.973261	0.509837	0.368976
0	C	0.0321869	0.995092	0.87144
0	C	0.473203	0.495316	0.135632
0	C	0.532315	0.00927757	0.636703
0	C	0.510078	0.636327	0.0321486
0	C	0.995467	0.133999	0.973222
0	C	0.495532	0.869528	0.532228
0	C	0.00935321	0.368622	0.473065
0	C	0.636728	0.973036	0.495185
0	C	0.134125	0.031994	0.00983354
0	C	0.869935	0.472958	0.509732
0	C	0.368886	0.532067	0.995885
0	C	0.258799	0.220651	0.386015
0	C	0.746142	0.281572	0.884816
0	C	0.24439	0.724445	0.619199
0	C	0.760594	0.783449	0.12088
0	C	0.386178	0.760924	0.724265
0	C	0.88482	0.244621	0.783229
0	C	0.619051	0.74667	0.221699
0	C	0.120552	0.258491	0.281277
0	C	0.723757	0.885379	0.258684
0	C	0.7836	0.386731	0.747171
0	C	0.222044	0.120025	0.244745
0	C	0.280433	0.618402	0.760612
0	C	0.473126	0.00923004	0.368789
0	C	0.532233	0.495309	0.869944
0	C	0.973277	0.99514	0.134142
0	C	0.0321523	0.509898	0.636506
0	C	0.00991411	0.133953	0.0322088
0	C	0.495175	0.636419	0.973269
0	C	0.995767	0.368639	0.532257
0	C	0.509689	0.869498	0.473163
0	C	0.135632	0.473098	0.495504
0	C	0.63664	0.531953	0.0094259
0	C	0.368852	0.973097	0.509971
0	C	0.871438	0.0318564	0.99543
0	C	0.258716	0.723474	0.885006
0	C	0.746862	0.7834	0.38662
0	C	0.244743	0.221995	0.120522
0	C	0.76107	0.280605	0.619216
0	C	0.386131	0.258454	0.221797
0	C	0.88493	0.745947	0.281275
0	C	0.619581	0.244007	0.724709
0	C	0.121041	0.760424	0.783368
0	C	0.72454	0.386702	0.761329
0	C	0.782884	0.88535	0.244771
0	C	0.221397	0.617933	0.746381
0	C	0.281194	0.120053	0.258568
0	C	0.473167	0.50946	0.869915
0	C	0.532306	0.99554	0.368826
0	C	0.973283	0.494968	0.636582
0	C	0.0322301	0.00973062	0.134074
0	C	0.00944357	0.636458	0.532285
0	C	0.495465	0.135626	0.473196
0	C	0.995375	0.871109	0.0321743
0	C	0.510099	0.368672	0.973216
0	C	0.134186	0.973001	0.99549
0	C	0.636646	0.0318903	0.510057
0	C	0.36885	0.472871	0.00933299
0	C	0.86996	0.531972	0.495482
0	H	0.868228	0.232991	0.096756
0	H	0.13722	0.269167	0.598967
0	H	0.638385	0.735108	0.907978
0	H	0.367501	0.772515	0.406865
0	H	0.0967662	0.867915	0.232745
0	H	0.598341	0.137265	0.270803
0	H	0.908686	0.638496	0.734639
0	H	0.407012	0.366754	0.772431
0	H	0.232879	0.0965648	0.868232
0	H	0.270825	0.598396	0.137163
0	H	0.734728	0.907896	0.638819
0	H	0.772501	0.406599	0.367337
0	H	0.984883	0.116834	0.658272
0	H	0.0205045	0.387002	0.156221
0	H	0.483672	0.889034	0.849514
0	H	0.521925	0.617847	0.347802
0	H	0.61814	0.347676	0.521919
0	H	0.88929	0.84915	0.483567
0	H	0.387203	0.156066	0.0205391
0	H	0.117029	0.658042	0.984794
0	H	0.849506	0.483368	0.889285
0	H	0.347832	0.521673	0.618112
0	H	0.658283	0.984509	0.116954
0	H	0.156163	0.0203938	0.387289
0	H	0.869052	0.734474	0.598709
0	H	0.137171	0.77225	0.0968343
0	H	0.637975	0.233001	0.406902
0	H	0.367267	0.27057	0.908171
0	H	0.0973733	0.366352	0.733963
0	H	0.59879	0.63836	0.772598
0	H	0.908341	0.137271	0.232727
0	H	0.406622	0.868251	0.270622
0	H	0.233065	0.598553	0.367507
0	H	0.271708	0.0962042	0.638704
0	H	0.734289	0.406929	0.137109
0	H	0.77309	0.908747	0.868321
0	H	0.984924	0.618197	0.156336
0	H	0.0205696	0.888371	0.65816
0	H	0.483623	0.387372	0.347791
0	H	0.521906	0.116118	0.849524
0	H	0.61847	0.848862	0.0206701
0	H	0.888609	0.346995	0.984779
0	H	0.387586	0.657286	0.521794
0	H	0.116332	0.156019	0.483531
0	H	0.849224	0.984606	0.387193
0	H	0.347291	0.0205505	0.116956
0	H	0.657723	0.483426	0.618127
0	H	0.155895	0.521557	0.889354
0	H	0.368027	0.231646	0.598425
0	H	0.638044	0.27124	0.0974415
0	H	0.137128	0.734602	0.406742
0	H	0.868912	0.772953	0.908665
0	H	0.598673	0.868389	0.734698
0	H	0.0970064	0.136908	0.772451
0	H	0.406771	0.638023	0.23315
0	H	0.908163	0.366985	0.270949
0	H	0.734131	0.0973429	0.36687
0	H	0.772863	0.598792	0.638519
0	H	0.232812	0.908184	0.137168
0	H	0.27097	0.406185	0.868361
0	H	0.483678	0.116118	0.156009
0	H	0.521786	0.387379	0.657575
0	H	0.984848	0.888321	0.347197
0	H	0.020632	0.618201	0.849179
0	H	0.117024	0.347064	0.0207259
0	H	0.387118	0.848845	0.984848
0	H	0.889347	0.155779	0.521816
0	H	0.618135	0.657405	0.48361
0	H	0.347794	0.48346	0.38749
0	H	0.84953	0.521658	0.116328
0	H	0.15629	0.984615	0.618366
0	H	0.658144	0.0203919	0.888687
0	H	0.367086	0.734004	0.0972513
0	H	0.638307	0.772436	0.598763
0	H	0.137083	0.23239	0.90859
0	H	0.868533	0.270639	0.406612
0	H	0.598402	0.367389	0.233232
0	H	0.0973694	0.63816	0.271183
0	H	0.407065	0.13661	0.7352
0	H	0.908811	0.868295	0.772363
0	H	0.734688	0.599285	0.868856
0	H	0.772171	0.0973794	0.137191
0	H	0.233522	0.405046	0.637912
0	H	0.270979	0.907959	0.366997
0	H	0.483648	0.617816	0.657737
0	H	0.52174	0.889097	0.155867
0	H	0.984906	0.386911	0.849113
0	H	0.0206719	0.116834	0.347232
0	H	0.116352	0.849142	0.521968
0	H	0.387489	0.347684	0.48361
0	H	0.888634	0.657844	0.0205836
0	H	0.618499	0.156159	0.984876
0	H	0.347234	0.984508	0.888621
0	H	0.849292	0.0204585	0.618373
0	H	0.156028	0.483407	0.116302
0	H	0.657573	0.521522	0.38753
0	H	0.744572	0.153154	0.0663913
0	H	0.26055	0.349028	0.567251
0	H	0.761988	0.655573	0.939287
0	H	0.242804	0.85073	0.436502
0	H	0.066888	0.744085	0.153209
0	H	0.568239	0.26133	0.349715
0	H	0.938973	0.762538	0.655683
0	H	0.43688	0.242418	0.851136
0	H	0.153462	0.0666852	0.744306
0	H	0.349804	0.568138	0.26124
0	H	0.655742	0.938169	0.762876
0	H	0.851044	0.4365	0.242853
0	H	0.906669	0.992345	0.688128
0	H	0.0984985	0.511915	0.185426
0	H	0.404846	0.0128784	0.818917
0	H	0.600609	0.493569	0.317684
0	H	0.493833	0.317545	0.600644
0	H	0.0131728	0.818569	0.404738
0	H	0.512155	0.185268	0.0985092
0	H	0.992464	0.687875	0.906635
0	H	0.818998	0.404665	0.0132325
0	H	0.317735	0.600371	0.493805
0	H	0.6882	0.906209	0.992512
0	H	0.185534	0.0986636	0.512019
0	H	0.745015	0.655387	0.56839
0	H	0.26103	0.851645	0.0668894
0	H	0.762122	0.153809	0.436828
0	H	0.242851	0.349097	0.938137
0	H	0.0668289	0.241907	0.655778
0	H	0.568538	0.76277	0.851064
0	H	0.938634	0.260946	0.15318
0	H	0.437015	0.744205	0.349439
0	H	0.154111	0.568386	0.24329
0	H	0.349734	0.0667217	0.763426
0	H	0.655303	0.437406	0.261136
0	H	0.851731	0.938157	0.74392
0	H	0.906804	0.493328	0.185618
0	H	0.0986405	0.0129104	0.687941
0	H	0.404354	0.511258	0.317351
0	H	0.600122	0.991876	0.819272
0	H	0.493319	0.819875	0.098384
0	H	0.0129925	0.317033	0.906348
0	H	0.511718	0.687559	0.600738
0	H	0.992225	0.186385	0.405009
0	H	0.819631	0.906001	0.511718
0	H	0.317541	0.098526	0.99233
0	H	0.68807	0.404416	0.494025
0	H	0.186243	0.599869	0.0135194
0	H	0.243279	0.153424	0.56926
0	H	0.762446	0.349636	0.0673919
0	H	0.260904	0.655261	0.437539
0	H	0.74461	0.851784	0.938117
0	H	0.568269	0.744471	0.655607
0	H	0.0670369	0.260728	0.851814
0	H	0.436923	0.762013	0.1539
0	H	0.938201	0.242528	0.349262
0	H	0.655345	0.0673464	0.242652
0	H	0.851755	0.568806	0.762765
0	H	0.153278	0.93809	0.260986
0	H	0.349759	0.436361	0.744169
0	H	0.405073	0.992116	0.186498
0	H	0.600697	0.511479	0.687869
0	H	0.906304	0.0125885	0.317168
0	H	0.0984408	0.493146	0.820113
0	H	0.992272	0.317405	0.09855
0	H	0.511836	0.819435	0.90646
0	H	0.0134361	0.186233	0.600259
0	H	0.494027	0.687738	0.404569
0	H	0.31732	0.404193	0.511402
0	H	0.819336	0.599717	0.991974
0	H	0.185754	0.906233	0.49368
0	H	0.688079	0.0985473	0.0131615
0	H	0.242947	0.655126	0.0669958
0	H	0.762705	0.851147	0.568916
0	H	0.260867	0.15285	0.9387
0	H	0.744343	0.349321	0.436973
0	H	0.568237	0.243282	0.154184
0	H	0.0671252	0.762487	0.349588
0	H	0.437596	0.260178	0.655608
0	H	0.9387	0.744409	0.851655
0	H	0.655685	0.568424	0.744896
0	H	0.851505	0.0673819	0.261081
0	H	0.154209	0.435882	0.761798
0	H	0.34918	0.937773	0.242383
0	H	0.404603	0.493759	0.688035
0	H	0.600219	0.0131355	0.186297
0	H	0.90646	0.511571	0.819708
0	H	0.0985531	0.992149	0.317632
0	H	0.992066	0.818918	0.600176
0	H	0.511384	0.317203	0.404276
0	H	0.0132249	0.6877	0.0986179
0	H	0.493631	0.185465	0.906712
0	H	0.317117	0.905897	0.0128535
0	H	0.82007	0.0984262	0.493438
0	H	0.186415	0.40497	0.992173
0	H	0.687892	0.600422	0.511664
0	H	0.721364	0.19943	0.986194
0	H	0.283515	0.302701	0.487366
0	H	0.784955	0.70154	0.0192456
0	H	0.220797	0.806869	0.517879
0	H	0.986192	0.721249	0.198879
0	H	0.486708	0.283177	0.30507
0	H	0.0198231	0.784918	0.700807
0	H	0.518063	0.220156	0.806942
0	H	0.199115	0.985936	0.721687
0	H	0.304856	0.486909	0.283262
0	H	0.700977	0.0190095	0.785137
0	H	0.806772	0.517551	0.22059
0	H	0.949664	0.971382	0.770419
0	H	0.0562056	0.533103	0.267971
0	H	0.450125	0.0344987	0.737698
0	H	0.555872	0.471385	0.2367
0	H	0.47161	0.236631	0.555884
0	H	0.0348079	0.737444	0.450153
0	H	0.533349	0.267749	0.0562124
0	H	0.971516	0.770121	0.949657
0	H	0.737712	0.449884	0.0348203
0	H	0.236717	0.555717	0.471617
0	H	0.770395	0.949416	0.971446
0	H	0.2678	0.0559108	0.533463
0	H	0.72264	0.700513	0.487494
0	H	0.283593	0.806122	0.986015
0	H	0.784902	0.198571	0.517564
0	H	0.220596	0.30439	0.0191848
0	H	0.985915	0.220149	0.700815
0	H	0.48751	0.784854	0.806615
0	H	0.0194262	0.283448	0.198764
0	H	0.518355	0.722344	0.304869
0	H	0.198729	0.487657	0.220745
0	H	0.304698	0.98547	0.785182
0	H	0.700754	0.518302	0.283301
0	H	0.80665	0.0193733	0.721812
0	H	0.949364	0.471885	0.267866
0	H	0.0559257	0.0335982	0.770531
0	H	0.449696	0.533796	0.23673
0	H	0.555481	0.970655	0.73764
0	H	0.472194	0.73734	0.0562752
0	H	0.0340423	0.234921	0.949705
0	H	0.533968	0.768485	0.555848
0	H	0.970683	0.26764	0.450105
0	H	0.737806	0.949241	0.533476
0	H	0.235073	0.0556363	0.97154
0	H	0.768777	0.449446	0.471535
0	H	0.267909	0.555126	0.0347768
0	H	0.221597	0.196276	0.487312
0	H	0.784205	0.305324	0.98597
0	H	0.283335	0.700808	0.518267
0	H	0.722565	0.807689	0.0197074
0	H	0.487158	0.72241	0.700456
0	H	0.98602	0.283126	0.806664
0	H	0.517646	0.784726	0.198683
0	H	0.0192852	0.220495	0.30462
0	H	0.700435	0.986462	0.220428
0	H	0.806978	0.487959	0.785247
0	H	0.198751	0.0189486	0.283552
0	H	0.304973	0.517582	0.722136
0	H	0.450115	0.97056	0.267809
0	H	0.555847	0.533705	0.768842
0	H	0.949721	0.03371	0.235082
0	H	0.0562651	0.472	0.737563
0	H	0.971628	0.234872	0.055876
0	H	0.533427	0.737437	0.949405
0	H	0.0346962	0.267754	0.555355
0	H	0.4715	0.768371	0.44969
0	H	0.236717	0.449549	0.533975
0	H	0.737611	0.555118	0.970804
0	H	0.267708	0.949288	0.47197
0	H	0.770527	0.0555261	0.0339712
0	H	0.220527	0.700367	0.986256
0	H	0.785015	0.806671	0.487865
0	H	0.283571	0.198575	0.0194026
0	H	0.722511	0.304713	0.518335
0	H	0.487585	0.220596	0.198998
0	H	0.986047	0.78436	0.304652
0	H	0.518549	0.282605	0.700792
0	H	0.0198047	0.722001	0.806682
0	H	0.700844	0.487615	0.722748
0	H	0.806283	0.986401	0.283445
0	H	0.198684	0.516562	0.784356
0	H	0.30455	0.0189427	0.22045
0	H	0.449687	0.471265	0.768745
0	H	0.555466	0.0344045	0.267918
0	H	0.949407	0.533175	0.73765
0	H	0.0559808	0.971497	0.235013
0	H	0.970814	0.737393	0.55541
0	H	0.533969	0.236659	0.449664
0	H	0.0338978	0.770221	0.0558369
0	H	0.472124	0.267605	0.94934
0	H	0.235142	0.949539	0.0340891
0	H	0.737706	0.0559538	0.472145
0	H	0.267791	0.449971	0.970638
0	H	0.768874	0.555617	0.533896
0	H	0.79974	0.164498	0.935192
0	H	0.20433	0.337002	0.437096
0	H	0.706385	0.666835	0.0701433
0	H	0.298854	0.841494	0.569605
0	H	0.934842	0.799332	0.163843
0	H	0.43542	0.204685	0.339297
0	H	0.0713173	0.706891	0.665947
0	H	0.569571	0.298231	0.841717
0	H	0.163655	0.934918	0.799856
0	H	0.339116	0.435768	0.204688
0	H	0.665709	0.0701507	0.706957
0	H	0.841726	0.569077	0.298638
0	H	0.915433	0.0500443	0.821556
0	H	0.0897686	0.454306	0.319198
0	H	0.414741	0.956222	0.686711
0	H	0.590241	0.549768	0.185271
0	H	0.550062	0.185227	0.590186
0	H	0.95662	0.686479	0.414631
0	H	0.45453	0.318975	0.0897257
0	H	0.0500446	0.821262	0.915281
0	H	0.686726	0.414363	0.956653
0	H	0.185316	0.590017	0.550084
0	H	0.821513	0.915015	0.050006
0	H	0.319043	0.0897397	0.454807
0	H	0.801169	0.666303	0.436195
0	H	0.205408	0.840978	0.934699
0	H	0.706782	0.16376	0.56896
0	H	0.29865	0.339221	0.0708344
0	H	0.934706	0.298508	0.666016
0	H	0.436142	0.706613	0.841262
0	H	0.0705181	0.205142	0.163875
0	H	0.569738	0.800842	0.338998
0	H	0.163869	0.436156	0.298803
0	H	0.339567	0.934017	0.70697
0	H	0.666359	0.569399	0.204753
0	H	0.841543	0.0707935	0.799988
0	H	0.915713	0.550598	0.319156
0	H	0.0900888	0.954845	0.821585
0	H	0.415214	0.455362	0.185541
0	H	0.590731	0.0489093	0.686426
0	H	0.550951	0.685969	0.0897542
0	H	0.955458	0.183954	0.915283
0	H	0.455516	0.819741	0.590284
0	H	0.0487626	0.318814	0.414596
0	H	0.686716	0.915465	0.454698
0	H	0.183867	0.0899085	0.0501331
0	H	0.820148	0.415056	0.549941
0	H	0.319048	0.590623	0.956675
0	H	0.299587	0.16247	0.435078
0	H	0.706036	0.339824	0.934295
0	H	0.204705	0.666356	0.569216
0	H	0.800729	0.841804	0.0715259
0	H	0.43592	0.800897	0.666138
0	H	0.934659	0.204964	0.841514
0	H	0.569024	0.706671	0.163822
0	H	0.0709203	0.298512	0.339462
0	H	0.665585	0.935092	0.298662
0	H	0.841618	0.436503	0.707042
0	H	0.163716	0.0700515	0.205318
0	H	0.338809	0.569046	0.800697
0	H	0.414756	0.0487704	0.318961
0	H	0.590291	0.455305	0.820139
0	H	0.915451	0.954983	0.184126
0	H	0.0897461	0.550769	0.686199
0	H	0.0502017	0.183692	0.0901538
0	H	0.454622	0.686366	0.915726
0	H	0.95647	0.318793	0.590774
0	H	0.54984	0.819741	0.415186
0	H	0.185513	0.415221	0.455417
0	H	0.68632	0.590384	0.0489716
0	H	0.319051	0.915437	0.550563
0	H	0.821592	0.0897787	0.955286
0	H	0.29864	0.665394	0.934813
0	H	0.706716	0.841282	0.436524
0	H	0.205323	0.163689	0.0705607
0	H	0.801125	0.338794	0.569631
0	H	0.436122	0.29855	0.163955
0	H	0.934676	0.706196	0.33956
0	H	0.569848	0.204226	0.666451
0	H	0.0711665	0.800142	0.841588
0	H	0.66645	0.436481	0.8013
0	H	0.841167	0.935223	0.20515
0	H	0.163811	0.567759	0.706132
0	H	0.339405	0.0704497	0.298616
0	H	0.415188	0.549577	0.820128
0	H	0.590766	0.956116	0.318989
0	H	0.915733	0.454399	0.686539
0	H	0.0900922	0.0501912	0.183798
0	H	0.0489513	0.686163	0.590783
0	H	0.455443	0.18552	0.415254
0	H	0.955261	0.821253	0.0901395
0	H	0.550858	0.318851	0.915694
0	H	0.184172	0.91511	0.955478
0	H	0.686313	0.0894985	0.550899
0	H	0.319012	0.414405	0.0486508
0	H	0.820151	0.589939	0.455388
0	H	0.829939	0.227633	0.935632
0	H	0.174813	0.273597	0.437543
0	H	0.676532	0.730113	0.0699442
0	H	0.328837	0.778263	0.569353
0	H	0.935326	0.82967	0.226945
0	H	0.436465	0.174684	0.276093
0	H	0.0708015	0.676596	0.729043
0	H	0.569415	0.328244	0.778482
0	H	0.22668	0.935233	0.830353
0	H	0.275903	0.436764	0.174686
0	H	0.728765	0.0698383	0.676578
0	H	0.778503	0.569044	0.3287
0	H	0.978931	0.0795839	0.821046
0	H	0.0260914	0.425129	0.318613
0	H	0.477738	0.925712	0.687327
0	H	0.526929	0.579575	0.185802
0	H	0.579827	0.185761	0.52685
0	H	0.925965	0.68708	0.477609
0	H	0.425346	0.318374	0.0260656
0	H	0.0797719	0.820777	0.978724
0	H	0.687299	0.477273	0.925971
0	H	0.18584	0.526708	0.579838
0	H	0.821041	0.978395	0.0797466
0	H	0.318498	0.0262544	0.425332
0	H	0.831011	0.729579	0.436958
0	H	0.175033	0.77793	0.935419
0	H	0.676728	0.226961	0.568871
0	H	0.328796	0.276074	0.0704809
0	H	0.935206	0.328557	0.729231
0	H	0.436444	0.676665	0.778007
0	H	0.0698792	0.174881	0.22701
0	H	0.56885	0.830669	0.275702
0	H	0.227116	0.436171	0.328815
0	H	0.276506	0.934843	0.676627
0	H	0.729529	0.568389	0.174642
0	H	0.778472	0.0700242	0.830353
0	H	0.9794	0.579777	0.318725
0	H	0.0266013	0.925296	0.820919
0	H	0.478475	0.425442	0.186091
0	H	0.527672	0.079293	0.687054
0	H	0.580076	0.686516	0.0260624
0	H	0.925641	0.184515	0.978673
0	H	0.425589	0.819137	0.527025
0	H	0.0793751	0.318289	0.477594
0	H	0.687199	0.978987	0.425326
0	H	0.184444	0.0265136	0.0798158
0	H	0.81968	0.478335	0.579778
0	H	0.318387	0.527737	0.925958
0	H	0.329284	0.225846	0.435682
0	H	0.675981	0.276633	0.934938
0	H	0.174699	0.72955	0.568429
0	H	0.830696	0.778556	0.0706782
0	H	0.436666	0.830787	0.729414
0	H	0.935246	0.174725	0.778372
0	H	0.568914	0.676568	0.227017
0	H	0.0705169	0.328678	0.276301
0	H	0.728753	0.935556	0.328809
0	H	0.778378	0.436843	0.677046
0	H	0.226773	0.0694433	0.174906
0	H	0.275507	0.567904	0.830496
0	H	0.477782	0.079222	0.318412
0	H	0.527033	0.425389	0.819544
0	H	0.978901	0.925367	0.184708
0	H	0.0260243	0.57985	0.686744
0	H	0.0798826	0.18427	0.0266967
0	H	0.425354	0.686849	0.979355
0	H	0.925881	0.318112	0.52777
0	H	0.579761	0.819292	0.478456
0	H	0.186094	0.478486	0.425609
0	H	0.686968	0.527408	0.0794719
0	H	0.318615	0.978934	0.580008
0	H	0.820926	0.0264131	0.925579
0	H	0.328855	0.728519	0.935144
0	H	0.676777	0.778032	0.436813
0	H	0.174953	0.226747	0.0698843
0	H	0.830935	0.275509	0.568686
0	H	0.436084	0.328689	0.227136
0	H	0.935239	0.675945	0.276442
0	H	0.569013	0.174191	0.729652
0	H	0.0706832	0.830366	0.778431
0	H	0.729723	0.437179	0.831205
0	H	0.778057	0.935848	0.174879
0	H	0.227103	0.567891	0.676219
0	H	0.276254	0.069987	0.328778
0	H	0.478454	0.579488	0.819666
0	H	0.527748	0.925653	0.318301
0	H	0.979387	0.425165	0.687021
0	H	0.0265742	0.0796701	0.184405
0	H	0.0794901	0.686776	0.527755
0	H	0.425573	0.18607	0.478549
0	H	0.92553	0.820619	0.0267075
0	H	0.580063	0.318436	0.979362
0	H	0.184721	0.97844	0.925659
0	H	0.686858	0.0259048	0.580102
0	H	0.318495	0.477297	0.0793649
0	H	0.819539	0.526669	0.425552
0	H	0.78387	0.212565	0.84954
0	H	0.220284	0.289443	0.351241
0	H	0.722728	0.714402	0.155903
0	H	0.281798	0.793345	0.654987
0	H	0.849339	0.783263	0.212164
0	H	0.350239	0.220774	0.290501
0	H	0.156712	0.723169	0.714279
0	H	0.655115	0.281399	0.793777
0	H	0.211752	0.849258	0.783987
0	H	0.290393	0.350556	0.220679
0	H	0.713736	0.155719	0.723148
0	H	0.793863	0.654612	0.281684
0	H	0.963604	0.0332809	0.907045
0	H	0.0415578	0.471256	0.404617
0	H	0.46319	0.971984	0.60123
0	H	0.541991	0.533012	0.0999109
0	H	0.533252	0.0999102	0.541943
0	H	0.972268	0.600995	0.463094
0	H	0.471507	0.404321	0.0414905
0	H	0.0333646	0.906736	0.963494
0	H	0.601183	0.462781	0.972258
0	H	0.09993	0.541818	0.533311
0	H	0.907025	0.963147	0.0333793
0	H	0.404495	0.0415367	0.471607
0	H	0.784738	0.714744	0.350892
0	H	0.22122	0.79239	0.849308
0	H	0.723408	0.211638	0.65459
0	H	0.281892	0.291094	0.156216
0	H	0.849251	0.282045	0.714181
0	H	0.350635	0.723291	0.793186
0	H	0.156044	0.220918	0.212257
0	H	0.654937	0.784349	0.290406
0	H	0.211697	0.350608	0.281814
0	H	0.290824	0.848861	0.723242
0	H	0.715107	0.654618	0.220601
0	H	0.792855	0.156039	0.783835
0	H	0.963775	0.533468	0.404617
0	H	0.0417394	0.971379	0.907038
0	H	0.463448	0.471676	0.10007
0	H	0.542225	0.0327248	0.601063
0	H	0.53369	0.600664	0.0415327
0	H	0.971757	0.0984362	0.963584
0	H	0.471919	0.905105	0.541969
0	H	0.0327755	0.40424	0.463026
0	H	0.601172	0.963513	0.471432
0	H	0.0984577	0.0416567	0.0333882
0	H	0.905576	0.463196	0.533267
0	H	0.404474	0.542076	0.972382
0	H	0.282043	0.211261	0.350093
0	H	0.722726	0.291306	0.849078
0	H	0.220575	0.714725	0.654664
0	H	0.784122	0.792953	0.15663
0	H	0.350583	0.784558	0.714599
0	H	0.849216	0.221	0.793025
0	H	0.654665	0.723192	0.211732
0	H	0.156283	0.281826	0.291206
0	H	0.713832	0.849713	0.282093
0	H	0.793413	0.351085	0.723701
0	H	0.212148	0.155542	0.221062
0	H	0.289862	0.654034	0.78428
0	H	0.463152	0.0327082	0.404396
0	H	0.541976	0.471712	0.905542
0	H	0.963696	0.971372	0.0985871
0	H	0.0415401	0.533514	0.600833
0	H	0.0334791	0.0982863	0.0418324
0	H	0.471385	0.600887	0.96383
0	H	0.972227	0.404199	0.542238
0	H	0.53319	0.905129	0.463353
0	H	0.100062	0.463389	0.471845
0	H	0.60097	0.541897	0.0328255
0	H	0.404506	0.963489	0.533544
0	H	0.90703	0.0415033	0.971746
0	H	0.282114	0.713466	0.849341
0	H	0.72335	0.793218	0.350992
0	H	0.221018	0.212154	0.156044
0	H	0.784719	0.290185	0.654831
0	H	0.350458	0.281788	0.211719
0	H	0.849281	0.722476	0.2912
0	H	0.655145	0.220327	0.715034
0	H	0.156671	0.78395	0.793331
0	H	0.714814	0.351139	0.784968
0	H	0.79271	0.849792	0.221122
0	H	0.21134	0.653521	0.722916
0	H	0.291143	0.155765	0.281901
0	H	0.463359	0.532964	0.905555
0	H	0.542208	0.971975	0.404394
0	H	0.963847	0.471202	0.601021
0	H	0.0417776	0.0333307	0.0983982
0	H	0.0328489	0.600816	0.54227
0	H	0.471801	0.100084	0.463463
0	H	0.971701	0.906705	0.0417966
0	H	0.53376	0.404282	0.963735
0	H	0.0986328	0.963303	0.971779
0	H	0.600952	0.0413636	0.533625
0	H	0.404475	0.462792	0.0327515
0	H	0.905553	0.541675	0.471851
0	H	0.723553	0.198494	0.882184
0	H	0.280638	0.303945	0.383626
0	H	0.782914	0.700281	0.123058
0	H	0.221916	0.807554	0.621671
0	H	0.882185	0.72306	0.198247
0	H	0.382812	0.281022	0.304899
0	H	0.123754	0.783307	0.70034
0	H	0.621885	0.22146	0.807836
0	H	0.198008	0.882078	0.723707
0	H	0.304838	0.383037	0.280977
0	H	0.70001	0.122741	0.783335
0	H	0.807861	0.621282	0.221771
0	H	0.948913	0.973302	0.874132
0	H	0.0566544	0.531205	0.371822
0	H	0.44931	0.032262	0.633912
0	H	0.556381	0.473021	0.132931
0	H	0.473248	0.132915	0.55639
0	H	0.0325777	0.63367	0.449336
0	H	0.531478	0.371542	0.0566225
0	H	0.973366	0.873792	0.94895
0	H	0.633853	0.449035	0.0325812
0	H	0.132926	0.556265	0.473292
0	H	0.874124	0.948643	0.973343
0	H	0.371674	0.0563787	0.531598
0	H	0.724594	0.70025	0.383654
0	H	0.281555	0.806479	0.881923
0	H	0.783423	0.197451	0.621507
0	H	0.221869	0.304998	0.122998
0	H	0.882237	0.221954	0.700145
0	H	0.383685	0.783279	0.807447
0	H	0.123457	0.281246	0.19821
0	H	0.62214	0.724227	0.304833
0	H	0.197638	0.383932	0.22192
0	H	0.304838	0.881768	0.783409
0	H	0.700728	0.622178	0.280938
0	H	0.806841	0.123187	0.723621
0	H	0.948746	0.473596	0.37167
0	H	0.056509	0.0314502	0.874316
0	H	0.449058	0.531806	0.132835
0	H	0.556122	0.972572	0.633974
0	H	0.473829	0.633628	0.0566728
0	H	0.0318738	0.131136	0.948963
0	H	0.532069	0.872313	0.556327
0	H	0.972584	0.371333	0.449322
0	H	0.633906	0.948541	0.531436
0	H	0.131388	0.0562024	0.973378
0	H	0.872596	0.448812	0.473224
0	H	0.371731	0.555727	0.032688
0	H	0.222364	0.196375	0.383468
0	H	0.78276	0.305553	0.882132
0	H	0.280921	0.700376	0.622195
0	H	0.724058	0.807537	0.123734
0	H	0.383321	0.724416	0.700162
0	H	0.881948	0.28122	0.8072
0	H	0.621614	0.783218	0.19761
0	H	0.123096	0.221822	0.305182
0	H	0.699815	0.882791	0.222031
0	H	0.807707	0.384097	0.783721
0	H	0.198146	0.122924	0.281402
0	H	0.304568	0.621408	0.724118
0	H	0.449311	0.972527	0.371524
0	H	0.556332	0.531829	0.872722
0	H	0.948928	0.0314704	0.13125
0	H	0.0566862	0.473672	0.633795
0	H	0.973487	0.131214	0.056454
0	H	0.531393	0.63358	0.948721
0	H	0.0325215	0.371488	0.556005
0	H	0.47314	0.872137	0.449065
0	H	0.132838	0.448935	0.531983
0	H	0.633909	0.555679	0.972662
0	H	0.371526	0.948708	0.473636
0	H	0.874294	0.0560867	0.0318636
0	H	0.222026	0.699595	0.882446
0	H	0.78338	0.80754	0.383989
0	H	0.281396	0.19811	0.123496
0	H	0.724539	0.304692	0.622124
0	H	0.383731	0.221849	0.197776
0	H	0.882222	0.782626	0.305139
0	H	0.622515	0.280556	0.700672
0	H	0.123774	0.723753	0.807249
0	H	0.700439	0.383868	0.724795
0	H	0.806839	0.882486	0.281395
0	H	0.197214	0.620354	0.782891
0	H	0.305079	0.122574	0.221874
0	H	0.449067	0.472931	0.872566
0	H	0.556117	0.032236	0.371687
0	H	0.948728	0.531168	0.633749
0	H	0.0565632	0.973376	0.131315
0	H	0.972682	0.63375	0.55604
0	H	0.531952	0.132825	0.449015
0	H	0.0317986	0.873953	0.0564069
0	H	0.473847	0.371372	0.948689
0	H	0.131323	0.948772	0.0319205
0	H	0.633964	0.0563691	0.473782
0	H	0.37157	0.449211	0.97252
0	H	0.872748	0.556118	0.53198
