#******************************************
#
# CIF file created by Zeo++
# Zeo++ is an open source package to
# analyze microporous materials
#
#*******************************************

_cell_length_a		34.1417(0)
_cell_length_b		34.1325(0)
_cell_length_c		12.4166(0)
_cell_angle_alpha		90(0)
_cell_angle_beta		90(0)
_cell_angle_gamma		119.853(0)

_symmetry_space_group_name_H-M		'P1'
_symmetry_Int_Tables_number		1
_symmetry_cell_setting		Monoclinic

loop_
_symmetry_equiv_pos_as_xyz
'+x,+y,+z'

loop_
_atom_site_label
_atom_site_type_symbol
_atom_site_fract_x
_atom_site_fract_y
_atom_site_fract_z
0	O	0.820924	0.980266	0.194724
0	O	0.0218918	0.842958	0.198728
0	O	0.158221	0.181465	0.193361
0	O	0.179384	0.0228553	0.970944
0	O	0.979352	0.161162	0.966472
0	O	0.841578	0.820597	0.972511
0	O	0.489399	0.309626	0.525176
0	O	0.689739	0.181323	0.527813
0	O	0.822128	0.512984	0.526386
0	O	0.838936	0.359512	0.304095
0	O	0.641844	0.481763	0.299879
0	O	0.518385	0.161121	0.301281
0	O	0.160938	0.6428	0.863109
0	O	0.358848	0.520086	0.86492
0	O	0.481274	0.840549	0.864993
0	O	0.51031	0.692206	0.64007
0	O	0.310147	0.821249	0.639827
0	O	0.17911	0.489636	0.638546
0	O	0.893704	0.0961768	0.921931
0	O	0.907619	0.801496	0.922119
0	O	0.199259	0.107707	0.917668
0	O	0.107032	0.908365	0.247968
0	O	0.0925682	0.201096	0.242192
0	O	0.800309	0.894858	0.245632
0	O	0.560883	0.418564	0.22877
0	O	0.581231	0.143062	0.229916
0	O	0.858784	0.440923	0.230799
0	O	0.7714	0.245425	0.595463
0	O	0.75623	0.529011	0.59038
0	O	0.472408	0.228349	0.594354
0	O	0.22855	0.756817	0.572498
0	O	0.244671	0.473122	0.573862
0	O	0.527519	0.773528	0.571141
0	O	0.439509	0.583277	0.937219
0	O	0.418782	0.859109	0.937108
0	O	0.141851	0.561301	0.933731
0	C	0.785346	0.986852	0.153782
0	C	0.0151322	0.800747	0.157803
0	C	0.20003	0.216719	0.150769
0	C	0.214907	0.0164851	0.0133064
0	C	0.98792	0.204885	0.000715688
0	C	0.799737	0.785322	0.0149099
0	C	0.454653	0.312653	0.467472
0	C	0.686772	0.143286	0.471467
0	C	0.860598	0.547773	0.47115
0	C	0.874483	0.360496	0.367793
0	C	0.639975	0.515556	0.364816
0	C	0.484753	0.125646	0.366601
0	C	0.12521	0.642008	0.800612
0	C	0.360869	0.486581	0.799152
0	C	0.514779	0.876018	0.79942
0	C	0.545096	0.689459	0.698373
0	C	0.313402	0.859524	0.695618
0	C	0.140541	0.454686	0.693188
0	C	0.75253	0.981453	0.245027
0	C	0.019944	0.773086	0.249428
0	C	0.227721	0.250091	0.240768
0	C	0.248183	0.0221264	0.922983
0	C	0.986814	0.232246	0.903604
0	C	0.772081	0.751925	0.924938
0	C	0.414987	0.301733	0.543849
0	C	0.697669	0.114852	0.549147
0	C	0.889424	0.586323	0.550062
0	C	0.917238	0.378165	0.298026
0	C	0.621195	0.540157	0.296744
0	C	0.460064	0.0823411	0.298704
0	C	0.0828854	0.624981	0.871681
0	C	0.38005	0.462112	0.866305
0	C	0.539445	0.919414	0.867051
0	C	0.585023	0.700739	0.622579
0	C	0.302971	0.8881	0.617294
0	C	0.111955	0.41626	0.613776
0	C	0.748048	0.0238952	0.244376
0	C	0.97659	0.727076	0.250351
0	C	0.273689	0.252487	0.243389
0	C	0.251054	0.978792	0.920703
0	C	0.0287506	0.279197	0.911266
0	C	0.725838	0.748943	0.923292
0	C	0.417563	0.347079	0.565987
0	C	0.652391	0.0722409	0.571479
0	C	0.932037	0.583194	0.569913
0	C	0.919436	0.335906	0.266923
0	C	0.662677	0.585104	0.265919
0	C	0.415369	0.0794686	0.267169
0	C	0.0809944	0.667508	0.901685
0	C	0.338785	0.417114	0.89779
0	C	0.584205	0.922423	0.898606
0	C	0.582469	0.655464	0.599509
0	C	0.348394	0.930643	0.595695
0	C	0.0690328	0.418885	0.594528
0	C	0.765906	0.0470864	0.134166
0	C	0.953969	0.721629	0.139282
0	C	0.279321	0.234596	0.133476
0	C	0.233476	0.955475	0.0308735
0	C	0.0493663	0.283198	0.0244362
0	C	0.720358	0.767022	0.0330958
0	C	0.436851	0.374905	0.461637
0	C	0.624627	0.063414	0.466855
0	C	0.940129	0.564437	0.464012
0	C	0.901405	0.305036	0.366955
0	C	0.69396	0.598104	0.365209
0	C	0.402312	0.0979152	0.366195
0	C	0.0987486	0.697804	0.800681
0	C	0.307005	0.403976	0.799426
0	C	0.597264	0.903896	0.799745
0	C	0.563201	0.627396	0.703534
0	C	0.375876	0.939217	0.700698
0	C	0.0608388	0.437431	0.700633
0	C	0.802549	0.034367	0.100016
0	C	0.967689	0.771016	0.103338
0	C	0.23003	0.198935	0.0975002
0	C	0.197559	0.968908	0.0669613
0	C	0.0347493	0.233409	0.0586977
0	C	0.769674	0.803077	0.06799
0	C	0.471387	0.360901	0.417946
0	C	0.638589	0.111714	0.42196
0	C	0.891533	0.530441	0.420647
0	C	0.862597	0.312618	0.41192
0	C	0.687584	0.552007	0.408812
0	C	0.448404	0.137059	0.410755
0	C	0.13737	0.689879	0.755946
0	C	0.31327	0.449982	0.755501
0	C	0.551189	0.864733	0.755125
0	C	0.528595	0.641221	0.747669
0	C	0.361595	0.890814	0.745411
0	C	0.10939	0.471758	0.743717
0	C	0.850229	0.0698469	0.137447
0	C	0.93273	0.784412	0.138672
0	C	0.216758	0.150739	0.133563
0	C	0.149416	0.93385	0.0314706
0	C	0.0696167	0.219719	0.0244639
0	C	0.782492	0.850998	0.030635
0	C	0.5206	0.394747	0.448883
0	C	0.604689	0.127308	0.451633
0	C	0.875864	0.481068	0.451154
0	C	0.815111	0.275639	0.376893
0	C	0.725266	0.542544	0.372729
0	C	0.458323	0.184441	0.375728
0	C	0.18488	0.726804	0.791018
0	C	0.275579	0.459479	0.79133
0	C	0.541402	0.817376	0.789989
0	C	0.479381	0.607283	0.71698
0	C	0.395302	0.874974	0.715724
0	C	0.124634	0.521012	0.713005
0	C	0.887738	0.0613058	0.0970229
0	C	0.942473	0.83064	0.0968053
0	C	0.17055	0.114273	0.0921168
0	C	0.112758	0.943382	0.0734049
0	C	0.0592445	0.173191	0.0656009
0	C	0.828667	0.887949	0.0710412
0	C	0.554632	0.382465	0.401979
0	C	0.616914	0.173338	0.403327
0	C	0.829511	0.447435	0.404486
0	C	0.777401	0.282508	0.423611
0	C	0.719439	0.498195	0.418188
0	C	0.502843	0.222297	0.421686
0	C	0.222603	0.719914	0.74456
0	C	0.281587	0.503897	0.745831
0	C	0.496994	0.779439	0.743848
0	C	0.445333	0.619451	0.764337
0	C	0.382848	0.828869	0.763943
0	C	0.170899	0.555015	0.759476
0	C	0.88577	0.0547371	0.974376
0	C	0.949294	0.834499	0.974182
0	C	0.166514	0.116948	0.96947
0	C	0.115565	0.950086	0.196062
0	C	0.0512853	0.168629	0.18785
0	C	0.833168	0.885794	0.193682
0	C	0.549747	0.375926	0.279156
0	C	0.623711	0.174534	0.280634
0	C	0.827717	0.452579	0.281809
0	C	0.780403	0.287746	0.546757
0	C	0.714252	0.495419	0.541352
0	C	0.505598	0.219349	0.54475
0	C	0.219614	0.714567	0.621454
0	C	0.286775	0.50662	0.622667
0	C	0.494264	0.782427	0.62079
0	C	0.450366	0.625901	0.887175
0	C	0.376192	0.827761	0.886668
0	C	0.173014	0.549937	0.882093
0	C	0.838484	0.01874	0.936214
0	C	0.984622	0.821865	0.937537
0	C	0.179292	0.164791	0.93186
0	C	0.163338	0.985435	0.232868
0	C	0.0157995	0.181296	0.22286
0	C	0.820901	0.83822	0.232355
0	C	0.500758	0.343425	0.244563
0	C	0.656263	0.157775	0.247416
0	C	0.844502	0.50172	0.247611
0	C	0.828066	0.322198	0.586265
0	C	0.679047	0.507582	0.581817
0	C	0.492775	0.17173	0.5843
0	C	0.171966	0.680005	0.582068
0	C	0.321801	0.494208	0.58219
0	C	0.506973	0.830019	0.581292
0	C	0.499366	0.658522	0.921505
0	C	0.343799	0.844703	0.919988
0	C	0.156602	0.500871	0.916341
0	C	0.802461	0.029469	0.97632
0	C	0.973074	0.775168	0.979649
0	C	0.225988	0.199805	0.973712
0	C	0.198581	0.973968	0.19074
0	C	0.0280462	0.228344	0.181972
0	C	0.774132	0.802835	0.191746
0	C	0.468129	0.357044	0.293758
0	C	0.64251	0.11175	0.297818
0	C	0.8908	0.533891	0.296534
0	C	0.864149	0.313649	0.536432
0	C	0.686647	0.552064	0.53333
0	C	0.448125	0.135609	0.535253
0	C	0.135849	0.688611	0.631469
0	C	0.31409	0.449733	0.630961
0	C	0.551485	0.866276	0.630618
0	C	0.532008	0.645024	0.871851
0	C	0.357592	0.890727	0.869526
0	C	0.110287	0.468471	0.867845
0	C	0.922441	0.0446837	0.935008
0	C	0.960345	0.881283	0.933166
0	C	0.119556	0.081572	0.929095
0	C	0.079759	0.961102	0.237042
0	C	0.0395051	0.12148	0.227705
0	C	0.880106	0.921668	0.232979
0	C	0.582474	0.361429	0.234322
0	C	0.638228	0.221542	0.234684
0	C	0.780467	0.420315	0.237174
0	C	0.74469	0.298565	0.589735
0	C	0.70434	0.449002	0.582935
0	C	0.552138	0.255128	0.586678
0	C	0.255323	0.703699	0.578725
0	C	0.296906	0.553057	0.580848
0	C	0.44778	0.746572	0.578817
0	C	0.417535	0.640132	0.932663
0	C	0.361554	0.78073	0.932671
0	C	0.220311	0.582467	0.926118
0	C	0.780639	0.0979493	0.139959
0	C	0.902903	0.686366	0.144129
0	C	0.314565	0.218662	0.140438
0	C	0.218029	0.904463	0.024144
0	C	0.100552	0.318236	0.0242283
0	C	0.684799	0.782559	0.0263506
0	C	0.454217	0.425772	0.480694
0	C	0.573793	0.0300278	0.48612
0	C	0.973511	0.546648	0.480446
0	C	0.88907	0.255714	0.343448
0	C	0.742888	0.635659	0.341215
0	C	0.365215	0.109983	0.341103
0	C	0.111269	0.747291	0.822583
0	C	0.258161	0.366618	0.824991
0	C	0.634301	0.891759	0.825031
0	C	0.545876	0.576565	0.683886
0	C	0.426795	0.972457	0.682114
0	C	0.0270233	0.454709	0.684559
0	C	0.741907	0.104376	0.182634
0	C	0.895515	0.64115	0.188901
0	C	0.359753	0.256576	0.184513
0	C	0.256246	0.89749	0.980124
0	C	0.108832	0.36409	0.981756
0	C	0.639706	0.74443	0.982445
0	C	0.416403	0.432985	0.526527
0	C	0.566894	0.984967	0.530815
0	C	0.0186106	0.584159	0.526058
0	C	0.925533	0.25368	0.275092
0	C	0.743863	0.673924	0.274
0	C	0.326883	0.0729481	0.273873
0	C	0.0751043	0.749847	0.890987
0	C	0.257416	0.328343	0.891683
0	C	0.672917	0.929022	0.891147
0	C	0.583691	0.569495	0.637496
0	C	0.433979	0.0176437	0.637597
0	C	0.982038	0.416858	0.639329
0	C	0.795781	0.12131	0.0301322
0	C	0.880216	0.678035	0.0333628
0	C	0.322874	0.203502	0.0306492
0	C	0.202972	0.88095	0.133839
0	C	0.121723	0.325082	0.136466
0	C	0.676442	0.797666	0.136155
0	C	0.472215	0.453372	0.376652
0	C	0.545852	0.0205538	0.382686
0	C	0.982694	0.529061	0.375152
0	C	0.882778	0.229771	0.449032
0	C	0.769028	0.655327	0.446504
0	C	0.345548	0.117072	0.445742
0	C	0.11725	0.772569	0.716098
0	C	0.231347	0.346908	0.720527
0	C	0.653503	0.884016	0.720411
0	C	0.527995	0.548817	0.787784
0	C	0.454497	0.981648	0.785897
0	C	0.0177664	0.472155	0.790008
0	O	0.0867943	0.901666	0.455278
0	O	0.0994132	0.186383	0.448203
0	O	0.814371	0.914202	0.453165
0	O	0.912783	0.0992679	0.714194
0	O	0.900268	0.814934	0.715044
0	O	0.185923	0.0874189	0.710561
0	O	0.744406	0.228386	0.799594
0	O	0.772997	0.519958	0.795387
0	O	0.481498	0.255661	0.798074
0	O	0.588134	0.44062	0.0261969
0	O	0.558825	0.148364	0.0278579
0	O	0.852428	0.413389	0.0286247
0	O	0.412111	0.560754	0.139416
0	O	0.441048	0.853696	0.139195
0	O	0.14845	0.588622	0.136208
0	O	0.255467	0.773847	0.368385
0	O	0.227698	0.481725	0.368848
0	O	0.518332	0.745747	0.367573
0	O	0.169015	0.00497504	0.76207
0	O	0.996402	0.163662	0.75739
0	O	0.834057	0.831753	0.763798
0	O	0.831941	0.997002	0.403929
0	O	0.00375805	0.836504	0.407632
0	O	0.165802	0.170021	0.401399
0	O	0.834624	0.331368	0.102627
0	O	0.669704	0.506427	0.0986204
0	O	0.493269	0.164345	0.100617
0	O	0.497205	0.336869	0.727134
0	O	0.663198	0.162759	0.730091
0	O	0.839151	0.504003	0.729577
0	O	0.502793	0.664483	0.438561
0	O	0.336807	0.839716	0.437371
0	O	0.161996	0.498265	0.435182
0	O	0.165588	0.670712	0.0648198
0	O	0.330908	0.494914	0.0658239
0	O	0.506209	0.837222	0.065762
0	C	0.113505	0.887245	0.514822
0	C	0.113576	0.227067	0.509166
0	C	0.773586	0.888553	0.514357
0	C	0.886992	0.11402	0.651843
0	C	0.886294	0.774028	0.655163
0	C	0.226886	0.113584	0.650449
0	C	0.771188	0.212142	0.85182
0	C	0.788576	0.563036	0.846454
0	C	0.438299	0.228669	0.848835
0	C	0.560453	0.456206	0.976046
0	C	0.543642	0.105126	0.978239
0	C	0.89554	0.440639	0.977946
0	C	0.439897	0.545178	0.189063
0	C	0.456339	0.896952	0.188829
0	C	0.105373	0.561333	0.187016
0	C	0.228441	0.789755	0.315998
0	C	0.212059	0.438567	0.318158
0	C	0.561475	0.772825	0.31664
0	C	0.12613	0.858883	0.441933
0	C	0.141663	0.268442	0.437498
0	C	0.732433	0.876286	0.442627
0	C	0.874372	0.143092	0.722049
0	C	0.858485	0.732986	0.727986
0	C	0.267836	0.126017	0.723192
0	C	0.782799	0.185748	0.769575
0	C	0.814291	0.60074	0.763397
0	C	0.400852	0.217557	0.765498
0	C	0.549748	0.483068	0.0588322
0	C	0.517442	0.0677929	0.0617299
0	C	0.933135	0.451371	0.0604961
0	C	0.450756	0.51865	0.105641
0	C	0.482691	0.934291	0.105458
0	C	0.0677048	0.550553	0.104679
0	C	0.216657	0.816124	0.397899
0	C	0.186316	0.400989	0.401489
0	C	0.599006	0.784044	0.399828
0	C	0.173874	0.891968	0.402357
0	C	0.108317	0.283205	0.399679
0	C	0.717542	0.828434	0.402956
0	C	0.826571	0.110301	0.761941
0	C	0.891955	0.718401	0.765927
0	C	0.282427	0.173814	0.762635
0	C	0.831162	0.219009	0.733787
0	C	0.780646	0.615533	0.727936
0	C	0.386171	0.1694	0.728231
0	C	0.502101	0.44982	0.0987845
0	C	0.551067	0.0535209	0.100401
0	C	0.947889	0.499322	0.0991914
0	C	0.498472	0.552031	0.0663435
0	C	0.449168	0.948637	0.0664684
0	C	0.0530241	0.502638	0.0658229
0	C	0.16849	0.782616	0.43454
0	C	0.219912	0.386189	0.437321
0	C	0.613638	0.832203	0.437004
0	C	0.197429	0.924902	0.496715
0	C	0.0752181	0.272986	0.494164
0	C	0.726585	0.804627	0.497463
0	C	0.803026	0.0767421	0.668643
0	C	0.924768	0.728223	0.671031
0	C	0.273452	0.197493	0.667703
0	C	0.854646	0.246415	0.83608
0	C	0.752863	0.611138	0.829889
0	C	0.389499	0.145271	0.83005
0	C	0.477167	0.421876	0.998353
0	C	0.578564	0.0565194	0.999013
0	C	0.944621	0.524003	0.998436
0	C	0.523213	0.579699	0.167253
0	C	0.421424	0.945577	0.167425
0	C	0.0563284	0.477965	0.166552
0	C	0.144874	0.754677	0.333022
0	C	0.247675	0.390419	0.335447
0	C	0.610218	0.856235	0.335111
0	C	0.158741	0.928617	0.556265
0	C	0.0720654	0.230507	0.551967
0	C	0.769062	0.843083	0.55687
0	C	0.841769	0.0728375	0.609909
0	C	0.927844	0.770563	0.612603
0	C	0.231097	0.158955	0.608178
0	C	0.817016	0.251582	0.896962
0	C	0.748725	0.568916	0.891514
0	C	0.431726	0.182549	0.892946
0	C	0.514016	0.416487	0.934355
0	C	0.583654	0.0988191	0.936026
0	C	0.902255	0.48707	0.935457
0	C	0.486241	0.584909	0.231186
0	C	0.416372	0.903384	0.230842
0	C	0.0987318	0.514917	0.229389
0	C	0.182688	0.750063	0.271357
0	C	0.251883	0.43258	0.273371
0	C	0.567911	0.818897	0.272542
0	C	0.159803	0.973629	0.535403
0	C	0.0272632	0.186569	0.530843
0	C	0.812638	0.841206	0.537021
0	C	0.840488	0.0277219	0.63078
0	C	0.97261	0.814562	0.633553
0	C	0.187414	0.160606	0.628265
0	C	0.821245	0.298139	0.878423
0	C	0.702532	0.526213	0.874056
0	C	0.474162	0.178387	0.875504
0	C	0.510248	0.370107	0.952537
0	C	0.629834	0.141364	0.955092
0	C	0.859876	0.491226	0.95405
0	C	0.489952	0.631272	0.213168
0	C	0.370156	0.860836	0.212307
0	C	0.141123	0.510812	0.21052
0	C	0.178974	0.703688	0.289349
0	C	0.298086	0.475312	0.290564
0	C	0.525477	0.823021	0.290439
0	C	0.123603	0.977998	0.598498
0	C	0.023547	0.146017	0.592776
0	C	0.85313	0.877249	0.600209
0	C	0.876851	0.0233809	0.568282
0	C	0.976369	0.854951	0.570811
0	C	0.146939	0.124546	0.565076
0	C	0.786759	0.304858	0.942498
0	C	0.696818	0.485541	0.9387
0	C	0.514829	0.212575	0.941121
0	C	0.544788	0.363964	0.887047
0	C	0.635638	0.182194	0.890889
0	C	0.819042	0.456578	0.889579
0	C	0.455318	0.637308	0.27852
0	C	0.364398	0.820108	0.276863
0	C	0.181995	0.545507	0.274846
0	C	0.213601	0.697416	0.224687
0	C	0.303746	0.51588	0.225522
0	C	0.484724	0.788839	0.225045
0	C	0.126028	0.970246	0.719746
0	C	0.0312699	0.155743	0.714228
0	C	0.842794	0.874982	0.721353
0	C	0.874908	0.0314365	0.446981
0	C	0.968949	0.844893	0.449467
0	C	0.157199	0.126858	0.443869
0	C	0.790239	0.297705	0.0634888
0	C	0.704073	0.496538	0.0594803
0	C	0.503581	0.208735	0.0617619
0	C	0.541109	0.371425	0.766321
0	C	0.628307	0.17162	0.769903
0	C	0.829794	0.460015	0.768661
0	C	0.458957	0.629836	0.399251
0	C	0.371753	0.830893	0.397749
0	C	0.171324	0.5422	0.395786
0	C	0.209874	0.704649	0.103856
0	C	0.296472	0.504739	0.104818
0	C	0.495823	0.792777	0.104302
0	C	0.125866	0.925919	0.743097
0	C	0.0754418	0.199844	0.737796
0	C	0.798983	0.875917	0.743959
0	C	0.875396	0.0759349	0.423871
0	C	0.924658	0.800894	0.42615
0	C	0.201097	0.126107	0.421147
0	C	0.787239	0.252048	0.0874708
0	C	0.749229	0.539681	0.0827261
0	C	0.460605	0.211262	0.0848442
0	C	0.542376	0.416296	0.742553
0	C	0.583723	0.128056	0.745192
0	C	0.873118	0.458314	0.744235
0	C	0.457778	0.585003	0.423019
0	C	0.416317	0.874532	0.422172
0	C	0.128006	0.543908	0.420253
0	C	0.212275	0.750075	0.0804408
0	C	0.251372	0.461509	0.0817768
0	C	0.538722	0.790162	0.0807993
0	C	0.162652	0.923078	0.678876
0	C	0.0779055	0.239545	0.674706
0	C	0.759362	0.839542	0.67934
0	C	0.838281	0.0785632	0.487183
0	C	0.922068	0.761292	0.489931
0	C	0.240698	0.162593	0.485659
0	C	0.820213	0.244454	0.0190968
0	C	0.755978	0.579707	0.0134426
0	C	0.420679	0.178593	0.014747
0	C	0.509111	0.42279	0.81256
0	C	0.57761	0.0881616	0.813997
0	C	0.913088	0.491454	0.81351
0	C	0.491022	0.578482	0.352974
0	C	0.422512	0.914302	0.352754
0	C	0.0880003	0.510579	0.351376
0	C	0.179058	0.757087	0.14936
0	C	0.244689	0.421625	0.151518
0	C	0.578767	0.822805	0.150639
0	C	0.0887084	0.973158	0.781789
0	C	0.0288094	0.115489	0.775199
0	C	0.883035	0.911942	0.783664
0	C	0.912228	0.0283188	0.385511
0	C	0.971833	0.88504	0.387157
0	C	0.116962	0.0897915	0.381745
0	C	0.755286	0.303798	0.12775
0	C	0.699063	0.456051	0.124272
0	C	0.544069	0.24373	0.127064
0	C	0.577099	0.367135	0.70178
0	C	0.63219	0.212027	0.706733
0	C	0.789353	0.424096	0.704826
0	C	0.422848	0.634008	0.463586
0	C	0.367984	0.790633	0.461369
0	C	0.211797	0.578189	0.459422
0	C	0.245024	0.699077	0.0390854
0	C	0.301366	0.545095	0.039643
0	C	0.455263	0.757869	0.0390582
0	C	0.23872	0.969494	0.458379
0	C	0.0303389	0.269462	0.456728
0	C	0.729457	0.762941	0.459633
0	C	0.761802	0.0323252	0.70807
0	C	0.969727	0.73181	0.708039
0	C	0.270475	0.239141	0.70534
0	C	0.899179	0.290311	0.810024
0	C	0.708284	0.610558	0.803453
0	C	0.389435	0.100944	0.803629
0	C	0.433118	0.378038	0.0275697
0	C	0.622493	0.0560179	0.0264753
0	C	0.945066	0.568318	0.0272295
0	C	0.567309	0.623619	0.138762
0	C	0.377491	0.94591	0.138963
0	C	0.0558514	0.433629	0.137839
0	C	0.100945	0.710268	0.359777
0	C	0.292217	0.39094	0.361944
0	C	0.610334	0.900603	0.361359
0	C	0.271295	0.960166	0.392331
0	C	0.0390507	0.31154	0.392424
0	C	0.687643	0.730677	0.393352
0	C	0.729404	0.0419446	0.774066
0	C	0.961282	0.690055	0.773397
0	C	0.312358	0.271445	0.771427
0	C	0.931045	0.279912	0.744221
0	C	0.7172	0.651584	0.734552
0	C	0.349048	0.0698388	0.732054
0	C	0.402929	0.388103	0.101001
0	C	0.612564	0.0154533	0.0985089
0	C	0.986011	0.598901	0.0980662
0	C	0.597618	0.613767	0.0652145
0	C	0.387585	0.986658	0.0674328
0	C	0.0149188	0.403056	0.0669765
0	C	0.0693434	0.719284	0.430536
0	C	0.283283	0.35012	0.431691
0	C	0.650662	0.931674	0.433156
0	C	0.264531	0.00047216	0.553256
0	C	0.999233	0.263478	0.552148
0	C	0.734149	0.736935	0.555051
0	C	0.735674	0.00108273	0.61374
0	C	0.000452664	0.737335	0.612124
0	C	0.2657	0.265124	0.610079
0	C	0.923555	0.315755	0.912898
0	C	0.683073	0.610079	0.906313
0	C	0.38821	0.0755172	0.906761
0	C	0.406453	0.353356	0.926266
0	C	0.646873	0.0543344	0.924165
0	C	0.945817	0.594341	0.925667
0	C	0.593783	0.64801	0.24053
0	C	0.352437	0.947101	0.240519
0	C	0.0550486	0.407618	0.239477
0	C	0.0757634	0.685577	0.256914
0	C	0.317153	0.390931	0.259017
0	C	0.611694	0.92601	0.25808
0	H	0.830639	0.99421	0.270686
0	H	0.00774155	0.838773	0.274402
0	H	0.163049	0.171672	0.268756
0	H	0.169954	0.00863428	0.895145
0	H	0.993049	0.163043	0.891254
0	H	0.836861	0.830263	0.896947
0	H	0.496313	0.32686	0.597672
0	H	0.67265	0.171428	0.6005
0	H	0.831434	0.505556	0.599588
0	H	0.834784	0.342164	0.232673
0	H	0.658791	0.4954	0.228248
0	H	0.504575	0.164429	0.229801
0	H	0.165342	0.66002	0.934888
0	H	0.34186	0.506156	0.936368
0	H	0.495185	0.83726	0.936289
0	H	0.503551	0.674848	0.567797
0	H	0.327186	0.830916	0.567064
0	H	0.169916	0.497089	0.565224
0	H	0.923944	0.122738	0.946022
0	H	0.881181	0.805079	0.948198
0	H	0.195352	0.0775533	0.944067
0	H	0.0769242	0.882004	0.222467
0	H	0.119116	0.197462	0.217091
0	H	0.804385	0.925166	0.220037
0	H	0.590467	0.444053	0.259962
0	H	0.555591	0.147068	0.261004
0	H	0.854321	0.411112	0.261878
0	H	0.742655	0.219126	0.563623
0	H	0.782918	0.527036	0.559169
0	H	0.474352	0.256868	0.562091
0	H	0.257206	0.78321	0.60437
0	H	0.218119	0.475352	0.605095
0	H	0.525546	0.744963	0.603223
0	H	0.410054	0.557699	0.905742
0	H	0.44426	0.854833	0.906003
0	H	0.146029	0.591058	0.903101
0	H	0.769285	0.959418	0.0929901
0	H	0.0427051	0.811869	0.0974985
0	H	0.188334	0.23239	0.0895777
0	H	0.23055	0.0438823	0.0742731
0	H	0.959646	0.196291	0.0576207
0	H	0.811392	0.76965	0.0762001
0	H	0.445555	0.286642	0.403911
0	H	0.712822	0.159801	0.407863
0	H	0.844627	0.55825	0.408059
0	H	0.878104	0.384099	0.433574
0	H	0.616764	0.495036	0.430565
0	H	0.50539	0.122943	0.432173
0	H	0.120913	0.618081	0.735032
0	H	0.383856	0.507336	0.733312
0	H	0.49401	0.878569	0.733957
0	H	0.553822	0.715377	0.761997
0	H	0.287231	0.843295	0.75906
0	H	0.156429	0.444123	0.756312
0	H	0.719581	0.950545	0.234345
0	H	0.0501528	0.769711	0.238141
0	H	0.231157	0.283539	0.226628
0	H	0.281525	0.0522101	0.936482
0	H	0.955431	0.234093	0.90132
0	H	0.769091	0.718633	0.938515
0	H	0.382462	0.277435	0.50684
0	H	0.722141	0.10652	0.513147
0	H	0.897702	0.619404	0.516069
0	H	0.947553	0.402459	0.342911
0	H	0.596522	0.545336	0.342712
0	H	0.454564	0.0524603	0.344967
0	H	0.0522688	0.600443	0.828155
0	H	0.404596	0.457027	0.81951
0	H	0.544869	0.949206	0.820492
0	H	0.617421	0.724846	0.660447
0	H	0.278418	0.896513	0.652423
0	H	0.104042	0.383179	0.647077
0	H	0.765947	0.977789	0.323632
0	H	0.0245056	0.790697	0.327629
0	H	0.210126	0.238066	0.319246
0	H	0.235879	0.0274053	0.844489
0	H	0.987159	0.215212	0.827384
0	H	0.789428	0.764175	0.846252
0	H	0.417705	0.285533	0.618949
0	H	0.71364	0.133981	0.624056
0	H	0.870609	0.582662	0.625715
0	H	0.915354	0.39664	0.22614
0	H	0.602838	0.519927	0.224712
0	H	0.480373	0.0839287	0.226992
0	H	0.0851453	0.606939	0.944008
0	H	0.398647	0.482397	0.938071
0	H	0.519156	0.917899	0.938734
0	H	0.582599	0.717306	0.547798
0	H	0.287288	0.869038	0.542169
0	H	0.130793	0.420341	0.537905
0	H	0.768075	0.0466628	0.310864
0	H	0.954027	0.725895	0.315851
0	H	0.274683	0.231456	0.310022
0	H	0.230031	0.956632	0.854367
0	H	0.0532478	0.28332	0.847783
0	H	0.724266	0.769579	0.856485
0	H	0.440203	0.364095	0.635262
0	H	0.635258	0.0780583	0.640341
0	H	0.926589	0.560079	0.638095
0	H	0.89782	0.319481	0.195753
0	H	0.679208	0.580681	0.193817
0	H	0.420147	0.100554	0.195096
0	H	0.102888	0.684245	0.972254
0	H	0.32253	0.4215	0.970493
0	H	0.579512	0.901449	0.970834
0	H	0.5598	0.638633	0.530152
0	H	0.365624	0.924873	0.52698
0	H	0.0741051	0.441907	0.526395
0	H	0.712793	0.0155849	0.257432
0	H	0.983735	0.699456	0.265973
0	H	0.301314	0.287209	0.258237
0	H	0.28584	0.986019	0.905545
0	H	0.0202084	0.306023	0.898084
0	H	0.698434	0.714038	0.909324
0	H	0.384361	0.34294	0.586779
0	H	0.656641	0.0432873	0.593065
0	H	0.961177	0.616174	0.591265
0	H	0.95392	0.343845	0.245466
0	H	0.653746	0.611165	0.246082
0	H	0.389182	0.0447012	0.246955
0	H	0.0466318	0.659826	0.923602
0	H	0.347914	0.391119	0.916895
0	H	0.610366	0.957249	0.918548
0	H	0.615664	0.659662	0.578415
0	H	0.344297	0.959696	0.574178
0	H	0.040075	0.385752	0.573366
0	H	0.737689	0.0310539	0.0747378
0	H	0.969883	0.708671	0.0813224
0	H	0.292403	0.263068	0.074497
0	H	0.262014	0.971062	0.0895872
0	H	0.0326916	0.295764	0.0811766
0	H	0.707657	0.738752	0.0925683
0	H	0.408681	0.362847	0.401958
0	H	0.636776	0.047087	0.407849
0	H	0.956073	0.592964	0.405215
0	H	0.929124	0.318568	0.428174
0	H	0.680145	0.611681	0.427416
0	H	0.38826	0.0704874	0.428152
0	H	0.0708506	0.683968	0.739948
0	H	0.320395	0.390135	0.736822
0	H	0.61138	0.931288	0.737713
0	H	0.591371	0.639364	0.763221
0	H	0.363694	0.955577	0.759529
0	H	0.0452066	0.408878	0.759426
0	H	0.851118	0.071498	0.227166
0	H	0.930642	0.783923	0.228334
0	H	0.217337	0.149359	0.22324
0	H	0.147856	0.931832	0.941817
0	H	0.0722454	0.220529	0.934877
0	H	0.781697	0.851925	0.940921
0	H	0.523961	0.397545	0.538196
0	H	0.601857	0.128283	0.540867
0	H	0.875347	0.477597	0.540454
0	H	0.812714	0.274245	0.287253
0	H	0.726668	0.541946	0.283041
0	H	0.458959	0.186737	0.286104
0	H	0.187207	0.728229	0.880675
0	H	0.274033	0.459994	0.880991
0	H	0.54072	0.815032	0.879617
0	H	0.47592	0.604486	0.627695
0	H	0.398129	0.874016	0.626491
0	H	0.125105	0.524398	0.623674
0	H	0.857794	0.103634	0.108049
0	H	0.898883	0.758745	0.108787
0	H	0.242454	0.142453	0.103766
0	H	0.141505	0.900003	0.0612675
0	H	0.103357	0.245071	0.0555579
0	H	0.756676	0.859164	0.0601262
0	H	0.529339	0.428792	0.418179
0	H	0.570676	0.101965	0.421176
0	H	0.900889	0.471982	0.420103
0	H	0.809505	0.242229	0.403716
0	H	0.758393	0.57058	0.399849
0	H	0.430509	0.189916	0.403292
0	H	0.190526	0.760216	0.764065
0	H	0.242468	0.431512	0.763903
0	H	0.569314	0.812043	0.762474
0	H	0.470757	0.573254	0.747592
0	H	0.429364	0.900177	0.746228
0	H	0.0993922	0.529815	0.743953
0	H	0.884471	0.0305265	0.136211
0	H	0.973461	0.857712	0.135959
0	H	0.143436	0.118231	0.131266
0	H	0.116455	0.974374	0.0344239
0	H	0.0285351	0.146431	0.024922
0	H	0.855875	0.884244	0.0315821
0	H	0.54959	0.350746	0.439799
0	H	0.648506	0.200087	0.441106
0	H	0.803065	0.452707	0.442856
0	H	0.77929	0.313209	0.387382
0	H	0.689035	0.469273	0.381629
0	H	0.531591	0.220566	0.384503
0	H	0.220693	0.689233	0.780951
0	H	0.312036	0.532758	0.782413
0	H	0.468149	0.780988	0.781018
0	H	0.45025	0.651154	0.726723
0	H	0.351142	0.802231	0.726363
0	H	0.197532	0.550146	0.720722
0	H	0.921055	0.0897813	0.120729
0	H	0.914477	0.836553	0.11932
0	H	0.164828	0.0804715	0.114948
0	H	0.079038	0.915311	0.0507345
0	H	0.0873222	0.167209	0.044386
0	H	0.833918	0.921524	0.0476496
0	H	0.58943	0.409154	0.422112
0	H	0.590111	0.18154	0.422364
0	H	0.821256	0.412482	0.424057
0	H	0.744074	0.253672	0.401018
0	H	0.748668	0.494374	0.394869
0	H	0.506959	0.255576	0.39945
0	H	0.255915	0.748783	0.767115
0	H	0.252429	0.507849	0.769089
0	H	0.493044	0.746208	0.76594
0	H	0.410531	0.592718	0.744383
0	H	0.409478	0.820446	0.7447
0	H	0.178698	0.589841	0.740065
0	H	0.837804	0.0171095	0.846424
0	H	0.986133	0.822146	0.847748
0	H	0.179015	0.165738	0.842029
0	H	0.164533	0.986894	0.322678
0	H	0.0133158	0.180377	0.312443
0	H	0.821551	0.837633	0.322194
0	H	0.498679	0.34387	0.154891
0	H	0.655941	0.154925	0.157824
0	H	0.846864	0.50387	0.157934
0	H	0.829109	0.319926	0.675909
0	H	0.681186	0.510488	0.671545
0	H	0.489794	0.170773	0.673995
0	H	0.170938	0.682088	0.492379
0	H	0.319558	0.491189	0.492487
0	H	0.51011	0.831019	0.491618
0	H	0.501562	0.658051	0.0111501
0	H	0.344186	0.847595	0.00958485
0	H	0.154403	0.498756	0.00603609
0	H	0.8314	0.985237	0.965647
0	H	0.0183486	0.847883	0.966313
0	H	0.153313	0.172773	0.960077
0	H	0.170835	0.0191718	0.204317
0	H	0.982352	0.155663	0.19163
0	H	0.846917	0.83034	0.203859
0	H	0.491314	0.308549	0.267786
0	H	0.691091	0.183124	0.270701
0	H	0.819377	0.511538	0.271484
0	H	0.83497	0.356753	0.567739
0	H	0.644769	0.479674	0.562779
0	H	0.520369	0.164782	0.565084
0	H	0.165096	0.645505	0.601144
0	H	0.356159	0.522051	0.600929
0	H	0.47925	0.836811	0.60014
0	H	0.508672	0.693377	0.89844
0	H	0.308933	0.819421	0.896831
0	H	0.181839	0.491253	0.892135
0	H	0.809473	0.0620852	0.938215
0	H	0.940446	0.749837	0.94138
0	H	0.251279	0.192207	0.936041
0	H	0.191318	0.941225	0.228568
0	H	0.060322	0.253253	0.22233
0	H	0.748853	0.810488	0.229322
0	H	0.476528	0.390535	0.258962
0	H	0.609012	0.0867332	0.263205
0	H	0.915557	0.525077	0.261265
0	H	0.858337	0.280165	0.566055
0	H	0.71993	0.579896	0.563176
0	H	0.420578	0.141549	0.565276
0	H	0.141686	0.722049	0.601383
0	H	0.280743	0.421941	0.601353
0	H	0.579186	0.860604	0.600553
0	H	0.523722	0.61153	0.906459
0	H	0.391074	0.915736	0.904234
0	H	0.0854573	0.477171	0.903186
0	H	0.768762	0.00355692	0.947494
0	H	0.998721	0.766598	0.952456
0	H	0.234618	0.233913	0.945722
0	H	0.232639	0.999549	0.218387
0	H	0.00223903	0.236893	0.207922
0	H	0.765741	0.768915	0.220666
0	H	0.433185	0.333063	0.268477
0	H	0.666412	0.100468	0.273338
0	H	0.902026	0.568964	0.27152
0	H	0.897963	0.339148	0.565507
0	H	0.660717	0.559738	0.563152
0	H	0.439994	0.101804	0.564376
0	H	0.102048	0.663056	0.602452
0	H	0.339902	0.441899	0.601123
0	H	0.559407	0.900045	0.601675
0	H	0.566969	0.669048	0.896924
0	H	0.333668	0.902008	0.893904
0	H	0.099237	0.433463	0.893086
0	H	0.956131	0.0713796	0.959742
0	H	0.933791	0.888929	0.95574
0	H	0.111484	0.0473907	0.952804
0	H	0.0456718	0.934406	0.214952
0	H	0.0658738	0.113529	0.205473
0	H	0.887799	0.955622	0.208153
0	H	0.617486	0.385841	0.255921
0	H	0.613589	0.232136	0.254815
0	H	0.769608	0.3852	0.258807
0	H	0.710672	0.272607	0.564836
0	H	0.7309	0.44172	0.557988
0	H	0.559755	0.289145	0.562497
0	H	0.289331	0.72953	0.604012
0	H	0.270593	0.560651	0.606113
0	H	0.440277	0.712583	0.602964
0	H	0.382528	0.615535	0.911526
0	H	0.386038	0.769974	0.912177
0	H	0.230955	0.617501	0.904181
0	H	0.917481	0.0125976	0.966441
0	H	0.992324	0.908055	0.965624
0	H	0.0930835	0.0875062	0.96094
0	H	0.0846657	0.992968	0.204196
0	H	0.00754354	0.0951528	0.194084
0	H	0.906697	0.915873	0.201378
0	H	0.575038	0.328403	0.265207
0	H	0.671053	0.247166	0.26609
0	H	0.755183	0.428198	0.268159
0	H	0.75017	0.331146	0.560543
0	H	0.672174	0.421752	0.552641
0	H	0.579186	0.249851	0.555958
0	H	0.249642	0.671028	0.607799
0	H	0.329263	0.580207	0.610603
0	H	0.420671	0.751735	0.609611
0	H	0.424663	0.673067	0.901839
0	H	0.32863	0.755187	0.901608
0	H	0.245644	0.574693	0.894945
0	H	0.922683	0.0430173	0.846717
0	H	0.962763	0.882978	0.844977
0	H	0.11782	0.0818728	0.840864
0	H	0.0805893	0.963735	0.325198
0	H	0.0366379	0.119336	0.315797
0	H	0.882051	0.921872	0.321234
0	H	0.580913	0.35952	0.146147
0	H	0.64054	0.221651	0.1466
0	H	0.780093	0.421893	0.149005
0	H	0.744818	0.29944	0.678043
0	H	0.703073	0.447708	0.671188
0	H	0.553405	0.254851	0.674921
0	H	0.255328	0.702909	0.490416
0	H	0.297947	0.554188	0.49257
0	H	0.446499	0.746848	0.490596
0	H	0.419308	0.642079	0.0208206
0	H	0.359434	0.780689	0.0207855
0	H	0.220891	0.581066	0.0142875
0	H	0.809561	0.114903	0.197448
0	H	0.885983	0.699072	0.199859
0	H	0.301846	0.189497	0.19745
0	H	0.188909	0.887936	0.967085
0	H	0.118067	0.306009	0.968998
0	H	0.69726	0.811679	0.969269
0	H	0.482185	0.438797	0.54114
0	H	0.560853	0.0448404	0.547249
0	H	0.958805	0.518385	0.540107
0	H	0.856802	0.238614	0.296913
0	H	0.760381	0.621094	0.293649
0	H	0.380197	0.14188	0.293063
0	H	0.14371	0.764627	0.86841
0	H	0.241104	0.381367	0.87356
0	H	0.619354	0.860102	0.873994
0	H	0.517867	0.56361	0.623627
0	H	0.439764	0.957638	0.621097
0	H	0.0413771	0.482937	0.624789
0	H	0.751251	0.140094	0.181125
0	H	0.859715	0.61524	0.186005
0	H	0.38556	0.246407	0.183648
0	H	0.246513	0.861667	0.981443
0	H	0.144631	0.389792	0.987682
0	H	0.613655	0.754271	0.983892
0	H	0.428059	0.469043	0.536523
0	H	0.530919	0.960738	0.542104
0	H	0.0429904	0.572346	0.534469
0	H	0.919285	0.219013	0.269187
0	H	0.778331	0.702442	0.266893
0	H	0.298393	0.0790733	0.266968
0	H	0.081088	0.78447	0.894422
0	H	0.22297	0.299869	0.899661
0	H	0.701522	0.923036	0.897166
0	H	0.572143	0.533455	0.62761
0	H	0.470013	0.0418458	0.627135
0	H	0.957218	0.428163	0.632076
0	H	0.711313	0.0859129	0.133716
0	H	0.914088	0.628458	0.142066
0	H	0.372645	0.287385	0.136002
0	H	0.287094	0.915696	0.0283074
0	H	0.0897787	0.376402	0.0280141
0	H	0.627128	0.713571	0.0306405
0	H	0.386934	0.419057	0.473151
0	H	0.580393	0.969422	0.475965
0	H	0.0338882	0.61382	0.473248
0	H	0.959419	0.274395	0.310384
0	H	0.72314	0.686835	0.311011
0	H	0.313952	0.039324	0.310675
0	H	0.0410166	0.72847	0.857392
0	H	0.277876	0.315341	0.853594
0	H	0.685587	0.962555	0.854027
0	H	0.613295	0.583553	0.690467
0	H	0.420309	0.0331289	0.692137
0	H	0.9673	0.387059	0.691704
0	H	0.733149	0.0927889	0.265933
0	H	0.906319	0.644052	0.27293
0	H	0.356742	0.265285	0.267769
0	H	0.264707	0.909003	0.896692
0	H	0.0991665	0.362268	0.897076
0	H	0.642699	0.735922	0.89898
0	H	0.40499	0.417137	0.605576
0	H	0.583348	0.989204	0.608974
0	H	0.0144684	0.595311	0.60577
0	H	0.926464	0.265688	0.192889
0	H	0.731272	0.662861	0.192191
0	H	0.337911	0.0714079	0.191996
0	H	0.0749087	0.73897	0.973995
0	H	0.270528	0.339431	0.973127
0	H	0.662273	0.930716	0.973338
0	H	0.594865	0.585276	0.558313
0	H	0.417851	0.0135891	0.559049
0	H	0.986148	0.406066	0.559138
0	H	0.805692	0.157341	0.0353192
0	H	0.843981	0.652771	0.0378645
0	H	0.348658	0.19309	0.0359543
0	H	0.193023	0.844937	0.128436
0	H	0.158163	0.349957	0.134697
0	H	0.650643	0.808059	0.130796
0	H	0.481161	0.488786	0.38836
0	H	0.510435	0.994418	0.395279
0	H	0.00917574	0.519936	0.385258
0	H	0.867749	0.193485	0.434455
0	H	0.805171	0.677084	0.431295
0	H	0.323868	0.131569	0.429547
0	H	0.132023	0.808907	0.72938
0	H	0.195261	0.325464	0.736941
0	H	0.675151	0.8695	0.736763
0	H	0.518864	0.513386	0.775471
0	H	0.489948	0.00781511	0.77388
0	H	0.991174	0.48114	0.780054
0	H	0.825098	0.119547	0.99922
0	H	0.883011	0.709271	0.000299659
0	H	0.291786	0.174506	0.999217
0	H	0.173693	0.882713	0.165023
0	H	0.117954	0.293273	0.168426
0	H	0.707511	0.826666	0.167679
0	H	0.50277	0.45327	0.348413
0	H	0.546021	0.0512318	0.354306
0	H	0.952047	0.498684	0.346751
0	H	0.860611	0.234526	0.505362
0	H	0.765103	0.628496	0.502074
0	H	0.372354	0.140057	0.501036
0	H	0.139549	0.76773	0.660361
0	H	0.235193	0.373705	0.664953
0	H	0.626415	0.860737	0.666062
0	H	0.497571	0.549011	0.816675
0	H	0.45424	0.950876	0.813863
0	H	0.0483515	0.502588	0.81841
0	H	0.76881	0.105775	0.969957
0	H	0.895491	0.665466	0.975221
0	H	0.334712	0.230673	0.970879
0	H	0.230017	0.896406	0.193852
0	H	0.106082	0.337452	0.1941
0	H	0.664601	0.770474	0.195891
0	H	0.447179	0.439699	0.311683
0	H	0.559057	0.0087853	0.317511
0	H	0.993868	0.554416	0.310939
0	H	0.915393	0.241146	0.489891
0	H	0.757162	0.675984	0.48851
0	H	0.324819	0.0848354	0.488443
0	H	0.08455	0.760682	0.675201
0	H	0.242674	0.325928	0.67796
0	H	0.67409	0.915975	0.676602
0	H	0.553158	0.562255	0.852428
0	H	0.44112	0.993234	0.851088
0	H	0.00670302	0.446755	0.8541
0	H	0.0992617	0.91085	0.37781
0	H	0.0898165	0.189909	0.371303
0	H	0.81032	0.901529	0.3757
0	H	0.900592	0.0919521	0.792303
0	H	0.909895	0.811796	0.792147
0	H	0.189315	0.100243	0.787704
0	H	0.758574	0.242496	0.726025
0	H	0.758979	0.519555	0.721392
0	H	0.482074	0.241532	0.724908
0	H	0.573678	0.424402	0.0976673
0	H	0.575292	0.150385	0.0992149
0	H	0.851001	0.428098	0.100127
0	H	0.426587	0.577221	0.0681704
0	H	0.424619	0.851734	0.0678371
0	H	0.149778	0.574051	0.0643771
0	H	0.241373	0.759743	0.441997
0	H	0.2418	0.482246	0.442809
0	H	0.517727	0.75994	0.440621
0	H	0.176215	0.0364093	0.73571
0	H	0.964833	0.139162	0.733005
0	H	0.858276	0.824361	0.738406
0	H	0.824701	0.965402	0.429073
0	H	0.0351986	0.860731	0.433443
0	H	0.141259	0.177138	0.425934
0	H	0.843968	0.362188	0.0690195
0	H	0.639009	0.484309	0.0656501
0	H	0.515091	0.155344	0.0672336
0	H	0.488937	0.306078	0.759726
0	H	0.693961	0.185554	0.762108
0	H	0.816184	0.512037	0.760521
0	H	0.511019	0.695224	0.40579
0	H	0.306068	0.816899	0.405401
0	H	0.184765	0.490052	0.403859
0	H	0.156653	0.639856	0.0976875
0	H	0.361552	0.517026	0.0991233
0	H	0.48445	0.846273	0.0992927
0	H	0.0905562	0.8676	0.581754
0	H	0.133398	0.223453	0.575371
0	H	0.777776	0.91213	0.58066
0	H	0.910522	0.133094	0.585276
0	H	0.866313	0.777209	0.588692
0	H	0.223293	0.0902964	0.583998
0	H	0.748409	0.190607	0.916884
0	H	0.810499	0.562454	0.91158
0	H	0.439148	0.25115	0.91433
0	H	0.582365	0.477336	0.909301
0	H	0.522115	0.10546	0.911794
0	H	0.894595	0.418453	0.911578
0	H	0.418008	0.523802	0.255551
0	H	0.477788	0.896537	0.255373
0	H	0.106348	0.583512	0.253453
0	H	0.251103	0.811244	0.250695
0	H	0.190149	0.439084	0.252922
0	H	0.560647	0.750364	0.251126
0	H	0.10213	0.843903	0.374303
0	H	0.156708	0.259937	0.368949
0	H	0.741206	0.900288	0.375045
0	H	0.898323	0.158716	0.789503
0	H	0.84369	0.741839	0.79648
0	H	0.258918	0.102011	0.790805
0	H	0.758753	0.173822	0.701048
0	H	0.826076	0.588545	0.694769
0	H	0.413192	0.242035	0.697803
0	H	0.574777	0.495737	0.125639
0	H	0.505057	0.080238	0.129078
0	H	0.920792	0.426653	0.127961
0	H	0.42586	0.506255	0.0385545
0	H	0.495126	0.921847	0.0382086
0	H	0.079967	0.575311	0.0372969
0	H	0.240864	0.828524	0.46606
0	H	0.174539	0.413314	0.469879
0	H	0.586744	0.759591	0.4676
0	H	0.125377	0.830284	0.486117
0	H	0.170213	0.295966	0.482307
0	H	0.704904	0.877241	0.487818
0	H	0.875168	0.171231	0.675772
0	H	0.829791	0.70525	0.68406
0	H	0.295585	0.12519	0.678744
0	H	0.78081	0.155093	0.805863
0	H	0.84499	0.629523	0.799021
0	H	0.371975	0.219298	0.801419
0	H	0.550871	0.513172	0.0218873
0	H	0.4872	0.0387715	0.0256856
0	H	0.961849	0.449724	0.0236786
0	H	0.449543	0.488386	0.141878
0	H	0.512907	0.963275	0.141702
0	H	0.0389729	0.552113	0.141687
0	H	0.218214	0.846493	0.360974
0	H	0.155606	0.372168	0.36604
0	H	0.627884	0.782342	0.363796
0	H	0.19244	0.874512	0.377791
0	H	0.125641	0.319392	0.377014
0	H	0.681657	0.810162	0.377992
0	H	0.808012	0.127907	0.785187
0	H	0.874734	0.682325	0.789542
0	H	0.318274	0.192222	0.787966
0	H	0.848513	0.201592	0.700873
0	H	0.797861	0.650412	0.695772
0	H	0.351674	0.152253	0.694059
0	H	0.48508	0.467184	0.133851
0	H	0.534044	0.0192263	0.135617
0	H	0.982325	0.51628	0.133494
0	H	0.515567	0.534781	0.0310604
0	H	0.46628	0.982966	0.0314417
0	H	0.0185985	0.485654	0.0314915
0	H	0.150915	0.799881	0.467173
0	H	0.202663	0.351355	0.469718
0	H	0.648137	0.849402	0.471096
0	H	0.172038	0.9103	0.329754
0	H	0.0901736	0.263667	0.326314
0	H	0.737757	0.830111	0.330634
0	H	0.828405	0.0924271	0.835435
0	H	0.910325	0.738278	0.838709
0	H	0.262051	0.172084	0.834696
0	H	0.830884	0.241317	0.668584
0	H	0.758653	0.593124	0.662199
0	H	0.40918	0.170055	0.663637
0	H	0.503501	0.427802	0.163416
0	H	0.57327	0.0769314	0.164645
0	H	0.924828	0.498399	0.164142
0	H	0.497171	0.574227	0.00205665
0	H	0.427095	0.925295	0.00198103
0	H	0.0761152	0.50363	0.000866861
0	H	0.169221	0.760708	0.500203
0	H	0.241932	0.408684	0.502928
0	H	0.590636	0.831556	0.501579
0	H	0.210378	0.908435	0.553123
0	H	0.0913474	0.302038	0.551484
0	H	0.697229	0.792048	0.553777
0	H	0.789931	0.0927618	0.6113
0	H	0.908445	0.698995	0.614255
0	H	0.302876	0.210079	0.611596
0	H	0.863593	0.225081	0.887362
0	H	0.77357	0.6416	0.880899
0	H	0.358884	0.135975	0.880162
0	H	0.467402	0.442867	0.948175
0	H	0.557342	0.025944	0.94878
0	H	0.975119	0.533446	0.947736
0	H	0.532885	0.55857	0.217169
0	H	0.442449	0.976211	0.21766
0	H	0.0258565	0.468549	0.21733
0	H	0.135156	0.775442	0.281853
0	H	0.226915	0.359892	0.284666
0	H	0.640773	0.865466	0.284819
0	H	0.193396	0.00208095	0.559539
0	H	0.998652	0.191382	0.556171
0	H	0.807084	0.807489	0.562065
0	H	0.806936	0.999389	0.60608
0	H	0.00128412	0.809738	0.608939
0	H	0.192844	0.194307	0.603476
0	H	0.855565	0.324986	0.903238
0	H	0.675344	0.533254	0.899147
0	H	0.46671	0.143962	0.899449
0	H	0.475918	0.343064	0.92875
0	H	0.65707	0.134344	0.930692
0	H	0.86718	0.525552	0.929364
0	H	0.524244	0.65833	0.237177
0	H	0.342992	0.867962	0.236921
0	H	0.133885	0.476501	0.235095
0	H	0.144752	0.676652	0.264719
0	H	0.32527	0.468239	0.265724
0	H	0.532874	0.857443	0.266659
0	H	0.155889	0.977479	0.447587
0	H	0.023258	0.179153	0.44297
0	H	0.820542	0.84479	0.449311
0	H	0.844158	0.0237459	0.718629
0	H	0.976465	0.822192	0.721409
0	H	0.179536	0.156934	0.715996
0	H	0.817934	0.303118	0.79087
0	H	0.697394	0.51763	0.786671
0	H	0.482978	0.182179	0.788214
0	H	0.514081	0.365236	0.0398901
0	H	0.634595	0.149604	0.0426728
0	H	0.85153	0.487852	0.0415385
0	H	0.486191	0.636207	0.125816
0	H	0.365242	0.85246	0.124821
0	H	0.149403	0.514217	0.122982
0	H	0.182502	0.698709	0.376796
0	H	0.303226	0.484041	0.377882
0	H	0.516781	0.819199	0.377807
0	H	0.127592	0.0118388	0.584744
0	H	0.989988	0.116036	0.578581
0	H	0.882823	0.872933	0.586945
0	H	0.872712	0.98946	0.5818
0	H	0.00985382	0.885018	0.585129
0	H	0.117193	0.128745	0.578579
0	H	0.792179	0.339234	0.92789
0	H	0.662673	0.456256	0.924748
0	H	0.543825	0.207083	0.927457
0	H	0.539675	0.329638	0.900584
0	H	0.669807	0.211389	0.904935
0	H	0.789916	0.461785	0.903627
0	H	0.460341	0.671601	0.264995
0	H	0.330241	0.790863	0.263011
0	H	0.211112	0.540293	0.260766
0	H	0.208471	0.663119	0.23885
0	H	0.337889	0.5452	0.239335
0	H	0.455719	0.794265	0.239198
0	H	0.089689	0.953109	0.567226
0	H	0.048821	0.13754	0.560832
0	H	0.862333	0.911213	0.568652
0	H	0.910652	0.048131	0.600376
0	H	0.950954	0.86341	0.601836
0	H	0.137852	0.0905809	0.596452
0	H	0.752148	0.280806	0.913514
0	H	0.721305	0.475445	0.909692
0	H	0.525518	0.247325	0.912647
0	H	0.579435	0.388114	0.915774
0	H	0.611246	0.192382	0.92023
0	H	0.808725	0.421963	0.918575
0	H	0.420703	0.6131	0.249728
0	H	0.38881	0.809913	0.247721
0	H	0.192296	0.580095	0.245658
0	H	0.248182	0.721627	0.253565
0	H	0.279254	0.526004	0.254344
0	H	0.474121	0.754076	0.253286
0	H	0.0921489	0.896918	0.724679
0	H	0.104528	0.195264	0.718362
0	H	0.804155	0.909869	0.725459
0	H	0.909045	0.104809	0.443481
0	H	0.895647	0.80566	0.445079
0	H	0.196042	0.0922042	0.439692
0	H	0.752148	0.224587	0.074263
0	H	0.777189	0.532633	0.0699362
0	H	0.467929	0.24637	0.072698
0	H	0.577176	0.44457	0.754415
0	H	0.555188	0.13427	0.757438
0	H	0.866466	0.423413	0.756035
0	H	0.422987	0.556702	0.411267
0	H	0.44487	0.868304	0.410493
0	H	0.134598	0.578765	0.407996
0	H	0.24724	0.777807	0.093608
0	H	0.223356	0.468498	0.0942734
0	H	0.531345	0.755036	0.0929402
0	H	0.131677	0.923944	0.83098
0	H	0.0775862	0.2074	0.825815
0	H	0.790959	0.870138	0.831734
0	H	0.870103	0.07831	0.33589
0	H	0.922557	0.793186	0.338225
0	H	0.209051	0.131872	0.333345
0	H	0.794876	0.251071	0.174522
0	H	0.750076	0.548528	0.169561
0	H	0.451556	0.203056	0.171508
0	H	0.534026	0.41676	0.655763
0	H	0.583455	0.119671	0.65813
0	H	0.881737	0.466525	0.657291
0	H	0.466155	0.584575	0.509788
0	H	0.41652	0.883097	0.509073
0	H	0.119473	0.535884	0.507294
0	H	0.204482	0.751056	0.993493
0	H	0.250578	0.452555	0.995034
0	H	0.547659	0.798333	0.994075
0	H	0.161459	0.890734	0.696063
0	H	0.110243	0.270582	0.691829
0	H	0.728511	0.841405	0.69573
0	H	0.839411	0.11087	0.469907
0	H	0.889756	0.730239	0.472906
0	H	0.271615	0.160895	0.469004
0	H	0.8148	0.209949	0.0342895
0	H	0.790264	0.609052	0.0280308
0	H	0.391384	0.183765	0.0294542
0	H	0.513052	0.456585	0.797036
0	H	0.544014	0.0582395	0.7978
0	H	0.942681	0.486994	0.797806
0	H	0.486976	0.544613	0.368357
0	H	0.456169	0.944188	0.368654
0	H	0.0583418	0.514913	0.367183
0	H	0.183873	0.791348	0.134271
0	H	0.210397	0.392196	0.137106
0	H	0.608006	0.817579	0.135609
0	H	0.196143	0.950228	0.707244
0	H	0.0507824	0.245847	0.703989
0	H	0.752443	0.805858	0.708115
0	H	0.804951	0.0513437	0.458212
0	H	0.949215	0.75494	0.460925
0	H	0.247418	0.196232	0.457012
0	H	0.855078	0.268428	0.0466752
0	H	0.731642	0.590263	0.0407857
0	H	0.409924	0.143553	0.0411367
0	H	0.474216	0.397656	0.787301
0	H	0.603105	0.078825	0.788226
0	H	0.923085	0.526359	0.787465
0	H	0.525919	0.603522	0.37844
0	H	0.397146	0.923821	0.378344
0	H	0.078162	0.475731	0.377583
0	H	0.144218	0.732649	0.122371
0	H	0.269068	0.411068	0.124491
0	H	0.589532	0.857853	0.124277
0	H	0.0922423	0.970452	0.868901
0	H	0.0326948	0.121863	0.862187
0	H	0.876494	0.908759	0.870655
0	H	0.909213	0.0315776	0.298403
0	H	0.968828	0.878609	0.300132
0	H	0.123516	0.0927465	0.294782
0	H	0.75975	0.301811	0.214778
0	H	0.700572	0.462515	0.211245
0	H	0.537657	0.238343	0.213989
0	H	0.571941	0.368161	0.614815
0	H	0.630987	0.206207	0.61959
0	H	0.795486	0.428695	0.617774
0	H	0.427963	0.633044	0.550584
0	H	0.369443	0.796692	0.548438
0	H	0.205697	0.57366	0.546491
0	H	0.240417	0.701094	0.95215
0	H	0.300387	0.538696	0.952705
0	H	0.461706	0.763153	0.952117
0	H	0.0550321	0.946316	0.758414
0	H	0.0551539	0.108218	0.749181
0	H	0.890555	0.945808	0.759437
0	H	0.945934	0.0547043	0.410121
0	H	0.945122	0.892145	0.410856
0	H	0.109358	0.0559613	0.406541
0	H	0.720713	0.278174	0.107014
0	H	0.725467	0.44798	0.104415
0	H	0.55207	0.278259	0.108451
0	H	0.611226	0.394263	0.720919
0	H	0.604974	0.218868	0.727068
0	H	0.781938	0.38988	0.725202
0	H	0.388771	0.606797	0.444388
0	H	0.395121	0.783704	0.440802
0	H	0.21918	0.61238	0.438889
0	H	0.279518	0.724936	0.0597294
0	H	0.274615	0.552801	0.058347
0	H	0.447076	0.723301	0.0579029
0	H	0.0901869	0.00555576	0.767423
0	H	0.996117	0.0848345	0.762774
0	H	0.913568	0.909613	0.770511
0	H	0.910182	0.995608	0.399114
0	H	0.0043159	0.915792	0.400833
0	H	0.0864463	0.092201	0.394428
0	H	0.758671	0.336981	0.112323
0	H	0.666377	0.4258	0.108523
0	H	0.574345	0.241308	0.110526
0	H	0.575784	0.334971	0.718627
0	H	0.664286	0.242783	0.723765
0	H	0.758831	0.426084	0.721227
0	H	0.42405	0.666109	0.446588
0	H	0.335826	0.759863	0.444979
0	H	0.242315	0.576199	0.44303
0	H	0.242016	0.666028	0.054119
0	H	0.333805	0.575542	0.0561205
0	H	0.425079	0.760473	0.0554393
0	H	0.226595	0.987689	0.405073
0	H	0.0124676	0.239505	0.402442
0	H	0.75976	0.774631	0.40668
0	H	0.773972	0.014234	0.761568
0	H	0.987827	0.762004	0.761522
0	H	0.240194	0.227422	0.75839
0	H	0.891294	0.312817	0.760314
0	H	0.686035	0.579491	0.755776
0	H	0.420881	0.109288	0.758021
0	H	0.441921	0.355108	0.0726541
0	H	0.645549	0.087449	0.0720891
0	H	0.913909	0.559888	0.0742472
0	H	0.558579	0.646671	0.0939965
0	H	0.354763	0.914575	0.0926575
0	H	0.0870114	0.442032	0.0908605
0	H	0.109757	0.687627	0.406102
0	H	0.314639	0.422153	0.40895
0	H	0.578855	0.892315	0.406735
0	H	0.300539	0.992208	0.365292
0	H	0.00681113	0.308505	0.365803
0	H	0.690149	0.701148	0.366725
0	H	0.700255	0.0100104	0.801983
0	H	0.99361	0.693501	0.800712
0	H	0.3097	0.300819	0.798754
0	H	0.963653	0.310508	0.730816
0	H	0.686316	0.653478	0.724038
0	H	0.346767	0.0368866	0.721521
0	H	0.370277	0.357584	0.11486
0	H	0.642903	0.0126515	0.11006
0	H	0.988106	0.631587	0.112228
0	H	0.630372	0.644276	0.0522144
0	H	0.357181	0.989256	0.054926
0	H	0.0126662	0.370266	0.0533493
0	H	0.0365727	0.688532	0.440928
0	H	0.314138	0.34819	0.442461
0	H	0.652993	0.964656	0.443541
0	H	0.255272	0.940208	0.319897
0	H	0.059149	0.31614	0.319852
0	H	0.684062	0.746815	0.320593
0	H	0.745604	0.0622267	0.845999
0	H	0.940979	0.685469	0.845565
0	H	0.316221	0.255268	0.843753
0	H	0.917049	0.265913	0.664964
0	H	0.729371	0.64997	0.654012
0	H	0.351851	0.0841401	0.651585
0	H	0.418406	0.400698	0.180096
0	H	0.600775	0.0183855	0.178557
0	H	0.984149	0.58377	0.177129
0	H	0.582341	0.601588	0.985785
0	H	0.399898	0.984106	0.987731
0	H	0.0169341	0.418081	0.987682
0	H	0.0834077	0.730967	0.511072
0	H	0.271167	0.352013	0.512102
0	H	0.647742	0.917369	0.513679
0	H	0.284286	0.94195	0.439395
0	H	0.0568339	0.342413	0.440574
0	H	0.656448	0.718123	0.440021
0	H	0.716235	0.0598994	0.726605
0	H	0.943822	0.659	0.725783
0	H	0.343459	0.284328	0.724251
0	H	0.937867	0.255529	0.785881
0	H	0.742384	0.683406	0.771558
0	H	0.316943	0.0635989	0.766784
0	H	0.395963	0.413392	0.0653752
0	H	0.58673	0.983555	0.0630706
0	H	0.0178185	0.605794	0.0601908
0	H	0.60437	0.58823	0.100212
0	H	0.413069	0.0185045	0.103847
0	H	0.983119	0.396384	0.104494
0	H	0.062825	0.744884	0.395079
0	H	0.25803	0.318193	0.395232
0	H	0.682791	0.937848	0.398699
0	H	0.242356	0.0083855	0.601999
0	H	0.991733	0.233258	0.599771
0	H	0.764018	0.758963	0.604314
0	H	0.757808	0.993453	0.564054
0	H	0.00741479	0.767082	0.563195
0	H	0.235484	0.243266	0.561682
0	H	0.901897	0.324351	0.961732
0	H	0.675071	0.58036	0.956513
0	H	0.416264	0.0971854	0.961155
0	H	0.427188	0.345989	0.87096
0	H	0.653811	0.0824349	0.869337
0	H	0.916237	0.573759	0.874268
0	H	0.572999	0.655414	0.295585
0	H	0.344249	0.918135	0.293504
0	H	0.0845171	0.428255	0.291141
0	H	0.0976745	0.679235	0.203027
0	H	0.324696	0.420191	0.207571
0	H	0.58369	0.904347	0.203577
0	H	0.29277	0.03286	0.524748
0	H	0.966658	0.259206	0.524222
0	H	0.738289	0.708554	0.52697
0	H	0.707787	0.968597	0.642783
0	H	0.0332875	0.742158	0.639607
0	H	0.262177	0.293859	0.638285
0	H	0.95437	0.347402	0.893852
0	H	0.651122	0.60875	0.887272
0	H	0.391177	0.0457313	0.888495
0	H	0.37657	0.321133	0.946827
0	H	0.679285	0.0567413	0.943603
0	H	0.945252	0.625249	0.946219
0	H	0.623822	0.680191	0.220521
0	H	0.32063	0.94581	0.219919
0	H	0.0557586	0.37677	0.219056
0	H	0.0462607	0.652813	0.275775
0	H	0.349309	0.392679	0.27793
0	H	0.608761	0.955833	0.27613
0	H	0.278452	0.985045	0.606916
0	H	0.0143356	0.292463	0.60671
0	H	0.704686	0.723196	0.608109
0	H	0.721218	0.0162241	0.560839
0	H	0.985322	0.707905	0.558904
0	H	0.294876	0.278411	0.556171
0	H	0.933157	0.295672	0.963616
0	H	0.703043	0.640172	0.955647
0	H	0.356735	0.0640711	0.951522
0	H	0.394873	0.373448	0.881763
0	H	0.626788	0.0228152	0.879467
0	H	0.97603	0.60411	0.876928
0	H	0.605069	0.627695	0.285099
0	H	0.372641	0.977903	0.287568
0	H	0.0247322	0.397735	0.287908
0	H	0.0639017	0.705132	0.211397
0	H	0.297184	0.360436	0.210956
0	H	0.643192	0.937384	0.213466
