#******************************************
#
# CIF file created by Zeo++
# Zeo++ is an open source package to
# analyze microporous materials
#
#*******************************************

_cell_length_a		43.2323(0)
_cell_length_b		42.9444(0)
_cell_length_c		8.99246(0)
_cell_angle_alpha		90(0)
_cell_angle_beta		90(0)
_cell_angle_gamma		119.748(0)

_symmetry_space_group_name_H-M		'P1'
_symmetry_Int_Tables_number		1
_symmetry_cell_setting		Monoclinic

loop_
_symmetry_equiv_pos_as_xyz
'+x,+y,+z'

loop_
_atom_site_label
_atom_site_type_symbol
_atom_site_fract_x
_atom_site_fract_y
_atom_site_fract_z
0	C	0.451111	0.0566776	0.956952
0	C	0.942435	0.397103	0.950565
0	C	0.601392	0.551092	0.960868
0	C	0.544381	0.947434	0.982098
0	C	0.0527242	0.60759	0.990375
0	C	0.393591	0.453635	0.987742
0	C	0.115672	0.391038	0.290947
0	C	0.606875	0.732111	0.289171
0	C	0.267541	0.886074	0.289015
0	C	0.213415	0.278603	0.321926
0	C	0.720122	0.94176	0.323182
0	C	0.0581618	0.78829	0.323716
0	C	0.781836	0.72583	0.621132
0	C	0.275069	0.0626843	0.61963
0	C	0.936999	0.216056	0.618992
0	C	0.879506	0.613437	0.652161
0	C	0.388363	0.272234	0.654127
0	C	0.727689	0.118239	0.653049
0	C	0.450419	0.0914904	0.910259
0	C	0.907856	0.361647	0.905355
0	C	0.636499	0.551488	0.913205
0	C	0.545002	0.912642	0.0295607
0	C	0.0873273	0.642977	0.0360214
0	C	0.358484	0.453296	0.0347048
0	C	0.115239	0.426058	0.245091
0	C	0.572309	0.696664	0.243821
0	C	0.302713	0.886389	0.243326
0	C	0.213873	0.243615	0.367958
0	C	0.755271	0.976411	0.370028
0	C	0.0231694	0.788204	0.370034
0	C	0.781341	0.760811	0.575306
0	C	0.239932	0.0280105	0.572903
0	C	0.972038	0.216183	0.573124
0	C	0.879921	0.578419	0.698199
0	C	0.422944	0.307645	0.699731
0	C	0.692535	0.117921	0.69903
0	H	0.477982	0.113231	0.886966
0	H	0.886149	0.367668	0.882172
0	H	0.630463	0.523714	0.888644
0	H	0.517436	0.890991	0.0535087
0	H	0.10896	0.636871	0.0595951
0	H	0.364527	0.481088	0.0589012
0	H	0.142829	0.447694	0.221489
0	H	0.550566	0.702612	0.22037
0	H	0.296764	0.858584	0.219994
0	H	0.186279	0.221989	0.391735
0	H	0.776206	0.969317	0.393985
0	H	0.0293588	0.816065	0.394165
0	H	0.808933	0.782481	0.551784
0	H	0.21896	0.0350671	0.549134
0	H	0.965904	0.188324	0.549359
0	H	0.852336	0.556828	0.722198
0	H	0.444661	0.301664	0.723129
0	H	0.698512	0.145713	0.722871
0	C	0.424648	0.0891488	0.785834
0	C	0.910028	0.337763	0.781686
0	C	0.659978	0.577575	0.78949
0	C	0.570868	0.915108	0.153824
0	C	0.0851209	0.666869	0.159569
0	C	0.334902	0.427269	0.158367
0	C	0.0894558	0.424008	0.121262
0	C	0.574602	0.672861	0.120103
0	C	0.326314	0.912265	0.119309
0	C	0.239716	0.245707	0.491566
0	C	0.753805	0.000667296	0.493728
0	C	0.999455	0.762228	0.493375
0	C	0.755536	0.758719	0.451556
0	C	0.241401	0.00378885	0.449076
0	C	0.995749	0.242112	0.44966
0	C	0.905786	0.580491	0.821713
0	C	0.420647	0.331416	0.823636
0	C	0.668903	0.0919427	0.822717
0	H	0.427774	0.078746	0.678924
0	H	0.920165	0.351002	0.674227
0	H	0.646579	0.574822	0.682806
0	H	0.567904	0.925737	0.260442
0	H	0.0748622	0.653604	0.266883
0	H	0.348217	0.43006	0.265316
0	H	0.0923333	0.4135	0.0141672
0	H	0.584884	0.68618	0.012868
0	H	0.31303	0.909314	0.0121507
0	H	0.236861	0.256183	0.598742
0	H	0.742803	0.987395	0.60036
0	H	0.0126803	0.764834	0.600384
0	H	0.758469	0.748313	0.344344
0	H	0.252358	0.0170729	0.342416
0	H	0.982543	0.239416	0.342536
0	H	0.903019	0.591079	0.928797
0	H	0.410336	0.31805	0.930762
0	H	0.682174	0.0947678	0.929813
0	C	0.42766	0.126802	0.769021
0	C	0.872647	0.303328	0.766424
0	C	0.694172	0.574179	0.771476
0	C	0.56772	0.877418	0.171695
0	C	0.122532	0.701246	0.175361
0	C	0.300731	0.430738	0.175493
0	C	0.0928178	0.461819	0.104695
0	C	0.537219	0.638475	0.104008
0	C	0.360552	0.908886	0.102984
0	C	0.236379	0.20791	0.507864
0	C	0.791873	0.0338923	0.511414
0	C	0.965554	0.766145	0.510243
0	C	0.758788	0.796481	0.435448
0	C	0.203355	0.970534	0.431506
0	C	0.0297076	0.238283	0.433254
0	C	0.902344	0.542646	0.838424
0	C	0.458032	0.365798	0.840029
0	C	0.634719	0.0954053	0.839371
0	H	0.416157	0.128755	0.660384
0	H	0.870549	0.289601	0.65821
0	H	0.70763	0.585932	0.663193
0	H	0.57934	0.875597	0.280235
0	H	0.12457	0.714969	0.283521
0	H	0.287217	0.419081	0.283784
0	H	0.0812824	0.463884	0.996314
0	H	0.535254	0.624785	0.995781
0	H	0.374111	0.920493	0.994675
0	H	0.247948	0.205843	0.616159
0	H	0.79423	0.0476569	0.619794
0	H	0.951977	0.75453	0.618483
0	H	0.747242	0.798553	0.327089
0	H	0.200992	0.956785	0.323082
0	H	0.0432895	0.249869	0.324979
0	H	0.913922	0.540593	0.946706
0	H	0.459966	0.379478	0.948281
0	H	0.621153	0.0837491	0.947605
0	C	0.464573	0.159724	0.785774
0	C	0.839902	0.307708	0.7837
0	C	0.689817	0.536821	0.78634
0	C	0.530707	0.844583	0.156219
0	C	0.155222	0.696748	0.158768
0	C	0.305143	0.468099	0.159687
0	C	0.129878	0.494536	0.120908
0	C	0.504529	0.64299	0.120284
0	C	0.356181	0.871548	0.119268
0	C	0.199307	0.175198	0.491634
0	C	0.82353	0.0276729	0.496153
0	C	0.970418	0.803692	0.494406
0	C	0.795816	0.829247	0.45198
0	C	0.171655	0.97668	0.446992
0	C	0.0249539	0.200786	0.449507
0	C	0.865235	0.509986	0.822598
0	C	0.49071	0.361261	0.823939
0	C	0.639184	0.132792	0.823582
0	N	0.463384	0.180032	0.911125
0	N	0.819877	0.2864	0.909355
0	N	0.711183	0.53751	0.910671
0	N	0.5316	0.824024	0.0312117
0	N	0.17539	0.718029	0.0332941
0	N	0.283886	0.467348	0.0348678
0	N	0.129051	0.514986	0.246408
0	N	0.484431	0.621936	0.246311
0	N	0.377265	0.872356	0.244999
0	N	0.200093	0.154808	0.365734
0	N	0.844369	0.0482693	0.370544
0	N	0.949578	0.803346	0.3687
0	N	0.794929	0.849554	0.577995
0	N	0.150869	0.956052	0.57264
0	N	0.0458376	0.201274	0.575343
0	N	0.865942	0.489445	0.697207
0	N	0.510859	0.382336	0.698017
0	N	0.618154	0.132134	0.697961
0	C	0.429503	0.16385	0.98246
0	C	0.836073	0.268425	0.980537
0	C	0.729171	0.571485	0.98314
0	C	0.565336	0.840006	0.95879
0	C	0.15932	0.736058	0.961568
0	C	0.265827	0.433283	0.963078
0	C	0.0951752	0.499203	0.317854
0	C	0.50044	0.60385	0.318023
0	C	0.395103	0.906418	0.316745
0	C	0.233944	0.170628	0.294157
0	C	0.82981	0.0676628	0.298296
0	C	0.931262	0.769322	0.296691
0	C	0.761042	0.833641	0.649263
0	C	0.165484	0.936682	0.644653
0	C	0.0640138	0.23532	0.647201
0	C	0.89977	0.505115	0.625395
0	C	0.49482	0.400348	0.625958
0	C	0.600182	0.0981003	0.626017
0	C	0.405745	0.128643	0.904048
0	C	0.871105	0.279706	0.902057
0	C	0.717884	0.595763	0.907071
0	C	0.589382	0.875241	0.0364261
0	C	0.124261	0.724909	0.0395682
0	C	0.277069	0.409057	0.0399465
0	C	0.0711728	0.463936	0.240222
0	C	0.535436	0.614805	0.239822
0	C	0.384076	0.930666	0.238659
0	C	0.258003	0.205825	0.372203
0	C	0.795086	0.0582176	0.375813
0	C	0.941837	0.744683	0.374518
0	C	0.737077	0.798457	0.570994
0	C	0.200214	0.946208	0.566997
0	C	0.053367	0.259851	0.568941
0	C	0.923873	0.54041	0.702689
0	C	0.459861	0.389492	0.704232
0	C	0.611166	0.0737537	0.703552
0	H	0.380676	0.127619	0.867508
0	H	0.872303	0.255537	0.866023
0	H	0.74184	0.62102	0.871172
0	H	0.614408	0.876126	0.0726279
0	H	0.123122	0.749121	0.0753909
0	H	0.253092	0.38384	0.075969
0	H	0.0461413	0.463071	0.203987
0	H	0.536443	0.590521	0.203951
0	H	0.408116	0.955901	0.20285
0	H	0.28301	0.206617	0.408077
0	H	0.795368	0.0831504	0.411761
0	H	0.917584	0.719717	0.410229
0	H	0.71205	0.79761	0.534994
0	H	0.199965	0.921299	0.530906
0	H	0.0775923	0.284833	0.533111
0	H	0.948902	0.54124	0.738697
0	H	0.458895	0.413796	0.740109
0	H	0.587105	0.0485237	0.739167
0	C	0.397597	0.094553	0.99497
0	C	0.905044	0.30563	0.991895
0	C	0.692334	0.604052	0.999257
0	C	0.597617	0.909244	0.944654
0	C	0.0903662	0.699075	0.949294
0	C	0.302664	0.400704	0.948472
0	C	0.0628407	0.429784	0.331181
0	C	0.569346	0.640579	0.330266
0	C	0.358415	0.939114	0.329247
0	C	0.266281	0.239971	0.281412
0	C	0.760937	0.0336966	0.284069
0	C	0.967165	0.735916	0.283266
0	C	0.728831	0.764292	0.661589
0	C	0.234374	0.97076	0.65865
0	C	0.0279619	0.268589	0.65977
0	C	0.932196	0.574527	0.611514
0	C	0.425953	0.363773	0.613675
0	C	0.636785	0.065322	0.612563
0	H	0.377048	0.0879896	0.0796665
0	H	0.911755	0.291707	0.0770617
0	H	0.706355	0.624474	0.0848128
0	H	0.618063	0.915588	0.85969
0	H	0.0837719	0.713054	0.86396
0	H	0.288695	0.380244	0.863011
0	H	0.0424492	0.423445	0.416485
0	H	0.5759	0.62653	0.415518
0	H	0.372339	0.959648	0.414534
0	H	0.286626	0.24634	0.195906
0	H	0.75557	0.048529	0.198349
0	H	0.953042	0.715552	0.197581
0	H	0.708436	0.757848	0.746931
0	H	0.239786	0.955939	0.744272
0	H	0.0420328	0.289005	0.745333
0	H	0.952514	0.580788	0.525942
0	H	0.419421	0.377862	0.528513
0	H	0.622837	0.0448579	0.527044
0	C	0.433568	0.0989278	0.0534887
0	C	0.900745	0.337606	0.0493973
0	C	0.66067	0.567905	0.0566576
0	C	0.561657	0.904935	0.886384
0	C	0.0946122	0.667054	0.891971
0	C	0.334386	0.43682	0.891083
0	C	0.0986846	0.433666	0.388877
0	C	0.565119	0.672592	0.387821
0	C	0.326681	0.903072	0.387065
0	C	0.230382	0.235988	0.224059
0	C	0.76359	0.000813322	0.226355
0	C	0.999126	0.771865	0.226147
0	C	0.764738	0.768334	0.719158
0	C	0.23168	0.00360778	0.716525
0	C	0.996038	0.232639	0.717055
0	C	0.896338	0.570689	0.554271
0	C	0.430167	0.331767	0.555871
0	C	0.66857	0.101389	0.555186
0	H	0.450849	0.12609	0.100125
0	H	0.873823	0.328081	0.0966049
0	H	0.670208	0.550163	0.10214
0	H	0.544256	0.877729	0.840362
0	H	0.121558	0.676524	0.845121
0	H	0.324899	0.454557	0.84511
0	H	0.116125	0.460764	0.435824
0	H	0.538191	0.663018	0.435133
0	H	0.336258	0.885509	0.434275
0	H	0.212911	0.208872	0.177354
0	H	0.79035	0.00929855	0.179306
0	H	0.989849	0.78973	0.179624
0	H	0.782147	0.795442	0.766088
0	H	0.204922	0.995081	0.76368
0	H	0.00535242	0.214836	0.763931
0	H	0.878823	0.543573	0.507632
0	H	0.457097	0.341345	0.508567
0	H	0.659033	0.11902	0.508366
0	C	0.432282	0.0702217	0.163028
0	C	0.929438	0.365072	0.157698
0	C	0.633621	0.569365	0.166891
0	C	0.562949	0.933537	0.77622
0	C	0.0659756	0.639652	0.783327
0	C	0.361459	0.435243	0.78139
0	C	0.0971588	0.404713	0.497799
0	C	0.593794	0.70004	0.496256
0	C	0.299484	0.90472	0.495863
0	C	0.231845	0.264878	0.115014
0	C	0.73445	0.974268	0.117031
0	C	0.0261188	0.769999	0.116924
0	C	0.763305	0.739431	0.828058
0	C	0.260831	0.030183	0.825783
0	C	0.968976	0.234492	0.825907
0	C	0.89785	0.599609	0.445209
0	C	0.40151	0.30438	0.447238
0	C	0.695745	0.0997738	0.446146
0	C	0.47209	0.0823584	0.201836
0	C	0.917274	0.393024	0.196257
0	C	0.60586	0.529314	0.204647
0	C	0.52313	0.921453	0.737895
0	C	0.0780592	0.611614	0.745191
0	C	0.389272	0.475248	0.74325
0	C	0.136949	0.416568	0.535979
0	C	0.581564	0.727973	0.534417
0	C	0.271685	0.864707	0.534305
0	C	0.192049	0.252966	0.0771114
0	C	0.74527	0.945351	0.0777609
0	C	0.054073	0.809943	0.0789482
0	C	0.803111	0.751392	0.866113
0	C	0.249969	0.0590619	0.865193
0	C	0.941063	0.194544	0.864081
0	C	0.858056	0.587798	0.407434
0	C	0.413707	0.276425	0.408878
0	C	0.723579	0.139798	0.408111
0	H	0.487138	0.111907	0.217265
0	H	0.887955	0.378789	0.212668
0	H	0.619971	0.513841	0.219048
0	H	0.507988	0.891888	0.723196
0	H	0.107389	0.625776	0.729189
0	H	0.375208	0.49075	0.72827
0	H	0.152216	0.446096	0.55147
0	H	0.552235	0.713759	0.550211
0	H	0.285783	0.849261	0.54997
0	H	0.176813	0.223438	0.0618821
0	H	0.774544	0.958761	0.0614014
0	H	0.0401315	0.825539	0.0635188
0	H	0.818296	0.780915	0.88153
0	H	0.220699	0.0456154	0.881696
0	H	0.955047	0.178999	0.879853
0	H	0.842735	0.558266	0.392196
0	H	0.443036	0.290613	0.393218
0	H	0.709511	0.155281	0.392752
0	C	0.480067	0.0631788	0.329389
0	C	0.936458	0.42034	0.322954
0	C	0.578979	0.521318	0.332546
0	C	0.515116	0.940506	0.609974
0	C	0.0589219	0.584324	0.618397
0	C	0.416174	0.483082	0.615582
0	C	0.144861	0.39724	0.663157
0	C	0.600624	0.755205	0.661373
0	C	0.244677	0.8569	0.661506
0	C	0.184056	0.272204	0.949868
0	C	0.725423	0.91843	0.950659
0	C	0.0810315	0.817634	0.951761
0	C	0.811125	0.732143	0.993249
0	C	0.269824	0.0860153	0.992221
0	C	0.914054	0.186853	0.991056
0	C	0.850121	0.607101	0.28026
0	C	0.394657	0.249261	0.281696
0	C	0.750587	0.147656	0.280851
0	H	0.468736	0.063724	0.437877
0	H	0.936172	0.408578	0.431647
0	H	0.590867	0.532443	0.441252
0	H	0.526304	0.939743	0.501409
0	H	0.0593322	0.596101	0.509598
0	H	0.404308	0.471877	0.506952
0	H	0.133644	0.397891	0.771788
0	H	0.600208	0.743362	0.769967
0	H	0.256492	0.86821	0.770062
0	H	0.195257	0.271548	0.841194
0	H	0.725963	0.930543	0.842623
0	H	0.0692023	0.806315	0.843249
0	H	0.799896	0.732745	0.101916
0	H	0.269337	0.0739228	0.100247
0	H	0.925843	0.198228	0.0995606
0	H	0.861261	0.606382	0.171529
0	H	0.395126	0.261163	0.173182
0	H	0.738778	0.136417	0.172211
0	C	0.521235	0.0786969	0.338438
0	C	0.92093	0.446296	0.33204
0	C	0.553108	0.479933	0.340498
0	C	0.473968	0.925132	0.601534
0	C	0.0743378	0.558268	0.609813
0	C	0.442111	0.524443	0.607004
0	C	0.185991	0.412356	0.671719
0	C	0.585156	0.781203	0.670185
0	C	0.218737	0.815537	0.670445
0	C	0.142913	0.256911	0.941544
0	C	0.739978	0.89172	0.93968
0	C	0.106911	0.858974	0.942723
0	C	0.852285	0.747509	0.00159169
0	C	0.255201	0.11267	0.00326668
0	C	0.888234	0.1455	0.000252131
0	C	0.809003	0.592043	0.272082
0	C	0.410039	0.223191	0.272658
0	C	0.776563	0.189015	0.272262
0	H	0.528586	0.0714897	0.447192
0	H	0.928213	0.461054	0.4403
0	H	0.538626	0.472545	0.449179
0	H	0.466592	0.93226	0.49265
0	H	0.0670764	0.54352	0.501529
0	H	0.456649	0.531708	0.498437
0	H	0.193327	0.404986	0.780072
0	H	0.592543	0.795924	0.778536
0	H	0.204109	0.808304	0.778768
0	H	0.135519	0.264273	0.833274
0	H	0.732014	0.876946	0.831554
0	H	0.12154	0.866145	0.834365
0	H	0.859718	0.740191	0.109868
0	H	0.263145	0.127453	0.111374
0	H	0.873589	0.138312	0.108553
0	H	0.80165	0.599392	0.163717
0	H	0.402639	0.208491	0.164252
0	H	0.79121	0.196279	0.163974
0	C	0.54486	0.118918	0.313941
0	C	0.880904	0.429845	0.308954
0	C	0.569233	0.455851	0.315172
0	C	0.450204	0.884972	0.626973
0	C	0.114332	0.574575	0.633401
0	C	0.426019	0.54859	0.631209
0	C	0.209774	0.452562	0.647667
0	C	0.545149	0.76489	0.647099
0	C	0.234889	0.79142	0.647043
0	C	0.119284	0.216685	0.965486
0	C	0.779967	0.907357	0.960421
0	C	0.0907598	0.883108	0.965757
0	C	0.875832	0.787743	0.977524
0	C	0.215202	0.0969607	0.982567
0	C	0.904463	0.121423	0.977406
0	C	0.785156	0.551863	0.296483
0	C	0.450035	0.23942	0.295735
0	C	0.76044	0.213153	0.295834
0	N	0.566665	0.123694	0.185187
0	N	0.87575	0.446811	0.180258
0	N	0.552323	0.43427	0.185547
0	N	0.428581	0.880474	0.756008
0	N	0.119323	0.557597	0.762422
0	N	0.442902	0.570305	0.760599
0	N	0.231454	0.457313	0.518495
0	N	0.540034	0.781667	0.517675
0	N	0.218167	0.76965	0.517697
0	N	0.0976621	0.211829	0.0950997
0	N	0.785053	0.890542	0.0897912
0	N	0.107558	0.904948	0.0951492
0	N	0.897519	0.792638	0.848087
0	N	0.210074	0.113783	0.853293
0	N	0.887703	0.099534	0.848116
0	N	0.763535	0.547229	0.425702
0	N	0.455105	0.222622	0.425165
0	N	0.777159	0.234864	0.42535
0	C	0.559393	0.0907614	0.116907
0	C	0.908238	0.472113	0.110493
0	C	0.527083	0.442031	0.117821
0	C	0.436004	0.91355	0.823421
0	C	0.0867442	0.532319	0.831692
0	C	0.467999	0.562492	0.829312
0	C	0.223983	0.424369	0.449814
0	C	0.572569	0.806967	0.44822
0	C	0.19299	0.777297	0.448585
0	C	0.105179	0.2447	0.164302
0	C	0.752548	0.865749	0.160848
0	C	0.132442	0.897044	0.164949
0	C	0.890053	0.759783	0.778893
0	C	0.242549	0.138586	0.782096
0	C	0.86277	0.107347	0.778182
0	C	0.771043	0.580232	0.494001
0	C	0.42254	0.19732	0.494445
0	C	0.80227	0.227123	0.494476
0	C	0.529466	0.0606378	0.204325
0	C	0.938478	0.472248	0.19688
0	C	0.527107	0.472147	0.2064
0	C	0.465953	0.943466	0.735252
0	C	0.0566281	0.532317	0.744834
0	C	0.46802	0.532302	0.74151
0	C	0.193931	0.394259	0.536962
0	C	0.602773	0.80718	0.535226
0	C	0.192923	0.807573	0.535565
0	C	0.134926	0.27492	0.0764759
0	C	0.722371	0.865949	0.0752707
0	C	0.132685	0.866912	0.0776946
0	C	0.860322	0.729538	0.86666
0	C	0.272763	0.138448	0.867635
0	C	0.862472	0.137482	0.865184
0	C	0.801164	0.61025	0.406743
0	C	0.392373	0.197187	0.407497
0	C	0.802343	0.196888	0.407193
0	H	0.538029	0.0414767	0.242674
0	H	0.95756	0.500035	0.233603
0	H	0.499556	0.463681	0.244241
0	H	0.457463	0.962649	0.696395
0	H	0.037514	0.504555	0.707929
0	H	0.495586	0.540714	0.704075
0	H	0.202284	0.374817	0.573951
0	H	0.62178	0.835	0.571987
0	H	0.165321	0.799212	0.572404
0	H	0.126294	0.294164	0.0399023
0	H	0.702954	0.838212	0.0392767
0	H	0.160308	0.875371	0.0411728
0	H	0.868962	0.710299	0.903195
0	H	0.292159	0.166189	0.903584
0	H	0.834837	0.129012	0.901565
0	H	0.792874	0.629728	0.369553
0	H	0.373336	0.169387	0.370606
0	H	0.829951	0.205269	0.370366
0	C	0.493005	0.0408218	0.122311
0	C	0.958137	0.455195	0.114642
0	C	0.543953	0.50905	0.125777
0	C	0.5025	0.963278	0.816613
0	C	0.0369892	0.549461	0.826561
0	C	0.451111	0.495461	0.82271
0	C	0.157368	0.374712	0.455439
0	C	0.622542	0.790179	0.453467
0	C	0.209895	0.844353	0.453796
0	C	0.171534	0.294715	0.157599
0	C	0.703257	0.883462	0.158495
0	C	0.115802	0.830133	0.159481
0	C	0.823732	0.709737	0.785427
0	C	0.29189	0.120969	0.784292
0	C	0.879335	0.174225	0.783119
0	C	0.83777	0.629766	0.487972
0	C	0.372631	0.214209	0.489347
0	C	0.785353	0.160054	0.48855
0	H	0.491755	0.0211667	0.0414533
0	H	0.977504	0.47339	0.0331342
0	H	0.525744	0.510711	0.0456643
0	H	0.503913	0.983092	0.897008
0	H	0.0175253	0.531293	0.90784
0	H	0.46928	0.493835	0.903143
0	H	0.155819	0.354896	0.374607
0	H	0.642044	0.808421	0.372411
0	H	0.191787	0.845957	0.372897
0	H	0.172993	0.314529	0.238222
0	H	0.683746	0.865352	0.239852
0	H	0.133962	0.828623	0.240391
0	H	0.822308	0.689962	0.704678
0	H	0.311359	0.139085	0.702813
0	H	0.861183	0.175675	0.701998
0	H	0.839396	0.649635	0.568704
0	H	0.353083	0.195952	0.570229
0	H	0.803455	0.158393	0.569317
0	C	0.484327	0.0694894	0.0592721
0	C	0.929697	0.417853	0.052854
0	C	0.580908	0.517504	0.0621672
0	C	0.511089	0.934594	0.880227
0	C	0.0654577	0.586769	0.88854
0	C	0.414159	0.487128	0.885948
0	C	0.148917	0.403576	0.392904
0	C	0.594131	0.75287	0.391193
0	C	0.246909	0.852681	0.39126
0	C	0.180118	0.265967	0.220284
0	C	0.732189	0.920441	0.220972
0	C	0.0788277	0.821793	0.22219
0	C	0.81511	0.738472	0.722896
0	C	0.262977	0.0839643	0.721933
0	C	0.916344	0.182595	0.720734
0	C	0.8462	0.600888	0.550556
0	C	0.401073	0.251472	0.551928
0	C	0.748345	0.151705	0.551186
0	H	0.507974	0.0916932	0.00450094
0	H	0.907461	0.419384	0.998555
0	H	0.579228	0.493693	0.00633174
0	H	0.487443	0.912516	0.935532
0	H	0.0876074	0.585155	0.943252
0	H	0.415862	0.511002	0.941275
0	H	0.172608	0.425664	0.337888
0	H	0.571986	0.754465	0.336387
0	H	0.245235	0.828764	0.336468
0	H	0.156504	0.243856	0.275626
0	H	0.754032	0.918316	0.275944
0	H	0.0804635	0.845634	0.277596
0	H	0.838722	0.760622	0.667699
0	H	0.241098	0.0860443	0.667114
0	H	0.914759	0.158743	0.665611
0	H	0.822516	0.578849	0.605791
0	H	0.423178	0.249803	0.606725
0	H	0.750028	0.175588	0.606346
0	O	0.421661	0.039238	0.0642674
0	O	0.960009	0.38506	0.0578036
0	O	0.613626	0.580557	0.0690261
0	O	0.573743	0.964667	0.874312
0	O	0.035303	0.619713	0.88279
0	O	0.381375	0.424087	0.879896
0	O	0.0862788	0.373766	0.398435
0	O	0.6244	0.720036	0.396489
0	O	0.279599	0.915726	0.396323
0	O	0.242755	0.295857	0.214158
0	O	0.703571	0.954937	0.215956
0	O	0.0458869	0.758739	0.215806
0	O	0.752469	0.708498	0.728737
0	O	0.291677	0.0495399	0.726722
0	O	0.949195	0.245653	0.726641
0	O	0.908836	0.630618	0.544325
0	O	0.370879	0.284371	0.546863
0	O	0.715603	0.0886613	0.545362
0	C	0.467837	0.0256778	0.259268
0	C	0.973535	0.445229	0.251449
0	C	0.554185	0.534166	0.263614
0	C	0.527547	0.97814	0.679164
0	C	0.0217639	0.559506	0.689405
0	C	0.440888	0.470227	0.685272
0	C	0.132251	0.359714	0.592689
0	C	0.637775	0.780101	0.590521
0	C	0.219998	0.869681	0.590933
0	C	0.196561	0.309736	0.0201404
0	C	0.688245	0.894144	0.0225305
0	C	0.105684	0.804809	0.0224038
0	C	0.798683	0.694644	0.922782
0	C	0.30697	0.110329	0.920151
0	C	0.889375	0.199594	0.920011
0	C	0.862822	0.644671	0.350483
0	C	0.357472	0.224383	0.352326
0	C	0.775239	0.134805	0.35115
0	H	0.472801	0.00774263	0.329705
0	H	0.991409	0.468179	0.321092
0	H	0.531542	0.529313	0.334436
0	H	0.522608	0.996028	0.608315
0	H	0.00390569	0.536582	0.619617
0	H	0.463545	0.474991	0.614729
0	H	0.137002	0.341582	0.662844
0	H	0.655621	0.803	0.66053
0	H	0.197287	0.864947	0.661152
0	H	0.191669	0.327791	0.950118
0	H	0.669931	0.871404	0.952884
0	H	0.128435	0.809533	0.952504
0	H	0.803594	0.676586	0.992719
0	H	0.325296	0.133091	0.989721
0	H	0.866594	0.194869	0.989683
0	H	0.858065	0.662789	0.280268
0	H	0.339626	0.201523	0.282147
0	H	0.797948	0.139562	0.280871
0	H	0.439427	0.0109078	0.228541
0	H	0.988196	0.431294	0.220631
0	H	0.568051	0.562824	0.233727
0	H	0.555987	0.992849	0.709403
0	H	0.00714155	0.573505	0.71984
0	H	0.426965	0.441595	0.715528
0	H	0.103821	0.345279	0.562117
0	H	0.652417	0.766132	0.559746
0	H	0.233927	0.8983	0.560267
0	H	0.225021	0.324298	0.0503354
0	H	0.674265	0.908738	0.0541531
0	H	0.0916908	0.776178	0.0528868
0	H	0.770231	0.680055	0.892468
0	H	0.320969	0.0957591	0.888441
0	H	0.903331	0.228212	0.889305
0	H	0.891269	0.659082	0.380791
0	H	0.34285	0.23837	0.38316
0	H	0.761279	0.106163	0.38149
0	C	0.387913	0.0674703	0.864771
0	C	0.931734	0.322517	0.860777
0	C	0.675295	0.614409	0.869973
0	C	0.607532	0.936548	0.0741287
0	C	0.0635539	0.68221	0.0800232
0	C	0.319608	0.390392	0.0782837
0	C	0.0527675	0.402651	0.200859
0	C	0.596184	0.657529	0.199669
0	C	0.341534	0.949235	0.198562
0	C	0.276364	0.267094	0.411767
0	C	0.733709	0.0175673	0.413583
0	C	0.983883	0.72535	0.413048
0	C	0.718857	0.737237	0.531039
0	C	0.261557	0.98692	0.528988
0	C	0.0112311	0.279028	0.529615
0	C	0.942417	0.601747	0.741599
0	C	0.39909	0.346786	0.744157
0	C	0.653626	0.055037	0.742878
0	H	0.381708	0.0405229	0.9019
0	H	0.95855	0.343131	0.89687
0	H	0.654877	0.620849	0.907976
0	H	0.613793	0.963464	0.0362957
0	H	0.0367514	0.661651	0.0435698
0	H	0.340035	0.383915	0.0408021
0	H	0.0463913	0.375647	0.238056
0	H	0.622933	0.678158	0.236592
0	H	0.321078	0.955746	0.235344
0	H	0.28269	0.294069	0.374642
0	H	0.706716	0.997878	0.375739
0	H	0.00412242	0.718652	0.375348
0	H	0.712555	0.710254	0.567977
0	H	0.288555	0.00662606	0.566737
0	H	0.990938	0.285687	0.566958
0	H	0.948803	0.628739	0.704195
0	H	0.372344	0.326182	0.707106
0	H	0.67405	0.0485163	0.705748
0	H	0.3651	0.0637188	0.79737
0	H	0.935357	0.303131	0.793873
0	H	0.694404	0.637408	0.803171
0	H	0.630384	0.940323	0.141304
0	H	0.0599234	0.701614	0.146774
0	H	0.30044	0.367422	0.145057
0	H	0.029975	0.399134	0.133847
0	H	0.59992	0.638201	0.132874
0	H	0.360746	0.972077	0.1313
0	H	0.299205	0.270627	0.478416
0	H	0.730904	0.0374716	0.480446
0	H	0.964561	0.70241	0.479487
0	H	0.696032	0.73369	0.464252
0	H	0.264361	0.967033	0.461985
0	H	0.0305353	0.301947	0.463029
0	H	0.965254	0.60527	0.808318
0	H	0.39535	0.366095	0.811088
0	H	0.634383	0.0321338	0.809776
0	C	0.445061	0.0282481	0.840338
0	C	0.970477	0.419193	0.833239
0	C	0.579242	0.557606	0.845239
0	C	0.550614	0.976046	0.0981287
0	C	0.0245539	0.585532	0.107345
0	C	0.415683	0.447091	0.103572
0	C	0.109257	0.362426	0.174563
0	C	0.635083	0.754257	0.172394
0	C	0.245521	0.892406	0.172031
0	C	0.219854	0.307245	0.438087
0	C	0.69145	0.920136	0.439092
0	C	0.0800318	0.781526	0.439945
0	C	0.775458	0.697243	0.504801
0	C	0.303675	0.0843161	0.503494
0	C	0.915125	0.222706	0.502404
0	C	0.886042	0.642138	0.76829
0	C	0.360099	0.250061	0.770667
0	C	0.749679	0.111791	0.769803
0	F	0.420495	0.0212173	0.73531
0	F	0.977277	0.401354	0.72801
0	F	0.596808	0.582432	0.740729
0	F	0.575348	0.983248	0.202557
0	F	0.0177069	0.603401	0.212268
0	F	0.398057	0.42249	0.208793
0	F	0.0848102	0.355735	0.0694027
0	F	0.64193	0.736484	0.0670112
0	F	0.263153	0.91694	0.0666574
0	F	0.244391	0.314025	0.542959
0	F	0.684947	0.938497	0.54295
0	F	0.0621857	0.756611	0.543768
0	F	0.750932	0.690472	0.399889
0	F	0.31025	0.0659558	0.399887
0	F	0.932955	0.247527	0.398231
0	F	0.910507	0.648831	0.873369
0	F	0.353318	0.267809	0.876397
0	F	0.732004	0.0870849	0.874536
0	F	0.434899	0.99585	0.898588
0	F	0.00281056	0.441219	0.890419
0	F	0.557367	0.568076	0.904259
0	F	0.560671	0.00835599	0.0391774
0	F	0.992259	0.563569	0.0496958
0	F	0.43727	0.436244	0.0446509
0	F	0.0985316	0.329908	0.233249
0	F	0.667351	0.776038	0.230678
0	F	0.223746	0.90316	0.22983
0	F	0.230442	0.33972	0.37928
0	F	0.659135	0.898786	0.380233
0	F	0.101845	0.77093	0.381255
0	F	0.764901	0.664754	0.563384
0	F	0.335988	0.105829	0.56205
0	F	0.893285	0.233325	0.560617
0	F	0.89683	0.674633	0.709236
0	F	0.327822	0.228442	0.712109
0	F	0.771521	0.101165	0.711643
0	F	0.474574	0.036186	0.761781
0	F	0.962477	0.440977	0.755025
0	F	0.557604	0.528121	0.766007
0	F	0.521216	0.968215	0.177335
0	F	0.0324057	0.563684	0.185897
0	F	0.437587	0.476626	0.181961
0	F	0.138584	0.369693	0.0960949
0	F	0.627434	0.776291	0.0941708
0	F	0.223742	0.862794	0.0938177
0	F	0.190547	0.299896	0.516875
0	F	0.698334	0.897761	0.518864
0	F	0.101709	0.810877	0.519767
0	F	0.804788	0.704667	0.426012
0	F	0.29662	0.106528	0.423431
0	F	0.893469	0.193279	0.422951
0	F	0.856762	0.635001	0.846824
0	F	0.367597	0.227862	0.848471
0	F	0.771381	0.141302	0.848732
0	C	0.404512	0.0579457	0.287401
0	C	0.942142	0.34967	0.281732
0	C	0.649144	0.597223	0.291605
0	C	0.590641	0.945629	0.651579
0	C	0.0533987	0.655106	0.659032
0	C	0.345929	0.407276	0.657078
0	C	0.0691791	0.39218	0.621526
0	C	0.606591	0.684695	0.620208
0	C	0.314934	0.932824	0.619791
0	C	0.25969	0.277278	0.990752
0	C	0.722761	0.990749	0.993551
0	C	0.0104009	0.741932	0.99293
0	C	0.735436	0.726956	0.952243
0	C	0.272565	0.0137188	0.949167
0	C	0.984595	0.262595	0.949826
0	C	0.925763	0.61204	0.321233
0	C	0.388752	0.319787	0.323377
0	C	0.680249	0.0717243	0.322052
0	F	0.370703	0.0392288	0.240436
0	F	0.960923	0.334474	0.233985
0	F	0.664139	0.631289	0.244884
0	F	0.624468	0.964463	0.698234
0	F	0.0346028	0.670313	0.70648
0	F	0.331137	0.373266	0.704321
0	F	0.0354978	0.373459	0.57288
0	F	0.625245	0.669399	0.571883
0	F	0.329997	0.966788	0.571661
0	F	0.293428	0.296119	0.0385679
0	F	0.704615	0.00651691	0.0423389
0	F	0.995794	0.708013	0.0410132
0	F	0.7017	0.70822	0.904323
0	F	0.290741	0.997994	0.900268
0	F	0.999374	0.296512	0.90158
0	F	0.959466	0.630863	0.369577
0	F	0.370131	0.335109	0.371808
0	F	0.665396	0.0377574	0.369967
0	F	0.406172	0.0365944	0.392192
0	F	0.963431	0.372751	0.385739
0	F	0.62639	0.595566	0.396873
0	F	0.588902	0.966792	0.546095
0	F	0.0321671	0.632053	0.554827
0	F	0.368601	0.408952	0.551378
0	F	0.0706552	0.37065	0.725955
0	F	0.628081	0.707837	0.72365
0	F	0.292126	0.931408	0.724268
0	F	0.258022	0.298599	0.885869
0	F	0.701338	0.968414	0.887961
0	F	0.0328575	0.743563	0.886366
0	F	0.737041	0.705494	0.0566245
0	F	0.293971	0.0360537	0.0548033
0	F	0.962003	0.26106	0.0555389
0	F	0.9242	0.633423	0.216323
0	F	0.367244	0.296682	0.219882
0	F	0.702952	0.0732909	0.216748
0	F	0.405995	0.0853415	0.365242
0	F	0.915237	0.323896	0.36059
0	F	0.674885	0.595609	0.368925
0	F	0.58915	0.918123	0.5746
0	F	0.0803691	0.680879	0.580442
0	F	0.32002	0.40867	0.580144
0	F	0.0702926	0.419301	0.700205
0	F	0.579839	0.658997	0.699998
0	F	0.34064	0.931445	0.698409
0	F	0.258497	0.250007	0.912995
0	F	0.750226	0.0163097	0.916374
0	F	0.984264	0.743131	0.917011
0	F	0.736668	0.754169	0.0305851
0	F	0.245117	0.988121	0.0262925
0	F	0.0105628	0.261308	0.0267414
0	F	0.924658	0.584848	0.24313
0	F	0.41552	0.345474	0.243621
0	F	0.654354	0.0729816	0.244397
0	O	0.491093	0.16916	0.712132
0	O	0.830352	0.3249	0.710076
0	O	0.672631	0.510344	0.711801
0	O	0.504294	0.835396	0.230286
0	O	0.164607	0.679452	0.232612
0	O	0.322315	0.494637	0.233961
0	O	0.156231	0.503787	0.0463635
0	O	0.495073	0.660082	0.0454919
0	O	0.339161	0.844999	0.0449662
0	O	0.172957	0.16596	0.566159
0	O	0.831826	0.00970105	0.571363
0	O	0.987688	0.830088	0.569365
0	O	0.82218	0.838586	0.377431
0	O	0.163262	0.994578	0.371825
0	O	0.00774354	0.174339	0.374776
0	O	0.838903	0.500853	0.897136
0	O	0.500114	0.344128	0.898727
0	O	0.656263	0.159289	0.898143
0	O	0.422145	0.176798	0.086643
0	O	0.823161	0.247952	0.083983
0	O	0.74967	0.578557	0.0858008
0	O	0.572383	0.826944	0.854087
0	O	0.172312	0.756447	0.857901
0	O	0.245341	0.426134	0.860337
0	O	0.0879668	0.512562	0.420963
0	O	0.487451	0.583522	0.421886
0	O	0.415314	0.913576	0.420603
0	O	0.241067	0.157427	0.190175
0	O	0.843524	0.0876577	0.193986
0	O	0.911176	0.762552	0.192676
0	O	0.753806	0.846777	0.753154
0	O	0.151781	0.91661	0.748729
0	O	0.0840778	0.242188	0.751395
0	O	0.90686	0.491671	0.522258
0	O	0.507739	0.420519	0.521571
0	O	0.579926	0.0910378	0.522407
0	O	0.575045	0.0886519	0.00934603
0	O	0.910089	0.48981	0.00273214
0	O	0.509395	0.426596	0.00992942
0	O	0.420402	0.915874	0.930682
0	O	0.0847474	0.514518	0.939296
0	O	0.485592	0.577947	0.937402
0	O	0.239643	0.422139	0.34253
0	O	0.574502	0.824614	0.340127
0	O	0.175317	0.761635	0.340957
0	O	0.0898503	0.24688	0.272891
0	O	0.750602	0.848194	0.269266
0	O	0.149788	0.91231	0.273873
0	O	0.905374	0.757629	0.670216
0	O	0.244447	0.156078	0.673528
0	O	0.845448	0.0920326	0.669291
0	O	0.755298	0.582542	0.600795
0	O	0.420564	0.179577	0.60226
0	O	0.819921	0.242717	0.602259
0	O	0.546824	0.143763	0.384128
0	O	0.85645	0.407061	0.379672
0	O	0.59175	0.453442	0.385101
0	O	0.447966	0.859975	0.557029
0	O	0.13887	0.597227	0.562572
0	O	0.403553	0.550956	0.560724
0	O	0.211872	0.47742	0.71815
0	O	0.520659	0.742335	0.718522
0	O	0.257297	0.789122	0.718336
0	O	0.117271	0.191856	0.895137
0	O	0.804467	0.929563	0.887922
0	O	0.068251	0.885324	0.89508
0	O	0.877696	0.812547	0.0475796
0	O	0.190713	0.0746728	0.054825
0	O	0.927016	0.119292	0.0481319
0	O	0.782949	0.526943	0.2261
0	O	0.474536	0.261888	0.224061
0	O	0.738072	0.215514	0.224543
0	C	0.495064	0.212212	0.972657
0	C	0.787894	0.286312	0.97099
0	C	0.711237	0.505226	0.970321
0	C	0.499757	0.791844	0.97071
0	C	0.207323	0.717954	0.972053
0	C	0.283921	0.4996	0.974316
0	C	0.160964	0.546941	0.307819
0	C	0.452564	0.622084	0.307831
0	C	0.377082	0.840151	0.306984
0	C	0.168267	0.122652	0.304931
0	C	0.875583	0.0466782	0.309914
0	C	0.949811	0.835713	0.308285
0	C	0.826685	0.881737	0.639096
0	C	0.11959	0.957513	0.633301
0	C	0.0457743	0.169005	0.635961
0	C	0.833949	0.457503	0.636246
0	C	0.542649	0.38207	0.636256
0	C	0.618405	0.16441	0.636445
0	H	0.486732	0.231895	0.0116713
0	H	0.768361	0.258392	0.00988846
0	H	0.738911	0.513225	0.00989891
0	H	0.507903	0.771977	0.932279
0	H	0.226987	0.745855	0.933421
0	H	0.256206	0.491669	0.935583
0	H	0.152927	0.566778	0.347583
0	H	0.432933	0.594215	0.346989
0	H	0.404727	0.848034	0.346574
0	H	0.176548	0.103038	0.26431
0	H	0.896719	0.0745684	0.277587
0	H	0.921989	0.827983	0.27199
0	H	0.818296	0.901237	0.680166
0	H	0.0985317	0.9296	0.665756
0	H	0.0735356	0.176966	0.674058
0	H	0.841867	0.437542	0.597008
0	H	0.56236	0.409936	0.597314
0	H	0.590701	0.156667	0.598221
0	H	0.514996	0.225419	0.881011
0	H	0.774781	0.293303	0.879446
0	H	0.704515	0.48543	0.877515
0	H	0.47989	0.778889	0.06277
0	H	0.220286	0.710818	0.06376
0	H	0.290942	0.519628	0.0663974
0	H	0.180839	0.560065	0.216022
0	H	0.43949	0.629082	0.216218
0	H	0.370194	0.820026	0.215499
0	H	0.148593	0.109366	0.397296
0	H	0.886921	0.0372666	0.399976
0	H	0.957425	0.855915	0.399855
0	H	0.846338	0.895159	0.546771
0	H	0.108163	0.966828	0.543227
0	H	0.0386943	0.14898	0.544013
0	H	0.81407	0.444543	0.72817
0	H	0.555653	0.374935	0.727692
0	H	0.625667	0.184628	0.727823
0	C	0.510127	0.202129	0.0947112
0	C	0.797912	0.311481	0.0930351
0	C	0.685989	0.48981	0.0912822
0	C	0.48468	0.801818	0.848356
0	C	0.197288	0.692827	0.849851
0	C	0.308928	0.514625	0.852341
0	C	0.175966	0.536587	0.429248
0	C	0.462594	0.647262	0.429911
0	C	0.35195	0.825317	0.428684
0	C	0.152754	0.132638	0.184251
0	C	0.865054	0.0230419	0.182155
0	C	0.97424	0.850241	0.184151
0	C	0.842276	0.871742	0.759434
0	C	0.130067	0.981177	0.760963
0	C	0.0209239	0.154071	0.758526
0	C	0.818998	0.467813	0.514473
0	C	0.53253	0.35696	0.513897
0	C	0.643223	0.179014	0.513586
0	C	0.522316	0.193571	0.197087
0	C	0.806427	0.332266	0.195356
0	C	0.665103	0.477282	0.192585
0	C	0.472481	0.810256	0.745614
0	C	0.188777	0.672088	0.747368
0	C	0.329561	0.526809	0.750033
0	C	0.188213	0.527892	0.530908
0	C	0.470912	0.667991	0.53229
0	C	0.331195	0.813186	0.530535
0	C	0.140011	0.140895	0.0829651
0	C	0.85596	0.00369003	0.074988
0	C	0.994386	0.861929	0.0800542
0	C	0.85507	0.863451	0.860414
0	C	0.139127	0.000558855	0.868042
0	C	0.000377691	0.142012	0.861174
0	C	0.806781	0.476451	0.412518
0	C	0.524146	0.336298	0.411239
0	C	0.663674	0.190913	0.410626
0	H	0.533206	0.18628	0.284463
0	H	0.813683	0.350472	0.282687
0	H	0.646853	0.466108	0.279152
0	H	0.461586	0.817456	0.657962
0	H	0.181525	0.653921	0.6599
0	H	0.347623	0.537698	0.662684
0	H	0.199135	0.520527	0.617952
0	H	0.477962	0.686118	0.61988
0	H	0.313081	0.802356	0.617794
0	H	0.12869	0.147936	0.996357
0	H	0.848284	0.986679	0.983247
0	H	0.0119581	0.872401	0.990849
0	H	0.866439	0.856394	0.946785
0	H	0.14678	0.0175945	0.95971
0	H	0.982496	0.131243	0.949226
0	H	0.795887	0.48378	0.325249
0	H	0.51705	0.318227	0.323428
0	H	0.681561	0.201561	0.322532
0	C	0.590556	0.15913	0.115695
0	C	0.840326	0.435323	0.112318
0	C	0.563548	0.410059	0.115597
0	C	0.404607	0.845161	0.826247
0	C	0.154675	0.568999	0.830923
0	C	0.431634	0.594567	0.829718
0	C	0.255332	0.492793	0.449424
0	C	0.504654	0.770212	0.449382
0	C	0.229624	0.745512	0.44891
0	C	0.0739428	0.176291	0.164154
0	C	0.820519	0.901778	0.156895
0	C	0.0962404	0.929256	0.163572
0	C	0.921188	0.828179	0.778953
0	C	0.174591	0.102516	0.786297
0	C	0.899029	0.0752033	0.780018
0	C	0.739565	0.511795	0.494922
0	C	0.49047	0.23406	0.493628
0	C	0.765684	0.258964	0.494391
0	H	0.615462	0.159582	0.075695
0	H	0.839519	0.45976	0.0722496
0	H	0.539171	0.384941	0.0767255
0	H	0.3798	0.8449	0.866345
0	H	0.155383	0.544519	0.871138
0	H	0.455976	0.619616	0.869445
0	H	0.280425	0.493468	0.41081
0	H	0.503826	0.794677	0.410001
0	H	0.205356	0.720344	0.409799
0	H	0.048684	0.175361	0.202366
0	H	0.82158	0.877177	0.192476
0	H	0.120588	0.954428	0.202372
0	H	0.94647	0.829153	0.740807
0	H	0.173499	0.127101	0.75074
0	H	0.874673	0.0499482	0.741927
0	H	0.714584	0.511289	0.534029
0	H	0.491295	0.209584	0.53287
0	H	0.789936	0.284055	0.534222
0	H	0.598734	0.180461	0.202896
0	H	0.819382	0.422404	0.200519
0	H	0.576781	0.40188	0.20234
0	H	0.396252	0.823706	0.73949
0	H	0.175706	0.581892	0.743027
0	H	0.41867	0.602871	0.742224
0	H	0.263245	0.514113	0.536553
0	H	0.483619	0.757153	0.537139
0	H	0.242758	0.737389	0.536296
0	H	0.0663155	0.155043	0.0769364
0	H	0.841453	0.91558	0.069324
0	H	0.0830867	0.937269	0.0758683
0	H	0.928765	0.849432	0.86612
0	H	0.153675	0.0887002	0.873913
0	H	0.912319	0.0673527	0.86771
0	H	0.731461	0.490453	0.407775
0	H	0.511526	0.247154	0.405975
0	H	0.752692	0.267244	0.406962
0	C	0.572582	0.16535	0.993042
0	C	0.833999	0.410883	0.990218
0	C	0.587317	0.427982	0.992037
0	C	0.422589	0.838961	0.948937
0	C	0.160943	0.593438	0.952961
0	C	0.407539	0.576626	0.952317
0	C	0.237512	0.498927	0.325963
0	C	0.49846	0.745988	0.326583
0	C	0.253555	0.763424	0.325841
0	C	0.0918042	0.170343	0.287955
0	C	0.826495	0.925111	0.282896
0	C	0.072351	0.911535	0.286959
0	C	0.903303	0.834061	0.655075
0	C	0.168601	0.0791838	0.660284
0	C	0.922755	0.0927943	0.656023
0	C	0.757406	0.50554	0.617969
0	C	0.496617	0.25824	0.616554
0	C	0.74158	0.240922	0.616808
0	C	0.557277	0.169909	0.890689
0	C	0.829321	0.390769	0.88842
0	C	0.606849	0.443218	0.88897
0	C	0.4379	0.8344	0.0512632
0	C	0.16556	0.613553	0.0546898
0	C	0.38769	0.561339	0.0544507
0	C	0.222404	0.503468	0.222782
0	C	0.493853	0.726138	0.223798
0	C	0.273149	0.778584	0.222851
0	C	0.106921	0.165946	0.391497
0	C	0.830678	0.944056	0.388603
0	C	0.0527848	0.896494	0.390185
0	C	0.888166	0.838398	0.551451
0	C	0.164382	0.0602438	0.554523
0	C	0.942141	0.107695	0.552149
0	C	0.772548	0.500901	0.720765
0	C	0.501175	0.278055	0.719416
0	C	0.721796	0.225619	0.719104
0	H	0.544117	0.174261	0.802982
0	H	0.824917	0.373076	0.801179
0	H	0.624072	0.456367	0.800699
0	H	0.451058	0.830056	0.138999
0	H	0.169917	0.631238	0.141914
0	H	0.370226	0.548179	0.142007
0	H	0.209426	0.507777	0.134315
0	H	0.489502	0.708677	0.135733
0	H	0.290397	0.791598	0.13457
0	H	0.120011	0.161765	0.479841
0	H	0.834672	0.960776	0.479145
0	H	0.035517	0.883494	0.478398
0	H	0.875059	0.842531	0.463049
0	H	0.160364	0.0435224	0.463973
0	H	0.959289	0.120605	0.463493
0	H	0.785556	0.496515	0.808894
0	H	0.505497	0.295475	0.807618
0	H	0.704427	0.212509	0.806925
