#******************************************
#
# CIF file created by Zeo++
# Zeo++ is an open source package to
# analyze microporous materials
#
#*******************************************

_cell_length_a		40.0592(0)
_cell_length_b		39.9141(0)
_cell_length_c		9.3259(0)
_cell_angle_alpha		90(0)
_cell_angle_beta		90(0)
_cell_angle_gamma		120.02(0)

_symmetry_space_group_name_H-M		'P1'
_symmetry_Int_Tables_number		1
_symmetry_cell_setting		Monoclinic

loop_
_symmetry_equiv_pos_as_xyz
'+x,+y,+z'

loop_
_atom_site_label
_atom_site_type_symbol
_atom_site_fract_x
_atom_site_fract_y
_atom_site_fract_z
0	C	0.0782426	0.528314	0.534785
0	C	0.473559	0.553217	0.533737
0	C	0.448193	0.924364	0.534258
0	C	0.921699	0.47505	0.438061
0	C	0.526397	0.450006	0.436564
0	C	0.551576	0.0789185	0.436886
0	C	0.744818	0.862551	0.870861
0	C	0.140273	0.887464	0.87072
0	C	0.114847	0.255938	0.870724
0	C	0.58856	0.809159	0.767078
0	C	0.193521	0.784397	0.766818
0	C	0.21813	0.412744	0.767045
0	C	0.411333	0.194126	0.2043
0	C	0.806384	0.218905	0.204637
0	C	0.781725	0.590542	0.204475
0	C	0.255067	0.140726	0.100541
0	C	0.859637	0.115837	0.100704
0	C	0.88501	0.747344	0.100787
0	C	0.0492419	0.491934	0.558388
0	C	0.509811	0.560559	0.557602
0	C	0.441117	0.953546	0.558462
0	C	0.95071	0.511411	0.414248
0	C	0.490147	0.442701	0.412929
0	C	0.558643	0.0497265	0.412764
0	C	0.715807	0.826157	0.894227
0	C	0.176467	0.894563	0.894102
0	C	0.107609	0.285045	0.894256
0	C	0.617576	0.845523	0.743302
0	C	0.157267	0.777102	0.743352
0	C	0.225377	0.383648	0.743462
0	C	0.382325	0.157755	0.228034
0	C	0.842639	0.226214	0.228195
0	C	0.774453	0.619621	0.228066
0	C	0.284094	0.177115	0.0771217
0	C	0.823442	0.10875	0.0774092
0	C	0.892226	0.718221	0.0772824
0	C	0.0283496	0.480605	0.697537
0	C	0.521044	0.550965	0.696951
0	C	0.450897	0.974376	0.697982
0	C	0.971552	0.52269	0.274981
0	C	0.478859	0.45227	0.273649
0	C	0.548886	0.0288855	0.273278
0	C	0.694864	0.814695	0.0331751
0	C	0.187826	0.884951	0.0330478
0	C	0.117159	0.306047	0.0332509
0	C	0.638362	0.856733	0.603944
0	C	0.14591	0.78662	0.604146
0	C	0.215839	0.362739	0.604219
0	C	0.361509	0.146544	0.36733
0	C	0.853966	0.216665	0.367409
0	C	0.783992	0.640525	0.367326
0	C	0.305003	0.188566	0.938105
0	C	0.812054	0.118337	0.938475
0	C	0.88268	0.697213	0.938307
0	C	0.0457819	0.478338	0.825669
0	C	0.52323	0.570748	0.824968
0	C	0.431097	0.956814	0.825892
0	C	0.954083	0.524941	0.146933
0	C	0.476643	0.432478	0.145624
0	C	0.568687	0.0464325	0.145346
0	C	0.712246	0.81246	0.16144
0	C	0.189956	0.90454	0.161406
0	C	0.0975286	0.288586	0.16146
0	C	0.620861	0.859069	0.476128
0	C	0.143642	0.766789	0.476202
0	C	0.235623	0.380292	0.476288
0	C	0.378973	0.14419	0.495231
0	C	0.8562	0.236471	0.495382
0	C	0.764198	0.622957	0.495216
0	C	0.287586	0.190791	0.809929
0	C	0.809892	0.098726	0.810142
0	C	0.9023	0.714662	0.810059
0	C	0.0868879	0.488506	0.83078
0	C	0.51306	0.601805	0.829879
0	C	0.39999	0.915609	0.830487
0	C	0.91298	0.514783	0.141892
0	C	0.486773	0.401394	0.140716
0	C	0.599798	0.0876382	0.140723
0	C	0.753353	0.822627	0.167168
0	C	0.179944	0.935702	0.167171
0	C	0.0665151	0.247351	0.167068
0	C	0.579761	0.848973	0.471507
0	C	0.153717	0.735654	0.471456
0	C	0.266668	0.42155	0.471518
0	C	0.420075	0.154291	0.499976
0	C	0.84609	0.267582	0.500145
0	C	0.733155	0.581699	0.499919
0	C	0.24648	0.180632	0.80434
0	C	0.819868	0.0675376	0.804388
0	C	0.933316	0.755898	0.8044
0	C	0.115646	0.524794	0.802139
0	C	0.476896	0.594321	0.801055
0	C	0.40732	0.886727	0.801522
0	C	0.884229	0.478499	0.17062
0	C	0.522936	0.408854	0.169401
0	C	0.592454	0.116514	0.169619
0	C	0.782133	0.858964	0.139253
0	C	0.143808	0.928415	0.139373
0	C	0.0738939	0.218458	0.139052
0	C	0.550985	0.812658	0.49971
0	C	0.189927	0.74315	0.499474
0	C	0.259215	0.450399	0.499597
0	C	0.448856	0.190603	0.471768
0	C	0.809876	0.260066	0.472074
0	C	0.7406	0.552844	0.47181
0	C	0.217705	0.144294	0.832252
0	C	0.855999	0.0748045	0.832133
0	C	0.925924	0.784784	0.832371
0	C	0.107038	0.556455	0.775909
0	C	0.445399	0.553981	0.77459
0	C	0.447464	0.895333	0.775043
0	C	0.892849	0.446853	0.197003
0	C	0.554468	0.449192	0.195629
0	C	0.552306	0.107905	0.196027
0	C	0.773506	0.890589	0.112395
0	C	0.112215	0.888186	0.112096
0	C	0.114009	0.227062	0.112142
0	C	0.559647	0.781027	0.52596
0	C	0.221468	0.7835	0.525564
0	C	0.219016	0.441685	0.525782
0	C	0.440199	0.222236	0.445491
0	C	0.778353	0.219716	0.44582
0	C	0.780799	0.561555	0.44568
0	C	0.22633	0.112667	0.859085
0	C	0.887614	0.115033	0.859262
0	C	0.885807	0.77617	0.859308
0	C	0.0897925	0.558472	0.647106
0	C	0.443459	0.534626	0.645915
0	C	0.466708	0.912697	0.646253
0	C	0.910121	0.444865	0.325792
0	C	0.556468	0.468576	0.324292
0	C	0.533064	0.0905704	0.324848
0	C	0.756386	0.892666	0.983387
0	C	0.110178	0.868993	0.982956
0	C	0.133231	0.244249	0.983159
0	C	0.576936	0.778998	0.65468
0	C	0.223534	0.802896	0.654287
0	C	0.199703	0.424372	0.654556
0	C	0.422934	0.224276	0.316734
0	C	0.776342	0.200365	0.317034
0	C	0.800137	0.5789	0.31698
0	C	0.243473	0.110598	0.988061
0	C	0.889704	0.134267	0.98835
0	C	0.866609	0.759014	0.988359
0	C	0.0824028	0.588975	0.625862
0	C	0.413056	0.496692	0.624615
0	C	0.504515	0.920183	0.624886
0	C	0.917493	0.414351	0.347056
0	C	0.586897	0.506506	0.345466
0	C	0.495264	0.0831022	0.346216
0	C	0.748991	0.923185	0.96222
0	C	0.0796344	0.831136	0.961244
0	C	0.170992	0.25154	0.961873
0	C	0.584364	0.748495	0.675495
0	C	0.253958	0.840858	0.675126
0	C	0.161885	0.416935	0.675457
0	C	0.415471	0.254755	0.295924
0	C	0.745942	0.162403	0.295985
0	C	0.837966	0.586361	0.296179
0	C	0.250826	0.0800525	0.00925335
0	C	0.920274	0.172123	0.00986905
0	C	0.828854	0.751734	0.00970978
0	H	0.0695619	0.591007	0.525279
0	H	0.411034	0.481747	0.52408
0	H	0.519365	0.933093	0.524271
0	H	0.93033	0.412317	0.447648
0	H	0.588974	0.521472	0.446005
0	H	0.480416	0.070218	0.446858
0	H	0.736317	0.925363	0.861387
0	H	0.0775224	0.816316	0.860314
0	H	0.185821	0.264249	0.861038
0	H	0.597167	0.746352	0.776055
0	H	0.256119	0.855856	0.77571
0	H	0.146953	0.404107	0.776058
0	H	0.402659	0.256884	0.195368
0	H	0.743836	0.147436	0.195384
0	H	0.852917	0.59922	0.195631
0	H	0.263491	0.0778602	0.110088
0	H	0.922442	0.186973	0.110778
0	H	0.814044	0.739056	0.110598
0	C	0.0914021	0.616792	0.732268
0	C	0.38527	0.4779	0.730796
0	C	0.523284	0.911207	0.731235
0	C	0.908501	0.386534	0.240666
0	C	0.614625	0.52527	0.239071
0	C	0.47649	0.0920467	0.239801
0	C	0.757738	0.950841	0.0689955
0	C	0.0519174	0.812285	0.0675654
0	C	0.18974	0.24265	0.068565
0	C	0.575472	0.720784	0.568749
0	C	0.281576	0.859641	0.568385
0	C	0.143161	0.425857	0.568748
0	C	0.42435	0.282466	0.402672
0	C	0.718257	0.143588	0.402488
0	C	0.856667	0.577405	0.40288
0	C	0.242059	0.0523917	0.902482
0	C	0.947931	0.19094	0.903321
0	C	0.81008	0.760576	0.902988
0	H	0.085439	0.640311	0.714199
0	H	0.361826	0.448384	0.7127
0	H	0.552726	0.917317	0.713202
0	H	0.91445	0.363005	0.258757
0	H	0.638086	0.554788	0.257047
0	H	0.447053	0.0859536	0.257829
0	H	0.751644	0.974276	0.0512329
0	H	0.028437	0.782818	0.049255
0	H	0.219149	0.248654	0.0506846
0	H	0.581533	0.697307	0.58634
0	H	0.304993	0.889204	0.585995
0	H	0.113715	0.419797	0.586413
0	H	0.418257	0.305921	0.385086
0	H	0.694852	0.114031	0.3847
0	H	0.886123	0.583485	0.38529
0	H	0.248115	0.0289309	0.920271
0	H	0.971427	0.220412	0.921464
0	H	0.780676	0.754581	0.920914
0	C	0.107993	0.614469	0.861102
0	C	0.387522	0.496898	0.859499
0	C	0.504368	0.894444	0.85995
0	C	0.891921	0.388853	0.111808
0	C	0.612298	0.506253	0.110343
0	C	0.495388	0.108746	0.110992
0	C	0.774242	0.948476	0.197993
0	C	0.0542917	0.831139	0.196779
0	C	0.170862	0.226129	0.197604
0	C	0.558859	0.723142	0.440028
0	C	0.279202	0.840592	0.439678
0	C	0.16212	0.442497	0.439968
0	C	0.440979	0.280123	0.531381
0	C	0.720554	0.162603	0.531201
0	C	0.837667	0.560693	0.531525
0	C	0.225574	0.054773	0.773475
0	C	0.945482	0.172057	0.774111
0	C	0.828919	0.777028	0.773816
0	H	0.11501	0.63616	0.944281
0	H	0.365851	0.482256	0.942502
0	H	0.518998	0.887427	0.94306
0	H	0.88492	0.367171	0.0286184
0	H	0.633915	0.520884	0.0271532
0	H	0.480745	0.115716	0.0277914
0	H	0.781093	0.970052	0.281573
0	H	0.0327076	0.816466	0.28008
0	H	0.185448	0.219185	0.281159
0	H	0.551924	0.701549	0.356488
0	H	0.300731	0.855217	0.356152
0	H	0.147537	0.449455	0.356446
0	H	0.447915	0.301721	0.614905
0	H	0.698964	0.147962	0.614516
0	H	0.852222	0.553681	0.61499
0	H	0.218721	0.0332017	0.689885
0	H	0.967007	0.186713	0.690606
0	H	0.814302	0.783911	0.690199
0	C	0.115651	0.584374	0.882878
0	C	0.417507	0.534693	0.881325
0	C	0.466682	0.886641	0.881781
0	C	0.884236	0.418929	0.0900538
0	C	0.582306	0.468452	0.088696
0	C	0.533076	0.116548	0.0891878
0	C	0.781997	0.91845	0.219526
0	C	0.0843436	0.868873	0.218875
0	C	0.133215	0.218448	0.219199
0	C	0.551076	0.753169	0.418774
0	C	0.249246	0.802756	0.4184
0	C	0.199813	0.450271	0.418622
0	C	0.448754	0.250091	0.552673
0	C	0.750512	0.200425	0.552748
0	C	0.799973	0.552914	0.552801
0	C	0.21782	0.0848022	0.751972
0	C	0.915428	0.134312	0.752268
0	C	0.866568	0.78472	0.752185
0	H	0.128436	0.582435	0.983496
0	H	0.419373	0.549477	0.981827
0	H	0.451949	0.873697	0.982269
0	H	0.871437	0.420856	0.989453
0	H	0.580386	0.45365	0.988193
0	H	0.547792	0.129441	0.988621
0	H	0.794782	0.916489	0.320153
0	H	0.0863381	0.883656	0.319618
0	H	0.118426	0.205621	0.319806
0	H	0.538229	0.755135	0.318271
0	H	0.247282	0.78789	0.317908
0	H	0.214601	0.46314	0.318057
0	H	0.461593	0.248125	0.653198
0	H	0.752424	0.215261	0.653274
0	H	0.78515	0.539992	0.653259
0	H	0.20503	0.0867616	0.651353
0	H	0.91338	0.119499	0.65155
0	H	0.881328	0.797497	0.651478
0	C	0.989754	0.471896	0.700689
0	C	0.529751	0.520972	0.700433
0	C	0.480996	0.0128957	0.701865
0	C	0.010145	0.531387	0.271637
0	C	0.470103	0.482229	0.270235
0	C	0.518803	0.99036	0.269428
0	C	0.656223	0.805845	0.0359299
0	C	0.196752	0.855098	0.0357077
0	C	0.147025	0.344826	0.0360812
0	C	0.676899	0.865278	0.600243
0	C	0.137093	0.81654	0.600792
0	C	0.185926	0.323998	0.600792
0	C	0.32298	0.138021	0.370879
0	C	0.862755	0.186727	0.370738
0	C	0.813909	0.679265	0.370795
0	C	0.343648	0.197424	0.935182
0	C	0.803094	0.148167	0.935811
0	C	0.852823	0.658431	0.935516
0	H	0.976442	0.474446	0.602282
0	H	0.527264	0.505053	0.602036
0	H	0.496921	0.0262662	0.603538
0	H	0.023495	0.528865	0.369988
0	H	0.472581	0.498143	0.36864
0	H	0.502875	0.976987	0.367746
0	H	0.642927	0.808332	0.937353
0	H	0.194357	0.839355	0.937013
0	H	0.162807	0.358171	0.937535
0	H	0.690262	0.862666	0.698451
0	H	0.13958	0.832464	0.699157
0	H	0.170005	0.310581	0.699085
0	H	0.309656	0.140662	0.272618
0	H	0.860259	0.170807	0.272356
0	H	0.829834	0.692681	0.272504
0	H	0.356981	0.194961	0.0336954
0	H	0.805479	0.163911	0.0344957
0	H	0.837047	0.645083	0.0340657
0	C	0.968593	0.46029	0.82785
0	C	0.541268	0.511372	0.827784
0	C	0.490776	0.0339669	0.829456
0	C	0.0312493	0.542938	0.144338
0	C	0.458564	0.491817	0.142917
0	C	0.509023	0.969281	0.14186
0	C	0.63498	0.794218	0.162889
0	C	0.208365	0.845425	0.162627
0	C	0.156685	0.366116	0.163124
0	C	0.697979	0.876865	0.472865
0	C	0.125447	0.826062	0.473586
0	C	0.1764	0.302791	0.473552
0	C	0.301851	0.126405	0.498139
0	C	0.874396	0.177193	0.497933
0	C	0.823417	0.700468	0.498047
0	C	0.36484	0.209022	0.8081
0	C	0.791473	0.157827	0.808888
0	C	0.843149	0.637137	0.808484
0	H	0.938812	0.453959	0.829593
0	H	0.547595	0.487837	0.829822
0	H	0.514522	0.06371	0.831877
0	H	0.0610261	0.549258	0.142436
0	H	0.452189	0.515321	0.140939
0	H	0.48529	0.939533	0.139486
0	H	0.605171	0.787794	0.164354
0	H	0.214889	0.822023	0.163966
0	H	0.180106	0.39604	0.164654
0	H	0.727712	0.883049	0.470563
0	H	0.119041	0.84955	0.471595
0	H	0.152927	0.272893	0.4715
0	H	0.272123	0.120237	0.500311
0	H	0.880773	0.153686	0.499918
0	H	0.846894	0.730364	0.500148
0	H	0.394652	0.215452	0.806492
0	H	0.784916	0.181206	0.807557
0	H	0.819737	0.60721	0.807004
0	C	0.985617	0.456954	0.953916
0	C	0.544506	0.531808	0.953749
0	C	0.470246	0.0168406	0.955181
0	C	0.0141812	0.546239	0.0183375
0	C	0.455346	0.471408	0.0169111
0	C	0.529532	0.986401	0.0160927
0	C	0.651999	0.791014	0.289239
0	C	0.211436	0.86562	0.289118
0	C	0.136469	0.349012	0.289468
0	C	0.680921	0.880396	0.347212
0	C	0.122161	0.805594	0.347659
0	C	0.196841	0.319944	0.347669
0	C	0.318861	0.122825	0.623847
0	C	0.877695	0.197669	0.623862
0	C	0.80295	0.683305	0.623874
0	C	0.347778	0.212192	0.68182
0	C	0.788418	0.137644	0.682392
0	C	0.863334	0.654237	0.682083
0	H	0.968963	0.447839	0.0531406
0	H	0.553534	0.524238	0.0532
0	H	0.477928	0.0334188	0.0548226
0	H	0.0307906	0.555304	0.918999
0	H	0.446321	0.478984	0.917471
0	H	0.521839	0.969822	0.916459
0	H	0.63534	0.78199	0.38858
0	H	0.22045	0.857951	0.388452
0	H	0.144146	0.365702	0.388877
0	H	0.697508	0.889549	0.247718
0	H	0.113045	0.813105	0.248219
0	H	0.189334	0.303277	0.248225
0	H	0.302232	0.113634	0.723236
0	H	0.886826	0.19016	0.723282
0	H	0.810434	0.699971	0.723321
0	H	0.364395	0.221181	0.582377
0	H	0.779415	0.145315	0.583046
0	H	0.855635	0.637548	0.582674
0	C	0.0240708	0.466028	0.952725
0	C	0.535438	0.561292	0.952237
0	C	0.440662	0.97846	0.953328
0	C	0.975739	0.537196	0.019731
0	C	0.464412	0.441921	0.0183884
0	C	0.559119	0.0247836	0.0179271
0	C	0.690463	0.800159	0.288383
0	C	0.202193	0.894978	0.288386
0	C	0.107081	0.310411	0.288499
0	C	0.64251	0.871441	0.348914
0	C	0.131289	0.776146	0.349068
0	C	0.226255	0.358539	0.349133
0	C	0.357274	0.131783	0.622321
0	C	0.868546	0.2271	0.622502
0	C	0.773547	0.644708	0.622384
0	C	0.309318	0.203059	0.682862
0	C	0.797644	0.108273	0.683158
0	C	0.89273	0.692837	0.683027
0	H	0.0375973	0.463828	0.0509128
0	H	0.537577	0.577049	0.0504327
0	H	0.424817	0.964836	0.0513016
0	H	0.962177	0.539374	0.921608
0	H	0.462258	0.426161	0.920187
0	H	0.574953	0.0384003	0.919922
0	H	0.703944	0.79804	0.386909
0	H	0.204234	0.9106	0.386951
0	H	0.091451	0.296844	0.386992
0	H	0.629	0.873815	0.250886
0	H	0.129068	0.760334	0.250855
0	H	0.242037	0.372114	0.25094
0	H	0.370748	0.129381	0.720408
0	H	0.870749	0.242897	0.720741
0	H	0.757749	0.631124	0.720534
0	H	0.295802	0.205159	0.584405
0	H	0.795587	0.0926381	0.584613
0	H	0.90834	0.706398	0.58449
0	C	0.0924107	0.456093	0.876954
0	C	0.545328	0.639776	0.876291
0	C	0.362217	0.91017	0.876701
0	C	0.907435	0.547161	0.0954255
0	C	0.454466	0.363421	0.0945559
0	C	0.63757	0.0930799	0.0944761
0	C	0.758851	0.790188	0.213111
0	C	0.212434	0.973533	0.213314
0	C	0.0286841	0.241837	0.213015
0	C	0.574361	0.881548	0.426769
0	C	0.121235	0.697606	0.426998
0	C	0.304565	0.427017	0.426857
0	C	0.425456	0.121702	0.544691
0	C	0.878556	0.305631	0.544695
0	C	0.695248	0.576229	0.544432
0	C	0.240966	0.213061	0.758384
0	C	0.787361	0.0297145	0.758295
0	C	0.97114	0.761416	0.758348
0	C	0.0699537	0.419248	0.815742
0	C	0.582082	0.654127	0.815388
0	C	0.348101	0.932845	0.815746
0	C	0.929886	0.584041	0.156406
0	C	0.417752	0.349106	0.15577
0	C	0.651741	0.0704784	0.155669
0	C	0.735735	0.753163	0.154032
0	C	0.249287	0.987032	0.154328
0	C	0.0149644	0.265085	0.154072
0	C	0.597658	0.918409	0.486797
0	C	0.0845086	0.68404	0.487177
0	C	0.318119	0.403759	0.487006
0	C	0.402158	0.0848513	0.484615
0	C	0.915305	0.319198	0.48471
0	C	0.681758	0.599562	0.484483
0	C	0.264079	0.250094	0.817434
0	C	0.750527	0.0162179	0.817459
0	C	0.984926	0.738249	0.817527
0	H	0.0504572	0.415396	0.726483
0	H	0.585968	0.638482	0.725999
0	H	0.363825	0.952443	0.726611
0	H	0.949395	0.587946	0.245692
0	H	0.413928	0.364793	0.245164
0	H	0.636054	0.0509271	0.244961
0	H	0.715843	0.749188	0.0662815
0	H	0.252956	0.970972	0.0661351
0	H	0.0309951	0.285078	0.0665819
0	H	0.617576	0.922091	0.574229
0	H	0.0808282	0.700397	0.574393
0	H	0.301864	0.383721	0.574321
0	H	0.382252	0.0811849	0.397167
0	H	0.919011	0.302858	0.397509
0	H	0.698068	0.619656	0.39738
0	H	0.283981	0.25408	0.905173
0	H	0.746888	0.0322827	0.90572
0	H	0.968946	0.718311	0.905224
0	C	0.0722477	0.387718	0.868204
0	C	0.613472	0.687945	0.868188
0	C	0.314437	0.930635	0.868253
0	C	0.927563	0.61553	0.103683
0	C	0.386321	0.315275	0.103301
0	C	0.685402	0.0726875	0.103127
0	C	0.738039	0.72165	0.20663
0	C	0.280813	0.020449	0.207792
0	C	0.981214	0.262726	0.206482
0	C	0.595551	0.950144	0.435782
0	C	0.0529035	0.650056	0.436714
0	C	0.351971	0.406055	0.436349
0	C	0.404242	0.0530999	0.535605
0	C	0.946895	0.353171	0.535378
0	C	0.647892	0.597259	0.535
0	C	0.261756	0.281592	0.76482
0	C	0.718983	0.982801	0.764133
0	C	0.0186648	0.740604	0.765012
0	H	0.0546522	0.359112	0.820108
0	H	0.642012	0.698923	0.820359
0	H	0.303624	0.948381	0.820304
0	H	0.945144	0.644161	0.151652
0	H	0.357818	0.304317	0.151439
0	H	0.69626	0.0549994	0.151293
0	H	0.719791	0.692863	0.160919
0	H	0.309463	0.0306715	0.162188
0	H	0.970822	0.281064	0.160877
0	H	0.613769	0.978747	0.483283
0	H	0.0244052	0.639678	0.484146
0	H	0.362349	0.387868	0.483812
0	H	0.386013	0.0245031	0.488106
0	H	0.975413	0.363546	0.488159
0	H	0.637571	0.615512	0.487754
0	H	0.279994	0.310383	0.810545
0	H	0.690351	0.972573	0.809952
0	H	0.0291116	0.722329	0.810832
0	C	0.0969452	0.392681	0.98232
0	C	0.608463	0.707741	0.982232
0	C	0.294594	0.905814	0.982191
0	C	0.902865	0.610507	0.989508
0	C	0.391233	0.295449	0.989134
0	C	0.705173	0.09741	0.988865
0	C	0.7636	0.72683	0.317838
0	C	0.275917	0.0408868	0.319788
0	C	0.960728	0.236975	0.317363
0	C	0.570191	0.945421	0.324462
0	C	0.0576484	0.629275	0.32565
0	C	0.372628	0.431584	0.325157
0	C	0.4296	0.0578105	0.646925
0	C	0.942095	0.373952	0.646304
0	C	0.627139	0.571617	0.645778
0	C	0.236197	0.276403	0.653603
0	C	0.723823	0.962374	0.651957
0	C	0.0390597	0.766246	0.653734
0	H	0.097926	0.367841	0.0262867
0	H	0.633192	0.733576	0.0263883
0	H	0.268886	0.904883	0.0261436
0	H	0.901861	0.635313	0.945331
0	H	0.366467	0.269608	0.945209
0	H	0.730875	0.0983339	0.944872
0	H	0.764715	0.702037	0.361517
0	H	0.300811	0.0664244	0.364503
0	H	0.934865	0.235797	0.360819
0	H	0.569402	0.970448	0.281482
0	H	0.0327597	0.603288	0.283283
0	H	0.398513	0.432615	0.282657
0	H	0.430374	0.0327716	0.689876
0	H	0.966967	0.399934	0.688803
0	H	0.601236	0.570573	0.688155
0	H	0.235072	0.301186	0.609887
0	H	0.698911	0.936839	0.607337
0	H	0.0649077	0.767413	0.610177
0	C	0.120279	0.429509	0.0406683
0	C	0.57173	0.694301	0.0401941
0	C	0.307827	0.88228	0.0403332
0	C	0.87955	0.573651	0.931375
0	C	0.427918	0.308873	0.930741
0	C	0.691867	0.12085	0.930424
0	C	0.787611	0.76382	0.373681
0	C	0.239091	0.0284108	0.375117
0	C	0.973538	0.212851	0.373111
0	C	0.545958	0.908588	0.267791
0	C	0.0943264	0.641933	0.268505
0	C	0.359977	0.455704	0.268069
0	C	0.453843	0.0946385	0.703648
0	C	0.905387	0.361314	0.703111
0	C	0.639707	0.547403	0.702598
0	C	0.212196	0.23941	0.597798
0	C	0.760622	0.974866	0.596324
0	C	0.0261671	0.790272	0.597694
0	H	0.140022	0.433433	0.127867
0	H	0.567772	0.71018	0.127319
0	H	0.291929	0.86245	0.127431
0	H	0.859807	0.569677	0.844127
0	H	0.431796	0.292982	0.843458
0	H	0.707695	0.140591	0.843011
0	H	0.808036	0.767925	0.458481
0	H	0.235223	0.0448386	0.460352
0	H	0.957147	0.192292	0.457651
0	H	0.52561	0.904854	0.18324
0	H	0.0980734	0.625264	0.183951
0	H	0.376551	0.476131	0.183433
0	H	0.474189	0.0983607	0.788201
0	H	0.901592	0.377998	0.787474
0	H	0.623046	0.526877	0.786852
0	H	0.191771	0.235297	0.512999
0	H	0.764445	0.958461	0.510886
0	H	0.0424753	0.810736	0.512784
0	C	0.118096	0.461181	0.988491
0	C	0.540198	0.660444	0.987742
0	C	0.341513	0.884367	0.988064
0	C	0.881745	0.542009	0.983834
0	C	0.459502	0.342726	0.982979
0	C	0.658192	0.118779	0.982745
0	C	0.785249	0.795437	0.32209
0	C	0.207438	0.994832	0.322628
0	C	0.00745042	0.215267	0.321721
0	C	0.547974	0.876684	0.318317
0	C	0.126078	0.675985	0.318556
0	C	0.326057	0.453489	0.318266
0	C	0.451833	0.126548	0.653167
0	C	0.873661	0.327259	0.652975
0	C	0.673653	0.549644	0.652573
0	C	0.214561	0.207796	0.649423
0	C	0.792304	0.00843039	0.648789
0	C	0.992273	0.787875	0.649212
0	H	0.136214	0.489835	0.0346466
0	H	0.511619	0.649996	0.0335428
0	H	0.35184	0.866086	0.0340531
0	H	0.863635	0.513333	0.937853
0	H	0.488046	0.353153	0.936875
0	H	0.647805	0.136984	0.936521
0	H	0.803851	0.824202	0.366652
0	H	0.17877	0.984972	0.366648
0	H	0.0175116	0.196602	0.366051
0	H	0.529141	0.848031	0.273377
0	H	0.154607	0.685832	0.273237
0	H	0.316218	0.472247	0.272989
0	H	0.470667	0.155197	0.69816
0	H	0.845108	0.317417	0.698052
0	H	0.683427	0.530811	0.697647
0	H	0.195959	0.179029	0.604907
0	H	0.820952	0.0182932	0.604556
0	H	0.982144	0.80646	0.604659
0	C	0.156837	0.535944	0.792193
0	C	0.465745	0.624482	0.791237
0	C	0.377197	0.845407	0.791492
0	C	0.843028	0.467329	0.180296
0	C	0.534046	0.378665	0.179327
0	C	0.622574	0.157839	0.179584
0	C	0.823392	0.870226	0.131658
0	C	0.132661	0.958615	0.131871
0	C	0.0437925	0.177067	0.131381
0	C	0.509756	0.801441	0.508638
0	C	0.201123	0.71301	0.508523
0	C	0.289251	0.491795	0.508547
0	C	0.490082	0.201813	0.46282
0	C	0.798648	0.290182	0.46294
0	C	0.710555	0.511456	0.462691
0	C	0.176444	0.133029	0.839819
0	C	0.867117	0.0445819	0.839542
0	C	0.956016	0.826183	0.839888
0	C	0.167531	0.514023	0.705609
0	C	0.487583	0.657197	0.704854
0	C	0.344657	0.834693	0.704954
0	C	0.832278	0.489238	0.266695
0	C	0.51223	0.345997	0.265943
0	C	0.655129	0.168586	0.266091
0	C	0.834601	0.848767	0.0448217
0	C	0.153971	0.991223	0.0445726
0	C	0.0111911	0.165922	0.0447073
0	C	0.498802	0.823169	0.595129
0	C	0.179504	0.680303	0.595186
0	C	0.321873	0.502838	0.595039
0	C	0.501025	0.18009	0.376252
0	C	0.820303	0.322915	0.37643
0	C	0.677956	0.500468	0.376137
0	C	0.165225	0.154494	0.926582
0	C	0.84585	0.012	0.927002
0	C	0.98864	0.837381	0.926503
0	H	0.14536	0.48855	0.64979
0	H	0.512973	0.660479	0.648932
0	H	0.341469	0.856959	0.649181
0	H	0.85442	0.514711	0.322619
0	H	0.486865	0.342756	0.321929
0	H	0.658337	0.146335	0.321892
0	H	0.812782	0.823626	0.986443
0	H	0.178984	0.994368	0.98625
0	H	0.00805711	0.187889	0.98648
0	H	0.520799	0.848463	0.652343
0	H	0.154305	0.677069	0.652424
0	H	0.325121	0.480791	0.652223
0	H	0.479026	0.154807	0.319013
0	H	0.845539	0.326178	0.319378
0	H	0.67474	0.522542	0.319023
0	H	0.187042	0.179646	0.984939
0	H	0.820876	0.00888403	0.985524
0	H	0.991805	0.815441	0.984793
0	C	0.206266	0.524549	0.691346
0	C	0.477091	0.685541	0.690778
0	C	0.316385	0.795822	0.69066
0	C	0.793537	0.478707	0.280647
0	C	0.522706	0.317643	0.280136
0	C	0.683384	0.207468	0.280294
0	C	0.873402	0.859299	0.0336495
0	C	0.143317	0.0194897	0.0328443
0	C	0.982767	0.127008	0.0336537
0	C	0.460048	0.812719	0.60746
0	C	0.189934	0.651879	0.607611
0	C	0.350192	0.541752	0.607376
0	C	0.539779	0.190537	0.363883
0	C	0.809852	0.35132	0.363869
0	C	0.649614	0.461568	0.363628
0	C	0.126424	0.143961	0.937722
0	C	0.856487	0.983718	0.938586
0	C	0.0170399	0.87631	0.937395
0	H	0.214199	0.507132	0.624575
0	H	0.494451	0.710973	0.624183
0	H	0.291089	0.787867	0.623932
0	H	0.785557	0.496121	0.347227
0	H	0.505362	0.292241	0.346886
0	H	0.708692	0.215456	0.347004
0	H	0.881732	0.842226	0.966696
0	H	0.160259	0.0448346	0.965244
0	H	0.957419	0.11874	0.966855
0	H	0.451918	0.830042	0.673901
0	H	0.172695	0.626407	0.674184
0	H	0.375594	0.549949	0.673837
0	H	0.547897	0.173223	0.297339
0	H	0.827118	0.376805	0.297393
0	H	0.624233	0.453422	0.29712
0	H	0.118084	0.161042	0.00458015
0	H	0.839575	0.958386	0.00627496
0	H	0.0424056	0.884626	0.00415873
0	C	0.234769	0.55714	0.762936
0	C	0.444596	0.681499	0.762276
0	C	0.320341	0.767205	0.762145
0	C	0.765076	0.446106	0.208987
0	C	0.555161	0.321634	0.208479
0	C	0.679389	0.236052	0.208739
0	C	0.901463	0.891457	0.108564
0	C	0.111289	0.0155246	0.107655
0	C	0.986673	0.0987925	0.108435
0	C	0.431757	0.780324	0.534331
0	C	0.222196	0.655888	0.534375
0	C	0.346164	0.570111	0.534234
0	C	0.568077	0.222911	0.437108
0	C	0.777532	0.347272	0.436764
0	C	0.653587	0.433161	0.436651
0	C	0.0983701	0.111783	0.862895
0	C	0.888455	0.987646	0.863433
0	C	0.0130796	0.904477	0.8625
0	H	0.264949	0.565306	0.751409
0	H	0.436449	0.703615	0.750865
0	H	0.298282	0.73692	0.750562
0	H	0.734888	0.437932	0.220295
0	H	0.563293	0.299509	0.219986
0	H	0.701433	0.266346	0.220255
0	H	0.931701	0.899649	0.0994775
0	H	0.10302	0.0375791	0.097898
0	H	0.964517	0.0684786	0.0993634
0	H	0.401557	0.77222	0.544365
0	H	0.230281	0.633694	0.544448
0	H	0.368271	0.600435	0.544249
0	H	0.598275	0.231009	0.427072
0	H	0.769426	0.369446	0.426578
0	H	0.631461	0.402849	0.426513
0	H	0.0681297	0.103586	0.871981
0	H	0.896706	0.965576	0.873077
0	H	0.035216	0.934802	0.871452
0	C	0.224322	0.579018	0.849447
0	C	0.422791	0.649079	0.84856
0	C	0.352591	0.777675	0.848659
0	C	0.775569	0.424236	0.122651
0	C	0.576932	0.353996	0.12188
0	C	0.647128	0.22555	0.122273
0	C	0.890501	0.912881	0.195313
0	C	0.0901492	0.983282	0.195026
0	C	0.0190177	0.109697	0.194989
0	C	0.442442	0.758587	0.44813
0	C	0.243824	0.688335	0.448008
0	C	0.313798	0.559338	0.448064
0	C	0.557396	0.244641	0.523379
0	C	0.755854	0.314786	0.522895
0	C	0.685933	0.443881	0.522895
0	C	0.109333	0.0903526	0.776202
0	C	0.909539	0.0198486	0.775823
0	C	0.980717	0.89352	0.776013
0	H	0.246396	0.604414	0.905444
0	H	0.397466	0.645797	0.904477
0	H	0.355808	0.755518	0.904607
0	H	0.75353	0.398837	0.0665832
0	H	0.602213	0.357226	0.0657866
0	H	0.643879	0.247683	0.0662808
0	H	0.912243	0.937943	0.253868
0	H	0.0651803	0.980019	0.253704
0	H	0.0222152	0.0878633	0.253481
0	H	0.420518	0.733327	0.391031
0	H	0.268977	0.691594	0.390814
0	H	0.310519	0.581315	0.390969
0	H	0.579325	0.269887	0.580538
0	H	0.73064	0.311483	0.579765
0	H	0.68917	0.421867	0.579905
0	H	0.0875973	0.0652803	0.717698
0	H	0.934447	0.0230708	0.716821
0	H	0.977479	0.915318	0.717439
0	C	0.185585	0.568497	0.864483
0	C	0.433288	0.620733	0.863448
0	C	0.380865	0.816549	0.863743
0	C	0.814321	0.434779	0.107881
0	C	0.566444	0.382346	0.106884
0	C	0.618872	0.186666	0.107274
0	C	0.851693	0.902339	0.207297
0	C	0.100712	0.95495	0.207625
0	C	0.0474226	0.148615	0.2069
0	C	0.481215	0.769089	0.434792
0	C	0.233343	0.716725	0.434595
0	C	0.285511	0.520409	0.434736
0	C	0.518628	0.234154	0.536716
0	C	0.766349	0.286409	0.536455
0	C	0.714246	0.482797	0.536385
0	C	0.148147	0.100909	0.764216
0	C	0.898985	0.0481908	0.76337
0	C	0.952338	0.854589	0.764255
0	H	0.177818	0.585691	0.932806
0	H	0.416118	0.595707	0.931637
0	H	0.405775	0.82435	0.932077
0	H	0.82212	0.417596	0.0396353
0	H	0.583577	0.407322	0.0384275
0	H	0.593953	0.178842	0.0389783
0	H	0.843534	0.91918	0.275981
0	H	0.0840392	0.92999	0.276693
0	H	0.0723871	0.156782	0.275406
0	H	0.48914	0.752012	0.366441
0	H	0.250336	0.741747	0.366125
0	H	0.260551	0.51242	0.366439
0	H	0.510702	0.251228	0.605075
0	H	0.749305	0.261352	0.604703
0	H	0.739191	0.490743	0.604739
0	H	0.156304	0.0840667	0.695534
0	H	0.915602	0.0731144	0.694076
0	H	0.927358	0.846382	0.695805
0	C	0.100491	0.541866	0.396497
0	C	0.460101	0.562064	0.395498
0	C	0.439321	0.902095	0.395848
0	C	0.899417	0.461533	0.576272
0	C	0.539888	0.441197	0.574814
0	C	0.56045	0.101198	0.575283
0	C	0.766759	0.876178	0.731943
0	C	0.126817	0.895998	0.731884
0	C	0.106469	0.233949	0.73182
0	C	0.566587	0.795646	0.905905
0	C	0.207081	0.775926	0.905573
0	C	0.226581	0.434808	0.905841
0	C	0.433293	0.207648	0.0654409
0	C	0.792838	0.227364	0.0658335
0	C	0.773288	0.568488	0.0656532
0	C	0.233114	0.127118	0.239437
0	C	0.873111	0.107297	0.239497
0	C	0.8934	0.769345	0.23967
0	H	0.0840729	0.521909	0.307205
0	H	0.480044	0.565665	0.306297
0	H	0.435743	0.91858	0.306851
0	H	0.915796	0.481516	0.665554
0	H	0.52001	0.437726	0.66411
0	H	0.563985	0.0846962	0.664319
0	H	0.749994	0.85633	0.642823
0	H	0.146616	0.899075	0.642846
0	H	0.10343	0.250758	0.642752
0	H	0.583329	0.815587	0.994727
0	H	0.187258	0.772817	0.994522
0	H	0.229696	0.418026	0.994749
0	H	0.416547	0.187699	0.976629
0	H	0.812711	0.230554	0.976963
0	H	0.770164	0.585269	0.976758
0	H	0.249875	0.146962	0.328568
0	H	0.85336	0.104307	0.328623
0	H	0.896434	0.752537	0.328748
0	H	0.104373	0.570522	0.366121
0	H	0.431588	0.537259	0.364949
0	H	0.463989	0.898252	0.36489
0	H	0.895527	0.432885	0.606816
0	H	0.568453	0.465956	0.605075
0	H	0.535794	0.105077	0.606143
0	H	0.770627	0.904903	0.702696
0	H	0.0981913	0.871195	0.70234
0	H	0.131224	0.230089	0.702489
0	H	0.562705	0.766963	0.9357
0	H	0.235678	0.800752	0.935133
0	H	0.201849	0.438659	0.935483
0	H	0.437145	0.236318	0.0356604
0	H	0.764286	0.202495	0.0361174
0	H	0.79803	0.564654	0.0360015
0	H	0.229217	0.0983831	0.268702
0	H	0.901779	0.132048	0.268865
0	H	0.868654	0.773219	0.268985
0	C	0.140008	0.544695	0.411141
0	C	0.457167	0.598824	0.41038
0	C	0.402658	0.862395	0.41046
0	C	0.859901	0.458689	0.561224
0	C	0.542654	0.404336	0.560215
0	C	0.597144	0.140871	0.560675
0	C	0.806283	0.878892	0.743381
0	C	0.124162	0.932974	0.743778
0	C	0.0696523	0.194274	0.743438
0	C	0.527052	0.792898	0.893931
0	C	0.209827	0.739012	0.893722
0	C	0.263362	0.474513	0.893919
0	C	0.472843	0.21043	0.0773284
0	C	0.789957	0.264209	0.0776385
0	C	0.73652	0.52877	0.0774671
0	C	0.193603	0.124431	0.22789
0	C	0.875607	0.070236	0.227628
0	C	0.930229	0.809012	0.227955
0	H	0.155744	0.563394	0.503881
0	H	0.438537	0.595826	0.50321
0	H	0.405578	0.846621	0.503186
0	H	0.844269	0.440062	0.468191
0	H	0.561221	0.407212	0.467307
0	H	0.594256	0.156646	0.467884
0	H	0.822571	0.897747	0.835019
0	H	0.10541	0.930448	0.83546
0	H	0.0721567	0.177961	0.835122
0	H	0.510773	0.773847	0.80274
0	H	0.228828	0.741721	0.802624
0	H	0.260644	0.490848	0.802766
0	H	0.489159	0.229536	0.168353
0	H	0.770889	0.261422	0.168615
0	H	0.73925	0.512411	0.168529
0	H	0.177355	0.105639	0.136075
0	H	0.89429	0.0726756	0.135784
0	H	0.927732	0.825297	0.136174
0	H	0.136016	0.515846	0.437337
0	H	0.485885	0.623726	0.436561
0	H	0.377858	0.866321	0.436601
0	H	0.863894	0.487548	0.535227
0	H	0.513887	0.379489	0.534275
0	H	0.621925	0.136903	0.5346
0	H	0.802368	0.850064	0.769371
0	H	0.152894	0.957849	0.769884
0	H	0.0448346	0.198171	0.769423
0	H	0.530948	0.821641	0.866714
0	H	0.181192	0.714154	0.866475
0	H	0.288129	0.470648	0.866655
0	H	0.468965	0.1817	0.104742
0	H	0.818543	0.289115	0.105064
0	H	0.711745	0.532615	0.104862
0	H	0.197536	0.153277	0.202118
0	H	0.846829	0.0454193	0.201708
0	H	0.955039	0.805095	0.202073
0	C	0.164193	0.560548	0.274346
0	C	0.441292	0.607236	0.273814
0	C	0.394365	0.838169	0.273603
0	C	0.835563	0.442699	0.697595
0	C	0.558516	0.395926	0.696822
0	C	0.605453	0.165117	0.697482
0	C	0.82964	0.894421	0.604638
0	C	0.108719	0.940949	0.605115
0	C	0.0617557	0.170802	0.604782
0	C	0.503739	0.777669	0.0328048
0	C	0.224969	0.730856	0.0327381
0	C	0.271495	0.497894	0.032844
0	C	0.496078	0.22557	0.938268
0	C	0.774819	0.27231	0.938539
0	C	0.728388	0.50544	0.938484
0	C	0.17017	0.108815	0.366427
0	C	0.891062	0.0622181	0.366156
0	C	0.938129	0.832526	0.366526
0	H	0.168948	0.589861	0.251276
0	H	0.412101	0.582655	0.250791
0	H	0.41887	0.833477	0.250667
0	H	0.830798	0.413371	0.720429
0	H	0.587748	0.420461	0.719689
0	H	0.580961	0.169838	0.720362
0	H	0.834175	0.923642	0.581354
0	H	0.079565	0.91632	0.581934
0	H	0.0863377	0.166261	0.581508
0	H	0.49914	0.748477	0.0570471
0	H	0.254067	0.755431	0.0569555
0	H	0.246995	0.502486	0.057082
0	H	0.50067	0.254754	0.913847
0	H	0.745768	0.247677	0.914179
0	H	0.752893	0.500861	0.914088
0	H	0.165623	0.07958	0.389513
0	H	0.92026	0.0867912	0.389215
0	H	0.91355	0.837083	0.389676
0	H	0.14825	0.542325	0.18112
0	H	0.459418	0.609528	0.180417
0	H	0.392169	0.854177	0.180379
0	H	0.851392	0.460844	0.791147
0	H	0.54043	0.393733	0.79022
0	H	0.607627	0.149107	0.790752
0	H	0.813144	0.875927	0.512722
0	H	0.127094	0.942802	0.513163
0	H	0.0598231	0.187341	0.51282
0	H	0.520286	0.796301	0.124357
0	H	0.206406	0.728872	0.124203
0	H	0.273502	0.481278	0.124359
0	H	0.479486	0.206896	0.84689
0	H	0.793439	0.27436	0.847156
0	H	0.726366	0.522072	0.847044
0	H	0.186613	0.127255	0.45853
0	H	0.872741	0.0604336	0.458211
0	H	0.940047	0.816005	0.458575
0	C	0.202997	0.562263	0.288955
0	C	0.439501	0.644412	0.288744
0	C	0.357296	0.79918	0.287959
0	C	0.796765	0.440969	0.682441
0	C	0.560167	0.35867	0.682116
0	C	0.642544	0.204087	0.683076
0	C	0.868577	0.896291	0.6155
0	C	0.10697	0.978206	0.616058
0	C	0.0246731	0.131725	0.615745
0	C	0.464846	0.775876	0.0216909
0	C	0.226688	0.693579	0.0218222
0	C	0.308615	0.536938	0.0218043
0	C	0.534977	0.227366	0.949191
0	C	0.772956	0.30951	0.94931
0	C	0.691279	0.466381	0.949382
0	C	0.131235	0.106941	0.35536
0	C	0.892667	0.0248859	0.355147
0	C	0.975219	0.87159	0.35544
0	H	0.219924	0.572753	0.190098
0	H	0.429038	0.650936	0.190001
0	H	0.350882	0.782227	0.189046
0	H	0.779717	0.430388	0.780991
0	H	0.570713	0.352194	0.780747
0	H	0.648948	0.221081	0.781885
0	H	0.884872	0.906609	0.515235
0	H	0.0967129	0.98427	0.515765
0	H	0.0186655	0.115338	0.515548
0	H	0.448244	0.764966	0.121072
0	H	0.237566	0.687848	0.121225
0	H	0.31434	0.55359	0.121205
0	H	0.551515	0.238197	0.849633
0	H	0.762168	0.31524	0.849681
0	H	0.685539	0.44978	0.849846
0	H	0.114875	0.0965484	0.455455
0	H	0.90302	0.0188309	0.455216
0	H	0.981215	0.888029	0.455511
0	H	0.199321	0.533698	0.312666
0	H	0.467932	0.669326	0.312624
0	H	0.332467	0.802798	0.311591
0	H	0.800441	0.469541	0.658871
0	H	0.531677	0.333785	0.658778
0	H	0.667363	0.200435	0.65966
0	H	0.865142	0.867817	0.638916
0	H	0.135231	0.00319292	0.639539
0	H	0.999716	0.135132	0.639059
0	H	0.468353	0.804471	0.000534594
0	H	0.198173	0.668507	0.000848072
0	H	0.333605	0.533429	0.000683728
0	H	0.531466	0.198777	0.970543
0	H	0.801411	0.334629	0.97077
0	H	0.666285	0.469868	0.970738
0	H	0.134667	0.135422	0.33214
0	H	0.864343	0.999938	0.33216
0	H	0.000174678	0.868162	0.332348
0	H	0.220199	0.581675	0.376233
0	H	0.420131	0.642168	0.376018
0	H	0.359445	0.78192	0.375203
0	H	0.779677	0.421621	0.594839
0	H	0.579404	0.360775	0.594544
0	H	0.640427	0.221317	0.59564
0	H	0.886296	0.915921	0.701377
0	H	0.0874081	0.976352	0.70194
0	H	0.0265181	0.113976	0.7017
0	H	0.447396	0.75678	0.934243
0	H	0.245675	0.695104	0.934333
0	H	0.307049	0.554453	0.934357
0	H	0.552485	0.246516	0.0364234
0	H	0.753821	0.307878	0.0364163
0	H	0.692863	0.44882	0.0366177
0	H	0.113577	0.0873681	0.269264
0	H	0.912084	0.0266296	0.268863
0	H	0.973394	0.889297	0.269275
0	C	0.0344679	0.460621	0.445912
0	C	0.541077	0.577121	0.44533
0	C	0.424754	0.968552	0.446505
0	C	0.965499	0.542781	0.526504
0	C	0.458925	0.426183	0.525385
0	C	0.574994	0.034723	0.524804
0	C	0.700884	0.794961	0.781211
0	C	0.207516	0.910596	0.780976
0	C	0.0914379	0.300017	0.781386
0	C	0.632465	0.876935	0.855504
0	C	0.126069	0.760685	0.855925
0	C	0.241757	0.368752	0.855913
0	C	0.367435	0.126353	0.115802
0	C	0.873849	0.242638	0.115661
0	C	0.758063	0.634507	0.115634
0	C	0.299024	0.208327	0.190093
0	C	0.792402	0.0927159	0.19056
0	C	0.908386	0.703242	0.19018
0	H	0.00278411	0.441519	0.457176
0	H	0.560184	0.564519	0.456747
0	H	0.43735	0.000324185	0.458758
0	H	0.997172	0.561921	0.515028
0	H	0.439824	0.438792	0.514038
0	H	0.56241	0.00295375	0.512545
0	H	0.669268	0.775588	0.793799
0	H	0.226679	0.898092	0.793549
0	H	0.103746	0.331737	0.794001
0	H	0.664118	0.896162	0.843466
0	H	0.10697	0.773293	0.844343
0	H	0.229206	0.336973	0.844207
0	H	0.335775	0.107174	0.127699
0	H	0.892945	0.230026	0.127272
0	H	0.770621	0.666293	0.12731
0	H	0.33063	0.227736	0.177355
0	H	0.773237	0.105218	0.178022
0	H	0.896082	0.671524	0.177536
0	H	0.0386854	0.473587	0.337084
0	H	0.528211	0.568348	0.336434
0	H	0.433625	0.964611	0.337571
0	H	0.961346	0.529878	0.635413
0	H	0.471835	0.434981	0.63421
0	H	0.566099	0.0386556	0.633698
0	H	0.704589	0.808095	0.672878
0	H	0.194368	0.901184	0.672731
0	H	0.100791	0.296297	0.673025
0	H	0.628516	0.86403	0.964315
0	H	0.139017	0.769585	0.964634
0	H	0.232881	0.372811	0.964651
0	H	0.371441	0.139276	0.00698277
0	H	0.860903	0.233729	0.00695224
0	H	0.766929	0.63044	0.00688503
0	H	0.295373	0.195208	0.298427
0	H	0.805552	0.102118	0.298811
0	H	0.899018	0.706951	0.29852
0	C	0.0544709	0.436397	0.454753
0	C	0.565104	0.62144	0.45416
0	C	0.380596	0.948331	0.45465
0	C	0.945412	0.566922	0.517464
0	C	0.434882	0.381868	0.516736
0	C	0.619161	0.0549585	0.516741
0	C	0.721218	0.771017	0.786664
0	C	0.231593	0.954948	0.786186
0	C	0.0472322	0.279592	0.786953
0	C	0.612294	0.901012	0.847625
0	C	0.101981	0.716363	0.84787
0	C	0.285919	0.388953	0.847862
0	C	0.387525	0.102201	0.123729
0	C	0.897933	0.286959	0.123671
0	C	0.713906	0.614321	0.123702
0	C	0.27862	0.232204	0.184707
0	C	0.768329	0.0483672	0.185277
0	C	0.952591	0.723675	0.184635
0	H	0.0493964	0.422822	0.562934
0	H	0.578652	0.62997	0.562306
0	H	0.372001	0.953327	0.562725
0	H	0.95043	0.580422	0.409153
0	H	0.421392	0.373317	0.408479
0	H	0.627765	0.0500398	0.408565
0	H	0.716533	0.757057	0.89383
0	H	0.245606	0.964168	0.893218
0	H	0.0380256	0.284342	0.894059
0	H	0.617401	0.914793	0.73987
0	H	0.0882809	0.707758	0.740064
0	H	0.294508	0.383816	0.740069
0	H	0.382361	0.0883882	0.231445
0	H	0.911725	0.295582	0.231325
0	H	0.705319	0.619526	0.231376
0	H	0.283249	0.24613	0.0774908
0	H	0.754408	0.0391641	0.0780818
0	H	0.961803	0.719002	0.0774193
0	H	0.0861005	0.455555	0.445969
0	H	0.545931	0.633924	0.445479
0	H	0.368132	0.9166	0.445719
0	H	0.913791	0.547714	0.526359
0	H	0.454023	0.369358	0.525783
0	H	0.631613	0.0866831	0.525972
0	H	0.7528	0.790414	0.776996
0	H	0.212408	0.967391	0.776742
0	H	0.0349569	0.2479	0.777452
0	H	0.580673	0.881715	0.855782
0	H	0.121133	0.703849	0.856104
0	H	0.298368	0.420692	0.856061
0	H	0.419155	0.121447	0.115691
0	H	0.878767	0.299462	0.11578
0	H	0.701447	0.582572	0.115786
0	H	0.247046	0.212761	0.194485
0	H	0.787495	0.0359121	0.195076
0	H	0.964862	0.755362	0.194449
0	C	0.0399681	0.405274	0.337454
0	C	0.596071	0.638077	0.336717
0	C	0.364111	0.962836	0.337075
0	C	0.959876	0.598114	0.634489
0	C	0.403825	0.365264	0.63387
0	C	0.635629	0.0403797	0.634062
0	C	0.70661	0.740457	0.667206
0	C	0.261944	0.970662	0.666383
0	C	0.0314116	0.294235	0.667425
0	C	0.626546	0.931838	0.965899
0	C	0.0712294	0.699889	0.966007
0	C	0.30235	0.374602	0.96606
0	C	0.373251	0.0714043	0.00536127
0	C	0.928576	0.303419	0.00512996
0	C	0.697478	0.628602	0.00524078
0	C	0.293208	0.262791	0.304061
0	C	0.737857	0.0326312	0.304662
0	C	0.968413	0.708957	0.303904
0	H	0.00791851	0.388877	0.337224
0	H	0.612444	0.622351	0.336279
0	H	0.379842	0.995033	0.337032
0	H	0.99193	0.614611	0.634496
0	H	0.38745	0.380991	0.633836
0	H	0.619894	0.0081799	0.633858
0	H	0.67457	0.724244	0.666616
0	H	0.277648	0.954289	0.664634
0	H	0.0473468	0.326394	0.666758
0	H	0.658578	0.948287	0.96705
0	H	0.0549135	0.715649	0.967101
0	H	0.286648	0.342457	0.967214
0	H	0.341219	0.0550399	0.00398478
0	H	0.944868	0.287641	0.0035973
0	H	0.713183	0.660747	0.00383787
0	H	0.325252	0.279087	0.304425
0	H	0.722127	0.0489816	0.305955
0	H	0.952473	0.676793	0.304278
0	H	0.0487566	0.419275	0.230636
0	H	0.582085	0.632878	0.229987
0	H	0.369346	0.954058	0.230345
0	H	0.951172	0.584173	0.741423
0	H	0.417743	0.3705	0.740774
0	H	0.630403	0.0491009	0.740913
0	H	0.715504	0.754981	0.5613
0	H	0.247406	0.965362	0.560711
0	H	0.0370546	0.285348	0.561574
0	H	0.617604	0.917564	0.0722309
0	H	0.0854139	0.705154	0.0723954
0	H	0.297106	0.383589	0.0724182
0	H	0.382271	0.0856965	0.899079
0	H	0.914293	0.298158	0.898939
0	H	0.702728	0.619559	0.899014
0	H	0.284395	0.248285	0.410015
0	H	0.752296	0.037943	0.410545
0	H	0.962772	0.717779	0.409881
0	C	0.0549777	0.377165	0.356921
0	C	0.624042	0.681275	0.35627
0	C	0.321089	0.947824	0.356254
0	C	0.944713	0.626091	0.614801
0	C	0.375865	0.322066	0.614408
0	C	0.678652	0.0553909	0.614781
0	C	0.721366	0.712062	0.683508
0	C	0.290612	0.013676	0.683422
0	C	0.988357	0.279415	0.683717
0	C	0.61149	0.959926	0.947257
0	C	0.0431758	0.656696	0.947235
0	C	0.345388	0.389663	0.947294
0	C	0.38817	0.0432048	0.0240384
0	C	0.95666	0.346612	0.0237623
0	C	0.65444	0.613559	0.0238616
0	C	0.278322	0.291081	0.287816
0	C	0.709228	0.989615	0.287476
0	C	0.0114658	0.723786	0.287475
0	H	0.0437811	0.35483	0.273203
0	H	0.646284	0.692431	0.272518
0	H	0.310102	0.95909	0.272411
0	H	0.955906	0.648508	0.698219
0	H	0.353536	0.310947	0.69783
0	H	0.689629	0.0440358	0.698347
0	H	0.710059	0.690158	0.598258
0	H	0.3125	0.0241233	0.598399
0	H	0.977801	0.290742	0.598552
0	H	0.62221	0.981853	0.0324042
0	H	0.0212993	0.64555	0.0322546
0	H	0.356492	0.378875	0.0323876
0	H	0.377466	0.0213335	0.938702
0	H	0.978419	0.357754	0.938325
0	H	0.643341	0.624271	0.938491
0	H	0.289648	0.31304	0.372873
0	H	0.68723	0.97916	0.372094
0	H	0.0220209	0.712375	0.372344
0	H	0.0464597	0.36221	0.460438
0	H	0.638939	0.687672	0.459785
0	H	0.314675	0.956394	0.459667
0	H	0.953112	0.640943	0.511067
0	H	0.361073	0.315641	0.510679
0	H	0.685057	0.0469101	0.511162
0	H	0.712742	0.696616	0.786023
0	H	0.305929	0.0201646	0.786042
0	H	0.981553	0.288022	0.786265
0	H	0.620443	0.975366	0.844762
0	H	0.0278527	0.650277	0.844633
0	H	0.351782	0.380682	0.844738
0	H	0.379098	0.0276998	0.126372
0	H	0.97212	0.35303	0.126067
0	H	0.648033	0.622625	0.126206
0	H	0.286821	0.306459	0.185144
0	H	0.694041	0.983122	0.184583
0	H	0.0182584	0.715271	0.184712
0	H	0.0865112	0.391855	0.350043
0	H	0.609362	0.69818	0.349514
0	H	0.304143	0.916181	0.349372
0	H	0.913182	0.611314	0.621983
0	H	0.390516	0.305144	0.621744
0	H	0.695608	0.0870253	0.622041
0	H	0.75289	0.726636	0.67665
0	H	0.276566	0.0311808	0.676953
0	H	0.971318	0.247773	0.676855
0	H	0.57994	0.945127	0.95205
0	H	0.0578674	0.639787	0.952162
0	H	0.362235	0.421328	0.952127
0	H	0.419723	0.0579308	0.0195932
0	H	0.941956	0.363515	0.0194157
0	H	0.637594	0.58189	0.0193652
0	H	0.246802	0.276434	0.295042
0	H	0.72327	0.972113	0.294474
0	H	0.028507	0.755421	0.294712
