#******************************************
#
# CIF file created by Zeo++
# Zeo++ is an open source package to
# analyze microporous materials
#
#*******************************************

_cell_length_a		31.6138(0)
_cell_length_b		31.6258(0)
_cell_length_c		12.0457(0)
_cell_angle_alpha		90(0)
_cell_angle_beta		90(0)
_cell_angle_gamma		120.075(0)

_symmetry_space_group_name_H-M		'P1'
_symmetry_Int_Tables_number		1
_symmetry_cell_setting		Monoclinic

loop_
_symmetry_equiv_pos_as_xyz
'+x,+y,+z'

loop_
_atom_site_label
_atom_site_type_symbol
_atom_site_fract_x
_atom_site_fract_y
_atom_site_fract_z
0	N	0.539644	0.175716	0.205596
0	N	0.827195	0.363683	0.202897
0	N	0.638822	0.463003	0.20443
0	N	0.464089	0.826731	0.800619
0	N	0.176383	0.638523	0.800863
0	N	0.36463	0.539271	0.800896
0	N	0.206038	0.50952	0.53776
0	N	0.493664	0.698055	0.53774
0	N	0.30537	0.797041	0.537711
0	N	0.129182	0.158758	0.134194
0	N	0.844527	0.971961	0.133867
0	N	0.0314902	0.873373	0.133957
0	N	0.874386	0.843618	0.871016
0	N	0.158935	0.0303963	0.871218
0	N	0.971981	0.128953	0.871089
0	N	0.797531	0.492855	0.467428
0	N	0.509799	0.304304	0.467384
0	N	0.698112	0.205291	0.467325
0	N	0.491396	0.111295	0.33239
0	N	0.891308	0.380125	0.330859
0	N	0.6227	0.511015	0.331857
0	N	0.512161	0.891036	0.673389
0	N	0.11212	0.622191	0.673474
0	N	0.380752	0.491291	0.67336
0	N	0.158083	0.445337	0.665321
0	N	0.557838	0.714374	0.665351
0	N	0.28912	0.844896	0.665305
0	N	0.177092	0.222876	0.00644919
0	N	0.780331	0.955608	0.00631006
0	N	0.0478054	0.82558	0.00626598
0	N	0.826461	0.779492	0.998724
0	N	0.223131	0.0467729	0.998794
0	N	0.955652	0.176733	0.998793
0	N	0.84547	0.557031	0.339834
0	N	0.445626	0.288002	0.33978
0	N	0.714343	0.157419	0.339743
0	N	0.587295	0.0752378	0.986824
0	N	0.927763	0.512566	0.986059
0	N	0.490275	0.415272	0.986642
0	N	0.416231	0.927205	0.0186975
0	N	0.0757508	0.489886	0.0185463
0	N	0.51322	0.58704	0.0185095
0	N	0.253406	0.408713	0.319424
0	N	0.59464	0.846389	0.31938
0	N	0.157	0.749462	0.319366
0	N	0.0819244	0.259676	0.352343
0	N	0.743493	0.823635	0.352308
0	N	0.179746	0.920787	0.352509
0	N	0.921618	0.742697	0.652803
0	N	0.259938	0.178716	0.652757
0	N	0.82372	0.0815216	0.652552
0	N	0.75014	0.593657	0.685729
0	N	0.408793	0.155966	0.68574
0	N	0.846483	0.252852	0.685648
0	N	0.533963	0.00054695	0.145976
0	N	0.00231394	0.533959	0.145538
0	N	0.469184	0.468667	0.145951
0	N	0.469584	0.0018454	0.859469
0	N	0.0011562	0.468469	0.859177
0	N	0.534285	0.533632	0.859185
0	N	0.200221	0.3342	0.479051
0	N	0.669183	0.867793	0.478912
0	N	0.135665	0.802559	0.478915
0	N	0.135089	0.334138	0.192543
0	N	0.668974	0.802258	0.192767
0	N	0.201117	0.867744	0.192864
0	N	0.868471	0.668232	0.812609
0	N	0.334464	0.200138	0.812322
0	N	0.802336	0.134555	0.812196
0	N	0.803342	0.668168	0.52611
0	N	0.334259	0.134604	0.526218
0	N	0.867796	0.199735	0.526118
0	C	0.542402	0.136996	0.17908
0	C	0.865893	0.4054	0.1771
0	C	0.597251	0.46017	0.178286
0	C	0.461228	0.865422	0.826837
0	C	0.137662	0.596872	0.826946
0	C	0.406215	0.542119	0.826959
0	C	0.208794	0.470769	0.511537
0	C	0.532462	0.739624	0.51152
0	C	0.263799	0.794199	0.511518
0	C	0.126428	0.197523	0.160297
0	C	0.805738	0.930383	0.160106
0	C	0.0730446	0.876192	0.160212
0	C	0.877102	0.804838	0.844855
0	C	0.197728	0.0719634	0.844933
0	C	0.930425	0.126129	0.844833
0	C	0.794739	0.531592	0.493603
0	C	0.471004	0.262726	0.493562
0	C	0.739683	0.208127	0.493506
0	C	0.567008	0.12911	0.0882763
0	C	0.87388	0.438043	0.0865599
0	C	0.564614	0.435587	0.0876142
0	C	0.436582	0.873328	0.917515
0	C	0.129691	0.564263	0.917571
0	C	0.43887	0.566716	0.917603
0	C	0.233281	0.462737	0.420704
0	C	0.540532	0.772155	0.420681
0	C	0.231233	0.769672	0.420696
0	C	0.101973	0.205607	0.251103
0	C	0.797652	0.897842	0.25095
0	C	0.105563	0.900665	0.251126
0	C	0.901534	0.79675	0.754005
0	C	0.20581	0.104483	0.754051
0	C	0.897913	0.101658	0.75392
0	C	0.770231	0.539617	0.584398
0	C	0.46293	0.230176	0.584373
0	C	0.772258	0.232661	0.584315
0	C	0.564293	0.0847428	0.0753404
0	C	0.91822	0.479909	0.0742814
0	C	0.522912	0.438263	0.0750323
0	C	0.439242	0.917677	0.93025
0	C	0.0853143	0.522467	0.93014
0	C	0.480574	0.564043	0.930143
0	C	0.230543	0.418345	0.408034
0	C	0.584972	0.813875	0.407996
0	C	0.18953	0.772338	0.408003
0	C	0.104724	0.250008	0.263677
0	C	0.753201	0.85614	0.263659
0	C	0.147251	0.897968	0.263812
0	C	0.898787	0.75235	0.741433
0	C	0.250252	0.146202	0.741371
0	C	0.856218	0.104346	0.741245
0	C	0.772971	0.58401	0.59708
0	C	0.418484	0.188471	0.597087
0	C	0.813954	0.22998	0.597013
0	C	0.537003	0.0433853	0.156302
0	C	0.959455	0.49403	0.155595
0	C	0.508948	0.465525	0.156162
0	C	0.466514	0.958991	0.849185
0	C	0.0440347	0.508363	0.848982
0	C	0.494523	0.536778	0.848985
0	C	0.203354	0.377096	0.489281
0	C	0.626234	0.827987	0.489226
0	C	0.175461	0.799477	0.489228
0	C	0.131898	0.291216	0.182343
0	C	0.711942	0.842042	0.182456
0	C	0.161337	0.870854	0.182553
0	C	0.87162	0.711137	0.822763
0	C	0.291514	0.160331	0.822603
0	C	0.84212	0.131452	0.822497
0	C	0.800168	0.625255	0.515832
0	C	0.377225	0.174388	0.51588
0	C	0.828006	0.202827	0.515791
0	C	0.512593	0.0514935	0.249271
0	C	0.951198	0.461415	0.248487
0	C	0.541554	0.489809	0.24916
0	C	0.490862	0.950824	0.756172
0	C	0.0522512	0.54094	0.756034
0	C	0.461919	0.512513	0.755984
0	C	0.179134	0.385383	0.582375
0	C	0.617891	0.795478	0.582379
0	C	0.207993	0.823707	0.582382
0	C	0.156036	0.282869	0.0891661
0	C	0.720291	0.874524	0.0892678
0	C	0.128856	0.846693	0.0893292
0	C	0.847441	0.719466	0.915876
0	C	0.283174	0.127836	0.91576
0	C	0.874611	0.155629	0.91571
0	C	0.824348	0.616954	0.422672
0	C	0.385576	0.206881	0.422689
0	C	0.795478	0.17861	0.422637
0	C	0.514109	0.0948802	0.259153
0	C	0.907822	0.419371	0.257829
0	C	0.583463	0.488319	0.258726
0	C	0.4894	0.907455	0.746492
0	C	0.0956508	0.582945	0.746497
0	C	0.420002	0.513991	0.746462
0	C	0.180658	0.428787	0.592018
0	C	0.574442	0.75353	0.592034
0	C	0.249929	0.822262	0.592035
0	C	0.154519	0.23946	0.0796612
0	C	0.76375	0.916462	0.0796064
0	C	0.0869273	0.848147	0.0796742
0	C	0.848975	0.762882	0.925424
0	C	0.239721	0.0858937	0.92543
0	C	0.916537	0.154172	0.92537
0	C	0.82284	0.573556	0.41306
0	C	0.42903	0.248826	0.41304
0	C	0.753542	0.180058	0.412992
0	C	0.583519	0.0287705	0.974198
0	C	0.97424	0.555371	0.973706
0	C	0.44761	0.419113	0.974189
0	C	0.419946	0.973649	0.0311482
0	C	0.0292865	0.447065	0.0309179
0	C	0.555885	0.583198	0.0309487
0	C	0.249484	0.362185	0.306864
0	C	0.641224	0.88905	0.306739
0	C	0.114329	0.753276	0.306793
0	C	0.0857879	0.30618	0.364697
0	C	0.69693	0.780943	0.364832
0	C	0.222414	0.916966	0.365075
0	C	0.917693	0.696168	0.640353
0	C	0.306511	0.221389	0.640157
0	C	0.78105	0.0853381	0.639992
0	C	0.753999	0.64016	0.698193
0	C	0.362219	0.113286	0.698296
0	C	0.88915	0.249034	0.698229
0	C	0.557024	0.992227	0.0554819
0	C	0.0107104	0.5654	0.0551079
0	C	0.437718	0.445668	0.0554752
0	C	0.446484	0.0101793	0.949863
0	C	0.992791	0.437029	0.949586
0	C	0.565762	0.556632	0.949661
0	C	0.223065	0.325736	0.388333
0	C	0.677687	0.899113	0.388174
0	C	0.104309	0.779667	0.388231
0	C	0.112227	0.342616	0.283193
0	C	0.660467	0.770901	0.283421
0	C	0.232455	0.890598	0.283601
0	C	0.891292	0.659742	0.721893
0	C	0.342973	0.231463	0.721599
0	C	0.771	0.1117	0.721469
0	C	0.780456	0.676619	0.616762
0	C	0.325756	0.103254	0.616889
0	C	0.899158	0.222631	0.616804
0	C	0.553598	0.945981	0.0462303
0	C	0.0570137	0.60831	0.0461206
0	C	0.394953	0.449236	0.0462399
0	C	0.449877	0.0564152	0.95898
0	C	0.946498	0.394109	0.958578
0	C	0.608525	0.553062	0.958878
0	C	0.21944	0.279381	0.379002
0	C	0.724093	0.941898	0.378792
0	C	0.0615248	0.783203	0.378941
0	C	0.115761	0.38894	0.292259
0	C	0.614078	0.728084	0.292645
0	C	0.275282	0.887127	0.292761
0	C	0.887717	0.613402	0.712766
0	C	0.389368	0.27427	0.712287
0	C	0.728172	0.115169	0.712305
0	C	0.784041	0.722958	0.626033
0	C	0.279356	0.0604599	0.626174
0	C	0.94194	0.219091	0.626094
0	C	0.576096	0.936593	0.958738
0	C	0.0664854	0.640262	0.958748
0	C	0.362995	0.426804	0.958788
0	C	0.427295	0.0658019	0.0462978
0	C	0.937062	0.36212	0.0458514
0	C	0.64051	0.575517	0.0462922
0	C	0.241657	0.269836	0.291222
0	C	0.733682	0.973666	0.290982
0	C	0.0296994	0.760933	0.291228
0	C	0.0934144	0.398459	0.379806
0	C	0.604516	0.696217	0.38024
0	C	0.307147	0.909469	0.380391
0	C	0.909974	0.603855	0.625077
0	C	0.398935	0.30607	0.624545
0	C	0.696327	0.0928485	0.624645
0	C	0.761735	0.732476	0.713669
0	C	0.26977	0.0286221	0.713832
0	C	0.973787	0.241386	0.713771
0	C	0.602421	0.972927	0.878502
0	C	0.030201	0.630267	0.878384
0	C	0.37285	0.4004	0.87853
0	C	0.400907	0.0294659	0.126485
0	C	0.973372	0.372118	0.12616
0	C	0.630668	0.601938	0.126533
0	C	0.267928	0.306106	0.210749
0	C	0.697405	0.963626	0.210547
0	C	0.039697	0.734695	0.210798
0	C	0.0671138	0.362199	0.460286
0	C	0.6408	0.706219	0.460655
0	C	0.297135	0.935681	0.460869
0	C	0.936217	0.640093	0.544511
0	C	0.362654	0.296035	0.544112
0	C	0.706347	0.0666515	0.544146
0	C	0.735404	0.696184	0.794055
0	C	0.306049	0.0386267	0.79425
0	C	0.963801	0.267645	0.794175
0	C	0.606438	0.0185556	0.885556
0	C	0.984526	0.588613	0.885204
0	C	0.414366	0.396231	0.885592
0	C	0.396912	0.983844	0.119573
0	C	0.0190301	0.413796	0.119353
0	C	0.589146	0.6061	0.119508
0	C	0.27216	0.351802	0.217927
0	C	0.651644	0.922127	0.217794
0	C	0.0812051	0.730529	0.217929
0	C	0.0629628	0.316533	0.453354
0	C	0.686525	0.747784	0.45359
0	C	0.255578	0.939765	0.453855
0	C	0.940404	0.685773	0.55152
0	C	0.316921	0.25449	0.551271
0	C	0.747899	0.062557	0.551186
0	C	0.731208	0.650501	0.786952
0	C	0.351801	0.0801471	0.787108
0	C	0.922289	0.271803	0.787066
0	C	0.508341	0.165531	0.306862
0	C	0.837122	0.342663	0.304681
0	C	0.659997	0.494141	0.305943
0	C	0.495238	0.836816	0.699106
0	C	0.16636	0.659592	0.69932
0	C	0.343455	0.508161	0.699348
0	C	0.174972	0.499537	0.639403
0	C	0.503598	0.676999	0.639445
0	C	0.326461	0.828072	0.639407
0	C	0.160185	0.168671	0.0324602
0	C	0.834562	0.993028	0.0322088
0	C	0.0104152	0.842319	0.032297
0	C	0.84333	0.833682	0.972667
0	C	0.168911	0.00933309	0.972871
0	C	0.993049	0.160004	0.972769
0	C	0.828545	0.502818	0.3657
0	C	0.499876	0.325361	0.365664
0	C	0.677008	0.174253	0.365656
0	C	0.464184	0.170903	0.278881
0	C	0.831771	0.293095	0.27741
0	C	0.709629	0.53833	0.278196
0	C	0.539422	0.831438	0.72668
0	C	0.17176	0.709158	0.726896
0	C	0.293823	0.463964	0.727025
0	C	0.130783	0.504928	0.611885
0	C	0.498104	0.627375	0.612016
0	C	0.376125	0.872281	0.611981
0	C	0.204389	0.163302	0.0599935
0	C	0.839877	0.0425702	0.05978
0	C	0.960861	0.798022	0.0599464
0	C	0.799111	0.839004	0.944966
0	C	0.163596	0.959794	0.945256
0	C	0.0426067	0.2043	0.945122
0	C	0.872719	0.497378	0.393038
0	C	0.50537	0.374989	0.393036
0	C	0.627349	0.130044	0.393096
0	C	0.538227	0.19805	0.403163
0	C	0.804359	0.34009	0.400343
0	C	0.662557	0.464081	0.401868
0	C	0.465179	0.804222	0.603069
0	C	0.198986	0.662179	0.603346
0	C	0.340896	0.538228	0.603439
0	C	0.205145	0.532242	0.735222
0	C	0.470899	0.674472	0.735208
0	C	0.328932	0.797893	0.73518
0	C	0.12997	0.13595	0.936701
0	C	0.867249	0.995649	0.936326
0	C	0.00778446	0.872377	0.936492
0	C	0.873483	0.866419	0.0684759
0	C	0.136202	0.00668796	0.068728
0	C	0.995669	0.129926	0.0685437
0	C	0.798307	0.470128	0.269932
0	C	0.532555	0.327859	0.269881
0	C	0.674522	0.204408	0.269851
0	C	0.467915	0.0868249	0.433619
0	C	0.915632	0.381119	0.432307
0	C	0.621731	0.534391	0.43324
0	C	0.535522	0.915405	0.57197
0	C	0.0877587	0.621163	0.572065
0	C	0.381714	0.467938	0.571931
0	C	0.134599	0.420853	0.766553
0	C	0.582295	0.715397	0.766617
0	C	0.288109	0.868302	0.766603
0	C	0.200579	0.247293	0.905167
0	C	0.755825	0.954626	0.905177
0	C	0.0487624	0.802064	0.905103
0	C	0.802886	0.75502	0.0998816
0	C	0.247664	0.0477319	0.0998658
0	C	0.954692	0.200263	0.0999325
0	C	0.868866	0.581461	0.238481
0	C	0.421195	0.286956	0.238453
0	C	0.715346	0.13402	0.238428
0	C	0.49242	0.0729675	0.509981
0	C	0.92949	0.419507	0.508665
0	C	0.583323	0.509822	0.509602
0	C	0.510942	0.929187	0.495655
0	C	0.07394	0.582789	0.495695
0	C	0.420102	0.492534	0.495522
0	C	0.159139	0.407049	0.842959
0	C	0.596172	0.753784	0.84299
0	C	0.249689	0.843722	0.842936
0	C	0.176083	0.261122	0.828718
0	C	0.742052	0.916355	0.828545
0	C	0.0870764	0.826626	0.828513
0	C	0.827328	0.74114	0.176378
0	C	0.261511	0.0860202	0.176492
0	C	0.916359	0.17572	0.176479
0	C	0.844273	0.595215	0.162122
0	C	0.407394	0.248585	0.162074
0	C	0.753744	0.158619	0.162043
0	C	0.468517	0.0487457	0.607153
0	C	0.953641	0.41986	0.605965
0	C	0.582983	0.533661	0.60683
0	C	0.534764	0.953362	0.398363
0	C	0.0497745	0.582416	0.398411
0	C	0.420446	0.468712	0.398278
0	C	0.135248	0.38275	0.940085
0	C	0.620446	0.754209	0.940142
0	C	0.249296	0.867552	0.940133
0	C	0.200036	0.285425	0.731642
0	C	0.717722	0.915968	0.731534
0	C	0.0874336	0.802701	0.731465
0	C	0.803319	0.716806	0.273368
0	C	0.285843	0.0863694	0.273474
0	C	0.916004	0.199656	0.27352
0	C	0.868108	0.61948	0.0649093
0	C	0.383124	0.248124	0.06489
0	C	0.754136	0.134796	0.0648422
0	C	0.420585	0.0379295	0.62785
0	C	0.964377	0.382739	0.626808
0	C	0.620129	0.581604	0.627578
0	C	0.582703	0.964234	0.377536
0	C	0.0389424	0.619475	0.377633
0	C	0.383341	0.420747	0.377577
0	C	0.0872592	0.371774	0.960694
0	C	0.631305	0.71716	0.960823
0	C	0.2864	0.915514	0.96088
0	C	0.248028	0.296385	0.711183
0	C	0.706627	0.952884	0.711352
0	C	0.0504447	0.754643	0.711223
0	C	0.755335	0.705895	0.293742
0	C	0.296834	0.0493797	0.293653
0	C	0.953031	0.247692	0.293822
0	C	0.916104	0.630502	0.0442158
0	C	0.372159	0.285099	0.0442016
0	C	0.717071	0.086811	0.0441696
0	C	0.396314	0.0513314	0.550876
0	C	0.950959	0.345028	0.549872
0	C	0.657842	0.605949	0.550585
0	C	0.607049	0.950895	0.454461
0	C	0.052299	0.657161	0.454616
0	C	0.345637	0.396382	0.454571
0	C	0.0629226	0.385056	0.883623
0	C	0.617922	0.679478	0.883816
0	C	0.324098	0.939889	0.883864
0	C	0.272285	0.283	0.788244
0	C	0.719874	0.990418	0.788688
0	C	0.0128534	0.730296	0.788474
0	C	0.731134	0.71933	0.216652
0	C	0.283507	0.0118298	0.216331
0	C	0.990632	0.272024	0.216577
0	C	0.940496	0.617266	0.121255
0	C	0.385461	0.322764	0.121221
0	C	0.679389	0.0624213	0.121203
0	C	0.419777	0.0761564	0.453835
0	C	0.926209	0.343637	0.452721
0	C	0.65923	0.582542	0.45353
0	C	0.583654	0.926089	0.551565
0	C	0.0770899	0.658587	0.55173
0	C	0.344232	0.419784	0.551629
0	C	0.086395	0.409991	0.786676
0	C	0.593034	0.678014	0.786827
0	C	0.32554	0.916484	0.786852
0	C	0.248753	0.258042	0.885103
0	C	0.744916	0.991917	0.885429
0	C	0.0113841	0.753824	0.885249
0	C	0.75471	0.744287	0.119817
0	C	0.258481	0.0103769	0.119603
0	C	0.992086	0.248497	0.119794
0	C	0.917067	0.592336	0.21823
0	C	0.410365	0.324275	0.218228
0	C	0.677933	0.0858305	0.218203
0	C	0.610706	0.111661	0.899255
0	C	0.891336	0.499523	0.898515
0	C	0.503183	0.391797	0.899134
0	C	0.392756	0.890756	0.106185
0	C	0.112179	0.502924	0.106097
0	C	0.500306	0.610527	0.10599
0	C	0.276804	0.445128	0.231833
0	C	0.558195	0.83331	0.231845
0	C	0.170033	0.726104	0.231823
0	C	0.0585512	0.223248	0.4399
0	C	0.779938	0.836672	0.43981
0	C	0.166634	0.944085	0.44002
0	C	0.944946	0.779102	0.565179
0	C	0.223501	0.165655	0.565237
0	C	0.836826	0.05823	0.565022
0	C	0.726696	0.557219	0.773252
0	C	0.445242	0.169018	0.773267
0	C	0.833438	0.276217	0.773153
0	C	0.586084	0.105396	0.798358
0	C	0.897537	0.481116	0.797649
0	C	0.521616	0.416386	0.798211
0	C	0.417347	0.896976	0.207117
0	C	0.105966	0.52131	0.206975
0	C	0.481909	0.585963	0.206949
0	C	0.252129	0.438918	0.131034
0	C	0.564381	0.814862	0.131018
0	C	0.188534	0.750776	0.131014
0	C	0.0831729	0.229579	0.54081
0	C	0.773758	0.855076	0.540698
0	C	0.148304	0.919445	0.540915
0	C	0.920301	0.772751	0.464306
0	C	0.229702	0.147253	0.464364
0	C	0.855202	0.0828959	0.464167
0	C	0.751339	0.563417	0.874105
0	C	0.439059	0.187438	0.874135
0	C	0.814997	0.251583	0.874019
0	C	0.608648	0.140595	0.715407
0	C	0.862241	0.468291	0.714873
0	C	0.534328	0.393845	0.715458
0	C	0.394768	0.861711	0.289927
0	C	0.141239	0.534083	0.28981
0	C	0.469154	0.608494	0.289648
0	C	0.274618	0.474204	0.0482087
0	C	0.52908	0.802004	0.0482216
0	C	0.201331	0.728324	0.0482003
0	C	0.0607758	0.1942	0.623476
0	C	0.809102	0.867935	0.623398
0	C	0.135284	0.941763	0.623592
0	C	0.942681	0.808099	0.381568
0	C	0.194375	0.134381	0.381635
0	C	0.868189	0.0605699	0.381453
0	C	0.728833	0.528102	0.95686
0	C	0.474367	0.200269	0.956927
0	C	0.80213	0.274017	0.956745
0	C	0.654719	0.181582	0.733536
0	C	0.821241	0.473256	0.733147
0	C	0.529225	0.347832	0.733792
0	C	0.348711	0.820729	0.271667
0	C	0.182212	0.529072	0.271578
0	C	0.474187	0.654471	0.271232
0	C	0.320678	0.515202	0.0663749
0	C	0.488083	0.806981	0.0664317
0	C	0.196236	0.682305	0.0663858
0	C	0.0148933	0.153026	0.605019
0	C	0.850107	0.862994	0.605024
0	C	0.139972	0.987592	0.605133
0	C	0.988567	0.849282	0.399964
0	C	0.153349	0.139295	0.399957
0	C	0.863432	0.014706	0.399845
0	C	0.682781	0.487107	0.938622
0	C	0.515351	0.195279	0.938672
0	C	0.807099	0.319972	0.938412
0	C	0.678874	0.18732	0.834533
0	C	0.815576	0.491745	0.834081
0	C	0.51069	0.323692	0.834759
0	C	0.324585	0.815054	0.170665
0	C	0.187885	0.510607	0.170611
0	C	0.492679	0.678579	0.170208
0	C	0.344892	0.520898	0.167278
0	C	0.482404	0.82547	0.167355
0	C	0.177689	0.658097	0.167289
0	C	0.990706	0.147235	0.504034
0	C	0.855737	0.844494	0.504068
0	C	0.158359	0.0117611	0.504129
0	C	0.0127788	0.855108	0.500938
0	C	0.147691	0.157793	0.500884
0	C	0.844995	0.990505	0.500789
0	C	0.658599	0.481437	0.837695
0	C	0.521027	0.176828	0.837685
0	C	0.825601	0.344146	0.837447
0	C	0.657224	0.152219	0.918105
0	C	0.85077	0.50537	0.917504
0	C	0.497168	0.345322	0.918152
0	C	0.346256	0.850202	0.0871885
0	C	0.152729	0.497046	0.0871357
0	C	0.506226	0.656956	0.0868554
0	C	0.323301	0.485722	0.250717
0	C	0.517605	0.83913	0.250777
0	C	0.164091	0.679647	0.250719
0	C	0.0121846	0.182498	0.420763
0	C	0.82051	0.830844	0.420736
0	C	0.172203	0.990372	0.420853
0	C	0.991322	0.819858	0.584237
0	C	0.182914	0.171465	0.58425
0	C	0.831166	0.0119006	0.58409
0	C	0.680214	0.516625	0.754281
0	C	0.48583	0.163201	0.754277
0	C	0.839251	0.322613	0.754093
0	H	0.586577	0.159353	0.0306239
0	H	0.843756	0.427364	0.0285619
0	H	0.575201	0.416037	0.0297978
0	H	0.417015	0.8431	0.975208
0	H	0.159861	0.574932	0.975439
0	H	0.428277	0.586264	0.975417
0	H	0.252794	0.492895	0.362814
0	H	0.510367	0.761482	0.362812
0	H	0.241865	0.750177	0.362803
0	H	0.0824533	0.175479	0.309058
0	H	0.827816	0.908496	0.308822
0	H	0.0948892	0.920132	0.309018
0	H	0.921029	0.826863	0.696002
0	H	0.175656	0.0938132	0.696156
0	H	0.908578	0.0821915	0.696011
0	H	0.750694	0.509444	0.642238
0	H	0.493104	0.240837	0.642222
0	H	0.761624	0.252161	0.642188
0	H	0.492396	0.0213461	0.306643
0	H	0.981239	0.471447	0.306239
0	H	0.531612	0.509893	0.30679
0	H	0.510977	0.980911	0.698604
0	H	0.0221672	0.530926	0.698435
0	H	0.471856	0.49244	0.69831
0	H	0.15906	0.355308	0.63999
0	H	0.64796	0.805539	0.640048
0	H	0.197964	0.843721	0.640031
0	H	0.176025	0.312903	0.0313875
0	H	0.690249	0.864484	0.0315485
0	H	0.138879	0.826725	0.0315626
0	H	0.827411	0.689408	0.973574
0	H	0.31322	0.137884	0.973484
0	H	0.864581	0.175598	0.973458
0	H	0.844382	0.647007	0.364981
0	H	0.355511	0.196825	0.365021
0	H	0.805492	0.158589	0.364975
0	H	0.532745	0.918111	0.108748
0	H	0.0847978	0.615266	0.108771
0	H	0.388042	0.470128	0.108765
0	H	0.470749	0.084266	0.896438
0	H	0.918691	0.387164	0.895996
0	H	0.615415	0.532156	0.896357
0	H	0.198669	0.251569	0.441687
0	H	0.751894	0.948967	0.441486
0	H	0.0545035	0.803944	0.441639
0	H	0.136526	0.416717	0.229476
0	H	0.586263	0.72104	0.22998
0	H	0.282319	0.866413	0.230007
0	H	0.866973	0.585626	0.775562
0	H	0.417185	0.281352	0.77498
0	H	0.721119	0.135871	0.775067
0	H	0.804831	0.750769	0.563358
0	H	0.251557	0.0534295	0.563507
0	H	0.948943	0.198333	0.563413
0	H	0.573116	0.900834	0.95103
0	H	0.102271	0.673089	0.951163
0	H	0.33026	0.429866	0.951035
0	H	0.43023	0.101543	0.0538771
0	H	0.901293	0.329275	0.053424
0	H	0.673246	0.572457	0.0540165
0	H	0.238513	0.234013	0.283377
0	H	0.769536	0.00639612	0.283116
0	H	0.996969	0.764001	0.283443
0	H	0.0964405	0.434239	0.387419
0	H	0.568685	0.663445	0.387963
0	H	0.339924	0.906494	0.388063
0	H	0.906898	0.568055	0.617392
0	H	0.434779	0.338823	0.616731
0	H	0.66355	0.0958238	0.616958
0	H	0.764828	0.768279	0.721443
0	H	0.233929	0.995874	0.721604
0	H	0.006519	0.238322	0.721548
0	H	0.619653	0.964743	0.809611
0	H	0.0384541	0.655731	0.809584
0	H	0.34738	0.383239	0.809655
0	H	0.383575	0.037635	0.195191
0	H	0.965152	0.346622	0.194877
0	H	0.656159	0.619124	0.195374
0	H	0.284901	0.297763	0.141611
0	H	0.705786	0.988949	0.14139
0	H	0.0143287	0.717668	0.14174
0	H	0.0500019	0.37051	0.529199
0	H	0.632462	0.680804	0.529615
0	H	0.322543	0.952757	0.529866
0	H	0.953225	0.631746	0.475441
0	H	0.371002	0.321394	0.475029
0	H	0.680957	0.0495989	0.47512
0	H	0.718327	0.704491	0.863034
0	H	0.297678	0.0132449	0.863279
0	H	0.989189	0.284697	0.8632
0	H	0.626998	0.0463328	0.822979
0	H	0.956765	0.581444	0.822615
0	H	0.421438	0.375583	0.823046
0	H	0.376284	0.95605	0.182067
0	H	0.0468031	0.420962	0.181915
0	H	0.582071	0.626757	0.182031
0	H	0.292681	0.379537	0.155231
0	H	0.623891	0.914902	0.155157
0	H	0.088399	0.710018	0.155289
0	H	0.0423721	0.288775	0.515949
0	H	0.714273	0.754997	0.516225
0	H	0.248381	0.960283	0.516489
0	H	0.960932	0.713502	0.488821
0	H	0.289175	0.247253	0.488624
0	H	0.755097	0.0420485	0.488533
0	H	0.710623	0.622737	0.849544
0	H	0.379555	0.0873431	0.849733
0	H	0.915095	0.292323	0.849683
0	H	0.440325	0.143929	0.217173
0	H	0.858755	0.296156	0.215835
0	H	0.706572	0.56221	0.216543
0	H	0.563349	0.858388	0.788356
0	H	0.144744	0.706056	0.788428
0	H	0.296861	0.440067	0.788662
0	H	0.106792	0.477937	0.550359
0	H	0.525047	0.630373	0.550406
0	H	0.373156	0.896257	0.550454
0	H	0.228316	0.190203	0.121767
0	H	0.812913	0.0394891	0.121449
0	H	0.963937	0.774188	0.121661
0	H	0.77521	0.812061	0.883241
0	H	0.190506	0.962877	0.883433
0	H	0.0395231	0.228129	0.883408
0	H	0.896743	0.524334	0.454594
0	H	0.478375	0.371995	0.454495
0	H	0.630313	0.106068	0.454631
0	H	0.442028	0.16676	0.352711
0	H	0.835912	0.275248	0.351534
0	H	0.727642	0.560434	0.352118
0	H	0.561494	0.835613	0.652664
0	H	0.167675	0.72709	0.652867
0	H	0.275837	0.441875	0.65307
0	H	0.108747	0.500871	0.685887
0	H	0.502164	0.609419	0.686027
0	H	0.39411	0.894296	0.686023
0	H	0.226476	0.167506	0.985968
0	H	0.835635	0.0604114	0.985741
0	H	0.943001	0.775884	0.985969
0	H	0.776998	0.834831	0.0189205
0	H	0.167899	0.941959	0.0192293
0	H	0.0604787	0.226437	0.0190979
0	H	0.894724	0.501457	0.31896
0	H	0.501366	0.392945	0.318955
0	H	0.609377	0.108025	0.319057
0	H	0.476322	0.207397	0.244347
0	H	0.795258	0.26855	0.243008
0	H	0.734027	0.526263	0.243661
0	H	0.527322	0.794925	0.761058
0	H	0.208261	0.733635	0.761454
0	H	0.269401	0.476014	0.761506
0	H	0.142874	0.541406	0.577288
0	H	0.461577	0.602928	0.577554
0	H	0.400533	0.860232	0.577427
0	H	0.192334	0.126784	0.094322
0	H	0.876401	0.0671439	0.0941187
0	H	0.93634	0.809972	0.0942934
0	H	0.81115	0.875493	0.910486
0	H	0.127048	0.935209	0.911061
0	H	0.0671132	0.192342	0.910734
0	H	0.860612	0.460875	0.427511
0	H	0.541874	0.399427	0.42763
0	H	0.602926	0.142086	0.427598
0	H	0.570044	0.194255	0.4229
0	H	0.808203	0.375757	0.419644
0	H	0.626867	0.432226	0.421344
0	H	0.43333	0.808007	0.583641
0	H	0.195126	0.626515	0.583926
0	H	0.376579	0.570106	0.584014
0	H	0.237001	0.528457	0.754602
0	H	0.474729	0.710137	0.754483
0	H	0.293227	0.766018	0.75446
0	H	0.098097	0.139728	0.917372
0	H	0.863489	0.960019	0.916971
0	H	0.0434211	0.904326	0.917021
0	H	0.905338	0.862637	0.0879957
0	H	0.139953	0.042309	0.088136
0	H	0.960022	0.097999	0.088044
0	H	0.766437	0.473917	0.25074
0	H	0.52872	0.292187	0.250673
0	H	0.710212	0.236309	0.250595
0	H	0.552463	0.236849	0.382908
0	H	0.765579	0.315488	0.37971
0	H	0.687114	0.44989	0.381376
0	H	0.450969	0.765436	0.623412
0	H	0.237795	0.686795	0.623731
0	H	0.316297	0.552375	0.623881
0	H	0.219367	0.57101	0.714636
0	H	0.432108	0.649866	0.714641
0	H	0.353498	0.783722	0.714614
0	H	0.115768	0.0971779	0.957276
0	H	0.906043	0.0203409	0.956808
0	H	0.983093	0.886403	0.957063
0	H	0.887702	0.905186	0.0478238
0	H	0.0974154	0.982007	0.0481885
0	H	0.0203168	0.115856	0.0479013
0	H	0.784091	0.431356	0.290452
0	H	0.571352	0.352481	0.290386
0	H	0.6499	0.218524	0.29034
0	H	0.516217	0.190428	0.478854
0	H	0.811735	0.325757	0.476423
0	H	0.676949	0.485915	0.4778
0	H	0.487042	0.811779	0.527151
0	H	0.191494	0.676503	0.527411
0	H	0.326547	0.516409	0.527476
0	H	0.183385	0.52484	0.811258
0	H	0.478267	0.660149	0.811309
0	H	0.343288	0.819615	0.811265
0	H	0.151646	0.143316	0.860521
0	H	0.859779	0.00990779	0.86023
0	H	0.993468	0.850621	0.860433
0	H	0.851746	0.859067	0.14455
0	H	0.143649	0.992397	0.144804
0	H	0.010026	0.15168	0.144597
0	H	0.820003	0.47754	0.193788
0	H	0.525161	0.342145	0.193755
0	H	0.660208	0.182681	0.193762
0	H	0.529465	0.0807618	0.4931
0	H	0.921747	0.448757	0.491695
0	H	0.554037	0.472776	0.492675
0	H	0.473898	0.921374	0.512634
0	H	0.0817071	0.553555	0.512652
0	H	0.449373	0.52959	0.512448
0	H	0.196217	0.414938	0.826094
0	H	0.588353	0.782989	0.826102
0	H	0.220433	0.80666	0.825998
0	H	0.139006	0.253261	0.845495
0	H	0.749982	0.887204	0.845126
0	H	0.116254	0.863749	0.845171
0	H	0.864407	0.748989	0.159667
0	H	0.253618	0.115197	0.15994
0	H	0.887167	0.138607	0.159813
0	H	0.807197	0.587314	0.179052
0	H	0.415248	0.219406	0.178997
0	H	0.782985	0.195692	0.178964
0	H	0.487271	0.0381222	0.667775
0	H	0.964277	0.449261	0.666571
0	H	0.553559	0.514876	0.667435
0	H	0.515945	0.963915	0.337763
0	H	0.0391801	0.553032	0.337782
0	H	0.44984	0.487518	0.337609
0	H	0.154022	0.372158	0.000738678
0	H	0.631101	0.783611	0.00076944
0	H	0.219872	0.848746	0.000733323
0	H	0.181301	0.296031	0.670941
0	H	0.707202	0.886696	0.670645
0	H	0.116725	0.821511	0.670581
0	H	0.822002	0.706142	0.334081
0	H	0.296423	0.115656	0.334358
0	H	0.886683	0.180862	0.33434
0	H	0.849284	0.630016	0.00427017
0	H	0.372529	0.218735	0.00425432
0	H	0.783527	0.153619	0.00416978
0	H	0.402404	0.0193074	0.704368
0	H	0.982944	0.3832	0.703409
0	H	0.619666	0.599739	0.704116
0	H	0.600821	0.982829	0.300943
0	H	0.0203553	0.618989	0.301051
0	H	0.383816	0.402622	0.301035
0	H	0.0690882	0.353095	0.0371893
0	H	0.649971	0.717695	0.0373383
0	H	0.285905	0.933633	0.0374325
0	H	0.266258	0.315095	0.634785
0	H	0.687914	0.952402	0.634979
0	H	0.0509075	0.736423	0.63483
0	H	0.737058	0.687164	0.370082
0	H	0.315533	0.0498204	0.370019
0	H	0.952578	0.265916	0.370219
0	H	0.93423	0.64916	0.967664
0	H	0.353483	0.284522	0.967677
0	H	0.717572	0.0686947	0.967619
0	H	0.3587	0.0423915	0.566509
0	H	0.959835	0.316348	0.565634
0	H	0.686515	0.643585	0.566231
0	H	0.644665	0.959868	0.438712
0	H	0.0433383	0.685786	0.438922
0	H	0.316986	0.358738	0.438941
0	H	0.0252336	0.375911	0.899098
0	H	0.62693	0.650878	0.899402
0	H	0.35272	0.977551	0.899465
0	H	0.309948	0.292069	0.772807
0	H	0.710599	0.0188601	0.77359
0	H	0.98434	0.692554	0.773232
0	H	0.693477	0.710295	0.232015
0	H	0.292699	0.983329	0.231433
0	H	0.0191665	0.309756	0.231848
0	H	0.978187	0.626439	0.1057
0	H	0.376369	0.351304	0.105639
0	H	0.65079	0.0247474	0.105644
0	H	0.400831	0.0866767	0.394156
0	H	0.91568	0.314135	0.393087
0	H	0.688735	0.601542	0.393854
0	H	0.602651	0.915598	0.611177
0	H	0.0875826	0.688071	0.611401
0	H	0.314719	0.400768	0.611272
0	H	0.0673997	0.420448	0.726981
0	H	0.582519	0.64853	0.727156
0	H	0.355044	0.935507	0.727178
0	H	0.26767	0.24749	0.944803
0	H	0.755416	0.0213592	0.945233
0	H	0.981887	0.734844	0.944968
0	H	0.735823	0.754849	0.060064
0	H	0.247923	0.980923	0.0598109
0	H	0.0215755	0.267467	0.0600473
0	H	0.936091	0.581891	0.277881
0	H	0.420821	0.353748	0.277906
0	H	0.648424	0.0667995	0.277858
0	H	0.549789	0.0734728	0.785562
0	H	0.92947	0.476829	0.78479
0	H	0.525983	0.45263	0.785294
0	H	0.453636	0.928899	0.220008
0	H	0.0740445	0.525617	0.219825
0	H	0.477571	0.549732	0.219917
0	H	0.215845	0.406981	0.118229
0	H	0.596313	0.810569	0.1182
0	H	0.192901	0.787028	0.118204
0	H	0.119354	0.261648	0.553771
0	H	0.741821	0.859349	0.553622
0	H	0.144184	0.883291	0.553832
0	H	0.884118	0.740681	0.451406
0	H	0.261649	0.142994	0.451477
0	H	0.859353	0.119065	0.451296
0	H	0.787618	0.595359	0.886976
0	H	0.407131	0.191733	0.886995
0	H	0.810696	0.215363	0.886926
0	H	0.590219	0.13624	0.636149
0	H	0.866524	0.454147	0.635666
0	H	0.548481	0.412249	0.636202
0	H	0.413184	0.866013	0.369188
0	H	0.136943	0.548218	0.369019
0	H	0.455002	0.590091	0.368904
0	H	0.256137	0.469932	0.969039
0	H	0.533338	0.78782	0.969024
0	H	0.215557	0.746795	0.969009
0	H	0.0792136	0.198556	0.702704
0	H	0.804854	0.882107	0.702601
0	H	0.12117	0.923292	0.702795
0	H	0.924235	0.803717	0.30235
0	H	0.198644	0.120225	0.302432
0	H	0.882313	0.079043	0.302254
0	H	0.7473	0.532353	0.0360473
0	H	0.470111	0.214447	0.0361379
0	H	0.787928	0.255563	0.0359602
0	H	0.671898	0.208961	0.667861
0	H	0.793772	0.462888	0.66762
0	H	0.539497	0.330676	0.668279
0	H	0.331524	0.79329	0.337219
0	H	0.209657	0.539388	0.337152
0	H	0.463877	0.671619	0.33669
0	H	0.337801	0.542648	0.000807487
0	H	0.460627	0.796618	0.000884309
0	H	0.206554	0.665206	0.000823786
0	H	0.997842	0.125504	0.67043
0	H	0.877614	0.873384	0.670474
0	H	0.129472	0.00459427	0.670556
0	H	0.00560353	0.876777	0.334492
0	H	0.125856	0.128895	0.334481
0	H	0.873901	0.997696	0.334382
0	H	0.66564	0.459636	0.00413378
0	H	0.542803	0.205604	0.00422256
0	H	0.7967	0.337046	0.00387863
0	H	0.714926	0.219315	0.848165
0	H	0.783571	0.4957	0.847832
0	H	0.5066	0.287683	0.848532
0	H	0.288544	0.783063	0.156928
0	H	0.219873	0.50662	0.156892
0	H	0.496691	0.714551	0.156345
0	H	0.380922	0.552915	0.180967
0	H	0.450395	0.829428	0.181072
0	H	0.173635	0.622091	0.180979
0	H	0.954797	0.115072	0.490174
0	H	0.887745	0.840555	0.490229
0	H	0.162021	0.0475816	0.490199
0	H	0.0486915	0.887277	0.514746
0	H	0.115672	0.161716	0.51468
0	H	0.841257	0.954648	0.514641
0	H	0.622577	0.449422	0.823946
0	H	0.553037	0.172876	0.823915
0	H	0.829547	0.380099	0.823635
0	H	0.676152	0.15616	0.996521
0	H	0.846881	0.520379	0.995921
0	H	0.482105	0.32642	0.996569
0	H	0.327361	0.846294	0.00874426
0	H	0.156622	0.482053	0.00870095
0	H	0.521232	0.675821	0.0083714
0	H	0.342249	0.489641	0.329097
0	H	0.513707	0.854162	0.329151
0	H	0.149011	0.660687	0.32908
0	H	0.993261	0.178553	0.342334
0	H	0.824369	0.815831	0.342298
0	H	0.18718	0.00929844	0.342403
0	H	0.0102689	0.823815	0.662645
0	H	0.179033	0.186482	0.66266
0	H	0.816128	0.992938	0.662472
0	H	0.661292	0.512712	0.67587
0	H	0.489725	0.148196	0.67586
0	H	0.85426	0.341525	0.67565
