#******************************************
#
# CIF file created by Zeo++
# Zeo++ is an open source package to
# analyze microporous materials
#
#*******************************************

_cell_length_a		29.6317(0)
_cell_length_b		16.4336(0)
_cell_length_c		18.769(0)
_cell_angle_alpha		90(0)
_cell_angle_beta		89.4344(0)
_cell_angle_gamma		90(0)

_symmetry_space_group_name_H-M		'P1'
_symmetry_Int_Tables_number		1
_symmetry_cell_setting		Monoclinic

loop_
_symmetry_equiv_pos_as_xyz
'+x,+y,+z'

loop_
_atom_site_label
_atom_site_type_symbol
_atom_site_fract_x
_atom_site_fract_y
_atom_site_fract_z
0	P	0.359629	0.142889	0.336307
0	P	0.629246	0.638065	0.165544
0	P	0.61821	0.835434	0.654013
0	P	0.348739	0.340765	0.823681
0	P	0.243418	0.938954	0.164608
0	P	0.752484	0.439792	0.324938
0	P	0.734602	0.0393885	0.825213
0	P	0.2255	0.538714	0.664321
0	P	0.0729254	0.71876	0.245696
0	P	0.92946	0.223729	0.253676
0	P	0.904994	0.259784	0.74381
0	P	0.0484924	0.75484	0.735746
0	O	0.319781	0.209341	0.328074
0	O	0.672175	0.70431	0.168301
0	O	0.658021	0.768924	0.662156
0	O	0.305805	0.27448	0.821058
0	O	0.360488	0.100244	0.404119
0	O	0.630904	0.59963	0.0944518
0	O	0.617308	0.877955	0.586113
0	O	0.34706	0.379369	0.894681
0	O	0.409456	0.18154	0.313932
0	O	0.582	0.686614	0.179105
0	O	0.568381	0.796855	0.676461
0	O	0.395961	0.292096	0.810195
0	O	0.355472	0.0886246	0.261021
0	O	0.638533	0.586124	0.23788
0	O	0.622433	0.889763	0.729227
0	O	0.33948	0.392536	0.751221
0	O	0.270977	0.863796	0.203846
0	O	0.727097	0.360349	0.288804
0	O	0.707009	0.114603	0.786106
0	O	0.250829	0.618296	0.700326
0	O	0.283978	0.00512448	0.152335
0	O	0.71625	0.513254	0.325064
0	O	0.694109	0.973052	0.837369
0	O	0.261789	0.465339	0.664493
0	O	0.218134	0.976622	0.23622
0	O	0.782591	0.469842	0.254373
0	O	0.759844	0.0018595	0.753501
0	O	0.195323	0.50885	0.734872
0	O	0.216689	0.916103	0.102477
0	O	0.775638	0.418698	0.3912
0	O	0.761329	0.0621207	0.887361
0	O	0.202419	0.559531	0.597917
0	O	0.114702	0.697361	0.189196
0	O	0.883462	0.203294	0.300771
0	O	0.863212	0.281155	0.800302
0	O	0.0944384	0.775326	0.688533
0	O	0.0804764	0.712036	0.3225
0	O	0.9292	0.217014	0.175743
0	O	0.897465	0.266532	0.666988
0	O	0.0488236	0.761537	0.813671
0	O	0.057438	0.811949	0.226
0	O	0.943805	0.316	0.277825
0	O	0.920466	0.166578	0.763462
0	O	0.0341416	0.662565	0.711623
0	O	0.0315451	0.65929	0.218278
0	O	0.968057	0.163821	0.289784
0	O	0.946364	0.319257	0.771258
0	O	0.00985264	0.814719	0.699711
0	C	0.270388	0.203708	0.225869
0	C	0.723693	0.699841	0.267936
0	C	0.707567	0.774592	0.76416
0	C	0.254254	0.278898	0.721483
0	C	0.258965	0.234306	0.158964
0	C	0.735143	0.729279	0.335256
0	C	0.71912	0.743901	0.83098
0	C	0.242798	0.249468	0.654162
0	H	0.230535	0.207076	0.130887
0	H	0.762849	0.700242	0.363603
0	H	0.747616	0.771088	0.858929
0	H	0.215104	0.278522	0.625812
0	C	0.282804	0.299175	0.127061
0	C	0.711594	0.794136	0.367649
0	C	0.695328	0.679022	0.862949
0	C	0.266302	0.184544	0.621808
0	C	0.31917	0.333334	0.163617
0	C	0.675826	0.82975	0.331182
0	C	0.658845	0.644988	0.826607
0	C	0.302042	0.148868	0.658303
0	H	0.337845	0.384082	0.140227
0	H	0.656956	0.880235	0.354525
0	H	0.640176	0.594294	0.850083
0	H	0.32086	0.0982734	0.634998
0	C	0.332838	0.302743	0.229703
0	C	0.661864	0.799651	0.264966
0	C	0.645073	0.675601	0.760598
0	C	0.316055	0.179039	0.724481
0	C	0.308792	0.237249	0.258877
0	C	0.685099	0.733494	0.234961
0	C	0.669107	0.741055	0.73132
0	C	0.292847	0.24524	0.754447
0	C	0.268706	0.329576	0.0531414
0	C	0.724973	0.822682	0.442361
0	C	0.709627	0.648436	0.936717
0	C	0.252904	0.155994	0.54711
0	C	0.277485	0.260277	0.9995
0	C	0.712977	0.754177	0.495492
0	C	0.700967	0.717592	0.99054
0	C	0.264877	0.224497	0.493972
0	H	0.257692	0.20587	0.0110701
0	H	0.732564	0.698926	0.485182
0	H	0.720674	0.772087	0.978883
0	H	0.245138	0.279615	0.504094
0	H	0.313291	0.243516	0.998043
0	H	0.677166	0.738004	0.491827
0	H	0.665148	0.734227	0.992322
0	H	0.300641	0.240955	0.497823
0	H	0.269481	0.279926	0.944977
0	H	0.719195	0.772778	0.550515
0	H	0.709165	0.697878	0.0449627
0	H	0.258836	0.205788	0.438916
0	C	0.21817	0.351713	0.0560746
0	C	0.776112	0.839898	0.44301
0	C	0.760157	0.62631	0.933412
0	C	0.201765	0.138779	0.546496
0	H	0.211384	0.39859	0.0963382
0	H	0.785126	0.886476	0.403549
0	H	0.766841	0.579643	0.892913
0	H	0.192791	0.0918923	0.585686
0	H	0.196799	0.299082	0.0679468
0	H	0.795764	0.785118	0.430697
0	H	0.781499	0.679016	0.921618
0	H	0.182103	0.193438	0.559162
0	H	0.207226	0.376222	0.00468794
0	H	0.786969	0.86189	0.495171
0	H	0.771219	0.601507	0.984626
0	H	0.190872	0.117174	0.494222
0	C	0.295429	0.404768	0.028778
0	C	0.700114	0.900823	0.465679
0	C	0.682978	0.573151	0.961075
0	C	0.277748	0.0778541	0.523775
0	H	0.292089	0.456013	0.0653493
0	H	0.704367	0.949838	0.426766
0	H	0.68615	0.52208	0.924279
0	H	0.273443	0.0287826	0.562604
0	H	0.284083	0.42527	0.976067
0	H	0.712922	0.923239	0.516556
0	H	0.694542	0.552378	0.0135726
0	H	0.264971	0.0555287	0.472841
0	H	0.331383	0.391367	0.0194812
0	H	0.663786	0.890249	0.473764
0	H	0.647059	0.586571	0.97078
0	H	0.314086	0.0883759	0.515769
0	C	0.374879	0.335336	0.264245
0	C	0.619923	0.833938	0.23136
0	C	0.603003	0.643026	0.72615
0	C	0.357992	0.14475	0.758095
0	H	0.374498	0.328016	0.323031
0	H	0.619753	0.824938	0.1729
0	H	0.603371	0.650292	0.667353
0	H	0.358188	0.153822	0.816527
0	H	0.377994	0.402084	0.255841
0	H	0.617936	0.900474	0.239844
0	H	0.5999	0.576283	0.734594
0	H	0.359972	0.0782101	0.749665
0	C	0.41304	0.28985	0.22925
0	C	0.581425	0.790166	0.267854
0	C	0.564828	0.68851	0.761108
0	C	0.396487	0.188472	0.721535
0	C	0.43746	0.324221	0.173534
0	C	0.558932	0.827029	0.324633
0	C	0.540329	0.654098	0.8167
0	C	0.418962	0.15154	0.664773
0	H	0.432903	0.388947	0.16098
0	H	0.565855	0.889998	0.337893
0	H	0.544863	0.589358	0.829237
0	H	0.412008	0.0885641	0.651564
0	C	0.468111	0.277302	0.131706
0	C	0.528436	0.780888	0.366564
0	C	0.509587	0.70097	0.858428
0	C	0.449493	0.19758	0.622793
0	C	0.472069	0.195289	0.146071
0	C	0.523171	0.69876	0.352512
0	C	0.50569	0.783013	0.844179
0	C	0.454808	0.279725	0.636839
0	H	0.494686	0.157456	0.113758
0	H	0.501244	0.661816	0.386182
0	H	0.48304	0.820839	0.876448
0	H	0.476768	0.316582	0.60314
0	C	0.446365	0.155368	0.201711
0	C	0.546843	0.656591	0.296122
0	C	0.531481	0.822994	0.788649
0	C	0.431147	0.32197	0.693193
0	C	0.420962	0.207259	0.247144
0	C	0.57153	0.709013	0.249849
0	C	0.556889	0.771099	0.743212
0	C	0.406425	0.26963	0.739475
0	C	0.495806	0.320444	0.0731337
0	C	0.501497	0.824057	0.425786
0	C	0.481709	0.657677	0.916686
0	C	0.476382	0.154324	0.563594
0	C	0.4659	0.382416	0.0341289
0	C	0.530897	0.887651	0.463969
0	C	0.511487	0.595617	0.955824
0	C	0.446917	0.0907439	0.525513
0	H	0.436942	0.353146	0.00854457
0	H	0.559946	0.858669	0.48968
0	H	0.540327	0.624851	0.981775
0	H	0.417761	0.1197	0.500098
0	H	0.484842	0.413599	0.991592
0	H	0.511803	0.920433	0.505064
0	H	0.492386	0.564245	0.998072
0	H	0.465911	0.0581342	0.484201
0	H	0.452931	0.43014	0.0696079
0	H	0.544528	0.933276	0.426984
0	H	0.524624	0.548039	0.920348
0	H	0.433451	0.044967	0.562491
0	C	0.535008	0.363187	0.110473
0	C	0.461273	0.866242	0.389271
0	C	0.442656	0.615019	0.878904
0	C	0.5166	0.112075	0.600099
0	H	0.523996	0.411294	0.147472
0	H	0.472869	0.912618	0.351511
0	H	0.453812	0.567003	0.841919
0	H	0.504989	0.0656114	0.637761
0	H	0.558307	0.392362	0.0726886
0	H	0.438844	0.895544	0.428161
0	H	0.419216	0.58573	0.916404
0	H	0.53904	0.0828608	0.561168
0	H	0.555173	0.320486	0.142635
0	H	0.441523	0.821066	0.359331
0	H	0.422604	0.657778	0.846641
0	H	0.53633	0.157184	0.630159
0	C	0.513994	0.259069	0.0178171
0	C	0.483459	0.764069	0.482432
0	C	0.463302	0.718881	0.971963
0	C	0.494416	0.214225	0.506873
0	H	0.486832	0.222497	0.995013
0	H	0.511124	0.728862	0.505514
0	H	0.490363	0.755463	0.995058
0	H	0.466755	0.249433	0.483788
0	H	0.539673	0.218646	0.0398106
0	H	0.459242	0.720748	0.460324
0	H	0.437658	0.759272	0.949826
0	H	0.518669	0.257538	0.528895
0	H	0.530032	0.291496	0.973131
0	H	0.466281	0.796118	0.526093
0	H	0.447139	0.6863	0.0164479
0	H	0.51155	0.182095	0.463206
0	C	0.448558	0.0692369	0.202077
0	C	0.542697	0.571009	0.294436
0	C	0.52935	0.909098	0.788349
0	C	0.43535	0.407535	0.694836
0	H	0.479519	0.0456811	0.174441
0	H	0.512441	0.549528	0.322797
0	H	0.498454	0.932696	0.816148
0	H	0.465618	0.428981	0.666494
0	C	0.418981	0.00727619	0.224385
0	C	0.571458	0.507467	0.272915
0	C	0.558898	0.971073	0.76588
0	C	0.406588	0.471117	0.716295
0	C	0.433875	0.925236	0.208716
0	C	0.557048	0.425592	0.2897
0	C	0.543968	0.053104	0.781443
0	C	0.421043	0.552976	0.699528
0	H	0.467344	0.918124	0.184031
0	H	0.525146	0.420095	0.318334
0	H	0.510514	0.0602124	0.806196
0	H	0.452959	0.558457	0.670946
0	C	0.40799	0.8577	0.223387
0	C	0.582585	0.357387	0.27412
0	C	0.569782	0.120688	0.76655
0	C	0.395491	0.621213	0.715034
0	C	0.365998	0.868373	0.259805
0	C	0.623521	0.365369	0.235383
0	C	0.611751	0.110016	0.730078
0	C	0.354529	0.613286	0.753709
0	H	0.345567	0.814402	0.272981
0	H	0.643194	0.312031	0.221296
0	H	0.63213	0.164006	0.716723
0	H	0.334853	0.666645	0.767744
0	C	0.349935	0.944972	0.278888
0	C	0.639687	0.442246	0.217805
0	C	0.627858	0.0333957	0.711169
0	C	0.338344	0.536438	0.771296
0	C	0.375365	0.0137732	0.256981
0	C	0.614694	0.511216	0.239573
0	C	0.602478	0.964587	0.733208
0	C	0.363324	0.467439	0.749539
0	C	0.422617	0.771032	0.201981
0	C	0.569166	0.271846	0.299686
0	C	0.555053	0.20737	0.787753
0	C	0.408921	0.706701	0.689363
0	C	0.415003	0.71361	0.265753
0	C	0.575938	0.209674	0.238649
0	C	0.562597	0.264627	0.723855
0	C	0.40215	0.768986	0.75032
0	H	0.429713	0.739359	0.31485
0	H	0.562532	0.234066	0.188531
0	H	0.548109	0.238517	0.674744
0	H	0.415672	0.744786	0.800419
0	H	0.432343	0.655217	0.257197
0	H	0.55937	0.151872	0.250453
0	H	0.545007	0.322834	0.73212
0	H	0.418612	0.826829	0.73832
0	H	0.37933	0.700402	0.275916
0	H	0.611884	0.196964	0.22952
0	H	0.598246	0.278249	0.713854
0	H	0.366194	0.781529	0.759558
0	C	0.472653	0.768248	0.180494
0	C	0.519494	0.268088	0.324456
0	C	0.505008	0.21001	0.809188
0	C	0.45859	0.710422	0.664568
0	H	0.480865	0.805526	0.133976
0	H	0.51355	0.30757	0.37078
0	H	0.496816	0.172686	0.855698
0	H	0.464531	0.670817	0.618321
0	H	0.483607	0.705813	0.167662
0	H	0.509593	0.206519	0.340188
0	H	0.493964	0.272393	0.822016
0	H	0.468471	0.771958	0.648704
0	H	0.494727	0.786303	0.224826
0	H	0.497008	0.288234	0.282126
0	H	0.482983	0.191874	0.764818
0	H	0.481095	0.690401	0.706919
0	C	0.393442	0.744963	0.138355
0	C	0.599864	0.249662	0.362714
0	C	0.584178	0.23374	0.851337
0	C	0.378209	0.728738	0.626308
0	H	0.400807	0.781508	0.0908448
0	H	0.595154	0.292401	0.406949
0	H	0.576964	0.197114	0.898841
0	H	0.38285	0.685798	0.582203
0	H	0.357191	0.750091	0.149725
0	H	0.635662	0.252329	0.347181
0	H	0.620446	0.229	0.839898
0	H	0.342415	0.726214	0.641884
0	H	0.400126	0.681174	0.124453
0	H	0.59296	0.188456	0.382774
0	H	0.577294	0.297455	0.86525
0	H	0.385156	0.789834	0.606049
0	C	0.307477	0.957415	0.32183
0	C	0.682343	0.454716	0.175088
0	C	0.670316	0.0209183	0.668233
0	C	0.295691	0.524031	0.814033
0	H	0.317344	0.980914	0.375616
0	H	0.672463	0.481491	0.12251
0	H	0.660448	0.997336	0.61448
0	H	0.305595	0.497311	0.866623
0	H	0.286881	0.00737276	0.296447
0	H	0.702881	0.503935	0.201591
0	H	0.690918	0.971005	0.693669
0	H	0.275153	0.474779	0.787589
0	C	0.276682	0.88556	0.331535
0	C	0.712596	0.382971	0.162367
0	C	0.701093	0.0927838	0.658434
0	C	0.265416	0.59575	0.826756
0	C	0.264273	0.861017	0.400426
0	C	0.720804	0.357025	0.0922545
0	C	0.713409	0.117297	0.589487
0	C	0.257199	0.62169	0.896877
0	H	0.279747	0.890895	0.44609
0	H	0.701657	0.385157	0.0494427
0	H	0.697883	0.0873838	0.543894
0	H	0.276383	0.593608	0.939676
0	C	0.23174	0.800169	0.412383
0	C	0.753481	0.297961	0.0755353
0	C	0.745917	0.178153	0.577398
0	C	0.224448	0.680611	0.913622
0	C	0.21128	0.763776	0.353337
0	C	0.778292	0.26348	0.131045
0	C	0.766443	0.214613	0.636357
0	C	0.199612	0.715042	0.85812
0	H	0.184583	0.718437	0.361286
0	H	0.804841	0.219226	0.119477
0	H	0.793114	0.25997	0.628301
0	H	0.172996	0.759171	0.869697
0	C	0.223758	0.784443	0.283416
0	C	0.770288	0.28553	0.202147
0	C	0.754061	0.193967	0.706325
0	C	0.207658	0.693085	0.787006
0	C	0.256411	0.845741	0.273761
0	C	0.73705	0.344713	0.216856
0	C	0.721442	0.132641	0.716119
0	C	0.240917	0.633944	0.772285
0	C	0.219132	0.777244	0.489487
0	C	0.762808	0.277645	0.99684
0	C	0.75843	0.201019	0.500238
0	C	0.215055	0.700799	0.992324
0	C	0.192815	0.849054	0.522523
0	C	0.783022	0.355016	0.962635
0	C	0.784767	0.129231	0.467205
0	C	0.194714	0.623444	0.0263378
0	H	0.213499	0.903762	0.527515
0	H	0.759025	0.405495	0.962576
0	H	0.764141	0.0744302	0.462428
0	H	0.218606	0.572804	0.0262534
0	H	0.180101	0.833483	0.575953
0	H	0.79373	0.344329	0.907377
0	H	0.797344	0.144714	0.413674
0	H	0.184019	0.634007	0.0816207
0	H	0.163061	0.864714	0.490296
0	H	0.813124	0.375127	0.991962
0	H	0.81461	0.11377	0.499304
0	H	0.164568	0.603598	0.996958
0	C	0.262703	0.761392	0.531732
0	C	0.718394	0.253807	0.95979
0	C	0.714799	0.216667	0.458089
0	C	0.259457	0.72441	0.0295405
0	H	0.282251	0.816801	0.540487
0	H	0.692497	0.300811	0.964913
0	H	0.695325	0.161166	0.449393
0	H	0.285227	0.677149	0.0246739
0	H	0.284454	0.717195	0.504528
0	H	0.704783	0.197319	0.982314
0	H	0.693005	0.260764	0.48533
0	H	0.273261	0.780696	0.00692039
0	H	0.254823	0.735791	0.584525
0	H	0.724231	0.243066	0.902535
0	H	0.722599	0.242282	0.405272
0	H	0.253534	0.735391	0.0867331
0	C	0.189807	0.70049	0.493286
0	C	0.796176	0.206949	0.986812
0	C	0.787686	0.27785	0.496284
0	C	0.181753	0.771601	0.0023671
0	H	0.204935	0.648868	0.464933
0	H	0.785593	0.151982	0.015395
0	H	0.772533	0.329476	0.524601
0	H	0.192333	0.82648	0.973653
0	H	0.155706	0.710584	0.473008
0	H	0.830317	0.222998	0.00365844
0	H	0.821813	0.267883	0.516517
0	H	0.147575	0.755599	0.985662
0	H	0.185375	0.678904	0.548587
0	H	0.798886	0.188343	0.930585
0	H	0.792067	0.299341	0.440941
0	H	0.179124	0.790321	0.0585798
0	C	0.297669	0.0208989	0.0787917
0	C	0.682854	0.523009	0.382003
0	C	0.68025	0.957377	0.910843
0	C	0.294959	0.455033	0.607302
0	H	0.267818	0.0382087	0.0471739
0	H	0.699446	0.55837	0.42451
0	H	0.710073	0.940847	0.942838
0	H	0.278134	0.419785	0.564969
0	H	0.319558	0.0750707	0.0860341
0	H	0.657533	0.561644	0.353734
0	H	0.658729	0.902719	0.903619
0	H	0.320233	0.416189	0.635469
0	C	0.322826	0.948784	0.0473775
0	C	0.662753	0.443765	0.408085
0	C	0.654514	0.0291683	0.941669
0	C	0.31527	0.533992	0.580941
0	H	0.342226	0.966566	0.999858
0	H	0.629979	0.45436	0.434263
0	H	0.634887	0.0112156	0.988899
0	H	0.347898	0.522966	0.554458
0	H	0.299805	0.899851	0.0303832
0	H	0.684194	0.411423	0.445988
0	H	0.677167	0.0785517	0.958887
0	H	0.293807	0.566553	0.543207
0	H	0.346491	0.922472	0.0856515
0	H	0.654986	0.402375	0.363274
0	H	0.630976	0.0549161	0.902911
0	H	0.32335	0.575339	0.625636
0	C	0.202609	0.745303	0.219622
0	C	0.797545	0.251392	0.262226
0	C	0.775282	0.233177	0.770031
0	C	0.180402	0.72724	0.726938
0	H	0.226979	0.744903	0.173297
0	H	0.777652	0.254023	0.313342
0	H	0.750935	0.233646	0.816396
0	H	0.200291	0.724657	0.675814
0	H	0.174049	0.784547	0.200959
0	H	0.826917	0.293055	0.271728
0	H	0.803846	0.193941	0.788671
0	H	0.151034	0.685574	0.717414
0	C	0.187147	0.659423	0.231631
0	C	0.812664	0.164972	0.2533
0	C	0.790746	0.31904	0.757933
0	C	0.165267	0.813646	0.735928
0	C	0.216653	0.601831	0.259924
0	C	0.783042	0.106119	0.227444
0	C	0.761234	0.376619	0.729656
0	C	0.194889	0.872505	0.761799
0	H	0.250315	0.621288	0.275745
0	H	0.749697	0.125321	0.209585
0	H	0.727568	0.357159	0.713878
0	H	0.228248	0.853299	0.779595
0	C	0.203182	0.520733	0.269785
0	C	0.795337	0.0237551	0.223954
0	C	0.774689	0.457727	0.719776
0	C	0.182566	0.954839	0.765404
0	C	0.160755	0.496881	0.245217
0	C	0.837387	0.000562547	0.250394
0	C	0.817117	0.481617	0.744333
0	C	0.140487	0.978025	0.73906
0	H	0.150547	0.433241	0.250062
0	H	0.846903	0.936402	0.250239
0	H	0.827317	0.545258	0.739482
0	H	0.130948	0.0421735	0.739322
0	C	0.129892	0.552492	0.216161
0	C	0.868464	0.0576138	0.276651
0	C	0.84799	0.426007	0.773386
0	C	0.109424	0.920991	0.712771
0	C	0.143079	0.634711	0.213618
0	C	0.856098	0.140185	0.274848
0	C	0.834821	0.343789	0.775906
0	C	0.121814	0.838423	0.714473
0	C	0.233323	0.461604	0.310723
0	C	0.763488	0.962669	0.18884
0	C	0.7445	0.516794	0.678859
0	C	0.214406	0.0159272	0.80057
0	C	0.283552	0.478909	0.294843
0	C	0.714194	0.980738	0.210504
0	C	0.694293	0.499551	0.694976
0	C	0.263709	0.997871	0.778957
0	H	0.290989	0.475283	0.237689
0	H	0.709637	0.978913	0.268476
0	H	0.68693	0.503488	0.752137
0	H	0.268304	0.99985	0.720996
0	H	0.304991	0.434585	0.321922
0	H	0.691428	0.935163	0.188026
0	H	0.672807	0.543704	0.667788
0	H	0.286475	0.043361	0.80157
0	H	0.293501	0.539396	0.313584
0	H	0.703131	0.0404814	0.191758
0	H	0.684331	0.438959	0.676532
0	H	0.274739	0.938058	0.797593
0	C	0.223222	0.372613	0.290967
0	C	0.774581	0.874631	0.210094
0	C	0.754642	0.605833	0.698406
0	C	0.203315	0.103964	0.779318
0	H	0.229269	0.361362	0.234104
0	H	0.77023	0.865308	0.267676
0	H	0.748748	0.617208	0.755288
0	H	0.207711	0.113294	0.721744
0	H	0.188267	0.355769	0.303565
0	H	0.809124	0.857455	0.195316
0	H	0.789557	0.622678	0.685529
0	H	0.168752	0.121104	0.79401
0	H	0.24491	0.330911	0.320824
0	H	0.751897	0.831306	0.183879
0	H	0.732855	0.647444	0.668638
0	H	0.225968	0.147304	0.80559
0	C	0.223739	0.473981	0.390795
0	C	0.768929	0.971868	0.107444
0	C	0.75395	0.504225	0.598773
0	C	0.208923	0.00666912	0.881951
0	H	0.188618	0.459583	0.404951
0	H	0.8038	0.960353	0.0900158
0	H	0.789005	0.518881	0.584395
0	H	0.174035	0.0181334	0.899331
0	H	0.229662	0.536944	0.407616
0	H	0.760173	0.0332141	0.089533
0	H	0.748162	0.441154	0.58215
0	H	0.217679	0.945308	0.899825
0	H	0.24531	0.434917	0.42324
0	H	0.747245	0.928996	0.0792459
0	H	0.732208	0.542977	0.566339
0	H	0.230581	0.0495322	0.910213
0	C	0.0847308	0.519162	0.194311
0	C	0.912966	0.024969	0.302082
0	C	0.893146	0.459382	0.795267
0	C	0.0649015	0.953616	0.687404
0	H	0.0615726	0.519873	0.242317
0	H	0.938392	0.02938	0.25778
0	H	0.916292	0.458723	0.747247
0	H	0.0394899	0.949172	0.731722
0	H	0.0881607	0.45337	0.180641
0	H	0.910118	0.958448	0.312786
0	H	0.889685	0.525158	0.80898
0	H	0.0677336	0.0201419	0.676715
0	C	0.0627107	0.562811	0.133619
0	C	0.930425	0.0671198	0.367143
0	C	0.915191	0.415728	0.855926
0	C	0.0474285	0.911485	0.622347
0	C	0.0665514	0.536781	0.0627992
0	C	0.920763	0.0403453	0.436363
0	C	0.911385	0.44179	0.926749
0	C	0.0570635	0.938261	0.553113
0	H	0.086902	0.483257	0.0504244
0	H	0.899738	0.986525	0.443816
0	H	0.891045	0.495308	0.939142
0	H	0.0780819	0.992111	0.545657
0	C	0.0455811	0.579423	0.00723094
0	C	0.936774	0.082609	0.496105
0	C	0.932345	0.399099	0.982311
0	C	0.0410623	0.896019	0.493384
0	C	0.0207395	0.649945	0.0232463
0	C	0.962525	0.153438	0.485678
0	C	0.957146	0.328516	0.966296
0	C	0.0153194	0.825164	0.503819
0	H	0.0054168	0.684959	0.980268
0	H	0.973813	0.188311	0.531786
0	H	0.972422	0.293445	0.00927112
0	H	0.00403409	0.790296	0.457707
0	C	0.0167247	0.678328	0.0932087
0	C	0.972518	0.182291	0.417244
0	C	0.961157	0.300168	0.896328
0	C	0.00534359	0.796302	0.572245
0	C	0.0372702	0.633247	0.147336
0	C	0.956651	0.137695	0.35895
0	C	0.94062	0.345271	0.842204
0	C	0.0212186	0.840885	0.630538
0	C	0.0524679	0.554377	0.929176
0	C	0.923581	0.0559822	0.571912
0	C	0.925476	0.424155	0.0603718
0	C	0.0542258	0.922596	0.417562
0	C	0.010934	0.576264	0.884233
0	C	0.961112	0.0764789	0.625318
0	C	0.967038	0.402309	0.105267
0	C	0.0166777	0.902099	0.364197
0	H	0.980382	0.546318	0.904424
0	H	0.991636	0.0408471	0.614379
0	H	0.997568	0.432249	0.0849941
0	H	0.986125	0.937621	0.375229
0	H	0.015813	0.557427	0.828609
0	H	0.950038	0.0632304	0.68013
0	H	0.962194	0.421193	0.160876
0	H	0.0276985	0.91545	0.309374
0	H	0.00505424	0.642248	0.882908
0	H	0.970345	0.141452	0.624574
0	H	0.972916	0.336329	0.106611
0	H	0.00749604	0.837098	0.364879
0	C	0.0605882	0.46218	0.922282
0	C	0.914901	0.96361	0.575783
0	C	0.917316	0.516344	0.0672742
0	C	0.0629235	0.0149679	0.41365
0	H	0.0313988	0.427482	0.941985
0	H	0.945074	0.929008	0.560068
0	H	0.94645	0.55108	0.0474097
0	H	0.0327313	0.0495764	0.429263
0	H	0.0903279	0.442252	0.951594
0	H	0.88719	0.944824	0.541381
0	H	0.887505	0.536189	0.0380987
0	H	0.0906011	0.0337793	0.448111
0	H	0.0660057	0.444971	0.866365
0	H	0.905935	0.945006	0.630238
0	H	0.911997	0.533577	0.1232
0	H	0.0719412	0.0335172	0.359204
0	C	0.0938607	0.602333	0.901994
0	C	0.880206	0.10251	0.591942
0	C	0.884102	0.376158	0.0875889
0	C	0.0975853	0.876034	0.397498
0	H	0.123212	0.59545	0.937053
0	H	0.852387	0.0900553	0.555007
0	H	0.854727	0.383053	0.0525925
0	H	0.12544	0.888569	0.434349
0	H	0.0863891	0.667856	0.898375
0	H	0.885741	0.168935	0.59129
0	H	0.891587	0.310631	0.0911672
0	H	0.092058	0.809609	0.398264
0	H	0.104216	0.582621	0.848503
0	H	0.868577	0.0868167	0.646101
0	H	0.873789	0.395843	0.141099
0	H	0.109159	0.891613	0.343283
0	C	0.995342	0.758726	0.111052
0	C	0.995677	0.262329	0.404507
0	C	0.982537	0.219775	0.878478
0	C	0.982185	0.71627	0.584993
0	H	0.980159	0.758258	0.165829
0	H	0.0148906	0.261316	0.352882
0	H	0.997734	0.220277	0.823709
0	H	0.962979	0.717294	0.636628
0	H	0.966623	0.771503	0.0751213
0	H	0.0215228	0.274011	0.44564
0	H	0.0112446	0.206987	0.914427
0	H	0.956325	0.704618	0.543882
0	C	0.0311481	0.823162	0.10336
0	C	0.960136	0.327723	0.405021
0	C	0.94674	0.155314	0.886113
0	C	0.0177033	0.650847	0.584448
0	C	0.0355847	0.86233	0.0374325
0	C	0.95104	0.36819	0.469406
0	C	0.942318	0.116072	0.952008
0	C	0.0267461	0.610346	0.520068
0	H	0.0130395	0.844978	0.994281
0	H	0.971188	0.353134	0.515977
0	H	0.964861	0.133404	0.995183
0	H	0.00657884	0.625408	0.47352
0	C	0.0688328	0.921179	0.0249493
0	C	0.916116	0.424975	0.475575
0	C	0.909084	0.0571793	0.964448
0	C	0.0616263	0.553486	0.513862
0	C	0.0986065	0.940985	0.0801135
0	C	0.890652	0.443546	0.414881
0	C	0.879318	0.0374158	0.909271
0	C	0.087144	0.534921	0.574512
0	H	0.125714	0.984907	0.0707284
0	H	0.862383	0.48616	0.419143
0	H	0.852212	0.993485	0.918634
0	H	0.115369	0.492224	0.570215
0	C	0.0950477	0.904273	0.147213
0	C	0.89982	0.40749	0.3489
0	C	0.882884	0.074149	0.842187
0	C	0.078052	0.57107	0.640477
0	C	0.0617622	0.843633	0.157072
0	C	0.933871	0.34733	0.345636
0	C	0.91615	0.13485	0.832373
0	C	0.0440083	0.631232	0.643793
0	C	0.0732242	0.958372	0.950365
0	C	0.903182	0.461721	0.548058
0	C	0.904709	0.0198611	0.0389823
0	C	0.0744837	0.516676	0.441374
0	C	0.0270631	0.963183	0.913259
0	C	0.941547	0.456013	0.602696
0	C	0.950874	0.0150343	0.0760782
0	C	0.0360818	0.52242	0.386806
0	H	0.00102883	0.99046	0.94773
0	H	0.970848	0.492746	0.586854
0	H	0.976926	0.987976	0.0415089
0	H	0.00678443	0.485704	0.40269
0	H	0.0152132	0.9026	0.896934
0	H	0.952774	0.392837	0.609936
0	H	0.962674	0.0755806	0.0925948
0	H	0.0248547	0.585594	0.379589
0	H	0.029082	0.999782	0.864644
0	H	0.930185	0.47701	0.65552
0	H	0.948892	0.978212	0.124566
0	H	0.047398	0.501423	0.333962
0	C	0.0928886	0.045012	0.954672
0	C	0.890336	0.552116	0.539232
0	C	0.885077	0.933207	0.0345507
0	C	0.0872869	0.42626	0.450199
0	H	0.0717071	0.0841438	0.988357
0	H	0.917802	0.586201	0.513561
0	H	0.906209	0.89422	0.000661607
0	H	0.0597789	0.392201	0.475776
0	H	0.0951616	0.0730496	0.90181
0	H	0.883281	0.580345	0.59094
0	H	0.882914	0.904977	0.0873404
0	H	0.094378	0.398059	0.398494
0	H	0.127	0.0448972	0.976992
0	H	0.860121	0.559285	0.506564
0	H	0.850923	0.93335	0.0123978
0	H	0.117462	0.419025	0.482947
0	C	0.104521	0.901415	0.907624
0	C	0.862587	0.411901	0.575182
0	C	0.873382	0.0767127	0.0817841
0	C	0.115081	0.566415	0.414147
0	H	0.136783	0.891708	0.934357
0	H	0.83491	0.411873	0.536809
0	H	0.841159	0.0865666	0.0549799
0	H	0.142813	0.566357	0.452426
0	H	0.111686	0.925344	0.854343
0	H	0.849526	0.434783	0.625982
0	H	0.86614	0.0525856	0.134971
0	H	0.128058	0.543531	0.363299
0	H	0.0889549	0.8411	0.899819
0	H	0.872287	0.347862	0.584205
0	H	0.888963	0.136979	0.0897991
0	H	0.105415	0.630479	0.405181
0	C	0.12589	0.926215	0.207478
0	C	0.874257	0.430345	0.283103
0	C	0.852079	0.05217	0.7819
0	C	0.103669	0.548276	0.706241
0	H	0.10894	0.912544	0.260483
0	H	0.89621	0.421272	0.234656
0	H	0.869044	0.0658083	0.728908
0	H	0.0817356	0.557371	0.754708
0	H	0.155181	0.883345	0.20591
0	H	0.846131	0.385496	0.275963
0	H	0.822779	0.095012	0.783396
0	H	0.131795	0.593133	0.713317
0	C	0.140634	0.0136535	0.210078
0	C	0.857204	0.516578	0.281535
0	C	0.837341	0.964724	0.779358
0	C	0.120722	0.46205	0.707823
0	C	0.109038	0.0766349	0.202112
0	C	0.886924	0.581809	0.292545
0	C	0.868936	0.90173	0.787247
0	C	0.0910014	0.396818	0.696876
0	H	0.0741703	0.0596265	0.190597
0	H	0.921967	0.567814	0.305237
0	H	0.903827	0.918727	0.798636
0	H	0.055949	0.410782	0.684211
0	C	0.121039	0.158604	0.208866
0	C	0.872309	0.662509	0.287766
0	C	0.856906	0.819763	0.780589
0	C	0.105616	0.316113	0.701685
0	C	0.165388	0.17828	0.228734
0	C	0.827593	0.678057	0.267359
0	C	0.812526	0.800118	0.760885
0	C	0.150338	0.300589	0.722078
0	H	0.17452	0.241685	0.23842
0	H	0.816426	0.740824	0.260328
0	H	0.80338	0.736712	0.751266
0	H	0.161509	0.237821	0.729126
0	C	0.198176	0.118027	0.236934
0	C	0.796479	0.615488	0.256036
0	C	0.77973	0.860367	0.752777
0	C	0.181455	0.363182	0.733363
0	C	0.185363	0.0365369	0.224489
0	C	0.811897	0.535012	0.266446
0	C	0.792587	0.941866	0.765121
0	C	0.166036	0.443641	0.722888
0	C	0.0873395	0.227658	0.195261
0	C	0.903009	0.735017	0.304855
0	C	0.890584	0.750655	0.794119
0	C	0.0749194	0.243604	0.684666
0	C	0.0773903	0.272198	0.265872
0	C	0.90643	0.790539	0.238773
0	C	0.900444	0.706136	0.723472
0	C	0.0714862	0.188147	0.750789
0	H	0.107991	0.286789	0.295325
0	H	0.873262	0.810077	0.219946
0	H	0.869812	0.691793	0.694007
0	H	0.104648	0.168867	0.769823
0	H	0.0556809	0.23468	0.301174
0	H	0.923311	0.75838	0.194496
0	H	0.922223	0.743552	0.688191
0	H	0.0544343	0.220251	0.79494
0	H	0.0589817	0.329063	0.256427
0	H	0.926334	0.845159	0.250102
0	H	0.918725	0.649126	0.732846
0	H	0.051721	0.133374	0.73942
0	C	0.108685	0.287042	0.140765
0	C	0.881527	0.781548	0.368083
0	C	0.869259	0.691275	0.848629
0	C	0.0963914	0.196974	0.62149
0	H	0.138917	0.316757	0.161481
0	H	0.848775	0.807778	0.354142
0	H	0.838954	0.661718	0.828007
0	H	0.129133	0.170723	0.635462
0	H	0.0846844	0.334897	0.126217
0	H	0.90321	0.831361	0.385908
0	H	0.893212	0.643286	0.863025
0	H	0.0746959	0.147149	0.603717
0	H	0.118269	0.255259	0.0915215
0	H	0.876005	0.741009	0.41378
0	H	0.859791	0.723027	0.897944
0	H	0.101925	0.237422	0.575741
0	C	0.0427011	0.195928	0.164851
0	C	0.951051	0.709198	0.325386
0	C	0.935256	0.782332	0.824452
0	C	0.0268763	0.269379	0.664099
0	H	0.0477265	0.161069	0.115732
0	H	0.951286	0.670162	0.372657
0	H	0.930271	0.817289	0.87353
0	H	0.0266395	0.308271	0.616739
0	H	0.0196516	0.246137	0.152214
0	H	0.972191	0.762684	0.337304
0	H	0.958267	0.732078	0.837136
0	H	0.00573323	0.215864	0.652296
0	H	0.0247678	0.156518	0.203149
0	H	0.967936	0.675733	0.28191
0	H	0.953194	0.821644	0.786076
0	H	0.00998415	0.30296	0.707499
0	C	0.244575	0.137814	0.263595
0	C	0.74967	0.633827	0.230229
0	C	0.733285	0.840551	0.726352
0	C	0.228255	0.344859	0.759215
0	H	0.266069	0.0810465	0.263177
0	H	0.727903	0.577049	0.231596
0	H	0.711763	0.897292	0.726932
0	H	0.250007	0.401655	0.757929
0	H	0.241035	0.154295	0.321379
0	H	0.752066	0.648982	0.172207
0	H	0.736708	0.824132	0.668537
0	H	0.225836	0.329632	0.81722
