#******************************************
#
# CIF file created by Zeo++
# Zeo++ is an open source package to
# analyze microporous materials
#
#*******************************************

_cell_length_a		23.7532(0)
_cell_length_b		23.9987(0)
_cell_length_c		19.3558(0)
_cell_angle_alpha		90(0)
_cell_angle_beta		90(0)
_cell_angle_gamma		121.067(0)

_symmetry_space_group_name_H-M		'P1'
_symmetry_Int_Tables_number		1
_symmetry_cell_setting		Monoclinic

loop_
_symmetry_equiv_pos_as_xyz
'+x,+y,+z'

loop_
_atom_site_label
_atom_site_type_symbol
_atom_site_fract_x
_atom_site_fract_y
_atom_site_fract_z
0	C	0.323095	0.97364	0.11103
0	C	0.0889685	0.363541	0.10857
0	C	0.700697	0.745078	0.101005
0	C	0.760257	0.0873029	0.885264
0	C	0.994916	0.699599	0.890065
0	C	0.383635	0.315313	0.894914
0	C	0.989402	0.302359	0.445515
0	C	0.756957	0.69756	0.439815
0	C	0.363174	0.079588	0.435628
0	C	0.419332	0.418593	0.220031
0	C	0.661108	0.0232788	0.217761
0	C	0.0542007	0.654871	0.225694
0	C	0.665283	0.642739	0.775572
0	C	0.422693	0.037032	0.778448
0	C	0.0289839	0.407396	0.771603
0	C	0.092203	0.75712	0.552154
0	C	0.325643	0.361989	0.553762
0	C	0.716434	0.97865	0.559929
0	H	0.339324	0.968375	0.0577475
0	H	0.0939208	0.385111	0.0554518
0	H	0.679118	0.731098	0.047412
0	H	0.744121	0.0923294	0.9387
0	H	0.989955	0.678099	0.943226
0	H	0.404971	0.329226	0.948625
0	H	0.00477767	0.296026	0.392327
0	H	0.763435	0.71983	0.386926
0	H	0.342632	0.0666314	0.381622
0	H	0.404721	0.425383	0.27345
0	H	0.654857	0.00300101	0.271638
0	H	0.0741334	0.666976	0.279984
0	H	0.680236	0.635961	0.722337
0	H	0.429131	0.0572922	0.724543
0	H	0.00902152	0.395316	0.717334
0	H	0.0766266	0.763036	0.605387
0	H	0.319768	0.341082	0.607273
0	H	0.735767	0.991642	0.614357
0	C	0.37635	0.0370374	0.146047
0	C	0.0276786	0.354987	0.146341
0	C	0.703688	0.688596	0.135599
0	C	0.706976	0.0240367	0.850107
0	C	0.0561979	0.708057	0.852367
0	C	0.380619	0.371776	0.860351
0	C	0.0438183	0.365608	0.479768
0	C	0.696931	0.692269	0.477293
0	C	0.362709	0.0214202	0.470562
0	C	0.362105	0.358543	0.184019
0	C	0.719007	0.0241134	0.180318
0	C	0.0580679	0.714522	0.190413
0	C	0.722141	0.702881	0.811889
0	C	0.364773	0.0363487	0.815671
0	C	0.0249531	0.347659	0.806877
0	C	0.0378423	0.694328	0.517129
0	C	0.384789	0.365621	0.516057
0	C	0.717118	0.036562	0.524143
0	H	0.393907	0.0792932	0.109888
0	H	0.983497	0.330502	0.111914
0	H	0.72524	0.667957	0.0993433
0	H	0.689708	0.981586	0.885931
0	H	0.100382	0.73258	0.886794
0	H	0.358822	0.392245	0.896485
0	H	0.0616642	0.407758	0.443295
0	H	0.65288	0.670022	0.442517
0	H	0.383626	0.999506	0.43511
0	H	0.339929	0.315452	0.219593
0	H	0.763622	0.0459031	0.214289
0	H	0.0386575	0.738173	0.225436
0	H	0.744417	0.745943	0.776225
0	H	0.320258	0.0146849	0.781559
0	H	0.0441623	0.323856	0.771805
0	H	0.0194936	0.651813	0.553163
0	H	0.429383	0.388439	0.550057
0	H	0.694806	0.0578888	0.558375
0	C	0.436591	0.029977	0.165111
0	C	0.0398602	0.423828	0.166035
0	C	0.632164	0.632757	0.154166
0	C	0.64656	0.0311106	0.832019
0	C	0.0439482	0.639165	0.832858
0	C	0.452154	0.427813	0.842044
0	C	0.103506	0.35735	0.49778
0	C	0.7131	0.762451	0.497038
0	C	0.28984	0.967413	0.486974
0	C	0.307143	0.373689	0.165059
0	C	0.699317	0.952293	0.163449
0	C	0.131847	0.766186	0.174414
0	C	0.777242	0.688088	0.83147
0	C	0.384582	0.108213	0.832493
0	C	0.951146	0.296221	0.822975
0	C	0.978525	0.703104	0.498833
0	C	0.367651	0.294709	0.498394
0	C	0.790295	0.0911275	0.509974
0	H	0.480062	0.0695518	0.134936
0	H	0.000772898	0.428901	0.137575
0	H	0.624413	0.58836	0.1245
0	H	0.603356	0.991484	0.862458
0	H	0.0829446	0.634088	0.861502
0	H	0.459668	0.472077	0.871817
0	H	0.146923	0.396383	0.466922
0	H	0.675557	0.769855	0.468391
0	H	0.280901	0.922913	0.456652
0	H	0.261576	0.33648	0.194605
0	H	0.735864	0.943811	0.192711
0	H	0.142623	0.811327	0.20466
0	H	0.822908	0.725729	0.802653
0	H	0.3481	0.116744	0.803169
0	H	0.940109	0.25106	0.7926
0	H	0.934764	0.663848	0.529068
0	H	0.405273	0.287563	0.527268
0	H	0.79822	0.135105	0.540678
0	C	0.453788	0.0378852	0.240905
0	C	0.0347316	0.433416	0.24229
0	C	0.620405	0.615662	0.229873
0	C	0.628747	0.023332	0.756408
0	C	0.0491179	0.629418	0.756658
0	C	0.464052	0.445091	0.766374
0	C	0.121769	0.365628	0.573278
0	C	0.708408	0.772637	0.573173
0	C	0.276404	0.949412	0.562333
0	C	0.290733	0.367925	0.0891749
0	C	0.702654	0.939283	0.0877992
0	C	0.145938	0.784097	0.0990964
0	C	0.79305	0.693528	0.907506
0	C	0.381185	0.121313	0.908098
0	C	0.93716	0.278281	0.898282
0	C	0.960922	0.695686	0.423171
0	C	0.371466	0.282753	0.422549
0	C	0.805368	0.110051	0.435002
0	H	0.498888	0.0838358	0.252965
0	H	0.989758	0.432772	0.256308
0	H	0.616202	0.569087	0.2421
0	H	0.583599	0.97739	0.744501
0	H	0.0939565	0.629781	0.742715
0	H	0.467789	0.491451	0.754151
0	H	0.167594	0.41117	0.58458
0	H	0.665232	0.77548	0.586859
0	H	0.270686	0.902116	0.574313
0	H	0.243254	0.324809	0.0765304
0	H	0.74491	0.934711	0.0746101
0	H	0.153239	0.831984	0.0870135
0	H	0.840432	0.736629	0.920519
0	H	0.339021	0.126093	0.92113
0	H	0.929739	0.230336	0.910311
0	H	0.91509	0.650381	0.411243
0	H	0.414559	0.279729	0.408968
0	H	0.810615	0.15712	0.422947
0	C	0.42054	0.995362	0.291429
0	C	0.0786134	0.442479	0.29103
0	C	0.614491	0.650457	0.280249
0	C	0.66158	0.06603	0.705886
0	C	0.00527682	0.620378	0.707899
0	C	0.470513	0.4106	0.716037
0	C	0.0885919	0.323984	0.624479
0	C	0.750786	0.778535	0.622227
0	C	0.271236	0.984716	0.612644
0	C	0.327578	0.409244	0.0392317
0	C	0.660177	0.933286	0.038785
0	C	0.149593	0.747762	0.0489577
0	C	0.755953	0.652013	0.957186
0	C	0.423491	0.127196	0.957269
0	C	0.933761	0.314732	0.948457
0	C	0.994631	0.737839	0.37253
0	C	0.328591	0.275927	0.373632
0	C	0.812325	0.0754808	0.38516
0	H	0.437479	0.00614885	0.34514
0	H	0.0701733	0.44894	0.345332
0	H	0.605615	0.632974	0.333757
0	H	0.644196	0.0554497	0.652326
0	H	0.0136665	0.613684	0.653646
0	H	0.479441	0.428107	0.662541
0	H	0.106478	0.335158	0.677858
0	H	0.742649	0.785814	0.676413
0	H	0.261394	0.967019	0.666076
0	H	0.311074	0.400484	0.985333
0	H	0.666766	0.923878	0.984928
0	H	0.159993	0.765056	0.995464
0	H	0.772161	0.660671	0.0112037
0	H	0.416805	0.136672	0.0110703
0	H	0.923473	0.297506	0.00197445
0	H	0.97714	0.727358	0.318981
0	H	0.335953	0.267552	0.319607
0	H	0.823179	0.0934757	0.331865
0	C	0.358877	0.929892	0.283104
0	C	0.142707	0.445195	0.279673
0	C	0.618985	0.715093	0.272736
0	C	0.723278	0.13151	0.714054
0	C	0.941291	0.617981	0.718977
0	C	0.466567	0.346239	0.723756
0	C	0.025957	0.259122	0.61755
0	C	0.812424	0.776165	0.612228
0	C	0.277823	0.0502391	0.604824
0	C	0.393152	0.470825	0.0483999
0	C	0.599853	0.937671	0.0497997
0	C	0.140634	0.681339	0.0578173
0	C	0.69048	0.590409	0.94769
0	C	0.483705	0.122571	0.946515
0	C	0.942891	0.381223	0.93959
0	C	0.0574676	0.802433	0.380284
0	C	0.267061	0.278293	0.384265
0	C	0.80647	0.0102867	0.393383
0	H	0.37094	0.893487	0.262888
0	H	0.180517	0.493757	0.258372
0	H	0.571569	0.708541	0.253203
0	H	0.711263	0.16782	0.73468
0	H	0.903115	0.569433	0.739947
0	H	0.513987	0.35321	0.743875
0	H	0.0367608	0.221719	0.597702
0	H	0.853586	0.823985	0.593163
0	H	0.231484	0.0449817	0.583496
0	H	0.386378	0.510793	0.0684852
0	H	0.55964	0.891267	0.0730118
0	H	0.186056	0.685425	0.0803842
0	H	0.697371	0.55045	0.92783
0	H	0.524113	0.1689	0.923379
0	H	0.897497	0.377286	0.917134
0	H	0.0469295	0.839974	0.400265
0	H	0.227032	0.231096	0.406176
0	H	0.852519	0.0160091	0.416088
0	C	0.306008	0.931391	0.236977
0	C	0.136053	0.38921	0.23315
0	C	0.677439	0.764292	0.226806
0	C	0.776618	0.13014	0.759498
0	C	0.947864	0.673878	0.765582
0	C	0.40785	0.296759	0.769222
0	C	0.97293	0.260988	0.572086
0	C	0.803248	0.719848	0.564614
0	C	0.33811	0.0989734	0.560721
0	C	0.441955	0.462878	0.0949108
0	C	0.612573	0.997267	0.0938421
0	C	0.0790643	0.634016	0.101117
0	C	0.641943	0.59836	0.90073
0	C	0.470891	0.062924	0.902516
0	C	0.00442231	0.428413	0.896169
0	C	0.10985	0.799745	0.426115
0	C	0.277438	0.336394	0.429573
0	C	0.745367	0.960583	0.435871
0	H	0.256768	0.890322	0.255553
0	H	0.17612	0.37978	0.24967
0	H	0.691518	0.814615	0.245071
0	H	0.825601	0.171444	0.74061
0	H	0.90797	0.683691	0.748852
0	H	0.394039	0.246538	0.750741
0	H	0.92365	0.22043	0.591506
0	H	0.841304	0.707446	0.580966
0	H	0.35292	0.149375	0.579754
0	H	0.493104	0.500877	0.0771003
0	H	0.575527	0.0106714	0.0759543
0	H	0.0625476	0.583187	0.081841
0	H	0.590701	0.560271	0.918152
0	H	0.507776	0.0493582	0.920568
0	H	0.0210898	0.479288	0.915422
0	H	0.159384	0.8403	0.40734
0	H	0.239234	0.34837	0.412388
0	H	0.731892	0.910546	0.416649
0	C	0.311338	0.917272	0.15917
0	C	0.148567	0.40785	0.154915
0	C	0.658884	0.761132	0.148857
0	C	0.771812	0.143896	0.837544
0	C	0.935267	0.655186	0.843784
0	C	0.425844	0.299597	0.847297
0	C	0.976782	0.245984	0.494243
0	C	0.817117	0.739148	0.486679
0	C	0.322053	0.0976326	0.482183
0	C	0.437898	0.477563	0.172844
0	C	0.599575	0.981813	0.172685
0	C	0.0936828	0.634269	0.17989
0	C	0.646579	0.583811	0.822893
0	C	0.484129	0.0784016	0.823699
0	C	0.989651	0.428165	0.817436
0	C	0.105373	0.814052	0.50404
0	C	0.264703	0.319602	0.508171
0	C	0.75909	0.961308	0.515025
0	H	0.265137	0.870701	0.145051
0	H	0.193407	0.40655	0.138796
0	H	0.664127	0.809076	0.134922
0	H	0.818091	0.190407	0.851617
0	H	0.890443	0.656495	0.859884
0	H	0.420637	0.251647	0.861119
0	H	0.929765	0.199867	0.480737
0	H	0.860274	0.734943	0.470454
0	H	0.329992	0.146687	0.468291
0	H	0.486656	0.520892	0.187882
0	H	0.558178	0.989216	0.18823
0	H	0.0830125	0.584207	0.19393
0	H	0.598008	0.540362	0.807597
0	H	0.52551	0.0709261	0.808326
0	H	0.000422386	0.478267	0.803441
0	H	0.152341	0.859913	0.518215
0	H	0.222162	0.324927	0.524176
0	H	0.750947	0.912196	0.529075
0	C	0.307659	0.994723	0.251572
0	C	0.0706191	0.327887	0.24998
0	C	0.736029	0.756385	0.241646
0	C	0.77515	0.0670098	0.744227
0	C	0.0132969	0.735212	0.748825
0	C	0.349259	0.304542	0.753982
0	C	0.975847	0.324929	0.586158
0	C	0.736127	0.660397	0.580359
0	C	0.39525	0.0891167	0.576771
0	C	0.433833	0.396664	0.080348
0	C	0.68041	0.054794	0.0760047
0	C	0.0238761	0.646629	0.0844201
0	C	0.649819	0.664494	0.915121
0	C	0.402951	0.00552392	0.920207
0	C	0.0595692	0.415682	0.912743
0	C	0.106748	0.735803	0.411488
0	C	0.344454	0.395286	0.412195
0	C	0.688012	0.969443	0.417659
0	C	0.354824	0.112377	0.220524
0	C	0.95094	0.256274	0.220894
0	C	0.802196	0.706524	0.208125
0	C	0.728442	0.949288	0.774457
0	C	0.133201	0.80608	0.776958
0	C	0.281958	0.353163	0.78767
0	C	0.0234173	0.44213	0.553342
0	C	0.61613	0.594676	0.551213
0	C	0.460517	0.0383004	0.543644
0	C	0.378208	0.278361	0.111825
0	C	0.80058	0.120402	0.105863
0	C	0.96136	0.700331	0.117367
0	C	0.704927	0.782674	0.883393
0	C	0.282753	0.940531	0.890439
0	C	0.121745	0.361653	0.879654
0	C	0.0587975	0.618321	0.44325
0	C	0.464683	0.462151	0.440651
0	C	0.620374	0.0183699	0.448435
0	H	0.320263	0.107503	0.262555
0	H	0.955803	0.226151	0.261911
0	H	0.835314	0.742585	0.247785
0	H	0.763119	0.954606	0.732293
0	H	0.128404	0.836252	0.735945
0	H	0.248607	0.316406	0.748664
0	H	0.987013	0.437348	0.593123
0	H	0.619113	0.562672	0.591321
0	H	0.49483	0.0759799	0.581412
0	H	0.412074	0.280804	0.0702036
0	H	0.798301	0.151604	0.0643631
0	H	0.92815	0.665047	0.0771873
0	H	0.670634	0.779984	0.924653
0	H	0.284741	0.909395	0.932215
0	H	0.154875	0.396673	0.920063
0	H	0.095108	0.623356	0.403205
0	H	0.461313	0.493161	0.399606
0	H	0.5878	0.981393	0.409176
0	H	0.340001	0.128856	0.173221
0	H	0.933373	0.225414	0.173184
0	H	0.831677	0.718751	0.159296
0	H	0.743293	0.932529	0.821519
0	H	0.151591	0.837204	0.824426
0	H	0.252907	0.341519	0.836747
0	H	0.0112043	0.45917	0.504677
0	H	0.597189	0.564808	0.502971
0	H	0.488472	0.0484681	0.493975
0	H	0.392241	0.262301	0.159992
0	H	0.817714	0.150803	0.153927
0	H	0.931901	0.687337	0.166266
0	H	0.691025	0.798498	0.834963
0	H	0.265341	0.909842	0.842598
0	H	0.151296	0.374927	0.830798
0	H	0.0713298	0.601276	0.491709
0	H	0.483007	0.49283	0.488426
0	H	0.590717	0.00633598	0.497128
0	C	0.426137	0.16164	0.240831
0	C	0.902748	0.2772	0.243925
0	C	0.779066	0.637061	0.232238
0	C	0.657203	0.900039	0.753914
0	C	0.180365	0.784042	0.753407
0	C	0.304322	0.422116	0.762347
0	C	0.0937149	0.491036	0.577118
0	C	0.570816	0.618652	0.575751
0	C	0.438783	0.970018	0.570794
0	C	0.30639	0.230383	0.0921054
0	C	0.847337	0.0970293	0.0849732
0	C	0.984707	0.770247	0.0948043
0	C	0.776499	0.83109	0.903584
0	C	0.236538	0.96467	0.910962
0	C	0.0984251	0.291604	0.901677
0	C	0.988493	0.569278	0.419669
0	C	0.510956	0.438788	0.41776
0	C	0.641645	0.0870413	0.423005
0	H	0.459596	0.170528	0.1969
0	H	0.893666	0.302473	0.201496
0	H	0.754159	0.602037	0.189615
0	H	0.623571	0.891488	0.797576
0	H	0.189122	0.758377	0.795666
0	H	0.330274	0.457972	0.804034
0	H	0.129362	0.499488	0.535659
0	H	0.562657	0.645098	0.533893
0	H	0.410328	0.932875	0.530947
0	H	0.273382	0.223331	0.135889
0	H	0.853621	0.0704466	0.1281
0	H	0.00906055	0.804367	0.138282
0	H	0.809876	0.838687	0.859991
0	H	0.230127	0.990743	0.867387
0	H	0.0738688	0.25772	0.858066
0	H	0.952922	0.560632	0.461279
0	H	0.519967	0.413995	0.460754
0	H	0.668268	0.123283	0.464205
0	H	0.442033	0.140961	0.282503
0	H	0.925081	0.313397	0.286303
0	H	0.741465	0.622635	0.273432
0	H	0.641541	0.920545	0.711847
0	H	0.15728	0.747877	0.711106
0	H	0.340856	0.435805	0.720138
0	H	0.107201	0.470348	0.620903
0	H	0.595203	0.654646	0.617978
0	H	0.404674	0.958146	0.615045
0	H	0.291322	0.251146	0.0497419
0	H	0.825057	0.0612333	0.0422253
0	H	0.0227662	0.785565	0.0539833
0	H	0.791658	0.810439	0.945979
0	H	0.259353	0.00105982	0.953108
0	H	0.0605526	0.276107	0.942726
0	H	0.97474	0.589924	0.376058
0	H	0.486941	0.401509	0.376622
0	H	0.677287	0.100758	0.379919
0	C	0.433751	0.2259	0.265424
0	C	0.837758	0.218588	0.26863
0	C	0.836903	0.632209	0.259882
0	C	0.649466	0.83554	0.730032
0	C	0.245678	0.841945	0.728315
0	C	0.245642	0.426236	0.736135
0	C	0.0999534	0.555373	0.599033
0	C	0.505002	0.561829	0.601429
0	C	0.49848	0.966102	0.593708
0	C	0.297231	0.16503	0.0692419
0	C	0.914375	0.153941	0.0620621
0	C	0.927175	0.775662	0.0671787
0	C	0.784719	0.896021	0.926595
0	C	0.169522	0.90843	0.934893
0	C	0.156096	0.28604	0.928569
0	C	0.982474	0.505094	0.397494
0	C	0.57614	0.495678	0.39084
0	C	0.58193	0.0902039	0.398536
0	H	0.41821	0.247306	0.223701
0	H	0.814396	0.182868	0.22562
0	H	0.875629	0.647725	0.219347
0	H	0.665226	0.814545	0.771981
0	H	0.269671	0.877704	0.771176
0	H	0.208326	0.412118	0.778005
0	H	0.0865455	0.576285	0.554889
0	H	0.479205	0.526902	0.558296
0	H	0.533413	0.978726	0.549711
0	H	0.314755	0.145209	0.110731
0	H	0.937703	0.189616	0.105121
0	H	0.88699	0.757133	0.106367
0	H	0.767955	0.916098	0.884615
0	H	0.145776	0.872025	0.892553
0	H	0.196305	0.305258	0.889359
0	H	0.9961	0.484206	0.441481
0	H	0.601561	0.532024	0.432926
0	H	0.545178	0.0750552	0.441124
0	H	0.400408	0.216724	0.309648
0	H	0.847413	0.192805	0.310193
0	H	0.860379	0.666588	0.303524
0	H	0.682571	0.844237	0.685713
0	H	0.23638	0.868009	0.686774
0	H	0.220607	0.390454	0.693967
0	H	0.06418	0.546367	0.640679
0	H	0.513773	0.534254	0.641649
0	H	0.526011	0.00308019	0.63418
0	H	0.328389	0.172434	0.0234321
0	H	0.907802	0.180727	0.0192087
0	H	0.905679	0.743946	0.0212167
0	H	0.752447	0.88794	0.971574
0	H	0.176195	0.882301	0.978378
0	H	0.177462	0.317122	0.974988
0	H	0.0182054	0.514346	0.355712
0	H	0.56642	0.521421	0.349268
0	H	0.556723	0.0546898	0.356195
0	C	0.504434	0.274641	0.286625
0	C	0.790558	0.239026	0.295195
0	C	0.814786	0.563333	0.283898
0	C	0.578664	0.786594	0.709428
0	C	0.291881	0.820334	0.701555
0	C	0.267	0.494307	0.709947
0	C	0.169249	0.604683	0.623655
0	C	0.461164	0.585249	0.630857
0	C	0.478378	0.898781	0.621304
0	C	0.225674	0.115468	0.0521653
0	C	0.959954	0.13038	0.0385647
0	C	0.948803	0.845562	0.0478932
0	C	0.855761	0.945684	0.945531
0	C	0.124382	0.932772	0.957598
0	C	0.134758	0.215946	0.946561
0	C	0.913199	0.455631	0.372964
0	C	0.621048	0.472817	0.36324
0	C	0.601413	0.158157	0.373634
0	H	0.509537	0.320456	0.304348
0	H	0.748235	0.198588	0.321489
0	H	0.856332	0.560224	0.303703
0	H	0.573356	0.740469	0.692586
0	H	0.334788	0.860474	0.675661
0	H	0.224736	0.49705	0.691889
0	H	0.173974	0.651597	0.635723
0	H	0.415117	0.544441	0.651122
0	H	0.521584	0.895951	0.635351
0	H	0.219595	0.0683295	0.0381618
0	H	0.00765962	0.171144	0.0213449
0	H	0.907139	0.849054	0.0291413
0	H	0.861155	0.992473	0.959798
0	H	0.0768174	0.892539	0.975895
0	H	0.176517	0.212437	0.964947
0	H	0.908496	0.408663	0.361248
0	H	0.666912	0.513766	0.342807
0	H	0.558032	0.16049	0.359093
0	H	0.538685	0.286411	0.243485
0	H	0.771482	0.255106	0.253041
0	H	0.792654	0.52807	0.241675
0	H	0.54459	0.775539	0.752587
0	H	0.310094	0.803203	0.743552
0	H	0.291219	0.53101	0.75055
0	H	0.206216	0.613871	0.584239
0	H	0.448195	0.609598	0.591562
0	H	0.450615	0.860716	0.582868
0	H	0.19315	0.107064	0.0961643
0	H	0.969651	0.105579	0.0802703
0	H	0.969776	0.878415	0.0922335
0	H	0.889354	0.954905	0.902372
0	H	0.1143	0.956591	0.91515
0	H	0.114095	0.183746	0.901681
0	H	0.876197	0.446591	0.412288
0	H	0.634323	0.44964	0.403626
0	H	0.627413	0.194879	0.413831
0	H	0.520641	0.255736	0.328891
0	H	0.814465	0.278988	0.332559
0	H	0.778311	0.547622	0.325499
0	H	0.562332	0.80491	0.666713
0	H	0.267451	0.78077	0.663819
0	H	0.301507	0.508332	0.666606
0	H	0.182072	0.58768	0.670338
0	H	0.485291	0.619624	0.67353
0	H	0.44749	0.88683	0.667532
0	H	0.208073	0.131569	0.00856703
0	H	0.938812	0.0962924	0.995147
0	H	0.986208	0.864052	0.00693827
0	H	0.872556	0.929168	0.989485
0	H	0.146124	0.967926	4.94032e-05
0	H	0.0972177	0.196635	0.987362
0	H	0.900365	0.472395	0.326102
0	H	0.59767	0.437608	0.321114
0	H	0.633757	0.172467	0.328356
0	C	0.43081	0.966201	0.141435
0	C	0.105571	0.481608	0.14104
0	C	0.577787	0.644557	0.129805
0	C	0.652464	0.0948474	0.856119
0	C	0.978167	0.581334	0.857603
0	C	0.506666	0.41623	0.866471
0	C	0.0956909	0.292658	0.474326
0	C	0.780477	0.817873	0.472656
0	C	0.237726	0.982238	0.461671
0	C	0.320414	0.440266	0.189383
0	C	0.631415	0.899767	0.190191
0	C	0.18154	0.748307	0.20047
0	C	0.764247	0.621641	0.806985
0	C	0.452544	0.160605	0.805777
0	C	0.901517	0.314216	0.797016
0	C	0.986408	0.767695	0.522764
0	C	0.300449	0.240415	0.524703
0	C	0.842485	0.0767852	0.536492
0	C	0.285694	0.839195	0.356686
0	C	0.234496	0.460094	0.34938
0	C	0.618935	0.795759	0.349228
0	C	0.795883	0.222218	0.640244
0	C	0.850519	0.604156	0.647885
0	C	0.467945	0.265834	0.648247
0	C	0.954674	0.169898	0.693505
0	C	0.897482	0.782141	0.688376
0	C	0.273226	0.128584	0.680807
0	C	0.471276	0.558241	0.973777
0	C	0.509609	0.92695	0.980948
0	C	0.144118	0.601103	0.984474
0	C	0.611622	0.503143	0.0220576
0	C	0.573433	0.132519	0.0157234
0	C	0.940526	0.462034	0.0130298
0	C	0.130225	0.891824	0.304979
0	C	0.176411	0.26241	0.311908
0	C	0.815897	0.934716	0.317218
0	H	0.30247	0.812556	0.324319
0	H	0.262705	0.499966	0.312143
0	H	0.585029	0.794127	0.308927
0	H	0.777772	0.248899	0.670498
0	H	0.822096	0.567432	0.688092
0	H	0.505017	0.270352	0.686087
0	H	0.974031	0.143376	0.665016
0	H	0.927453	0.809415	0.642993
0	H	0.231306	0.119381	0.6478
0	H	0.462424	0.587466	0.0115744
0	H	0.478629	0.880783	0.00891196
0	H	0.188591	0.612482	0.0140757
0	H	0.619523	0.473834	0.983466
0	H	0.60475	0.178354	0.987351
0	H	0.896898	0.451789	0.982477
0	H	0.113437	0.91899	0.336411
0	H	0.148177	0.220473	0.34675
0	H	0.860641	0.947652	0.347111
0	H	0.238547	0.830878	0.33552
0	H	0.236942	0.417155	0.332944
0	H	0.668151	0.839465	0.340893
0	H	0.842451	0.231044	0.663686
0	H	0.849309	0.64888	0.659334
0	H	0.419881	0.222204	0.6612
0	H	0.907894	0.159396	0.669016
0	H	0.89425	0.734208	0.690313
0	H	0.318067	0.172748	0.661637
0	H	0.518342	0.561624	0.986958
0	H	0.508291	0.966837	0.00856804
0	H	0.100741	0.558819	0.0086623
0	H	0.56471	0.500503	0.00996061
0	H	0.574244	0.0921564	0.988574
0	H	0.984727	0.504228	0.989882
0	H	0.177504	0.90073	0.326417
0	H	0.171085	0.303248	0.330152
0	H	0.773792	0.890081	0.339681
0	C	0.281011	0.821762	0.432497
0	C	0.256531	0.479876	0.423366
0	C	0.593199	0.792683	0.421622
0	C	0.80288	0.238771	0.564053
0	C	0.827453	0.578875	0.575391
0	C	0.488408	0.265285	0.574248
0	C	0.947437	0.155083	0.770131
0	C	0.922947	0.820035	0.755263
0	C	0.260527	0.132668	0.756803
0	C	0.468941	0.577155	0.899613
0	C	0.491202	0.922587	0.905469
0	C	0.150429	0.591426	0.908192
0	C	0.614497	0.483435	0.0957434
0	C	0.591867	0.137303	0.091234
0	C	0.932897	0.470888	0.0892191
0	C	0.134396	0.907683	0.22874
0	C	0.157378	0.245308	0.236793
0	C	0.824238	0.92857	0.240508
0	H	0.241165	0.771074	0.440548
0	H	0.30467	0.484641	0.431823
0	H	0.590303	0.836249	0.432008
0	H	0.843104	0.289302	0.556105
0	H	0.778757	0.572584	0.566034
0	H	0.490456	0.221131	0.564566
0	H	0.91152	0.103175	0.77888
0	H	0.972561	0.829535	0.766556
0	H	0.255414	0.175095	0.766368
0	H	0.512432	0.624968	0.888009
0	H	0.444148	0.92077	0.899998
0	H	0.148318	0.545035	0.899553
0	H	0.571233	0.435357	0.106986
0	H	0.639084	0.139471	0.0968164
0	H	0.934817	0.517164	0.098014
0	H	0.172267	0.958968	0.219879
0	H	0.107469	0.235975	0.227817
0	H	0.827814	0.885343	0.230332
0	H	0.269804	0.852941	0.464304
0	H	0.221359	0.442948	0.459851
0	H	0.625812	0.790685	0.460826
0	H	0.814801	0.20705	0.534203
0	H	0.861655	0.613236	0.53643
0	H	0.453112	0.265496	0.53736
0	H	0.929199	0.182918	0.797702
0	H	0.890899	0.792565	0.799072
0	H	0.301506	0.138347	0.789022
0	H	0.468733	0.541592	0.863413
0	H	0.528743	0.965641	0.876771
0	H	0.10983	0.589857	0.878645
0	H	0.61466	0.518404	0.132776
0	H	0.554509	0.0942578	0.120081
0	H	0.972941	0.472106	0.119512
0	H	0.148228	0.877854	0.198051
0	H	0.190945	0.285614	0.202383
0	H	0.781775	0.922933	0.211067
0	H	0.326777	0.82703	0.452152
0	H	0.2609	0.526336	0.436544
0	H	0.5441	0.749722	0.428902
0	H	0.757845	0.233461	0.54211
0	H	0.823669	0.531938	0.566776
0	H	0.536879	0.307637	0.562652
0	H	0.994085	0.167011	0.79428
0	H	0.925329	0.866846	0.752886
0	H	0.215726	0.0891359	0.774949
0	H	0.424929	0.579568	0.889129
0	H	0.486185	0.879342	0.880419
0	H	0.196673	0.6305	0.8865
0	H	0.658715	0.481159	0.105381
0	H	0.596608	0.180541	0.116016
0	H	0.88626	0.431565	0.109914
0	H	0.087602	0.899217	0.208275
0	H	0.158617	0.202107	0.221004
0	H	0.868352	0.971183	0.219727
0	C	0.357453	0.846166	0.121212
0	C	0.225489	0.52607	0.117135
0	C	0.541578	0.724811	0.110407
0	C	0.725837	0.214899	0.87644
0	C	0.858248	0.536816	0.881322
0	C	0.542885	0.336031	0.886715
0	C	0.0206422	0.172299	0.458759
0	C	0.899408	0.856762	0.45046
0	C	0.206394	0.0660604	0.441512
0	C	0.40322	0.558214	0.210021
0	C	0.515126	0.868223	0.217581
0	C	0.206406	0.660425	0.224675
0	C	0.681845	0.503313	0.787121
0	C	0.56884	0.191961	0.778916
0	C	0.877213	0.402372	0.772109
0	C	0.0617263	0.887918	0.539593
0	C	0.182681	0.204335	0.550688
0	C	0.874126	0.993288	0.558655
0	H	0.320999	0.807862	0.156926
0	H	0.263555	0.523903	0.149093
0	H	0.545331	0.763967	0.144888
0	H	0.762093	0.253235	0.840604
0	H	0.820237	0.538863	0.849155
0	H	0.539595	0.297154	0.852133
0	H	0.982294	0.135156	0.493968
0	H	0.936131	0.853285	0.483677
0	H	0.215735	0.109759	0.471572
0	H	0.444736	0.594537	0.177138
0	H	0.478071	0.87256	0.186053
0	H	0.196805	0.616589	0.194663
0	H	0.64088	0.467267	0.820777
0	H	0.605768	0.187737	0.810797
0	H	0.887531	0.44689	0.801166
0	H	0.0992742	0.924967	0.503661
0	H	0.144964	0.205622	0.517062
0	H	0.860707	0.945822	0.534318
0	H	0.404764	0.847018	0.126271
0	H	0.22963	0.573867	0.127132
0	H	0.491533	0.68101	0.117209
0	H	0.678478	0.214002	0.871726
0	H	0.854293	0.4891	0.871357
0	H	0.592943	0.379956	0.880563
0	H	0.0669934	0.171781	0.46695
0	H	0.905633	0.90559	0.459206
0	H	0.155681	0.0257492	0.45419
0	H	0.360302	0.564201	0.200545
0	H	0.505196	0.817727	0.211329
0	H	0.258408	0.699512	0.215104
0	H	0.725139	0.497864	0.796231
0	H	0.578709	0.242456	0.784918
0	H	0.825142	0.363853	0.782429
0	H	0.0151201	0.888193	0.532635
0	H	0.175818	0.154857	0.546362
0	H	0.924136	0.03032	0.539752
0	C	0.332634	0.831902	0.046407
0	C	0.235433	0.518622	0.0401145
0	C	0.55293	0.74687	0.0346766
0	C	0.751034	0.2292	0.951117
0	C	0.847888	0.544016	0.958293
0	C	0.530686	0.313446	0.962276
0	C	0.998594	0.157591	0.383145
0	C	0.909637	0.847891	0.373927
0	C	0.212904	0.079795	0.363554
0	C	0.421997	0.568398	0.286753
0	C	0.510933	0.882675	0.293991
0	C	0.194758	0.645358	0.30219
0	C	0.661925	0.491853	0.710758
0	C	0.573416	0.177354	0.702652
0	C	0.888304	0.415858	0.694278
0	C	0.085342	0.903186	0.614691
0	C	0.175621	0.219488	0.626052
0	C	0.874546	0.989166	0.637863
0	H	0.28274	0.824599	0.0431709
0	H	0.240011	0.475543	0.0316044
0	H	0.597496	0.795769	0.0299794
0	H	0.801088	0.236863	0.953948
0	H	0.842323	0.586517	0.966692
0	H	0.486194	0.26442	0.966322
0	H	0.94865	0.149729	0.377191
0	H	0.913936	0.804507	0.366734
0	H	0.256705	0.127964	0.352668
0	H	0.47094	0.574323	0.294405
0	H	0.510852	0.928522	0.299237
0	H	0.14844	0.598606	0.310595
0	H	0.613279	0.486736	0.703489
0	H	0.574587	0.132049	0.697762
0	H	0.934825	0.462165	0.68489
0	H	0.13534	0.91098	0.619507
0	H	0.171981	0.263568	0.628997
0	H	0.826674	0.949435	0.657106
0	H	0.363793	0.8749	0.0129737
0	H	0.190945	0.508412	0.0102152
0	H	0.563147	0.714189	0.00308727
0	H	0.720227	0.186091	0.98454
0	H	0.892578	0.555003	0.988297
0	H	0.519895	0.345787	0.993736
0	H	0.0307654	0.200613	0.350102
0	H	0.865434	0.837727	0.34341
0	H	0.221559	0.0439374	0.336175
0	H	0.387307	0.52403	0.316831
0	H	0.555827	0.891239	0.321969
0	H	0.187832	0.682882	0.328355
0	H	0.696638	0.535351	0.679563
0	H	0.528232	0.167679	0.674486
0	H	0.894535	0.377503	0.669078
0	H	0.0536966	0.860472	0.648356
0	H	0.220948	0.231588	0.655596
0	H	0.879599	0.034199	0.660633
0	C	0.332358	0.771982	0.0184174
0	C	0.296188	0.579958	0.0120719
0	C	0.492948	0.746957	0.00547755
0	C	0.750992	0.288858	0.979448
0	C	0.787764	0.48209	0.986313
0	C	0.590425	0.313426	0.992318
0	C	0.000219684	0.0980967	0.357173
0	C	0.970588	0.908544	0.345102
0	C	0.150879	0.0759838	0.334715
0	C	0.42107	0.627424	0.315582
0	C	0.449788	0.826557	0.328503
0	C	0.252474	0.643933	0.33574
0	C	0.661222	0.431675	0.682974
0	C	0.633946	0.234064	0.667948
0	C	0.830724	0.417287	0.660385
0	C	0.0843302	0.962926	0.640941
0	C	0.115916	0.161946	0.660807
0	C	0.930431	0.979549	0.662328
0	H	0.308653	0.731429	0.0559985
0	H	0.340257	0.590703	0.0423614
0	H	0.47593	0.770517	0.0423427
0	H	0.774114	0.329405	0.941806
0	H	0.743524	0.470366	0.955793
0	H	0.608261	0.290542	0.955546
0	H	0.972875	0.0566546	0.393071
0	H	0.0143983	0.920512	0.376571
0	H	0.140822	0.110256	0.362675
0	H	0.454298	0.671528	0.285167
0	H	0.405293	0.813077	0.297572
0	H	0.261245	0.60825	0.309068
0	H	0.628799	0.388555	0.715067
0	H	0.67857	0.249006	0.699267
0	H	0.824232	0.455544	0.684301
0	H	0.111036	0.00416187	0.604655
0	H	0.0711395	0.145359	0.629174
0	H	0.915687	0.927847	0.65585
0	H	0.383633	0.783237	0.0124096
0	H	0.290213	0.622544	0.0186358
0	H	0.451538	0.696129	0.999523
0	H	0.699635	0.277191	0.986
0	H	0.794855	0.440157	0.980069
0	H	0.631513	0.364277	0.99921
0	H	0.0516252	0.10889	0.356786
0	H	0.964272	0.951114	0.349031
0	H	0.107709	0.0266835	0.34391
0	H	0.371118	0.619826	0.310099
0	H	0.454028	0.782674	0.33013
0	H	0.298131	0.691994	0.329554
0	H	0.711148	0.438935	0.68681
0	H	0.628287	0.277088	0.665422
0	H	0.784399	0.370484	0.669806
0	H	0.0329597	0.952051	0.642422
0	H	0.12319	0.119944	0.664154
0	H	0.974276	0.00791681	0.62904
0	C	0.296763	0.749903	0.949171
0	C	0.307644	0.572575	0.935858
0	C	0.508218	0.781892	0.936
0	C	0.787127	0.311242	0.0483892
0	C	0.775716	0.489257	0.0624087
0	C	0.574236	0.277614	0.0613142
0	C	0.970949	0.0785323	0.284813
0	C	0.982737	0.89869	0.269866
0	C	0.157162	0.0909716	0.257486
0	C	0.441403	0.638895	0.391484
0	C	0.441081	0.844727	0.40167
0	C	0.239916	0.626967	0.412431
0	C	0.638147	0.418259	0.607958
0	C	0.643679	0.215701	0.59528
0	C	0.841277	0.429166	0.582662
0	C	0.114848	0.982912	0.712759
0	C	0.105211	0.180375	0.733054
0	C	0.950254	0.000381717	0.737269
0	H	0.301232	0.710325	0.927025
0	H	0.349013	0.617721	0.915183
0	H	0.463871	0.777267	0.912939
0	H	0.781846	0.350126	0.0711297
0	H	0.735144	0.443599	0.0831573
0	H	0.618338	0.282271	0.085067
0	H	0.975912	0.0386803	0.264414
0	H	0.0233181	0.943549	0.247726
0	H	0.11132	0.0847183	0.236675
0	H	0.433982	0.676509	0.414013
0	H	0.40021	0.803163	0.428186
0	H	0.28315	0.630633	0.43731
0	H	0.643877	0.37944	0.585873
0	H	0.683655	0.257667	0.568342
0	H	0.798287	0.426178	0.557953
0	H	0.109694	0.0224764	0.733686
0	H	0.0663564	0.137951	0.760505
0	H	0.988997	0.991216	0.75353
0	H	0.316592	0.789659	0.911485
0	H	0.264242	0.560335	0.904571
0	H	0.528402	0.762107	0.899106
0	H	0.768349	0.27138	0.0858758
0	H	0.819363	0.502839	0.0938841
0	H	0.553183	0.296652	0.0980374
0	H	0.995255	0.119315	0.248531
0	H	0.939132	0.883823	0.237859
0	H	0.168484	0.0587328	0.22842
0	H	0.412821	0.594564	0.422255
0	H	0.48534	0.860987	0.433001
0	H	0.228367	0.65979	0.439947
0	H	0.666175	0.461556	0.575567
0	H	0.5992	0.197545	0.563827
0	H	0.849679	0.393075	0.55767
0	H	0.0915916	0.942166	0.749208
0	H	0.149911	0.200586	0.76452
0	H	0.969359	0.0525993	0.743844
0	H	0.243858	0.7316	0.954704
0	H	0.318648	0.533863	0.928075
0	H	0.544209	0.83426	0.94162
0	H	0.840183	0.330607	0.0422262
0	H	0.763165	0.52693	0.0698292
0	H	0.538646	0.225251	0.0547957
0	H	0.918216	0.0619709	0.284987
0	H	0.995502	0.860874	0.265106
0	H	0.19641	0.141237	0.246965
0	H	0.493605	0.654846	0.397599
0	H	0.430335	0.884114	0.401137
0	H	0.198603	0.577157	0.420142
0	H	0.585958	0.403028	0.603792
0	H	0.656314	0.177622	0.596811
0	H	0.883885	0.477376	0.571343
0	H	0.167721	9.28047e-05	0.711421
0	H	0.0905133	0.216937	0.730668
0	H	0.909242	0.974678	0.773422
0	N	0.345116	0.0470464	0.207208
0	N	0.0172533	0.313549	0.207421
0	N	0.745847	0.716117	0.197353
0	N	0.737911	0.0144299	0.788422
0	N	0.066685	0.749463	0.791235
0	N	0.33873	0.344245	0.798426
0	N	0.0138753	0.376726	0.541361
0	N	0.683789	0.649891	0.538207
0	N	0.403518	0.0470554	0.533548
0	N	0.390152	0.344889	0.122448
0	N	0.732925	0.0644281	0.117453
0	N	0.0177041	0.690402	0.126963
0	N	0.693593	0.716339	0.873134
0	N	0.350622	0.995989	0.878528
0	N	0.0654169	0.371647	0.870288
0	N	0.0680735	0.683576	0.455549
0	N	0.397344	0.406386	0.453846
0	N	0.677932	0.0108178	0.460026
0	N	0.36899	0.910005	0.14576
0	N	0.159858	0.474054	0.142081
0	N	0.590194	0.707824	0.134993
0	N	0.714235	0.151082	0.851725
0	N	0.923934	0.588975	0.856654
0	N	0.494376	0.352985	0.861676
0	N	0.0334333	0.237261	0.480565
0	N	0.832563	0.80691	0.474835
0	N	0.252945	0.0464741	0.466388
0	N	0.385003	0.492124	0.185843
0	N	0.581262	0.913675	0.188081
0	N	0.163447	0.683138	0.19631
0	N	0.69978	0.569579	0.810428
0	N	0.502593	0.146569	0.808201
0	N	0.919805	0.379459	0.801087
0	N	0.0488145	0.822934	0.51764
0	N	0.248685	0.25195	0.522319
0	N	0.827538	0.0125809	0.533089
0	O	0.278823	0.00145959	0.30047
0	O	0.0630164	0.292315	0.299061
0	O	0.773222	0.782724	0.290711
0	O	0.803775	0.0605182	0.695001
0	O	0.0206478	0.770765	0.699824
0	O	0.312667	0.278559	0.704434
0	O	0.947607	0.332614	0.635018
0	O	0.726601	0.623318	0.628538
0	O	0.432377	0.115103	0.625948
0	O	0.462341	0.387229	0.0330301
0	O	0.690499	0.0911392	0.0269005
0	O	0.986614	0.621518	0.0351409
0	O	0.62099	0.673805	0.962185
0	O	0.39263	0.969104	0.969316
0	O	0.0970467	0.44092	0.961842
0	O	0.135324	0.728481	0.362705
0	O	0.353564	0.431498	0.36324
0	O	0.652301	0.943409	0.367518
0	O	0.479271	0.963688	0.124714
0	O	0.111211	0.533923	0.126033
0	O	0.523563	0.599657	0.112139
0	O	0.604051	0.0973128	0.873161
0	O	0.972407	0.528873	0.872174
0	O	0.560898	0.461302	0.88389
0	O	0.142823	0.288511	0.456097
0	O	0.789525	0.871517	0.457384
0	O	0.182968	0.938838	0.443333
0	O	0.275544	0.448735	0.206158
0	O	0.620424	0.845905	0.207566
0	O	0.236868	0.790161	0.219188
0	O	0.80926	0.613414	0.790119
0	O	0.463658	0.214427	0.788051
0	O	0.846171	0.272371	0.77837
0	O	0.93911	0.771881	0.540385
0	O	0.291185	0.187091	0.541753
0	O	0.897081	0.120624	0.554709
0	O	0.333698	0.909209	0.352421
0	O	0.165091	0.441061	0.347926
0	O	0.626924	0.739428	0.342719
0	O	0.747885	0.152221	0.644561
0	O	0.919698	0.622661	0.650496
0	O	0.459565	0.322003	0.653825
0	O	0.00169237	0.23998	0.687466
0	O	0.829772	0.767071	0.681226
0	O	0.284166	0.0740399	0.674875
0	O	0.419637	0.489514	0.979304
0	O	0.577745	0.941735	0.981304
0	O	0.134665	0.656731	0.988236
0	O	0.663691	0.571711	0.0166756
0	O	0.505528	0.118412	0.0151391
0	O	0.949012	0.405819	0.0091934
0	O	0.0823307	0.821915	0.31066
0	O	0.246328	0.283743	0.315567
0	O	0.801947	0.987237	0.323278
0	Cl	0.248174	0.972936	0.0987659
0	Cl	0.083833	0.287378	0.0953946
0	Cl	0.780836	0.815509	0.0907868
0	Cl	0.8352	0.0880242	0.89714
0	Cl	0.999998	0.775756	0.902947
0	Cl	0.303585	0.244676	0.904795
0	Cl	0.9155	0.303675	0.433688
0	Cl	0.747124	0.619406	0.426395
0	Cl	0.444932	0.147886	0.427379
0	Cl	0.488952	0.40966	0.231137
0	Cl	0.674837	0.103325	0.227428
0	Cl	0.970991	0.589086	0.232841
0	Cl	0.595629	0.651514	0.763697
0	Cl	0.408838	0.956931	0.768841
0	Cl	0.112267	0.473034	0.76441
0	Cl	0.165944	0.755437	0.563825
0	Cl	0.3365	0.4408	0.564955
0	Cl	0.63477	0.909929	0.566527
