#******************************************
#
# CIF file created by Zeo++
# Zeo++ is an open source package to
# analyze microporous materials
#
#*******************************************

_cell_length_a		36.2601(0)
_cell_length_b		36.6027(0)
_cell_length_c		7.44519(0)
_cell_angle_alpha		90(0)
_cell_angle_beta		90(0)
_cell_angle_gamma		90(0)

_symmetry_space_group_name_H-M		'P1'
_symmetry_Int_Tables_number		1
_symmetry_cell_setting		Monoclinic

loop_
_symmetry_equiv_pos_as_xyz
'+x,+y,+z'

loop_
_atom_site_label
_atom_site_type_symbol
_atom_site_fract_x
_atom_site_fract_y
_atom_site_fract_z
0	P	0.50011	0.188553	0.232925
0	P	0.529181	0.831244	0.236894
0	P	0.191158	0.5244	0.780226
0	P	0.838151	0.495215	0.780916
0	P	0.998731	0.691672	0.729255
0	P	0.0305898	0.328063	0.729181
0	P	0.696836	0.0249696	0.284363
0	P	0.332551	0.99476	0.284521
0	O	0.59007	0.251347	0.206258
0	O	0.439375	0.76836	0.208991
0	O	0.254635	0.435417	0.807966
0	O	0.774756	0.584091	0.808632
0	O	0.0893646	0.754083	0.705521
0	O	0.939952	0.265606	0.706117
0	O	0.759995	0.935342	0.308402
0	O	0.269419	0.0843234	0.308076
0	O	0.668326	0.17235	0.947476
0	O	0.361114	0.847289	0.94947
0	O	0.175151	0.357937	0.0693984
0	O	0.854015	0.661884	0.0691913
0	O	0.167166	0.675207	0.444249
0	O	0.862179	0.344594	0.445035
0	O	0.68049	0.857617	0.567235
0	O	0.348727	0.162258	0.566511
0	O	0.606587	0.18226	0.908803
0	O	0.422849	0.837315	0.911232
0	O	0.185007	0.419146	0.106818
0	O	0.844134	0.600704	0.107542
0	O	0.105483	0.685371	0.406014
0	O	0.92382	0.334259	0.406445
0	O	0.69081	0.91866	0.607699
0	O	0.338444	0.101218	0.607402
0	N	0.598893	0.125197	0.335586
0	N	0.430367	0.894558	0.337443
0	N	0.127055	0.42668	0.683333
0	N	0.902412	0.592855	0.685098
0	N	0.0966622	0.627614	0.831743
0	N	0.932723	0.392128	0.831558
0	N	0.632409	0.92725	0.182971
0	N	0.39706	0.0924026	0.183188
0	N	0.634127	0.207163	0.153449
0	N	0.39524	0.812448	0.155745
0	N	0.210206	0.391717	0.862642
0	N	0.819074	0.62794	0.862573
0	N	0.133062	0.709655	0.652096
0	N	0.896244	0.310029	0.652643
0	N	0.715461	0.891697	0.361155
0	N	0.313886	0.128066	0.360344
0	C	0.539524	0.200126	0.384311
0	C	0.489707	0.819684	0.387892
0	C	0.202716	0.485197	0.629663
0	C	0.826688	0.534417	0.630218
0	C	0.038182	0.703014	0.880872
0	C	0.991166	0.316719	0.880965
0	C	0.708216	0.985737	0.133366
0	C	0.321221	0.0339679	0.133268
0	H	0.538367	0.230176	0.419909
0	H	0.490876	0.789647	0.423817
0	H	0.233014	0.486337	0.593238
0	H	0.796398	0.533313	0.59356
0	H	0.0372473	0.73305	0.916467
0	H	0.992124	0.286687	0.916597
0	H	0.738521	0.986699	0.0973445
0	H	0.290923	0.033008	0.0971401
0	H	0.536142	0.185968	0.515433
0	H	0.492986	0.833906	0.518897
0	H	0.188279	0.488376	0.498819
0	H	0.841167	0.531226	0.499495
0	H	0.0347194	0.688932	0.012131
0	H	0.994644	0.330811	0.0121914
0	H	0.693923	0.989096	0.00226966
0	H	0.335541	0.0305822	0.0022665
0	C	0.575264	0.190764	0.298683
0	C	0.454007	0.828968	0.301606
0	C	0.19338	0.449894	0.716601
0	C	0.836033	0.569704	0.717305
0	C	0.0738735	0.693479	0.795135
0	C	0.955449	0.326227	0.795401
0	C	0.698722	0.950351	0.219206
0	C	0.33071	0.0693688	0.219027
0	C	0.588388	0.155036	0.316846
0	C	0.44085	0.864686	0.319229
0	C	0.157257	0.436966	0.700329
0	C	0.872164	0.582608	0.701536
0	C	0.0865901	0.657603	0.812923
0	C	0.942746	0.36211	0.812986
0	C	0.662589	0.937509	0.20153
0	C	0.36685	0.0821913	0.201539
0	C	0.59656	0.218609	0.221081
0	C	0.432808	0.80108	0.223762
0	C	0.221596	0.428922	0.794027
0	C	0.807781	0.590649	0.794588
0	C	0.0954969	0.721236	0.719046
0	C	0.933815	0.298454	0.719541
0	C	0.726884	0.929039	0.294869
0	C	0.302523	0.0906717	0.294487
0	C	0.665907	0.221753	0.248461
0	C	0.363468	0.797746	0.250359
0	C	0.224884	0.360238	0.767499
0	C	0.804168	0.659253	0.767049
0	C	0.164797	0.724698	0.745942
0	C	0.864511	0.29496	0.746365
0	C	0.730812	0.86044	0.266537
0	C	0.29839	0.159229	0.265577
0	C	0.689314	0.248107	0.168681
0	C	0.339939	0.771615	0.169702
0	C	0.250656	0.336348	0.84865
0	C	0.77895	0.683575	0.849161
0	C	0.187336	0.751871	0.666745
0	C	0.841962	0.267822	0.666966
0	C	0.758111	0.837981	0.345892
0	C	0.271341	0.18189	0.345556
0	C	0.719058	0.261084	0.2705
0	C	0.310187	0.758558	0.271229
0	C	0.263585	0.306827	0.746601
0	C	0.765884	0.712962	0.746514
0	C	0.2169	0.765354	0.768202
0	C	0.812382	0.254326	0.768268
0	C	0.771765	0.80876	0.24409
0	C	0.257545	0.210997	0.243386
0	H	0.737701	0.281326	0.212907
0	H	0.29142	0.738532	0.212795
0	H	0.283251	0.287744	0.805711
0	H	0.746735	0.732433	0.806579
0	H	0.234878	0.786258	0.711423
0	H	0.794389	0.233466	0.711269
0	H	0.792657	0.790773	0.301292
0	H	0.236846	0.229138	0.301077
0	C	0.725121	0.248832	0.445909
0	C	0.304302	0.770414	0.447421
0	C	0.252097	0.301591	0.569245
0	C	0.776482	0.717511	0.567424
0	C	0.223617	0.752825	0.942576
0	C	0.805681	0.266779	0.942784
0	C	0.75944	0.802422	0.0688908
0	C	0.269437	0.216996	0.0671938
0	H	0.748265	0.259665	0.522779
0	H	0.281156	0.759509	0.524028
0	H	0.262873	0.278613	0.49229
0	H	0.765575	0.740366	0.490018
0	H	0.246564	0.764109	0.0192396
0	H	0.782722	0.255482	0.0193034
0	H	0.770864	0.779752	0.991983
0	H	0.257907	0.23958	0.990042
0	C	0.701505	0.223095	0.522978
0	C	0.328119	0.795832	0.525622
0	C	0.227178	0.325857	0.49033
0	C	0.800627	0.69265	0.487222
0	C	0.200907	0.726226	0.0189745
0	C	0.828426	0.293315	0.0194956
0	C	0.732881	0.825182	0.99195
0	C	0.295671	0.193971	0.989497
0	H	0.706005	0.213533	0.660437
0	H	0.32385	0.804945	0.664008
0	H	0.218417	0.322127	0.350728
0	H	0.80842	0.695679	0.345728
0	H	0.205907	0.716509	0.155537
0	H	0.823456	0.302942	0.156229
0	H	0.723464	0.820576	0.854414
0	H	0.304635	0.198226	0.850896
0	C	0.671893	0.209305	0.424229
0	C	0.357657	0.809799	0.42696
0	C	0.21321	0.355085	0.589617
0	C	0.814927	0.663698	0.587282
0	C	0.171507	0.711902	0.920498
0	C	0.857819	0.307676	0.921087
0	C	0.718242	0.854135	0.0910469
0	C	0.310508	0.165181	0.0890041
0	H	0.653502	0.188962	0.482887
0	H	0.376148	0.829964	0.486395
0	H	0.19334	0.373843	0.529653
0	H	0.834313	0.644562	0.526419
0	H	0.153827	0.690885	0.978605
0	H	0.875514	0.32866	0.979416
0	H	0.697165	0.871775	0.0326724
0	H	0.331375	0.147369	0.030103
0	C	0.68204	0.26076	0.979858
0	C	0.347076	0.75919	0.980378
0	C	0.262949	0.342795	0.0388796
0	C	0.767153	0.677724	0.0405653
0	C	0.179216	0.764935	0.479401
0	C	0.850081	0.254791	0.479562
0	C	0.771193	0.845831	0.533627
0	C	0.258597	0.174385	0.534175
0	H	0.691303	0.238782	0.886467
0	H	0.337478	0.781148	0.887579
0	H	0.240855	0.332589	0.130474
0	H	0.789181	0.68876	0.130512
0	H	0.18698	0.74276	0.384033
0	H	0.842248	0.27695	0.384233
0	H	0.748903	0.837698	0.628683
0	H	0.28089	0.183073	0.628176
0	H	0.651627	0.263125	0.959389
0	H	0.377473	0.757097	0.958791
0	H	0.264661	0.372813	0.0638749
0	H	0.766064	0.647813	0.0690058
0	H	0.148743	0.768344	0.464397
0	H	0.880558	0.251446	0.464413
0	H	0.77429	0.87602	0.550043
0	H	0.255895	0.144216	0.552737
0	C	0.699872	0.296942	0.928202
0	C	0.329513	0.722869	0.928876
0	C	0.299859	0.325684	0.0886238
0	C	0.729942	0.694286	0.0896202
0	C	0.198027	0.800463	0.424972
0	C	0.831343	0.219222	0.425227
0	C	0.807292	0.827524	0.586985
0	C	0.222296	0.192351	0.587179
0	H	0.690082	0.319348	0.0156102
0	H	0.339486	0.700538	0.0162739
0	H	0.322179	0.335969	0.000998624
0	H	0.70782	0.683522	0.0021686
0	H	0.189015	0.823398	0.510999
0	H	0.840382	0.19631	0.511341
0	H	0.83027	0.836688	0.500396
0	H	0.19942	0.182891	0.500707
0	H	0.692933	0.304304	0.788468
0	H	0.336484	0.715543	0.789124
0	H	0.30735	0.332422	0.228428
0	H	0.722524	0.687592	0.229548
0	H	0.19121	0.807734	0.2849
0	H	0.83819	0.21194	0.285196
0	H	0.814733	0.834312	0.726868
0	H	0.214918	0.185574	0.727159
0	H	0.730021	0.29609	0.937254
0	H	0.29936	0.72349	0.938071
0	H	0.299531	0.295829	0.0780169
0	H	0.729753	0.724122	0.0779978
0	H	0.22815	0.798738	0.433047
0	H	0.801215	0.22089	0.43318
0	H	0.80584	0.797676	0.57859
0	H	0.223428	0.222206	0.578298
0	C	0.639604	0.185836	0.00119162
0	C	0.389799	0.833766	0.00339902
0	C	0.188694	0.386378	0.0150242
0	C	0.840507	0.633409	0.0151553
0	C	0.138501	0.688695	0.498611
0	C	0.890813	0.33101	0.499217
0	C	0.694167	0.886068	0.514023
0	C	0.335102	0.133775	0.513421
0	C	0.604388	0.152824	0.776123
0	C	0.425075	0.866663	0.778079
0	C	0.155289	0.421376	0.239513
0	C	0.873792	0.598512	0.240579
0	C	0.103294	0.656425	0.270667
0	C	0.926001	0.36311	0.270584
0	C	0.661349	0.920819	0.741785
0	C	0.367856	0.0990823	0.741745
0	H	0.631759	0.148492	0.714354
0	H	0.397713	0.870973	0.716176
0	H	0.150886	0.394274	0.301378
0	H	0.878306	0.62567	0.301651
0	H	0.130707	0.652257	0.208909
0	H	0.898574	0.367264	0.20897
0	H	0.656824	0.893596	0.802248
0	H	0.372452	0.126338	0.801721
0	H	0.585047	0.16474	0.677186
0	H	0.44442	0.854675	0.679365
0	H	0.167338	0.440541	0.338413
0	H	0.861624	0.579525	0.339966
0	H	0.0840409	0.668753	0.172465
0	H	0.945212	0.350693	0.172452
0	H	0.673732	0.939648	0.841303
0	H	0.35539	0.0803643	0.841529
0	C	0.589579	0.119087	0.868918
0	C	0.439892	0.900451	0.870426
0	C	0.121253	0.436074	0.146702
0	C	0.907783	0.583529	0.148482
0	C	0.0883149	0.62241	0.360305
0	C	0.941038	0.397173	0.359579
0	C	0.62729	0.936039	0.65114
0	C	0.401888	0.0836793	0.651613
0	H	0.609675	0.107782	0.964763
0	H	0.419736	0.911894	0.965557
0	H	0.109491	0.415975	0.0527813
0	H	0.919679	0.603451	0.0540487
0	H	0.108323	0.610703	0.455418
0	H	0.921019	0.409027	0.454183
0	H	0.615464	0.916406	0.555126
0	H	0.413807	0.103187	0.55526
0	H	0.582558	0.0976897	0.771938
0	H	0.447056	0.92174	0.773095
0	H	0.0998451	0.443561	0.243753
0	H	0.929117	0.576058	0.245964
0	H	0.0813055	0.601397	0.261169
0	H	0.94815	0.418065	0.259989
0	H	0.605966	0.943075	0.749521
0	H	0.423159	0.0766504	0.750286
0	H	0.564632	0.125498	0.948622
0	H	0.464746	0.894048	0.950827
0	H	0.127852	0.460475	0.0648856
0	H	0.901097	0.55906	0.0673476
0	H	0.0633225	0.62862	0.44012
0	H	0.965976	0.390969	0.439811
0	H	0.633898	0.960812	0.572088
0	H	0.395223	0.0588601	0.57304
0	C	0.495931	0.221127	0.0370633
0	C	0.533436	0.798653	0.0410523
0	C	0.224008	0.528611	0.976225
0	C	0.805297	0.491055	0.97692
0	C	0.994609	0.724843	0.535889
0	C	0.0347243	0.294847	0.536017
0	C	0.729972	0.02893	0.479191
0	C	0.299365	0.990835	0.479157
0	H	0.467764	0.21731	0.975841
0	H	0.561676	0.802405	0.980505
0	H	0.220314	0.556639	0.0363424
0	H	0.809045	0.463063	0.0373753
0	H	0.965732	0.722835	0.480625
0	H	0.0635971	0.296854	0.480707
0	H	0.727553	0.057367	0.536137
0	H	0.301793	0.962418	0.536354
0	C	0.498975	0.260012	0.107408
0	C	0.530216	0.759772	0.111166
0	C	0.263252	0.525246	0.906245
0	C	0.766048	0.494303	0.906903
0	C	0.000527477	0.76325	0.60775
0	C	0.0288227	0.256455	0.608103
0	C	0.768925	0.0236428	0.408422
0	C	0.260421	0.996062	0.408172
0	H	0.526332	0.266132	0.166873
0	H	0.502748	0.753712	0.169642
0	H	0.269293	0.497974	0.848275
0	H	0.759972	0.521494	0.84811
0	H	0.0289105	0.767844	0.658346
0	H	0.000426646	0.251852	0.658495
0	H	0.773923	0.995679	0.356612
0	H	0.255431	0.0239751	0.355673
0	H	0.477926	0.267254	0.207462
0	H	0.55109	0.752476	0.211993
0	H	0.270677	0.54582	0.804999
0	H	0.758637	0.473592	0.806311
0	H	0.981263	0.771102	0.714868
0	H	0.0480554	0.248648	0.715435
0	H	0.776827	0.0430194	0.30255
0	H	0.252523	0.976576	0.302776
0	H	0.495587	0.279809	0.996376
0	H	0.533728	0.739972	0.000250189
0	H	0.283244	0.528759	0.0171193
0	H	0.746058	0.490908	0.017872
0	H	0.996662	0.783544	0.499328
0	H	0.0327465	0.236131	0.49988
0	H	0.789215	0.0274625	0.517766
0	H	0.240117	0.992353	0.517545
0	C	0.524819	0.213032	0.894557
0	C	0.504715	0.806817	0.897827
0	C	0.215627	0.500277	0.119801
0	C	0.813613	0.519469	0.120223
0	C	0.0216423	0.715333	0.387153
0	C	0.00767823	0.304312	0.387271
0	C	0.720466	0.00159616	0.625737
0	C	0.308819	0.0182238	0.625566
0	H	0.521802	0.232819	0.782184
0	H	0.507682	0.786905	0.785959
0	H	0.235741	0.503193	0.23166
0	H	0.793543	0.516515	0.232231
0	H	0.0211652	0.737194	0.283377
0	H	0.00812793	0.282404	0.283731
0	H	0.742074	0.00248438	0.731742
0	H	0.287203	0.0173283	0.731532
0	H	0.522538	0.185718	0.835606
0	H	0.507271	0.834055	0.838249
0	H	0.188139	0.502985	0.179332
0	H	0.841127	0.516905	0.179572
0	H	0.0145909	0.689921	0.316577
0	H	0.0147486	0.329684	0.316372
0	H	0.694302	0.0075779	0.693677
0	H	0.334988	0.0123104	0.693593
0	H	0.553441	0.2164	0.942663
0	H	0.476029	0.803696	0.94542
0	H	0.218651	0.471821	0.0725899
0	H	0.810452	0.547895	0.0727788
0	H	0.0506005	0.713668	0.431738
0	H	0.978725	0.306019	0.431893
0	H	0.719844	0.972952	0.579625
0	H	0.309391	0.0468545	0.579239
0	C	0.456626	0.193893	0.371453
0	C	0.572658	0.825955	0.375443
0	C	0.196859	0.567249	0.640472
0	C	0.832441	0.452344	0.641392
0	C	0.955039	0.696876	0.866349
0	C	0.0742913	0.322918	0.866233
0	C	0.702551	0.0681834	0.147073
0	C	0.326865	0.951534	0.147296
0	H	0.454599	0.223854	0.408632
0	H	0.574688	0.796004	0.412876
0	H	0.227083	0.568859	0.602189
0	H	0.802214	0.450728	0.603178
0	H	0.952555	0.726893	0.901251
0	H	0.0767944	0.292913	0.901332
0	H	0.732955	0.0705325	0.113946
0	H	0.296462	0.949178	0.11414
0	C	0.422833	0.182992	0.263471
0	C	0.606434	0.836809	0.267178
0	C	0.186416	0.600926	0.748254
0	C	0.842886	0.418687	0.749284
0	C	0.921596	0.685362	0.757115
0	C	0.107718	0.334417	0.756824
0	C	0.690729	0.10145	0.254729
0	C	0.338681	0.918275	0.255006
0	H	0.423844	0.154689	0.211935
0	H	0.605398	0.865071	0.215092
0	H	0.15799	0.600175	0.801747
0	H	0.871305	0.419453	0.802876
0	H	0.923528	0.6574	0.701956
0	H	0.105741	0.362338	0.701222
0	H	0.662219	0.0998256	0.306732
0	H	0.367176	0.919917	0.307184
0	H	0.41672	0.201448	0.149929
0	H	0.61256	0.81827	0.153985
0	H	0.20541	0.606974	0.860361
0	H	0.823876	0.412652	0.861344
0	H	0.91487	0.704213	0.645973
0	H	0.114474	0.315506	0.645978
0	H	0.709277	0.108006	0.367945
0	H	0.320111	0.911711	0.368118
0	H	0.397946	0.183866	0.349788
0	H	0.631329	0.836025	0.353503
0	H	0.187254	0.625477	0.661243
0	H	0.842074	0.39412	0.662381
0	H	0.896723	0.684973	0.843743
0	H	0.132588	0.334899	0.843478
0	H	0.690964	0.126074	0.168008
0	H	0.33848	0.893645	0.168323
0	C	0.459331	0.172069	0.545132
0	C	0.569966	0.847849	0.548897
0	C	0.17456	0.564648	0.467626
0	C	0.854729	0.454932	0.468515
0	C	0.957619	0.675581	0.0415775
0	C	0.0716972	0.344265	0.0413048
0	C	0.681547	0.065467	0.970452
0	C	0.34787	0.954241	0.970669
0	H	0.433524	0.176177	0.623588
0	H	0.595765	0.843752	0.627433
0	H	0.179015	0.590025	0.388049
0	H	0.850366	0.429496	0.389279
0	H	0.932031	0.680489	0.120943
0	H	0.097273	0.339366	0.120802
0	H	0.686255	0.0909427	0.891892
0	H	0.343283	0.928702	0.892454
0	H	0.481911	0.181178	0.632722
0	H	0.547372	0.838801	0.636565
0	H	0.183277	0.542012	0.380517
0	H	0.845931	0.477493	0.381141
0	H	0.980562	0.684472	0.127946
0	H	0.0487343	0.335416	0.127655
0	H	0.691241	0.043009	0.884293
0	H	0.338073	0.976606	0.884201
0	H	0.461553	0.142426	0.523276
0	H	0.567764	0.877488	0.526748
0	H	0.144631	0.562925	0.490548
0	H	0.884655	0.456756	0.491374
0	H	0.959114	0.645844	0.021777
0	H	0.0702299	0.374	0.0212854
0	H	0.651521	0.0633353	0.988204
0	H	0.377883	0.956515	0.988405
0	C	0.506156	0.140548	0.143707
0	C	0.523104	0.879211	0.147197
0	C	0.142681	0.518644	0.86954
0	C	0.886632	0.500941	0.870243
0	C	0.0050155	0.64391	0.637584
0	C	0.024274	0.375799	0.63725
0	C	0.648403	0.019075	0.373938
0	C	0.380956	0.000661949	0.374472
0	H	0.534398	0.139423	0.0775915
0	H	0.494865	0.880277	0.0810151
0	H	0.141468	0.490739	0.936394
0	H	0.88788	0.528846	0.937017
0	H	0.0335752	0.642787	0.57497
0	H	0.995696	0.376898	0.574813
0	H	0.647124	0.990953	0.43872
0	H	0.382219	0.0287975	0.439134
0	C	0.505247	0.112947	0.296693
0	C	0.52397	0.906884	0.299885
0	C	0.114804	0.519454	0.716629
0	C	0.914477	0.500073	0.717182
0	C	0.00302264	0.616009	0.788954
0	C	0.0263005	0.403742	0.788424
0	C	0.620636	0.0204931	0.220666
0	C	0.408772	0.999203	0.221422
0	H	0.478226	0.111786	0.364901
0	H	0.550941	0.908031	0.368529
0	H	0.113698	0.546147	0.6477
0	H	0.915601	0.473328	0.648736
0	H	0.975362	0.614407	0.850512
0	H	0.0539506	0.405315	0.850111
0	H	0.619838	0.0473383	0.153181
0	H	0.409644	0.972309	0.154446
0	H	0.526696	0.117431	0.398397
0	H	0.50244	0.902486	0.401268
0	H	0.119258	0.498084	0.61548
0	H	0.90996	0.521359	0.615672
0	H	0.0234673	0.6205	0.895431
0	H	0.00582635	0.399319	0.894834
0	H	0.624944	0.999254	0.118645
0	H	0.404447	0.0203563	0.118987
0	H	0.510114	0.0852462	0.244152
0	H	0.519181	0.934563	0.246899
0	H	0.0868379	0.514748	0.769391
0	H	0.942448	0.504858	0.769692
0	H	0.00859595	0.588445	0.736257
0	H	0.0207816	0.431296	0.735486
0	H	0.592567	0.0160191	0.272699
0	H	0.436816	0.00377844	0.273584
0	C	0.476876	0.131972	0.00344148
0	C	0.552376	0.887748	0.00682441
0	C	0.134165	0.547831	0.00909624
0	C	0.895136	0.471762	0.00985441
0	C	0.976554	0.635931	0.49255
0	C	0.0526944	0.383738	0.491966
0	C	0.63994	0.0477808	0.515985
0	C	0.389359	0.971987	0.516735
0	H	0.481123	0.104366	0.94886
0	H	0.548092	0.915309	0.951796
0	H	0.106178	0.543984	0.0628322
0	H	0.9231	0.475642	0.063809
0	H	0.980743	0.608325	0.437875
0	H	0.0484538	0.411304	0.43691
0	H	0.612153	0.0434663	0.571328
0	H	0.417127	0.976303	0.572306
0	H	0.476787	0.150696	0.8886
0	H	0.55249	0.868946	0.892279
0	H	0.152918	0.547748	0.124525
0	H	0.876346	0.471818	0.125126
0	H	0.977696	0.654895	0.37848
0	H	0.0515611	0.364704	0.378176
0	H	0.65908	0.0475496	0.630047
0	H	0.370178	0.972252	0.63063
0	H	0.448601	0.131292	0.0608732
0	H	0.58065	0.888495	0.0642494
0	H	0.133912	0.575824	0.951331
0	H	0.895436	0.443772	0.952073
0	H	0.947933	0.635623	0.54549
0	H	0.0813241	0.384112	0.544798
0	H	0.639196	0.0759042	0.459918
0	H	0.390111	0.943849	0.460867
0	P	0.840002	0.933394	0.999273
0	P	0.189386	0.0863528	0.999123
0	P	0.93747	0.186407	0.0152197
0	P	0.0918848	0.833278	0.0148979
0	P	0.334863	0.434223	0.503686
0	P	0.694606	0.585558	0.50453
0	P	0.438405	0.688553	0.512781
0	P	0.591032	0.33111	0.511217
0	O	0.77332	0.0198741	0.961642
0	O	0.256063	0.999852	0.961603
0	O	0.0248679	0.252011	0.0539562
0	O	0.00446085	0.76771	0.0537039
0	O	0.269079	0.521604	0.469279
0	O	0.760298	0.498116	0.470207
0	O	0.52636	0.753981	0.548267
0	O	0.502978	0.265728	0.545497
0	O	0.84738	0.100318	0.690933
0	O	0.181928	0.919497	0.69064
0	O	0.105879	0.179542	0.32849
0	O	0.923544	0.840235	0.328601
0	O	0.347149	0.601002	0.209478
0	O	0.682047	0.418808	0.210915
0	O	0.606743	0.676716	0.806851
0	O	0.422698	0.343138	0.804127
0	O	0.842173	0.038369	0.663573
0	O	0.187145	0.981454	0.66358
0	O	0.0432648	0.184365	0.353095
0	O	0.986154	0.835351	0.352854
0	O	0.339047	0.539582	0.171927
0	O	0.690219	0.480216	0.17321
0	O	0.544707	0.684487	0.844423
0	O	0.484697	0.335195	0.842025
0	N	0.89969	0.0353172	0.0943942
0	N	0.129716	0.984388	0.0950087
0	N	0.039854	0.126672	0.92258
0	N	0.989573	0.893104	0.922646
0	N	0.395472	0.536048	0.603605
0	N	0.633945	0.483725	0.60515
0	N	0.541403	0.628948	0.411504
0	N	0.488194	0.390849	0.409748
0	N	0.815662	0.0653517	0.905361
0	N	0.213694	0.954417	0.905116
0	N	0.0706618	0.209916	0.110029
0	N	0.95869	0.809826	0.109934
0	N	0.312089	0.566493	0.41299
0	N	0.717237	0.453282	0.414044
0	N	0.571796	0.711488	0.603964
0	N	0.457596	0.30828	0.601365
0	C	0.82711	0.972817	0.145792
0	C	0.202286	0.046941	0.145703
0	C	0.977355	0.198996	0.869009
0	C	0.0519824	0.820715	0.868739
0	C	0.322678	0.473691	0.651434
0	C	0.706752	0.546103	0.652415
0	C	0.478178	0.70083	0.364993
0	C	0.5513	0.318852	0.36313
0	H	0.796999	0.970722	0.183381
0	H	0.232402	0.049028	0.183251
0	H	0.975427	0.228845	0.831507
0	H	0.0538954	0.790865	0.831209
0	H	0.292625	0.47188	0.690529
0	H	0.736807	0.547877	0.691553
0	H	0.476234	0.730607	0.326125
0	H	0.553234	0.289069	0.324391
0	H	0.84199	0.970792	0.276243
0	H	0.187414	0.0489838	0.276162
0	H	0.975316	0.184297	0.73844
0	H	0.0540187	0.835419	0.738162
0	H	0.337868	0.471329	0.780934
0	H	0.691561	0.548506	0.781895
0	H	0.475832	0.685819	0.235375
0	H	0.553707	0.33384	0.233463
0	C	0.83497	0.0081879	0.0555245
0	C	0.194416	0.0115585	0.0555569
0	C	0.0128961	0.19099	0.959968
0	C	0.016442	0.828732	0.959711
0	C	0.330686	0.509143	0.562439
0	C	0.698713	0.510647	0.563568
0	C	0.513985	0.692979	0.45394
0	C	0.515461	0.326739	0.451709
0	C	0.870398	0.0230282	0.0741531
0	C	0.15902	0.996719	0.0744386
0	C	0.0276496	0.15579	0.942118
0	C	0.00171959	0.863931	0.942012
0	C	0.366172	0.523809	0.582387
0	C	0.663223	0.495986	0.583738
0	C	0.528922	0.65789	0.433336
0	C	0.500589	0.361861	0.431309
0	C	0.806151	0.0277684	0.975804
0	C	0.22322	0.991974	0.975754
0	C	0.0327315	0.219462	0.0398394
0	C	0.996607	0.800263	0.0395969
0	C	0.302027	0.529142	0.483394
0	C	0.727339	0.490618	0.484439
0	C	0.534066	0.721382	0.533574
0	C	0.495319	0.298344	0.531012
0	C	0.800666	0.0959922	0.00578619
0	C	0.228622	0.923744	0.00555427
0	C	0.101437	0.224898	0.00898203
0	C	0.927892	0.794835	0.0091211
0	C	0.296878	0.597774	0.508081
0	C	0.732422	0.42198	0.50905
0	C	0.603319	0.726568	0.508494
0	C	0.426063	0.293247	0.505845
0	C	0.773709	0.119593	0.932103
0	C	0.255728	0.900256	0.932299
0	C	0.125221	0.251735	0.0817016
0	C	0.904079	0.768061	0.0821583
0	C	0.268199	0.619105	0.432908
0	C	0.761176	0.40073	0.434015
0	C	0.624701	0.755181	0.582879
0	C	0.404653	0.264648	0.580136
0	C	0.759463	0.147176	0.0430081
0	C	0.269907	0.872641	0.0432033
0	C	0.152779	0.266006	0.969581
0	C	0.876484	0.753789	0.970276
0	C	0.253962	0.647815	0.536456
0	C	0.775386	0.371977	0.53735
0	C	0.653572	0.769349	0.478831
0	C	0.375757	0.250532	0.476097
0	H	0.738033	0.165506	0.991628
0	H	0.291445	0.85439	0.992218
0	H	0.171292	0.287271	0.0203436
0	H	0.857936	0.73258	0.0213006
0	H	0.231132	0.664402	0.484548
0	H	0.798249	0.35543	0.485518
0	H	0.670184	0.792111	0.529994
0	H	0.359109	0.227797	0.527252
0	C	0.771313	0.151133	0.220611
0	C	0.257829	0.868537	0.220367
0	C	0.156428	0.254419	0.791573
0	C	0.872842	0.765292	0.792127
0	C	0.267874	0.65534	0.707651
0	C	0.761388	0.364352	0.708265
0	C	0.661229	0.75541	0.307996
0	C	0.368123	0.264483	0.305263
0	H	0.759415	0.172569	0.30423
0	H	0.26967	0.847073	0.304
0	H	0.177782	0.266407	0.706891
0	H	0.85146	0.753304	0.707643
0	H	0.256095	0.677721	0.785502
0	H	0.773151	0.341942	0.785992
0	H	0.683724	0.76713	0.229708
0	H	0.345606	0.252805	0.226992
0	C	0.797911	0.127557	0.291343
0	C	0.231051	0.891972	0.290609
0	C	0.132628	0.227973	0.721748
0	C	0.896693	0.791653	0.721918
0	C	0.296425	0.634235	0.779069
0	C	0.732762	0.385377	0.779551
0	C	0.640115	0.726899	0.237482
0	C	0.389287	0.292961	0.234745
0	H	0.806937	0.130226	0.431222
0	H	0.221812	0.889168	0.430047
0	H	0.135007	0.219163	0.58144
0	H	0.894334	0.800379	0.581457
0	H	0.307309	0.640026	0.912722
0	H	0.721809	0.379503	0.912961
0	H	0.646022	0.715982	0.104169
0	H	0.383413	0.303878	0.101399
0	C	0.812888	0.100126	0.183669
0	C	0.216159	0.919449	0.182931
0	C	0.105322	0.212865	0.830795
0	C	0.924016	0.806786	0.830788
0	C	0.311029	0.605342	0.679446
0	C	0.718167	0.414295	0.680067
0	C	0.611039	0.712381	0.337565
0	C	0.418368	0.307448	0.334916
0	H	0.833806	0.0817081	0.237694
0	H	0.195113	0.937769	0.236573
0	H	0.0867512	0.192044	0.777509
0	H	0.942614	0.827555	0.777232
0	H	0.333226	0.588615	0.734467
0	H	0.695901	0.430958	0.734946
0	H	0.594283	0.690227	0.28321
0	H	0.435153	0.329588	0.280607
0	C	0.761336	0.114723	0.740877
0	C	0.268281	0.905295	0.741445
0	C	0.12046	0.26408	0.272852
0	C	0.908849	0.755769	0.273376
0	C	0.254386	0.610491	0.247196
0	C	0.775114	0.409513	0.248708
0	C	0.615896	0.769035	0.768165
0	C	0.413448	0.250735	0.765324
0	H	0.783944	0.124614	0.651042
0	H	0.245644	0.895746	0.650988
0	H	0.130597	0.241778	0.36288
0	H	0.898745	0.778105	0.363318
0	H	0.276963	0.616588	0.150145
0	H	0.75254	0.403705	0.151251
0	H	0.621685	0.746654	0.865664
0	H	0.407669	0.273083	0.86301
0	H	0.758605	0.0849312	0.711582
0	H	0.271312	0.935108	0.713331
0	H	0.0904032	0.266727	0.302827
0	H	0.938904	0.753089	0.303303
0	H	0.249672	0.580404	0.236878
0	H	0.780021	0.439587	0.239548
0	H	0.585552	0.773982	0.777333
0	H	0.44379	0.245764	0.774466
0	C	0.725263	0.133599	0.692488
0	C	0.304192	0.886136	0.692818
0	C	0.139431	0.299912	0.320144
0	C	0.889827	0.719975	0.32094
0	C	0.219475	0.630568	0.190758
0	C	0.809908	0.389285	0.191898
0	C	0.636443	0.803432	0.824978
0	C	0.39288	0.216328	0.821779
0	H	0.702538	0.124994	0.782251
0	H	0.326972	0.89444	0.782933
0	H	0.13042	0.322386	0.23076
0	H	0.89873	0.697482	0.231435
0	H	0.196096	0.624159	0.28085
0	H	0.833295	0.395401	0.282477
0	H	0.630631	0.826546	0.733534
0	H	0.398683	0.193242	0.730148
0	H	0.717134	0.127398	0.553115
0	H	0.312417	0.892407	0.553647
0	H	0.133448	0.307966	0.459775
0	H	0.895882	0.711904	0.460476
0	H	0.211466	0.623312	0.0524609
0	H	0.818032	0.396703	0.0539673
0	H	0.628716	0.81171	0.962299
0	H	0.400598	0.207992	0.959027
0	H	0.727006	0.163444	0.704567
0	H	0.302138	0.856308	0.704038
0	H	0.169525	0.298352	0.306351
0	H	0.859744	0.721631	0.307727
0	H	0.222851	0.660365	0.194884
0	H	0.806324	0.359511	0.19487
0	H	0.666463	0.799612	0.82392
0	H	0.362862	0.220153	0.820722
0	C	0.836291	0.0713014	0.750859
0	C	0.193037	0.948503	0.750699
0	C	0.0766198	0.190137	0.266567
0	C	0.952778	0.829605	0.266518
0	C	0.334203	0.572245	0.26296
0	C	0.695053	0.44755	0.264251
0	C	0.577671	0.689472	0.753525
0	C	0.451743	0.330298	0.750943
0	C	0.87285	0.0369587	0.535181
0	C	0.156424	0.982896	0.535473
0	C	0.0416291	0.154133	0.482243
0	C	0.987821	0.86554	0.482264
0	C	0.370044	0.537723	0.0455103
0	C	0.659204	0.482067	0.0468969
0	C	0.542924	0.653638	0.970021
0	C	0.486484	0.365961	0.968149
0	H	0.862081	0.0172786	0.435258
0	H	0.167132	0.00265097	0.435754
0	H	0.0218854	0.165058	0.582162
0	H	0.00755703	0.854566	0.582093
0	H	0.359011	0.518631	0.943605
0	H	0.670189	0.501219	0.945132
0	H	0.523486	0.664345	0.0717485
0	H	0.505873	0.35516	0.0698552
0	H	0.876655	0.064116	0.472976
0	H	0.152647	0.955773	0.472892
0	H	0.0690273	0.150171	0.544288
0	H	0.960428	0.869503	0.544358
0	H	0.374704	0.564941	0.985291
0	H	0.6546	0.454861	0.986445
0	H	0.570378	0.649147	0.0307046
0	H	0.459017	0.37045	0.0286745
0	C	0.906645	0.0235048	0.6338
0	C	0.122635	0.996233	0.634514
0	C	0.0276809	0.120702	0.384427
0	C	0.0017901	0.898987	0.384653
0	C	0.403284	0.523175	0.144914
0	C	0.625938	0.496502	0.146489
0	C	0.528547	0.620701	0.86964
0	C	0.500933	0.398943	0.868356
0	H	0.917341	0.0439496	0.72882
0	H	0.111997	0.975709	0.729251
0	H	0.048179	0.10978	0.28964
0	H	0.981255	0.910006	0.290327
0	H	0.414217	0.5431	0.242077
0	H	0.615055	0.476507	0.243433
0	H	0.548762	0.610158	0.77223
0	H	0.480724	0.409622	0.771284
0	H	0.929016	0.0167341	0.540282
0	H	0.100226	0.00303347	0.541282
0	H	0.0205554	0.0987169	0.478435
0	H	0.00903709	0.920904	0.478824
0	H	0.425726	0.516222	0.0520594
0	H	0.603473	0.503441	0.0537367
0	H	0.521713	0.598297	0.961817
0	H	0.507862	0.421247	0.960963
0	H	0.900578	0.998848	0.714761
0	H	0.128688	0.0208438	0.715849
0	H	0.00289968	0.126911	0.303278
0	H	0.0264983	0.892755	0.303013
0	H	0.396492	0.498439	0.223707
0	H	0.632679	0.521216	0.225551
0	H	0.503526	0.627302	0.790974
0	H	0.52591	0.392331	0.789379
0	C	0.88883	0.939238	0.916287
0	C	0.140549	0.0804958	0.916315
0	C	0.94315	0.137979	0.0977528
0	C	0.086221	0.881696	0.0975986
0	C	0.383992	0.438758	0.423
0	C	0.645444	0.581039	0.42433
0	C	0.443178	0.639863	0.593005
0	C	0.586244	0.379777	0.591773
0	H	0.890223	0.966528	0.843687
0	H	0.139146	0.0531831	0.843914
0	H	0.970662	0.136485	0.170625
0	H	0.0586876	0.883197	0.170285
0	H	0.386285	0.466118	0.351465
0	H	0.643089	0.553638	0.353233
0	H	0.47081	0.637657	0.664445
0	H	0.558567	0.381973	0.662823
0	C	0.915461	0.940206	0.0742326
0	C	0.113931	0.0795609	0.074313
0	C	0.9441	0.111672	0.93951
0	C	0.0853351	0.908032	0.939452
0	C	0.410524	0.438687	0.58141
0	C	0.618999	0.58123	0.583087
0	C	0.443187	0.613643	0.434343
0	C	0.586348	0.406057	0.433342
0	H	0.915574	0.914778	0.154134
0	H	0.113862	0.104978	0.154282
0	H	0.918391	0.111542	0.859839
0	H	0.111038	0.908118	0.85973
0	H	0.409442	0.413361	0.662181
0	H	0.620225	0.60655	0.663863
0	H	0.417613	0.61466	0.353572
0	H	0.611954	0.405033	0.352792
0	H	0.911277	0.963409	0.165034
0	H	0.118092	0.0563394	0.165029
0	H	0.967459	0.115912	0.84842
0	H	0.0619578	0.90386	0.848403
0	H	0.407266	0.462231	0.671081
0	H	0.622212	0.557672	0.672709
0	H	0.46693	0.616981	0.344634
0	H	0.562634	0.402788	0.34339
0	H	0.944082	0.94289	0.0237318
0	H	0.085301	0.0769181	0.0238801
0	H	0.946945	0.0833072	0.98966
0	H	0.0825569	0.936392	0.989741
0	H	0.439269	0.440016	0.531354
0	H	0.590221	0.580018	0.533425
0	H	0.444606	0.585144	0.484012
0	H	0.584947	0.434536	0.483301
0	C	0.898803	0.908946	0.784876
0	C	0.130559	0.110748	0.784704
0	C	0.912496	0.128105	0.228755
0	C	0.116843	0.891518	0.228871
0	C	0.393107	0.408342	0.290776
0	C	0.636295	0.611378	0.291749
0	C	0.412512	0.630654	0.725137
0	C	0.616831	0.388922	0.724447
0	H	0.92789	0.912125	0.74284
0	H	0.101455	0.107577	0.742941
0	H	0.915531	0.0992167	0.269857
0	H	0.113809	0.920392	0.270212
0	H	0.422359	0.410568	0.249883
0	H	0.607031	0.609123	0.251069
0	H	0.414886	0.601674	0.765796
0	H	0.61442	0.417875	0.765528
0	H	0.882263	0.908943	0.661738
0	H	0.147057	0.110692	0.661432
0	H	0.912613	0.144307	0.352494
0	H	0.11669	0.875271	0.352465
0	H	0.376806	0.409137	0.166928
0	H	0.652566	0.610521	0.167813
0	H	0.41323	0.646767	0.849105
0	H	0.616057	0.372726	0.848145
0	H	0.897515	0.881368	0.845087
0	H	0.131889	0.138345	0.844675
0	H	0.88467	0.129667	0.168589
0	H	0.144681	0.889962	0.168826
0	H	0.390722	0.38074	0.34988
0	H	0.638689	0.639011	0.350519
0	H	0.384643	0.632916	0.665997
0	H	0.644731	0.386709	0.665581
0	C	0.833587	0.890722	0.140104
0	C	0.195823	0.129038	0.139832
0	C	0.894554	0.192967	0.873607
0	C	0.13479	0.82672	0.873213
0	C	0.326749	0.391436	0.641703
0	C	0.702802	0.628387	0.642177
0	C	0.395192	0.696388	0.374707
0	C	0.634278	0.323321	0.373346
0	H	0.803543	0.890053	0.181398
0	H	0.225877	0.12973	0.180909
0	H	0.893964	0.222769	0.832948
0	H	0.135379	0.796919	0.83256
0	H	0.296687	0.391904	0.683079
0	H	0.732884	0.627926	0.683175
0	H	0.395503	0.726167	0.333291
0	H	0.634012	0.293544	0.331931
0	C	0.85686	0.892336	0.309979
0	C	0.172604	0.127414	0.309876
0	C	0.896421	0.170054	0.703338
0	C	0.13292	0.849631	0.702934
0	C	0.350071	0.391574	0.8116
0	C	0.679581	0.628327	0.812404
0	C	0.395494	0.673271	0.204877
0	C	0.633958	0.346446	0.203543
0	H	0.851144	0.867885	0.393883
0	H	0.178415	0.151811	0.394006
0	H	0.872035	0.17601	0.618033
0	H	0.157265	0.843623	0.617442
0	H	0.342873	0.367488	0.895141
0	H	0.686938	0.652369	0.895953
0	H	0.37113	0.680217	0.121297
0	H	0.658311	0.339511	0.119886
0	H	0.851137	0.916203	0.395086
0	H	0.178291	0.103498	0.394689
0	H	0.920777	0.17561	0.619715
0	H	0.108525	0.844124	0.619496
0	H	0.345742	0.415646	0.896834
0	H	0.683856	0.604229	0.897506
0	H	0.419759	0.677703	0.119614
0	H	0.609681	0.34202	0.118359
0	H	0.886893	0.890796	0.282998
0	H	0.142567	0.129029	0.283122
0	H	0.894629	0.140274	0.729681
0	H	0.134778	0.879408	0.729277
0	H	0.380002	0.388481	0.784259
0	H	0.649648	0.631545	0.785481
0	H	0.392554	0.643599	0.23221
0	H	0.636898	0.376118	0.230971
0	C	0.842441	0.856835	0.0298944
0	C	0.186908	0.162906	0.029603
0	C	0.860203	0.18412	0.982546
0	C	0.169141	0.835563	0.982178
0	C	0.334176	0.357514	0.529214
0	C	0.695317	0.662264	0.529451
0	C	0.36098	0.688847	0.487115
0	C	0.66846	0.330898	0.485927
0	H	0.871256	0.85604	0.981276
0	H	0.158085	0.163665	0.981112
0	H	0.859273	0.155502	0.0301284
0	H	0.170037	0.864154	0.0301467
0	H	0.363111	0.355437	0.483078
0	H	0.666393	0.664262	0.483062
0	H	0.359039	0.660178	0.533356
0	H	0.670343	0.359558	0.532365
0	H	0.823981	0.852572	0.913842
0	H	0.205346	0.167186	0.913473
0	H	0.855838	0.20225	0.099178
0	H	0.173546	0.817374	0.0985416
0	H	0.315951	0.354549	0.411394
0	H	0.713583	0.665254	0.411796
0	H	0.357872	0.706904	0.604883
0	H	0.671582	0.312817	0.60359
0	H	0.839513	0.83217	0.113922
0	H	0.18982	0.187575	0.113621
0	H	0.835409	0.187242	0.898032
0	H	0.193927	0.832525	0.897539
0	H	0.329587	0.332782	0.610978
0	H	0.699809	0.687025	0.611152
0	H	0.335993	0.693232	0.40531
0	H	0.693464	0.326582	0.404161
0	C	0.80767	0.927769	0.801763
0	C	0.221687	0.0919418	0.801464
0	C	0.931943	0.218436	0.212853
0	C	0.097422	0.801216	0.212384
0	C	0.30305	0.429709	0.30342
0	C	0.726385	0.589989	0.30408
0	C	0.433744	0.720043	0.713094
0	C	0.595668	0.29956	0.711292
0	H	0.81127	0.899124	0.749248
0	H	0.218086	0.120573	0.748806
0	H	0.903001	0.215038	0.265254
0	H	0.126375	0.804583	0.264689
0	H	0.306705	0.401304	0.247966
0	H	0.722756	0.618384	0.2485
0	H	0.405098	0.716294	0.768665
0	H	0.624311	0.303277	0.76695
0	C	0.81687	0.954299	0.651312
0	C	0.212461	0.0653768	0.651213
0	C	0.958653	0.209112	0.363312
0	C	0.0707449	0.810537	0.362986
0	C	0.312769	0.456918	0.156678
0	C	0.716644	0.56276	0.157482
0	C	0.461285	0.71055	0.859722
0	C	0.568119	0.309038	0.85791
0	H	0.795044	0.953069	0.546934
0	H	0.234205	0.0666716	0.546448
0	H	0.957754	0.230845	0.467245
0	H	0.0715789	0.788741	0.466607
0	H	0.292022	0.45522	0.047544
0	H	0.737349	0.564485	0.0481577
0	H	0.45947	0.731082	0.968912
0	H	0.569905	0.288475	0.966971
0	H	0.842831	0.947685	0.582425
0	H	0.186419	0.0718857	0.582826
0	H	0.951642	0.183547	0.432866
0	H	0.077855	0.836035	0.432937
0	H	0.33965	0.451616	0.0942156
0	H	0.689727	0.568009	0.0953031
0	H	0.456102	0.683874	0.92204
0	H	0.573326	0.335691	0.920439
0	H	0.817937	0.983144	0.694111
0	H	0.211523	0.0365295	0.694089
0	H	0.987744	0.207642	0.320388
0	H	0.041657	0.812127	0.320134
0	H	0.31239	0.485673	0.201726
0	H	0.717087	0.534008	0.202553
0	H	0.490303	0.711096	0.814592
0	H	0.539106	0.308535	0.812711
0	C	0.768258	0.932154	0.868358
0	C	0.261098	0.0875442	0.868029
0	C	0.936653	0.257476	0.146676
0	C	0.0926695	0.762189	0.146115
0	C	0.263486	0.43399	0.36789
0	C	0.765945	0.585661	0.368547
0	C	0.437874	0.759254	0.648536
0	C	0.591521	0.260368	0.646489
0	H	0.762309	0.960126	0.917592
0	H	0.267052	0.0595514	0.916979
0	H	0.964974	0.263223	0.098152
0	H	0.0643192	0.756466	0.0979449
0	H	0.257544	0.461828	0.419319
0	H	0.771872	0.557783	0.419518
0	H	0.46594	0.765267	0.597039
0	H	0.563412	0.254359	0.595592
0	H	0.760574	0.912923	0.975263
0	H	0.268771	0.106729	0.975165
0	H	0.917397	0.265261	0.0394181
0	H	0.111859	0.754413	0.0385527
0	H	0.255443	0.414438	0.472739
0	H	0.77397	0.60513	0.473796
0	H	0.41809	0.767134	0.543718
0	H	0.611208	0.252529	0.541163
0	H	0.748518	0.927463	0.757801
0	H	0.280837	0.092286	0.75751
0	H	0.931959	0.277024	0.257329
0	H	0.0974166	0.742616	0.256599
0	H	0.244028	0.429731	0.255741
0	H	0.785406	0.589998	0.25648
0	H	0.433492	0.778521	0.76065
0	H	0.596027	0.241064	0.758335
