#******************************************
#
# CIF file created by Zeo++
# Zeo++ is an open source package to
# analyze microporous materials
#
#*******************************************

_cell_length_a		25.7589(0)
_cell_length_b		18.7588(0)
_cell_length_c		19.8412(0)
_cell_angle_alpha		90(0)
_cell_angle_beta		104.132(0)
_cell_angle_gamma		90(0)

_symmetry_space_group_name_H-M		'P1'
_symmetry_Int_Tables_number		1
_symmetry_cell_setting		Monoclinic

loop_
_symmetry_equiv_pos_as_xyz
'+x,+y,+z'

loop_
_atom_site_label
_atom_site_type_symbol
_atom_site_fract_x
_atom_site_fract_y
_atom_site_fract_z
0	C	0.160504	0.580001	0.00579248
0	C	0.854335	0.0804141	0.482032
0	C	0.854219	0.406734	0.981364
0	C	0.161133	0.907871	0.505247
0	C	0.139679	0.56009	0.934951
0	C	0.875398	0.059437	0.552509
0	C	0.875117	0.426864	0.0521373
0	C	0.14012	0.928677	0.434713
0	C	0.179932	0.520958	0.912884
0	C	0.835354	0.0195258	0.574238
0	C	0.83491	0.466139	0.0741633
0	C	0.180159	0.968606	0.412991
0	C	0.225442	0.518225	0.969586
0	C	0.789696	0.0174759	0.517698
0	C	0.78938	0.468788	0.0174921
0	C	0.225767	0.970822	0.469599
0	C	0.277558	0.483745	0.983238
0	C	0.737595	0.98291	0.504031
0	C	0.737324	0.503432	0.00381904
0	C	0.277884	0.00533397	0.48325
0	C	0.320074	0.48617	0.944478
0	C	0.695248	0.985625	0.543052
0	C	0.694806	0.501158	0.0425838
0	C	0.320264	0.00245297	0.444293
0	C	0.36467	0.455552	0.986964
0	C	0.650576	0.954888	0.500898
0	C	0.650253	0.531841	9.33627e-05
0	C	0.364962	0.0331195	0.486486
0	C	0.35051	0.432863	0.0523727
0	C	0.664527	0.931738	0.43547
0	C	0.66445	0.554466	0.934684
0	C	0.350987	0.0563733	0.551868
0	C	0.380062	0.407401	0.114387
0	C	0.634821	0.905414	0.373902
0	C	0.634932	0.579987	0.87268
0	C	0.3807	0.0825734	0.613489
0	C	0.35795	0.388176	0.172684
0	C	0.656642	0.885425	0.315565
0	C	0.657059	0.599224	0.814402
0	C	0.358854	0.10257	0.671806
0	C	0.383301	0.369609	0.242755
0	C	0.631038	0.866242	0.245747
0	C	0.631716	0.617731	0.744317
0	C	0.384437	0.121666	0.741663
0	C	0.342748	0.358944	0.278961
0	C	0.671401	0.854816	0.209379
0	C	0.672278	0.628472	0.708139
0	C	0.344051	0.133031	0.778003
0	C	0.292574	0.370497	0.231148
0	C	0.721695	0.866559	0.256853
0	C	0.722451	0.617027	0.755994
0	C	0.293773	0.121336	0.730491
0	C	0.238776	0.36879	0.241824
0	C	0.775371	0.864481	0.245773
0	C	0.776244	0.618832	0.745311
0	C	0.240083	0.123317	0.741544
0	C	0.188018	0.353039	0.188508
0	C	0.826088	0.847535	0.298667
0	C	0.827013	0.634619	0.798602
0	C	0.189363	0.140145	0.688598
0	C	0.14763	0.35482	0.222289
0	C	0.866277	0.848938	0.264538
0	C	0.867372	0.632877	0.764777
0	C	0.149151	0.138659	0.722674
0	C	0.171771	0.374757	0.29628
0	C	0.842143	0.870377	0.190946
0	C	0.843211	0.612955	0.690789
0	C	0.173272	0.117259	0.79628
0	C	0.148749	0.388382	0.349848
0	C	0.865235	0.884978	0.137637
0	C	0.866204	0.599322	0.637196
0	C	0.150136	0.102566	0.849537
0	C	0.176638	0.419065	0.416166
0	C	0.837738	0.917478	0.0720167
0	C	0.838317	0.568613	0.570895
0	C	0.177614	0.0700452	0.915159
0	C	0.160829	0.431308	0.479176
0	C	0.853858	0.930914	0.00943257
0	C	0.854165	0.556225	0.507934
0	C	0.161462	0.0566264	0.977718
0	C	0.20308	0.468212	0.525738
0	C	0.812122	0.969415	0.963573
0	C	0.811932	0.519281	0.461399
0	C	0.203176	0.0180994	0.0236043
0	C	0.24412	0.479435	0.490803
0	C	0.771002	0.980172	0.998495
0	C	0.770843	0.508202	0.496289
0	C	0.244304	0.00731422	0.988709
0	C	0.294233	0.518771	0.504798
0	C	0.721002	0.0198446	0.984503
0	C	0.720722	0.468889	0.482309
0	C	0.294279	0.967576	0.00274206
0	C	0.340211	0.520371	0.566881
0	C	0.6753	0.0216626	0.922075
0	C	0.674784	0.46725	0.420183
0	C	0.339972	0.965737	0.0651922
0	C	0.37995	0.55863	0.548304
0	C	0.635549	0.0603962	0.940096
0	C	0.635026	0.428984	0.438709
0	C	0.379684	0.92689	0.0472131
0	C	0.359592	0.581025	0.474224
0	C	0.65562	0.0828565	0.0142405
0	C	0.655342	0.406591	0.512797
0	C	0.359622	0.90444	0.97307
0	C	0.383714	0.613075	0.428247
0	C	0.631333	0.115474	0.0597422
0	C	0.631202	0.374426	0.558688
0	C	0.383899	0.871803	0.927564
0	C	0.35757	0.627399	0.355763
0	C	0.657223	0.13016	0.132269
0	C	0.657309	0.360047	0.631181
0	C	0.358017	0.857203	0.855023
0	C	0.379478	0.642747	0.298027
0	C	0.635146	0.146009	0.189751
0	C	0.635357	0.344651	0.688867
0	C	0.380092	0.841323	0.797545
0	C	0.336546	0.646462	0.237542
0	C	0.677932	0.149713	0.250437
0	C	0.678263	0.340841	0.749379
0	C	0.337326	0.837765	0.736835
0	C	0.288238	0.635273	0.258445
0	C	0.726324	0.138024	0.229892
0	C	0.726591	0.352033	0.728534
0	C	0.288942	0.849588	0.757358
0	C	0.233186	0.633411	0.217518
0	C	0.781354	0.135917	0.270948
0	C	0.781632	0.353776	0.769524
0	C	0.233933	0.851869	0.716259
0	C	0.183992	0.64547	0.243467
0	C	0.830544	0.147901	0.244967
0	C	0.830846	0.341742	0.743615
0	C	0.184703	0.839747	0.742122
0	C	0.141334	0.641372	0.186816
0	C	0.873232	0.143818	0.301576
0	C	0.87347	0.34563	0.800317
0	C	0.142071	0.843895	0.685462
0	C	0.162415	0.62471	0.124802
0	C	0.85217	0.126806	0.363524
0	C	0.852347	0.362177	0.862316
0	C	0.163198	0.861165	0.62362
0	C	0.13619	0.612365	0.0572897
0	C	0.87851	0.113669	0.430847
0	C	0.87854	0.374383	0.929881
0	C	0.13692	0.874418	0.556294
0	C	0.08598	0.576765	0.89082
0	C	0.929158	0.0759447	0.596573
0	C	0.928833	0.410239	0.0962521
0	C	0.0864267	0.911958	0.390595
0	H	0.084175	0.569683	0.83522
0	H	0.93104	0.0686406	0.652143
0	H	0.930701	0.417559	0.15184
0	H	0.0844881	0.919631	0.335054
0	H	0.0743207	0.632206	0.897835
0	H	0.940858	0.131402	0.589724
0	H	0.940436	0.354738	0.0894073
0	H	0.0749898	0.856331	0.397187
0	H	0.055078	0.54213	0.903107
0	H	0.959987	0.0413674	0.584017
0	H	0.959737	0.444743	0.0837838
0	H	0.0554349	0.94611	0.403326
0	C	0.175368	0.486427	0.844314
0	C	0.840204	0.983843	0.642342
0	C	0.839506	0.500842	0.142663
0	C	0.175321	0.0041137	0.344805
0	H	0.21003	0.502834	0.823343
0	H	0.805439	0.999235	0.663559
0	H	0.804854	0.48451	0.163687
0	H	0.210115	0.988704	0.323662
0	H	0.13908	0.505456	0.806128
0	H	0.876343	0.0028861	0.680747
0	H	0.875803	0.481875	0.180875
0	H	0.139221	0.984931	0.306421
0	C	0.174542	0.403996	0.848937
0	C	0.841682	0.901499	0.636646
0	C	0.840324	0.583262	0.13787
0	C	0.173736	0.0864702	0.350284
0	H	0.209849	0.386859	0.890946
0	H	0.80675	0.884512	0.594022
0	H	0.805004	0.600317	0.0958415
0	H	0.208623	0.103622	0.392896
0	C	0.179765	0.371304	0.780055
0	C	0.836139	0.867279	0.704754
0	C	0.835112	0.616121	0.206691
0	C	0.179279	0.120511	0.282097
0	H	0.145768	0.385212	0.737071
0	H	0.869483	0.88144	0.748509
0	H	0.869082	0.60221	0.249714
0	H	0.145885	0.106374	0.238402
0	H	0.181606	0.312905	0.783463
0	H	0.83527	0.80891	0.700583
0	H	0.833337	0.674517	0.203191
0	H	0.180252	0.178888	0.286184
0	H	0.216318	0.38895	0.766112
0	H	0.798966	0.883308	0.71801
0	H	0.798525	0.59861	0.220629
0	H	0.216395	0.10431	0.268792
0	C	0.123516	0.377393	0.86756
0	C	0.893179	0.876199	0.618401
0	C	0.891331	0.609795	0.119151
0	C	0.122173	0.111734	0.368376
0	H	0.120885	0.398407	0.918222
0	H	0.895867	0.897856	0.568006
0	H	0.893845	0.588845	0.0684203
0	H	0.119369	0.0900065	0.418695
0	H	0.122675	0.318864	0.870301
0	H	0.894629	0.817764	0.615238
0	H	0.892252	0.668321	0.116502
0	H	0.12072	0.170168	0.371601
0	H	0.0874051	0.394355	0.829331
0	H	0.928984	0.893464	0.657031
0	H	0.92746	0.592701	0.157276
0	H	0.0864226	0.0945171	0.329631
0	C	0.31273	0.515347	0.873316
0	C	0.703072	0.0150413	0.61421
0	C	0.702114	0.471955	0.113733
0	C	0.312454	0.973041	0.373141
0	H	0.277836	0.488037	0.838216
0	H	0.737972	0.987471	0.649061
0	H	0.736973	0.499288	0.148879
0	H	0.277592	0.000670596	0.338272
0	H	0.347829	0.502557	0.852422
0	H	0.668076	0.00269276	0.635432
0	H	0.666973	0.484686	0.134565
0	H	0.347475	0.985336	0.351948
0	C	0.302547	0.596767	0.869322
0	C	0.713805	0.0963683	0.618137
0	C	0.712339	0.390543	0.117697
0	C	0.301639	0.891733	0.369141
0	H	0.267827	0.608356	0.892406
0	H	0.748541	0.107462	0.594957
0	H	0.747108	0.379007	0.0946927
0	H	0.266924	0.880669	0.392367
0	C	0.287908	0.621003	0.793269
0	C	0.728716	0.12075	0.694158
0	C	0.726894	0.366251	0.193732
0	C	0.286633	0.867466	0.293082
0	H	0.31928	0.608603	0.76658
0	H	0.697294	0.108829	0.720926
0	H	0.695423	0.378495	0.220307
0	H	0.317916	0.879702	0.266171
0	H	0.281335	0.679064	0.789566
0	H	0.735545	0.178768	0.697686
0	H	0.733561	0.308204	0.197409
0	H	0.280018	0.809423	0.289471
0	H	0.250558	0.59608	0.763399
0	H	0.76597	0.0956566	0.724061
0	H	0.764169	0.391261	0.22373
0	H	0.249242	0.892368	0.26335
0	C	0.351303	0.637994	0.910725
0	C	0.665272	0.138082	0.576842
0	C	0.663645	0.349309	0.0761589
0	C	0.350149	0.849881	0.410301
0	H	0.362167	0.620734	0.965161
0	H	0.653983	0.120532	0.522513
0	H	0.652925	0.366497	0.0216952
0	H	0.361635	0.867506	0.464599
0	H	0.342909	0.695374	0.909859
0	H	0.674093	0.195328	0.577275
0	H	0.672022	0.291918	0.0771217
0	H	0.341207	0.79268	0.409994
0	H	0.386367	0.630066	0.88943
0	H	0.630313	0.131006	0.598606
0	H	0.628488	0.357301	0.0972484
0	H	0.385025	0.856742	0.388312
0	C	0.417662	0.444861	0.972627
0	C	0.597624	0.944384	0.515468
0	C	0.597251	0.542609	0.0143899
0	C	0.417952	0.0434459	0.471982
0	H	0.418948	0.463524	0.920487
0	H	0.596513	0.96313	0.567633
0	H	0.595943	0.524025	0.0665462
0	H	0.418967	0.0250961	0.419659
0	H	0.429041	0.388132	0.976422
0	H	0.58609	0.887705	0.511733
0	H	0.585872	0.599333	0.010507
0	H	0.429761	0.100021	0.476194
0	H	0.449146	0.473854	0.0102298
0	H	0.566108	0.973467	0.477995
0	H	0.565781	0.513573	0.976819
0	H	0.44933	0.013876	0.509207
0	C	0.441358	0.363317	0.274422
0	C	0.572925	0.860294	0.214321
0	C	0.573659	0.62385	0.712591
0	C	0.442551	0.127538	0.773139
0	H	0.449373	0.347626	0.329505
0	H	0.564729	0.845286	0.159045
0	H	0.565655	0.639571	0.657514
0	H	0.450725	0.142807	0.828346
0	H	0.462117	0.414178	0.272109
0	H	0.552284	0.911108	0.217329
0	H	0.553	0.572902	0.714851
0	H	0.463105	0.0766045	0.770371
0	H	0.460272	0.323107	0.247896
0	H	0.553998	0.819766	0.240488
0	H	0.554626	0.663945	0.739097
0	H	0.461572	0.167833	0.746829
0	C	0.350758	0.339707	0.353419
0	C	0.66313	0.835385	0.134935
0	C	0.664258	0.647604	0.633654
0	C	0.352275	0.152369	0.852465
0	H	0.325272	0.374667	0.377335
0	H	0.688437	0.870455	0.11084
0	H	0.689682	0.612528	0.609758
0	H	0.327014	0.117166	0.876501
0	H	0.39259	0.351125	0.382079
0	H	0.621233	0.846739	0.106495
0	H	0.622405	0.636232	0.605046
0	H	0.394189	0.141118	0.880906
0	C	0.3369	0.260727	0.363341
0	C	0.676981	0.756467	0.124798
0	C	0.678178	0.726532	0.623598
0	C	0.338272	0.231213	0.862672
0	H	0.297837	0.248509	0.325822
0	H	0.715391	0.74365	0.163378
0	H	0.71727	0.738753	0.66106
0	H	0.299822	0.243926	0.824129
0	C	0.330205	0.248647	0.437201
0	C	0.685289	0.745106	0.0515884
0	C	0.684821	0.738438	0.549687
0	C	0.329979	0.242435	0.935907
0	H	0.321147	0.192721	0.445586
0	H	0.694361	0.689229	0.0430114
0	H	0.694024	0.794297	0.541239
0	H	0.320868	0.298279	0.944568
0	H	0.297257	0.280836	0.447031
0	H	0.718819	0.777219	0.0434014
0	H	0.717653	0.706043	0.539818
0	H	0.296472	0.210252	0.944058
0	H	0.366676	0.262885	0.47678
0	H	0.649519	0.759921	0.0111405
0	H	0.648282	0.724318	0.51018
0	H	0.365766	0.227604	0.976322
0	C	0.379894	0.210989	0.348028
0	C	0.633088	0.706805	0.137707
0	C	0.635231	0.776374	0.638885
0	C	0.382048	0.281076	0.849743
0	H	0.418975	0.21975	0.383879
0	H	0.594867	0.715298	0.0999336
0	H	0.596158	0.767712	0.602991
0	H	0.420313	0.272643	0.887448
0	H	0.384838	0.220131	0.295316
0	H	0.626222	0.716209	0.18943
0	H	0.630232	0.76724	0.691571
0	H	0.388859	0.271807	0.797972
0	H	0.369118	0.154993	0.352214
0	H	0.644225	0.650811	0.134452
0	H	0.646096	0.832344	0.634749
0	H	0.370809	0.337016	0.85309
0	C	0.183853	0.339524	0.113711
0	C	0.830419	0.833662	0.373449
0	C	0.831165	0.648136	0.873396
0	C	0.185024	0.153906	0.61379
0	H	0.206247	0.381123	0.0922489
0	H	0.808687	0.875694	0.395317
0	H	0.808868	0.606431	0.894864
0	H	0.206772	0.111843	0.591988
0	H	0.14164	0.34583	0.0833304
0	H	0.872824	0.838904	0.403603
0	H	0.873402	0.642007	0.903785
0	H	0.142619	0.14858	0.583648
0	C	0.204316	0.264464	0.100407
0	C	0.809118	0.759084	0.386689
0	C	0.810529	0.723101	0.886683
0	C	0.206256	0.22848	0.600399
0	H	0.244271	0.255916	0.137328
0	H	0.768732	0.751653	0.350481
0	H	0.770542	0.731485	0.849788
0	H	0.246632	0.236043	0.636596
0	C	0.211334	0.259654	0.0260615
0	C	0.803139	0.754141	0.461506
0	C	0.803534	0.727849	0.961042
0	C	0.212225	0.233262	0.525568
0	H	0.221926	0.205234	0.0139619
0	H	0.792108	0.699892	0.473555
0	H	0.792899	0.78224	0.97317
0	H	0.223457	0.28741	0.513496
0	H	0.243225	0.29519	0.0183996
0	H	0.772008	0.790323	0.470307
0	H	0.771678	0.692254	0.968706
0	H	0.243203	0.196827	0.516749
0	H	0.17481	0.274083	0.987262
0	H	0.840247	0.767532	0.499716
0	H	0.840079	0.713457	0.999822
0	H	0.175056	0.220081	0.487385
0	C	0.165923	0.206791	0.113864
0	C	0.846305	0.700537	0.371865
0	C	0.848766	0.780953	0.873153
0	C	0.168986	0.286997	0.615076
0	H	0.126717	0.210141	0.0770341
0	H	0.885823	0.702733	0.408081
0	H	0.888031	0.777677	0.909859
0	H	0.1295	0.28472	0.578796
0	H	0.159559	0.211731	0.166326
0	H	0.852087	0.705675	0.319155
0	H	0.855006	0.776151	0.820619
0	H	0.163135	0.281896	0.667754
0	H	0.181974	0.15338	0.108939
0	H	0.829605	0.647437	0.376621
0	H	0.832638	0.83429	0.878219
0	H	0.185656	0.340116	0.610295
0	C	0.0900775	0.342162	0.192642
0	C	0.923654	0.834447	0.293535
0	C	0.924933	0.645544	0.794393
0	C	0.0917519	0.152958	0.693619
0	H	0.0809711	0.330797	0.136521
0	H	0.93286	0.822684	0.349563
0	H	0.934036	0.657161	0.850465
0	H	0.08257	0.164803	0.637607
0	H	0.0658163	0.388603	0.19981
0	H	0.948701	0.880093	0.286478
0	H	0.949153	0.598987	0.787429
0	H	0.0667983	0.107174	0.700569
0	H	0.0754801	0.296565	0.217754
0	H	0.937154	0.788417	0.267846
0	H	0.939568	0.690968	0.769087
0	H	0.0781117	0.198859	0.719341
0	C	0.109312	0.410807	0.493958
0	C	0.905092	0.909848	0.994158
0	C	0.905705	0.57662	0.493155
0	C	0.110195	0.0776278	0.992938
0	H	0.0758845	0.441356	0.461561
0	H	0.938793	0.940141	0.0262866
0	H	0.939069	0.545825	0.525383
0	H	0.076548	0.0471888	0.960887
0	H	0.108935	0.420481	0.548437
0	H	0.905225	0.919418	0.939564
0	H	0.906004	0.567143	0.438618
0	H	0.110067	0.0681772	0.0475521
0	H	0.100413	0.354007	0.483002
0	H	0.913732	0.852974	0.00501635
0	H	0.914766	0.633347	0.504331
0	H	0.101456	0.134455	0.981933
0	C	0.203561	0.491228	0.597457
0	C	0.812248	0.9942	0.892539
0	C	0.8115	0.496134	0.38973
0	C	0.202984	0.993276	0.0946015
0	H	0.245549	0.497745	0.629036
0	H	0.770383	0.00121052	0.860695
0	H	0.76952	0.489794	0.358076
0	H	0.244833	0.986342	0.126526
0	H	0.186103	0.448409	0.623823
0	H	0.829938	0.952218	0.865546
0	H	0.829125	0.538798	0.363377
0	H	0.185189	0.0351917	0.121549
0	C	0.172738	0.561803	0.598831
0	C	0.84328	0.0649128	0.892827
0	C	0.842142	0.425382	0.388462
0	C	0.172016	0.9225	0.0942288
0	H	0.133852	0.558502	0.558692
0	H	0.882066	0.0607514	0.933051
0	H	0.881038	0.428579	0.428595
0	H	0.133245	0.926626	0.0539767
0	C	0.204452	0.625405	0.581545
0	C	0.81166	0.128018	0.911297
0	C	0.810259	0.362008	0.405836
0	C	0.203705	0.859476	0.0757489
0	H	0.242959	0.632008	0.619546
0	H	0.773423	0.135745	0.873014
0	H	0.771774	0.35546	0.36778
0	H	0.241996	0.851888	0.113961
0	H	0.182484	0.675524	0.580452
0	H	0.833925	0.178092	0.914044
0	H	0.832116	0.311772	0.407122
0	H	0.181543	0.809331	0.0731164
0	H	0.213288	0.618681	0.530528
0	H	0.802288	0.119829	0.961825
0	H	0.801353	0.36897	0.456785
0	H	0.212971	0.867656	0.0251531
0	C	0.160963	0.571282	0.670395
0	C	0.855354	0.0760991	0.821597
0	C	0.853887	0.415643	0.316906
0	C	0.159892	0.911208	0.165414
0	H	0.198094	0.578848	0.711528
0	H	0.818327	0.0835889	0.780277
0	H	0.816726	0.408369	0.275766
0	H	0.196913	0.903968	0.206804
0	H	0.140095	0.525122	0.684877
0	H	0.876761	0.0306936	0.806678
0	H	0.875007	0.461562	0.302431
0	H	0.138267	0.956451	0.180231
0	H	0.135845	0.618654	0.671318
0	H	0.88012	0.123959	0.821577
0	H	0.878755	0.368019	0.315991
0	H	0.135312	0.863172	0.165433
0	C	0.340592	0.486795	0.634602
0	C	0.675196	0.987842	0.854545
0	C	0.674448	0.50075	0.352441
0	C	0.340057	0.999622	0.132691
0	H	0.30679	0.509638	0.654152
0	H	0.709251	0.0104581	0.835343
0	H	0.708246	0.477832	0.332936
0	H	0.306026	0.97697	0.151915
0	H	0.377714	0.500846	0.673997
0	H	0.638265	0.00198663	0.81484
0	H	0.63733	0.486696	0.313044
0	H	0.377009	0.985567	0.172401
0	C	0.334207	0.404722	0.630178
0	C	0.681383	0.905727	0.859148
0	C	0.680869	0.582822	0.356781
0	C	0.333772	0.0817194	0.128001
0	H	0.297124	0.391906	0.589033
0	H	0.718345	0.892815	0.900492
0	H	0.717935	0.595662	0.397949
0	H	0.296795	0.0945287	0.0866443
0	C	0.32743	0.375689	0.699718
0	C	0.688344	0.876422	0.789762
0	C	0.687702	0.611733	0.287222
0	C	0.326764	0.111057	0.197351
0	H	0.362383	0.387171	0.742254
0	H	0.653311	0.887303	0.747136
0	H	0.652681	0.600453	0.244724
0	H	0.361779	0.100187	0.24001
0	H	0.322115	0.317566	0.69759
0	H	0.694034	0.818363	0.792336
0	H	0.693241	0.669819	0.289363
0	H	0.321068	0.169114	0.194748
0	H	0.29226	0.398207	0.713662
0	H	0.723379	0.899251	0.775688
0	H	0.722757	0.588941	0.273214
0	H	0.29171	0.0882379	0.211386
0	C	0.381961	0.369505	0.610183
0	C	0.633423	0.87078	0.87889
0	C	0.633092	0.618112	0.376658
0	C	0.381677	0.116761	0.108205
0	H	0.419793	0.381318	0.647654
0	H	0.595759	0.882296	0.840938
0	H	0.595294	0.6064	0.339085
0	H	0.419376	0.10524	0.14609
0	H	0.385495	0.388317	0.559165
0	H	0.629498	0.89007	0.929612
0	H	0.629437	0.59926	0.427608
0	H	0.385543	0.0975462	0.0574344
0	H	0.3774	0.311426	0.607397
0	H	0.637992	0.812697	0.882211
0	H	0.637724	0.67618	0.379518
0	H	0.377072	0.174841	0.104951
0	C	0.433537	0.576103	0.591716
0	C	0.582247	0.0782495	0.896052
0	C	0.581475	0.411455	0.395247
0	C	0.432951	0.908928	0.0912978
0	H	0.442037	0.633605	0.590056
0	H	0.573798	0.135759	0.897785
0	H	0.573072	0.353912	0.396784
0	H	0.441316	0.851391	0.0896053
0	H	0.4653	0.548042	0.573905
0	H	0.55014	0.0501772	0.91313
0	H	0.549649	0.439325	0.413095
0	H	0.46511	0.936879	0.0742168
0	H	0.438011	0.561788	0.64663
0	H	0.578233	0.0641934	0.841137
0	H	0.576987	0.425905	0.34036
0	H	0.436968	0.923047	0.146199
0	C	0.436581	0.652588	0.298852
0	C	0.57804	0.156472	0.188561
0	C	0.578247	0.334807	0.687987
0	C	0.437178	0.830643	0.798757
0	H	0.454439	0.697759	0.332407
0	H	0.560639	0.201978	0.155164
0	H	0.560449	0.289565	0.654489
0	H	0.454375	0.784823	0.831853
0	H	0.441981	0.663766	0.246514
0	H	0.572493	0.167558	0.240843
0	H	0.572805	0.3237	0.740317
0	H	0.442737	0.819875	0.746424
0	H	0.460215	0.604763	0.318227
0	H	0.554057	0.109044	0.168806
0	H	0.554585	0.382573	0.66851
0	H	0.461335	0.87782	0.818892
0	C	0.341775	0.65814	0.165415
0	C	0.672516	0.16201	0.322406
0	C	0.672971	0.329057	0.821465
0	C	0.342722	0.825434	0.664863
0	H	0.314459	0.621096	0.129619
0	H	0.699994	0.125473	0.358607
0	H	0.700296	0.366023	0.857351
0	H	0.315292	0.862019	0.628663
0	H	0.382663	0.643579	0.161467
0	H	0.631668	0.147282	0.326403
0	H	0.632076	0.343636	0.825375
0	H	0.38359	0.84005	0.660863
0	C	0.328963	0.735586	0.140003
0	C	0.684928	0.239758	0.3471
0	C	0.685707	0.251555	0.846755
0	C	0.330187	0.747713	0.640159
0	H	0.287612	0.7485	0.144913
0	H	0.726209	0.252911	0.342054
0	H	0.727049	0.238595	0.841839
0	H	0.288917	0.734653	0.645301
0	C	0.330055	0.741652	0.063256
0	C	0.683837	0.246531	0.423791
0	C	0.684588	0.24537	0.923484
0	C	0.331145	0.740949	0.56342
0	H	0.320463	0.796055	0.0438575
0	H	0.693811	0.300985	0.442801
0	H	0.694165	0.190933	0.942794
0	H	0.32131	0.686442	0.544484
0	H	0.300727	0.705859	0.0306276
0	H	0.712903	0.210631	0.456709
0	H	0.713922	0.281109	0.956186
0	H	0.301915	0.776677	0.530541
0	H	0.36943	0.728465	0.055071
0	H	0.644358	0.234041	0.432017
0	H	0.645205	0.25853	0.931664
0	H	0.370539	0.753663	0.555033
0	C	0.368347	0.788618	0.184143
0	C	0.64529	0.292199	0.302506
0	C	0.646283	0.198639	0.802522
0	C	0.369798	0.695171	0.684653
0	H	0.36793	0.784375	0.239143
0	H	0.645661	0.287439	0.247523
0	H	0.64666	0.203032	0.747515
0	H	0.36946	0.69988	0.73965
0	H	0.35816	0.843511	0.167121
0	H	0.65527	0.347292	0.319014
0	H	0.656461	0.1437	0.819393
0	H	0.359759	0.640108	0.668096
0	H	0.409464	0.778808	0.180571
0	H	0.604224	0.282263	0.306226
0	H	0.605177	0.208424	0.806163
0	H	0.41086	0.705057	0.680889
0	C	0.182302	0.657334	0.316828
0	C	0.832183	0.159548	0.171562
0	C	0.832573	0.330062	0.670237
0	C	0.182971	0.827974	0.81548
0	H	0.20852	0.618058	0.35139
0	H	0.805823	0.120389	0.13703
0	H	0.806307	0.369313	0.635711
0	H	0.2094	0.866981	0.85013
0	H	0.141518	0.645644	0.323433
0	H	0.872875	0.147522	0.164827
0	H	0.873342	0.341897	0.663664
0	H	0.142286	0.840141	0.822162
0	C	0.198299	0.734106	0.342362
0	C	0.81643	0.2364	0.14617
0	C	0.816689	0.25329	0.644623
0	C	0.198517	0.75103	0.840748
0	H	0.237251	0.747672	0.329638
0	H	0.777815	0.250452	0.159659
0	H	0.777782	0.239561	0.657418
0	H	0.237137	0.736863	0.827336
0	C	0.205946	0.738062	0.421306
0	C	0.807986	0.240281	0.0671189
0	C	0.808957	0.249466	0.565662
0	C	0.206825	0.747014	0.919775
0	H	0.215879	0.792493	0.440581
0	H	0.798254	0.294795	0.0479467
0	H	0.7993	0.194984	0.546361
0	H	0.216486	0.692455	0.938865
0	H	0.238288	0.702953	0.448689
0	H	0.77522	0.205535	0.0402535
0	H	0.776398	0.284298	0.538366
0	H	0.239588	0.781691	0.94679
0	H	0.169624	0.7228	0.437105
0	H	0.843921	0.224532	0.0506236
0	H	0.845153	0.265152	0.549769
0	H	0.170848	0.762758	0.936176
0	C	0.156121	0.788056	0.305649
0	C	0.859249	0.289833	0.182264
0	C	0.858977	0.199407	0.681197
0	C	0.155615	0.697785	0.804489
0	H	0.117052	0.777953	0.316332
0	H	0.897969	0.279174	0.17076
0	H	0.897984	0.20961	0.670369
0	H	0.1169	0.708498	0.815991
0	H	0.151002	0.786056	0.249213
0	H	0.864977	0.287851	0.238807
0	H	0.864201	0.201366	0.73765
0	H	0.149914	0.699919	0.747956
0	H	0.16784	0.842527	0.323239
0	H	0.847753	0.344407	0.164843
0	H	0.847301	0.144922	0.663616
0	H	0.167004	0.643138	0.821765
0	C	0.0841392	0.646123	0.186509
0	C	0.930405	0.148901	0.301824
0	C	0.930673	0.340741	0.800684
0	C	0.0848787	0.838599	0.685078
0	H	0.0783236	0.656079	0.238888
0	H	0.936144	0.159249	0.249471
0	H	0.936494	0.33097	0.748275
0	H	0.0790787	0.828437	0.737432
0	H	0.0628605	0.596448	0.167189
0	H	0.951786	0.0992114	0.320825
0	H	0.95205	0.390288	0.820222
0	H	0.0633575	0.888111	0.665799
0	H	0.0636194	0.689629	0.152622
0	H	0.950851	0.192324	0.335913
0	H	0.951071	0.297045	0.834397
0	H	0.0646179	0.794946	0.651164
0	C	0.439221	0.401721	0.126789
0	C	0.575739	0.899003	0.362089
0	C	0.57578	0.585748	0.860282
0	C	0.439806	0.0886917	0.625386
0	C	0.463772	0.336761	0.118458
0	C	0.55182	0.833472	0.370213
0	C	0.551283	0.650761	0.868565
0	C	0.463947	0.154075	0.617319
0	H	0.439454	0.289581	0.101378
0	H	0.576579	0.786499	0.386598
0	H	0.575641	0.697924	0.885591
0	H	0.439341	0.201177	0.600924
0	C	0.519611	0.332783	0.133145
0	C	0.496061	0.82869	0.356256
0	C	0.495451	0.654809	0.853907
0	C	0.519724	0.158531	0.631345
0	H	0.539013	0.281472	0.128505
0	H	0.47711	0.777005	0.360621
0	H	0.476078	0.706159	0.858524
0	H	0.538844	0.210105	0.626992
0	C	0.55078	0.39342	0.154581
0	C	0.464323	0.889076	0.335893
0	C	0.464235	0.594206	0.832538
0	C	0.551252	0.0979638	0.651726
0	H	0.594357	0.389886	0.164904
0	H	0.420778	0.884912	0.326659
0	H	0.42066	0.597809	0.822256
0	H	0.594811	0.101885	0.661091
0	C	0.526207	0.458373	0.162416
0	C	0.488242	0.954465	0.327995
0	C	0.48875	0.529198	0.824745
0	C	0.527109	0.0327106	0.65951
0	H	0.550462	0.50561	0.179445
0	H	0.463545	0.00142727	0.311577
0	H	0.464458	0.481986	0.807772
0	H	0.551639	0.985596	0.675895
0	C	0.470494	0.462663	0.148828
0	C	0.543897	0.959577	0.340757
0	C	0.544461	0.524834	0.838317
0	C	0.471435	0.0279233	0.646675
0	H	0.451031	0.512826	0.155664
0	H	0.562827	0.0101388	0.333878
0	H	0.563876	0.47462	0.831528
0	H	0.45233	0.97747	0.653458
0	C	0.090703	0.375097	0.34156
0	C	0.923168	0.870874	0.14562
0	C	0.924265	0.612511	0.6455
0	C	0.0921842	0.116547	0.841487
0	C	0.0726738	0.306343	0.351914
0	C	0.940632	0.801948	0.134744
0	C	0.942411	0.68121	0.635178
0	C	0.074623	0.185439	0.852303
0	H	0.10114	0.262227	0.365326
0	H	0.911815	0.758185	0.121307
0	H	0.91401	0.72539	0.621755
0	H	0.103386	0.229281	0.865707
0	C	0.0180987	0.294807	0.345081
0	C	0.995078	0.789727	0.141151
0	C	0.997013	0.692584	0.642059
0	C	0.0201613	0.197537	0.845885
0	H	0.00361304	0.24148	0.35385
0	H	0.00909982	0.736227	0.132081
0	H	0.0116106	0.745854	0.633331
0	H	0.00606266	0.250996	0.854934
0	C	0.981672	0.350945	0.327342
0	C	0.0319831	0.845357	0.15884
0	C	0.0333198	0.63631	0.659779
0	C	0.983338	0.141819	0.828237
0	H	0.93882	0.341586	0.322006
0	H	0.0746888	0.83552	0.163632
0	H	0.0761984	0.645529	0.665154
0	H	0.940616	0.151551	0.823439
0	C	0.999709	0.419337	0.316722
0	C	0.0145091	0.913886	0.170093
0	C	0.0151678	0.567968	0.670335
0	C	0.000900164	0.0733229	0.817045
0	H	0.971245	0.463026	0.303066
0	H	0.0433114	0.957194	0.183779
0	H	0.0435467	0.524181	0.683953
0	H	0.972159	0.0299469	0.803402
0	C	0.0542748	0.431706	0.32404
0	C	0.960088	0.926917	0.163356
0	C	0.960582	0.555776	0.663001
0	C	0.0553416	0.0604158	0.823805
0	H	0.0688304	0.484929	0.3166
0	H	0.946004	0.980248	0.171382
0	H	0.945922	0.502601	0.670398
0	H	0.0694931	0.00710397	0.815839
0	C	0.440998	0.633876	0.451053
0	C	0.574109	0.136495	0.0366059
0	C	0.573961	0.353446	0.535832
0	C	0.441111	0.850734	0.950713
0	C	0.454714	0.704546	0.470478
0	C	0.560555	0.20734	0.0177707
0	C	0.560418	0.282712	0.516484
0	C	0.454654	0.779867	0.969465
0	H	0.423396	0.743706	0.470226
0	H	0.591982	0.246411	0.018327
0	H	0.591823	0.243677	0.516753
0	H	0.423223	0.740784	0.968832
0	C	0.508616	0.72445	0.489492
0	C	0.506713	0.227538	0.998967
0	C	0.50657	0.262557	0.497549
0	C	0.508496	0.759663	0.988303
0	H	0.519407	0.77951	0.504061
0	H	0.496127	0.282782	0.984973
0	H	0.495928	0.207438	0.483072
0	H	0.519068	0.704402	0.00223404
0	C	0.548521	0.674147	0.489043
0	C	0.466651	0.1773	0.998833
0	C	0.466533	0.312669	0.497972
0	C	0.548571	0.809918	0.98853
0	H	0.590816	0.690392	0.502622
0	H	0.424411	0.193698	0.985359
0	H	0.42428	0.296239	0.48446
0	H	0.590811	0.793518	0.0020343
0	C	0.534833	0.603267	0.471285
0	C	0.480182	0.106216	0.0158718
0	C	0.480049	0.383618	0.515635
0	C	0.535049	0.88101	0.971533
0	H	0.566206	0.564004	0.47176
0	H	0.448712	0.0669647	0.0149254
0	H	0.448572	0.42273	0.515149
0	H	0.566528	0.920265	0.972527
0	C	0.481107	0.582839	0.452319
0	C	0.533855	0.0855334	0.0347804
0	C	0.533725	0.404296	0.534541
0	C	0.481379	0.9017	0.952615
0	H	0.470096	0.527835	0.437848
0	H	0.54471	0.0303881	0.0487749
0	H	0.544598	0.45935	0.548967
0	H	0.470526	0.956853	0.938655
0	C	0.0783607	0.630355	0.0334171
0	C	0.936423	0.131352	0.454604
0	C	0.936355	0.356296	0.953748
0	C	0.0790601	0.856495	0.532432
0	C	0.0633481	0.70138	0.0166012
0	C	0.951827	0.202116	0.472117
0	C	0.951317	0.285254	0.970515
0	C	0.0638803	0.785653	0.514935
0	H	0.0940384	0.742307	0.0207546
0	H	0.921368	0.243249	0.468597
0	H	0.920607	0.244359	0.966358
0	H	0.0944633	0.744687	0.518462
0	C	0.00917304	0.719199	0.994668
0	C	0.00611582	0.219437	0.493968
0	C	0.00548701	0.267366	0.992415
0	C	0.00965159	0.768019	0.493126
0	H	0.997544	0.77439	0.981978
0	H	0.0180444	0.274413	0.507217
0	H	0.0170744	0.212154	0.00506588
0	H	0.997908	0.712979	0.479912
0	C	0.969926	0.666559	0.989397
0	C	0.0451034	0.166561	0.498546
0	C	0.0447728	0.319958	0.997682
0	C	0.970482	0.820645	0.488559
0	H	0.927468	0.680444	0.972174
0	H	0.0876589	0.179976	0.515916
0	H	0.0872137	0.305997	0.014841
0	H	0.927976	0.806976	0.471261
0	C	0.984925	0.595859	0.00592103
0	C	0.0297116	0.0961405	0.481246
0	C	0.0298186	0.390676	0.981188
0	C	0.985651	0.891151	0.505808
0	H	0.954241	0.554807	0.00169621
0	H	0.0601824	0.0549084	0.484859
0	H	0.0605275	0.431697	0.985397
0	H	0.955042	0.93219	0.502208
0	C	0.0390234	0.577544	0.0279411
0	C	0.975519	0.0783217	0.459265
0	C	0.975731	0.409059	0.959223
0	C	0.0397874	0.909284	0.527753
0	H	0.0508558	0.522461	0.040886
0	H	0.963421	0.0234489	0.445718
0	H	0.963931	0.464155	0.946296
0	H	0.0517086	0.964224	0.541281
0	N	0.213179	0.554739	0.0247849
0	N	0.801667	0.0550685	0.462946
0	N	0.80154	0.432007	0.962381
0	N	0.213752	0.933364	0.524408
0	H	0.238796	0.561503	0.0727992
0	H	0.775932	0.0623351	0.415131
0	H	0.775912	0.425224	0.914382
0	H	0.239458	0.926163	0.572248
0	N	0.294536	0.449578	0.0434104
0	N	0.720448	0.948599	0.44399
0	N	0.720397	0.537589	0.943633
0	N	0.29503	0.0397045	0.543267
0	N	0.302599	0.386923	0.167341
0	N	0.711955	0.883825	0.320626
0	N	0.712416	0.600577	0.81979
0	N	0.303537	0.104182	0.666709
0	H	0.273967	0.401318	0.123715
0	H	0.740701	0.898552	0.363974
0	H	0.74104	0.58617	0.863411
0	H	0.274801	0.0895498	0.623314
0	N	0.228825	0.382002	0.303213
0	N	0.785179	0.878272	0.184401
0	N	0.786165	0.605687	0.683892
0	N	0.23025	0.109484	0.802885
0	N	0.227712	0.44839	0.42521
0	N	0.786907	0.947568	0.0634101
0	N	0.787217	0.539371	0.56183
0	N	0.228423	0.0398904	0.923772
0	H	0.249888	0.447336	0.388849
0	H	0.764611	0.945899	0.0995862
0	H	0.765015	0.540507	0.598162
0	H	0.250732	0.0415505	0.887616
0	N	0.305016	0.556212	0.452757
0	N	0.710072	0.057521	0.0362891
0	N	0.709903	0.431466	0.534339
0	N	0.305185	0.929831	0.950993
0	N	0.301846	0.624759	0.330102
0	N	0.712909	0.127322	0.158252
0	N	0.713029	0.362636	0.656889
0	N	0.30234	0.8602	0.829009
0	H	0.275533	0.610392	0.358996
0	H	0.739289	0.112382	0.129637
0	H	0.739366	0.377043	0.628044
0	H	0.275955	0.875163	0.857611
0	N	0.220104	0.619945	0.149649
0	N	0.79446	0.12225	0.338771
0	N	0.794673	0.367057	0.837419
0	N	0.220896	0.865761	0.648481
