#******************************************
#
# CIF file created by Zeo++
# Zeo++ is an open source package to
# analyze microporous materials
#
#*******************************************

_cell_length_a		16.6224(0)
_cell_length_b		16.6237(0)
_cell_length_c		65.8423(0)
_cell_angle_alpha		90(0)
_cell_angle_beta		90(0)
_cell_angle_gamma		120.002(0)

_symmetry_space_group_name_H-M		'P1'
_symmetry_Int_Tables_number		1
_symmetry_cell_setting		Monoclinic

loop_
_symmetry_equiv_pos_as_xyz
'+x,+y,+z'

loop_
_atom_site_label
_atom_site_type_symbol
_atom_site_fract_x
_atom_site_fract_y
_atom_site_fract_z
0	C	0.997157	0.489124	0.0779026
0	C	0.51087	0.507806	0.0779944
0	C	0.492366	0.00314559	0.0780222
0	C	0.00317684	0.510923	0.921065
0	C	0.489181	0.492235	0.921096
0	C	0.507945	0.996779	0.921167
0	C	0.663694	0.822897	0.411218
0	C	0.178339	0.841368	0.410627
0	C	0.158508	0.33653	0.410671
0	C	0.670061	0.844767	0.25542
0	C	0.155883	0.825366	0.255185
0	C	0.174577	0.330295	0.255186
0	C	0.330421	0.155874	0.743923
0	C	0.844136	0.174631	0.743907
0	C	0.825591	0.669641	0.743886
0	C	0.336721	0.177747	0.588162
0	C	0.822184	0.159036	0.588151
0	C	0.841307	0.663457	0.588139
0	H	0.0599911	0.526252	0.0684337
0	H	0.473612	0.53339	0.0685383
0	H	0.466753	0.940273	0.0685774
0	H	0.940355	0.473706	0.930533
0	H	0.526344	0.466671	0.930591
0	H	0.533583	0.0594865	0.930669
0	H	0.726565	0.860222	0.401766
0	H	0.141153	0.867017	0.401159
0	H	0.132873	0.273676	0.401213
0	H	0.607225	0.807584	0.264891
0	H	0.193048	0.799712	0.26466
0	H	0.200295	0.39311	0.264663
0	H	0.393293	0.19311	0.734464
0	H	0.806875	0.200311	0.734474
0	H	0.799863	0.606673	0.734461
0	H	0.273907	0.140521	0.597634
0	H	0.859395	0.133519	0.597651
0	H	0.86684	0.726167	0.597643
0	H	0.997675	0.539834	0.088609
0	H	0.460268	0.457609	0.088719
0	H	0.542546	0.0028112	0.0887646
0	H	0.00270655	0.460276	0.910348
0	H	0.539869	0.542349	0.910371
0	H	0.457806	0.997353	0.910451
0	H	0.664039	0.873434	0.421951
0	H	0.127546	0.790854	0.421279
0	H	0.208975	0.336268	0.421339
0	H	0.669776	0.793972	0.244769
0	H	0.206638	0.875682	0.2445
0	H	0.12421	0.33074	0.244519
0	H	0.330757	0.206535	0.754622
0	H	0.793473	0.124231	0.754593
0	H	0.876056	0.669438	0.754561
0	H	0.336388	0.127039	0.577481
0	H	0.872906	0.2093	0.57745
0	H	0.791075	0.663958	0.577439
0	H	0.937643	0.468084	0.0676391
0	H	0.531922	0.469333	0.0677218
0	H	0.530822	0.0626288	0.0677432
0	H	0.0627138	0.532005	0.931326
0	H	0.468057	0.530782	0.931329
0	H	0.469431	0.9371	0.931395
0	H	0.60419	0.801876	0.400936
0	H	0.199746	0.80319	0.400347
0	H	0.196725	0.396068	0.400384
0	H	0.729664	0.866182	0.265699
0	H	0.134693	0.863753	0.265456
0	H	0.136206	0.270708	0.265456
0	H	0.270903	0.134751	0.733636
0	H	0.86525	0.13632	0.733596
0	H	0.863849	0.729044	0.733564
0	H	0.396328	0.199065	0.598431
0	H	0.800899	0.197443	0.598392
0	H	0.802854	0.603773	0.598378
0	C	0.993487	0.407213	0.0881445
0	C	0.592808	0.586117	0.0882026
0	C	0.414011	0.00675325	0.0882215
0	C	0.00673323	0.592813	0.910841
0	C	0.4073	0.413897	0.910879
0	C	0.586267	0.993272	0.910926
0	C	0.66011	0.740914	0.421389
0	C	0.259951	0.919597	0.420947
0	C	0.0802664	0.339961	0.420972
0	C	0.673451	0.926374	0.2451
0	C	0.074075	0.747102	0.244929
0	C	0.252795	0.326729	0.244912
0	C	0.326817	0.0740023	0.75416
0	C	0.926009	0.252868	0.754155
0	C	0.747383	0.673282	0.754145
0	C	0.340113	0.259463	0.5779
0	C	0.740444	0.0806528	0.577905
0	C	0.919668	0.660049	0.577895
0	C	0.986397	0.397467	0.109296
0	C	0.602649	0.588893	0.109351
0	C	0.411261	0.013893	0.109371
0	C	0.013927	0.602683	0.889693
0	C	0.397496	0.411163	0.889729
0	C	0.588907	0.986168	0.889773
0	C	0.653072	0.730915	0.442533
0	C	0.269436	0.922101	0.442106
0	C	0.0777052	0.346923	0.442128
0	C	0.680505	0.935947	0.223945
0	C	0.0643276	0.744422	0.223779
0	C	0.255444	0.319657	0.223763
0	C	0.319805	0.0642047	0.775311
0	C	0.935797	0.255596	0.775304
0	C	0.74471	0.680367	0.775294
0	C	0.347188	0.269195	0.55675
0	C	0.730712	0.0779471	0.556751
0	C	0.922403	0.653063	0.556743
0	H	0.983181	0.44989	0.118612
0	H	0.550276	0.533296	0.11868
0	H	0.466902	0.0172202	0.118705
0	H	0.0172421	0.550343	0.880367
0	H	0.449878	0.466785	0.880405
0	H	0.533207	0.982827	0.880462
0	H	0.649797	0.783193	0.451888
0	H	0.216965	0.8663	0.45138
0	H	0.13344	0.350185	0.451415
0	H	0.683817	0.883503	0.214659
0	H	0.116712	0.800098	0.214465
0	H	0.19975	0.316372	0.214457
0	H	0.316582	0.116591	0.784637
0	H	0.883416	0.199946	0.784623
0	H	0.800382	0.683635	0.784606
0	H	0.350531	0.21683	0.547443
0	H	0.783069	0.133663	0.54744
0	H	0.866735	0.649782	0.547429
0	C	0.984652	0.321168	0.118732
0	C	0.678988	0.663508	0.118761
0	C	0.336614	0.015549	0.118777
0	C	0.0155974	0.67897	0.880272
0	C	0.321201	0.336561	0.880309
0	C	0.663514	0.984553	0.880336
0	C	0.651434	0.654549	0.451909
0	C	0.345523	0.996676	0.451597
0	C	0.00312881	0.348496	0.451607
0	C	0.682085	0.0120732	0.21446
0	C	0.988119	0.669818	0.214339
0	C	0.330042	0.318015	0.214313
0	C	0.318111	0.987905	0.784734
0	C	0.0120531	0.330212	0.784733
0	C	0.67011	0.682036	0.784736
0	C	0.348732	0.34538	0.547305
0	C	0.654543	0.00327866	0.547313
0	C	0.99706	0.651492	0.547309
0	H	0.97864	0.315162	0.135246
0	H	0.685072	0.663563	0.135275
0	H	0.336553	0.0216063	0.135292
0	H	0.021673	0.68506	0.863759
0	H	0.315159	0.336544	0.863794
0	H	0.663493	0.978521	0.86382
0	H	0.645466	0.64842	0.468423
0	H	0.351344	0.996496	0.468114
0	H	0.00322891	0.354382	0.468123
0	H	0.688086	0.017875	0.197944
0	H	0.98225	0.669855	0.197822
0	H	0.329936	0.312026	0.197797
0	H	0.312117	0.981924	0.801248
0	H	0.017961	0.330213	0.801249
0	H	0.670196	0.688031	0.801252
0	H	0.354697	0.351296	0.530789
0	H	0.648545	0.00331838	0.530798
0	H	0.997079	0.645574	0.530795
0	C	0.991102	0.253951	0.107215
0	C	0.74613	0.737116	0.107216
0	C	0.26295	0.00897762	0.107233
0	C	0.0089996	0.746077	0.891802
0	C	0.254039	0.262903	0.891839
0	C	0.737257	0.991132	0.891854
0	C	0.65791	0.587479	0.440339
0	C	0.412765	0.07053	0.440131
0	C	0.929403	0.342054	0.440133
0	C	0.675536	0.0793731	0.225923
0	C	0.920843	0.596108	0.225839
0	C	0.403796	0.324511	0.225809
0	C	0.324543	0.920685	0.773214
0	C	0.0793145	0.403869	0.773219
0	C	0.596383	0.675557	0.773235
0	C	0.342164	0.412565	0.55881
0	C	0.587443	0.929507	0.558823
0	C	0.070703	0.657973	0.558826
0	C	0.996089	0.262746	0.0859017
0	C	0.73724	0.733214	0.0859053
0	C	0.266864	0.0039732	0.0859254
0	C	0.00390564	0.737163	0.913112
0	C	0.262898	0.266742	0.91315
0	C	0.733474	0.996127	0.913164
0	C	0.662887	0.596557	0.419032
0	C	0.404215	0.0669127	0.418815
0	C	0.93306	0.337089	0.418815
0	C	0.670525	0.0707254	0.247242
0	C	0.929693	0.5999	0.247152
0	C	0.399995	0.329497	0.247124
0	C	0.329469	0.929549	0.7519
0	C	0.0704287	0.400011	0.751906
0	C	0.600222	0.670577	0.751921
0	C	0.337113	0.403748	0.580123
0	C	0.596235	0.933324	0.580134
0	C	0.0668699	0.662953	0.58014
0	H	0.999467	0.20984	0.0767271
0	H	0.790086	0.789475	0.0767122
0	H	0.210611	0.000558578	0.0767261
0	H	0.000401857	0.789977	0.922297
0	H	0.210053	0.210437	0.922333
0	H	0.789792	0.999561	0.922343
0	H	0.666333	0.543817	0.409807
0	H	0.457144	0.123354	0.409673
0	H	0.876651	0.333598	0.409665
0	H	0.667052	0.123637	0.256396
0	H	0.876885	0.54356	0.256334
0	H	0.456297	0.332916	0.256304
0	H	0.332814	0.87668	0.742703
0	H	0.123236	0.456301	0.742713
0	H	0.543943	0.667176	0.742738
0	H	0.333558	0.456557	0.5893
0	H	0.543419	0.876951	0.589309
0	H	0.123208	0.666461	0.589321
0	C	0.997303	0.338271	0.0764748
0	C	0.661667	0.658869	0.0765065
0	C	0.341242	0.00274951	0.0765266
0	C	0.00270587	0.661609	0.922523
0	C	0.338446	0.341079	0.922561
0	C	0.659131	0.997313	0.922591
0	C	0.664042	0.672154	0.409665
0	C	0.328931	0.992637	0.409335
0	C	0.007283	0.335975	0.409347
0	C	0.669359	0.99534	0.256714
0	C	0.00515844	0.674197	0.256584
0	C	0.32571	0.330697	0.256562
0	C	0.33068	0.00507066	0.742485
0	C	0.994935	0.325707	0.742486
0	C	0.674504	0.669351	0.742488
0	C	0.335985	0.328295	0.589556
0	C	0.671626	0.00771068	0.589564
0	C	0.992552	0.664061	0.589563
0	H	0.00166853	0.344495	0.0599773
0	H	0.655354	0.656918	0.0600111
0	H	0.343125	0.998279	0.0600327
0	H	0.998218	0.65527	0.939018
0	H	0.344737	0.342975	0.939058
0	H	0.657342	0.00177237	0.939086
0	H	0.668383	0.678557	0.39317
0	H	0.322922	0.990932	0.392834
0	H	0.00902078	0.331649	0.392848
0	H	0.664948	0.989264	0.273215
0	H	0.0113562	0.676005	0.273083
0	H	0.323904	0.335061	0.273061
0	H	0.334994	0.0112929	0.725986
0	H	0.988711	0.323838	0.725988
0	H	0.676331	0.664988	0.725989
0	H	0.331556	0.322072	0.606054
0	H	0.677825	0.00955705	0.606062
0	H	0.99067	0.668402	0.60606
0	C	0.993978	0.171882	0.116906
0	C	0.828202	0.822074	0.116904
0	C	0.177965	0.00606409	0.116911
0	C	0.00610924	0.828155	0.882123
0	C	0.171981	0.177985	0.882143
0	C	0.822179	0.994028	0.882144
0	C	0.660744	0.505282	0.449975
0	C	0.49473	0.155394	0.449879
0	C	0.844569	0.339255	0.44987
0	C	0.672684	0.16135	0.216169
0	C	0.83874	0.51124	0.216126
0	C	0.488717	0.327346	0.216101
0	C	0.327406	0.838604	0.782909
0	C	0.161436	0.488771	0.782923
0	C	0.511442	0.67271	0.782936
0	C	0.339349	0.494644	0.549105
0	C	0.5054	0.844557	0.549127
0	C	0.15561	0.660775	0.54913
0	C	0.995999	0.176993	0.140277
0	C	0.823083	0.818948	0.140276
0	C	0.181069	0.00407282	0.140284
0	C	0.00407525	0.823057	0.858752
0	C	0.177098	0.181152	0.858771
0	C	0.818978	0.995965	0.858772
0	C	0.662739	0.510176	0.47335
0	C	0.489658	0.15218	0.473252
0	C	0.847713	0.337306	0.473246
0	C	0.67084	0.156278	0.192792
0	C	0.843799	0.514348	0.192749
0	C	0.485598	0.32924	0.192725
0	C	0.329285	0.843546	0.806288
0	C	0.156384	0.485711	0.8063
0	C	0.514541	0.670789	0.806312
0	C	0.337393	0.489588	0.525732
0	C	0.510344	0.847654	0.525753
0	C	0.152573	0.66273	0.525754
0	C	0.919626	0.114829	0.152019
0	C	0.885206	0.80467	0.152016
0	C	0.195286	0.0804601	0.152022
0	C	0.0804417	0.88522	0.847007
0	C	0.114979	0.19547	0.847041
0	C	0.80481	0.919577	0.847041
0	C	0.586321	0.447908	0.485067
0	C	0.551895	0.138052	0.484992
0	C	0.861912	0.413725	0.48497
0	C	0.747225	0.218585	0.181066
0	C	0.78149	0.528456	0.181036
0	C	0.471567	0.252872	0.181005
0	C	0.25289	0.781244	0.818008
0	C	0.218702	0.471648	0.818023
0	C	0.528623	0.747159	0.81804
0	C	0.413801	0.551853	0.514009
0	C	0.448108	0.861827	0.514027
0	C	0.138407	0.586307	0.514037
0	H	0.854636	0.063733	0.144883
0	H	0.936271	0.790745	0.144877
0	H	0.209135	0.14542	0.144877
0	H	0.145434	0.93633	0.854143
0	H	0.0639391	0.209422	0.854185
0	H	0.791003	0.854631	0.854189
0	H	0.521366	0.396839	0.477915
0	H	0.602991	0.124157	0.477855
0	H	0.875814	0.478684	0.47782
0	H	0.81219	0.269678	0.188215
0	H	0.730418	0.542326	0.188193
0	H	0.457707	0.187918	0.188153
0	H	0.187932	0.730164	0.810858
0	H	0.269796	0.457802	0.81087
0	H	0.542524	0.812129	0.810894
0	H	0.478766	0.602933	0.521159
0	H	0.397035	0.875738	0.52117
0	H	0.124536	0.521363	0.521191
0	C	0.925058	0.115801	0.173197
0	C	0.884174	0.809034	0.173195
0	C	0.190902	0.0750556	0.173201
0	C	0.0750119	0.884229	0.825829
0	C	0.115953	0.191101	0.825862
0	C	0.809172	0.924931	0.825861
0	C	0.591614	0.448759	0.506246
0	C	0.55099	0.142571	0.50617
0	C	0.857461	0.408423	0.506148
0	C	0.7419	0.217794	0.159887
0	C	0.782245	0.523968	0.159857
0	C	0.476109	0.258187	0.159826
0	C	0.258209	0.782046	0.839188
0	C	0.217899	0.476142	0.8392
0	C	0.524056	0.741799	0.839218
0	C	0.408494	0.55101	0.492831
0	C	0.448976	0.857341	0.492847
0	C	0.142816	0.591565	0.492858
0	H	0.865287	0.0656863	0.181953
0	H	0.934245	0.799325	0.181953
0	H	0.200568	0.134828	0.181958
0	H	0.134773	0.934329	0.817067
0	H	0.0658763	0.20084	0.817115
0	H	0.79955	0.865153	0.817114
0	H	0.531801	0.398558	0.514977
0	H	0.601148	0.132981	0.514925
0	H	0.867109	0.468228	0.514888
0	H	0.801676	0.268031	0.151151
0	H	0.731982	0.533522	0.151136
0	H	0.466624	0.198416	0.151097
0	H	0.198418	0.731815	0.847921
0	H	0.268159	0.466621	0.847932
0	H	0.53358	0.801566	0.847955
0	H	0.46829	0.601216	0.484095
0	H	0.39882	0.866977	0.484104
0	H	0.133179	0.531749	0.484126
0	C	0.00690231	0.179838	0.183103
0	C	0.8201	0.826819	0.183101
0	C	0.173115	0.993217	0.183109
0	C	0.993174	0.820175	0.815927
0	C	0.179947	0.173247	0.815942
0	C	0.826836	0.00669948	0.815941
0	C	0.673404	0.512787	0.516183
0	C	0.486935	0.160377	0.516081
0	C	0.83962	0.326608	0.516082
0	C	0.660108	0.153784	0.149951
0	C	0.846224	0.506198	0.149904
0	C	0.493821	0.33994	0.149885
0	C	0.340002	0.846057	0.849127
0	C	0.153846	0.493851	0.849141
0	C	0.506219	0.659978	0.849148
0	C	0.3267	0.486986	0.482898
0	C	0.512967	0.839494	0.482922
0	C	0.16054	0.673318	0.482915
0	C	0.0826399	0.244384	0.171467
0	C	0.755555	0.838007	0.171468
0	C	0.161936	0.917479	0.171479
0	C	0.91744	0.75563	0.827563
0	C	0.244496	0.162018	0.827566
0	C	0.837918	0.0824248	0.827565
0	C	0.749242	0.577337	0.504574
0	C	0.422357	0.171522	0.504452
0	C	0.828391	0.250809	0.504471
0	C	0.584348	0.0891357	0.161564
0	C	0.910874	0.495029	0.161505
0	C	0.504945	0.415711	0.161495
0	C	0.415789	0.910673	0.837514
0	C	0.089199	0.504979	0.837531
0	C	0.495013	0.584199	0.837531
0	C	0.250892	0.422405	0.494509
0	C	0.57753	0.828267	0.49454
0	C	0.171728	0.749124	0.494521
0	H	0.146313	0.295391	0.178936
0	H	0.70451	0.850593	0.178936
0	H	0.149324	0.853846	0.178948
0	H	0.853775	0.704608	0.820097
0	H	0.295478	0.14937	0.820088
0	H	0.850403	0.145991	0.820085
0	H	0.812893	0.628244	0.512062
0	H	0.371398	0.184237	0.511921
0	H	0.815679	0.187173	0.511957
0	H	0.520713	0.0382166	0.154077
0	H	0.961772	0.482316	0.154005
0	H	0.517672	0.479346	0.154007
0	H	0.47943	0.961584	0.845003
0	H	0.0382436	0.517642	0.84502
0	H	0.482163	0.520503	0.845011
0	H	0.187246	0.371493	0.487022
0	H	0.628435	0.815508	0.48706
0	H	0.184324	0.812701	0.487026
0	C	0.0769722	0.242899	0.150324
0	C	0.757108	0.833946	0.150323
0	C	0.16605	0.923113	0.150334
0	C	0.923112	0.757135	0.848707
0	C	0.243012	0.166104	0.848711
0	C	0.833858	0.0768496	0.84871
0	C	0.743713	0.57597	0.483428
0	C	0.423772	0.167269	0.483309
0	C	0.832568	0.256355	0.483324
0	C	0.589923	0.0904331	0.182709
0	C	0.909606	0.499251	0.182652
0	C	0.50067	0.410149	0.182641
0	C	0.41023	0.909363	0.81637
0	C	0.0905236	0.500767	0.816384
0	C	0.499346	0.589815	0.816387
0	C	0.256445	0.423762	0.515655
0	C	0.576159	0.832499	0.515683
0	C	0.167627	0.743633	0.515668
0	H	0.136707	0.293491	0.141595
0	H	0.706509	0.843081	0.141595
0	H	0.156912	0.863371	0.141603
0	H	0.86338	0.706532	0.857435
0	H	0.293608	0.15693	0.857432
0	H	0.84292	0.13658	0.857435
0	H	0.80353	0.626578	0.47472
0	H	0.373148	0.176373	0.474585
0	H	0.823344	0.196543	0.474616
0	H	0.530148	0.0397456	0.191413
0	H	0.96029	0.49011	0.191347
0	H	0.509735	0.469919	0.191343
0	H	0.470012	0.960016	0.807662
0	H	0.0398349	0.509869	0.807683
0	H	0.490213	0.530034	0.80768
0	H	0.196639	0.373121	0.52436
0	H	0.626765	0.823333	0.524401
0	H	0.176803	0.803436	0.524374
0	C	0.0138162	0.179478	0.205736
0	C	0.820445	0.834035	0.205734
0	C	0.165879	0.98637	0.205743
0	C	0.986253	0.8205	0.793294
0	C	0.179497	0.16597	0.79331
0	C	0.834008	0.0134792	0.793306
0	C	0.680037	0.512384	0.53882
0	C	0.487262	0.167635	0.538713
0	C	0.832404	0.319938	0.538718
0	C	0.653318	0.154265	0.127316
0	C	0.845626	0.498992	0.127267
0	C	0.500975	0.346656	0.127249
0	C	0.346762	0.845609	0.871762
0	C	0.154348	0.500996	0.871778
0	C	0.49898	0.653192	0.871783
0	C	0.320014	0.487425	0.460262
0	C	0.512586	0.83226	0.460289
0	C	0.16763	0.679917	0.460278
0	H	0.0264438	0.245689	0.212229
0	H	0.754198	0.78051	0.212227
0	H	0.219478	0.973763	0.212239
0	H	0.973544	0.754249	0.786809
0	H	0.245739	0.219416	0.786798
0	H	0.780441	0.0261442	0.786816
0	H	0.692619	0.578596	0.545306
0	H	0.421002	0.114075	0.545198
0	H	0.885976	0.307354	0.545238
0	H	0.640582	0.0880367	0.120811
0	H	0.911805	0.552507	0.120744
0	H	0.447422	0.359347	0.120758
0	H	0.359408	0.911819	0.878262
0	H	0.0881653	0.447394	0.878283
0	H	0.552554	0.640553	0.878283
0	H	0.30733	0.421194	0.453768
0	H	0.578851	0.885774	0.453797
0	H	0.114066	0.692552	0.453773
0	H	0.0710681	0.168537	0.210495
0	H	0.831479	0.902247	0.2105
0	H	0.0976846	0.929134	0.210507
0	H	0.929035	0.831495	0.788534
0	H	0.168346	0.0977079	0.78855
0	H	0.90222	0.0706439	0.788529
0	H	0.737181	0.501386	0.543636
0	H	0.498227	0.23583	0.543478
0	H	0.764216	0.26279	0.543511
0	H	0.596167	0.165344	0.122545
0	H	0.834494	0.430779	0.122471
0	H	0.569175	0.403784	0.122454
0	H	0.403943	0.834601	0.876546
0	H	0.165357	0.569156	0.876581
0	H	0.430789	0.595998	0.876561
0	H	0.262901	0.498502	0.455462
0	H	0.501529	0.764038	0.455519
0	H	0.235817	0.737002	0.455464
0	H	0.950209	0.124204	0.212772
0	H	0.875681	0.82557	0.21276
0	H	0.174249	0.0500229	0.212773
0	H	0.049876	0.875716	0.78625
0	H	0.124273	0.174489	0.786296
0	H	0.825524	0.949769	0.786283
0	H	0.616249	0.4571	0.54581
0	H	0.5425	0.159215	0.545753
0	H	0.840829	0.383704	0.545702
0	H	0.717043	0.209498	0.120297
0	H	0.790331	0.507504	0.120286
0	H	0.492441	0.282902	0.120239
0	H	0.283042	0.790339	0.878775
0	H	0.20966	0.492543	0.878771
0	H	0.507395	0.716888	0.8788
0	H	0.383804	0.54267	0.453264
0	H	0.457368	0.84075	0.453263
0	H	0.159074	0.616093	0.453298
0	C	0.909796	0.0806816	0.110371
0	C	0.919402	0.829094	0.11037
0	C	0.170945	0.0902324	0.110374
0	C	0.090311	0.91934	0.888661
0	C	0.0807759	0.170971	0.888676
0	C	0.829192	0.909844	0.888674
0	C	0.576518	0.414136	0.443423
0	C	0.585921	0.162396	0.44335
0	C	0.837583	0.423478	0.443351
0	C	0.75688	0.25257	0.22269
0	C	0.747509	0.504247	0.222648
0	C	0.495713	0.24314	0.222632
0	C	0.243227	0.747421	0.77637
0	C	0.252662	0.495769	0.776398
0	C	0.504406	0.756892	0.776406
0	C	0.423589	0.585839	0.555635
0	C	0.414242	0.837592	0.555672
0	C	0.162527	0.576531	0.555665
0	C	0.912974	0.997095	0.111486
0	C	0.00296644	0.915825	0.111486
0	C	0.0842122	0.0871053	0.111488
0	C	0.087157	0.00293889	0.887549
0	C	0.99721	0.0842537	0.887555
0	C	0.915922	0.912971	0.887555
0	C	0.579585	0.330486	0.444511
0	C	0.669535	0.249112	0.444473
0	C	0.750887	0.42042	0.444497
0	C	0.753795	0.336186	0.221554
0	C	0.663847	0.417545	0.221526
0	C	0.582448	0.246235	0.221536
0	C	0.246324	0.663802	0.777493
0	C	0.336323	0.582483	0.777516
0	C	0.417667	0.753783	0.77751
0	C	0.420528	0.669481	0.554525
0	C	0.330624	0.750886	0.554551
0	C	0.249221	0.579572	0.554535
0	C	0.82909	0.910794	0.110539
0	C	0.0892879	0.918227	0.110543
0	C	0.0817814	0.17099	0.110539
0	C	0.171064	0.0892374	0.888499
0	C	0.910898	0.0818658	0.888498
0	C	0.918323	0.829064	0.888496
0	C	0.495659	0.244194	0.443551
0	C	0.755801	0.251432	0.443523
0	C	0.748546	0.504366	0.443583
0	C	0.837764	0.422461	0.22248
0	C	0.577535	0.415181	0.22245
0	C	0.584815	0.162308	0.22249
0	C	0.162378	0.577524	0.776563
0	C	0.422641	0.584867	0.776586
0	C	0.415268	0.837694	0.776561
0	C	0.504475	0.75578	0.555475
0	C	0.244362	0.74858	0.555494
0	C	0.251533	0.495614	0.555463
0	C	0.746549	0.909336	0.105529
0	C	0.0907215	0.837153	0.105537
0	C	0.162867	0.253483	0.105524
0	C	0.253581	0.090663	0.893514
0	C	0.909452	0.16293	0.893505
0	C	0.837236	0.746567	0.893505
0	C	0.41316	0.242831	0.438557
0	C	0.75717	0.170308	0.438528
0	C	0.829655	0.586862	0.438576
0	C	0.920272	0.423845	0.227473
0	C	0.576151	0.496297	0.227441
0	C	0.503683	0.0798001	0.227473
0	C	0.079861	0.57613	0.771575
0	C	0.424011	0.503737	0.771598
0	C	0.49638	0.920205	0.771565
0	C	0.586964	0.757152	0.560481
0	C	0.242978	0.829684	0.560498
0	C	0.1704	0.413127	0.560459
0	H	0.681719	0.842948	0.104317
0	H	0.157078	0.838672	0.104327
0	H	0.161362	0.31832	0.104304
0	H	0.318421	0.157035	0.894729
0	H	0.843105	0.161431	0.894712
0	H	0.838717	0.681711	0.894719
0	H	0.348273	0.176516	0.43733
0	H	0.82349	0.171742	0.437319
0	H	0.828243	0.651763	0.437385
0	H	0.985182	0.490153	0.228668
0	H	0.509836	0.494885	0.228644
0	H	0.505122	0.0149208	0.228692
0	H	0.0149667	0.509813	0.770379
0	H	0.490332	0.505161	0.77039
0	H	0.494908	0.985066	0.770346
0	H	0.651865	0.823461	0.561703
0	H	0.176664	0.828262	0.561703
0	H	0.171778	0.348209	0.561655
0	C	0.74535	0.991643	0.102278
0	C	0.00837891	0.753635	0.102286
0	C	0.246391	0.25468	0.102271
0	C	0.254729	0.00832871	0.89677
0	C	0.991808	0.246439	0.896766
0	C	0.753714	0.745376	0.896757
0	C	0.412031	0.3252	0.435325
0	C	0.674821	0.0868139	0.435276
0	C	0.91312	0.587981	0.435285
0	C	0.921398	0.341499	0.230745
0	C	0.658519	0.579779	0.230704
0	C	0.420164	0.078644	0.230704
0	C	0.0787041	0.658462	0.768313
0	C	0.341655	0.420244	0.768347
0	C	0.5799	0.921379	0.768321
0	C	0.588069	0.674775	0.56373
0	C	0.325343	0.913164	0.563763
0	C	0.0869371	0.412034	0.563732
0	H	0.6811	0.989268	0.0979158
0	H	0.0107473	0.691758	0.0979287
0	H	0.308257	0.318905	0.0979002
0	H	0.318961	0.0106882	0.901142
0	H	0.98944	0.308305	0.901131
0	H	0.691833	0.681135	0.901118
0	H	0.34781	0.32289	0.430965
0	H	0.677128	0.0249054	0.43092
0	H	0.975003	0.652203	0.430913
0	H	0.985634	0.343836	0.235103
0	H	0.656173	0.64167	0.23506
0	H	0.358252	0.0144036	0.235053
0	H	0.014459	0.656117	0.763962
0	H	0.343995	0.358343	0.763998
0	H	0.64179	0.985614	0.763959
0	H	0.652284	0.677092	0.568102
0	H	0.323029	0.975056	0.568132
0	H	0.025033	0.347814	0.568094
0	C	0.826221	0.0767593	0.10532
0	C	0.923312	0.749422	0.10532
0	C	0.250607	0.1738	0.105319
0	C	0.173865	0.923232	0.893723
0	C	0.0768633	0.250638	0.893731
0	C	0.749508	0.826264	0.893717
0	C	0.492956	0.410279	0.43838
0	C	0.589748	0.0826811	0.438306
0	C	0.917265	0.507036	0.438294
0	C	0.840448	0.256429	0.22773
0	C	0.743613	0.583934	0.227683
0	C	0.415998	0.159554	0.227659
0	C	0.159653	0.743546	0.771334
0	C	0.256552	0.416077	0.771368
0	C	0.58409	0.840479	0.771366
0	C	0.507151	0.5897	0.560685
0	C	0.410409	0.917296	0.560727
0	C	0.0828153	0.492984	0.560714
0	H	0.823691	0.140985	0.104053
0	H	0.859057	0.682677	0.10405
0	H	0.31733	0.176273	0.104054
0	H	0.17635	0.858989	0.894995
0	H	0.141133	0.317374	0.895006
0	H	0.68278	0.823791	0.894978
0	H	0.490462	0.474533	0.437127
0	H	0.525472	0.0159575	0.437038
0	H	0.983985	0.509492	0.436993
0	H	0.842882	0.192153	0.229008
0	H	0.807879	0.650667	0.228959
0	H	0.34924	0.157055	0.228905
0	H	0.15718	0.807803	0.770066
0	H	0.192297	0.349337	0.7701
0	H	0.650853	0.842992	0.77011
0	H	0.509614	0.525433	0.561952
0	H	0.474694	0.984014	0.562002
0	H	0.0160986	0.490542	0.562003
0	C	0.622676	0.183041	0.380199
0	C	0.817084	0.439724	0.38021
0	C	0.560389	0.377812	0.380173
0	C	0.377582	0.817023	0.618886
0	C	0.183188	0.560444	0.618881
0	C	0.439735	0.622247	0.618874
0	C	0.289145	0.516227	0.713272
0	C	0.484068	0.773081	0.713218
0	C	0.227248	0.710906	0.713221
0	C	0.0441171	0.151088	0.951951
0	C	0.8491	0.893298	0.951929
0	C	0.106885	0.955856	0.951926
0	C	0.956139	0.848976	0.0471345
0	C	0.151171	0.106859	0.0471609
0	C	0.893244	0.0442026	0.0471176
0	C	0.711101	0.483827	0.285815
0	C	0.516206	0.227074	0.285872
0	C	0.772871	0.289152	0.285823
0	H	0.552639	0.121199	0.379884
0	H	0.878912	0.431507	0.379879
0	H	0.568434	0.447782	0.379834
0	H	0.447665	0.878788	0.619264
0	H	0.121419	0.568759	0.619229
0	H	0.431523	0.552215	0.619264
0	H	0.219109	0.454374	0.712952
0	H	0.54596	0.764953	0.712856
0	H	0.235393	0.780923	0.712886
0	H	0.114141	0.212981	0.952278
0	H	0.7872	0.90141	0.952226
0	H	0.0988033	0.885861	0.952247
0	H	0.886158	0.787015	0.0468664
0	H	0.213125	0.098839	0.0468775
0	H	0.901165	0.114136	0.0468446
0	H	0.781184	0.545605	0.286196
0	H	0.454371	0.235296	0.286248
0	H	0.764562	0.219073	0.286208
0	H	0.618068	0.238279	0.372066
0	H	0.761774	0.379878	0.37209
0	H	0.620247	0.382453	0.372038
0	H	0.381951	0.761585	0.62699
0	H	0.238573	0.620226	0.627005
0	H	0.379899	0.617827	0.626974
0	H	0.284473	0.571517	0.705177
0	H	0.428743	0.713142	0.705118
0	H	0.287151	0.71554	0.705104
0	H	0.0489145	0.0957281	0.959983
0	H	0.904408	0.953483	0.959964
0	H	0.0466503	0.950977	0.959943
0	H	0.951125	0.904153	0.039076
0	H	0.0959223	0.0466084	0.0391342
0	H	0.953496	0.0492901	0.0390683
0	H	0.715539	0.428341	0.293881
0	H	0.571592	0.286943	0.29398
0	H	0.712988	0.284737	0.293906
0	H	0.638127	0.204467	0.396172
0	H	0.795732	0.433832	0.396186
0	H	0.566411	0.362472	0.396149
0	H	0.36235	0.795861	0.602896
0	H	0.204484	0.566359	0.6029
0	H	0.433817	0.637441	0.602882
0	H	0.30466	0.537523	0.729252
0	H	0.462864	0.767149	0.729209
0	H	0.23321	0.695536	0.729201
0	H	0.0286203	0.129994	0.935962
0	H	0.870282	0.898834	0.935948
0	H	0.101346	0.971398	0.935936
0	H	0.971837	0.870313	0.0631071
0	H	0.12996	0.101357	0.0631399
0	H	0.898886	0.0285274	0.063093
0	H	0.695797	0.462789	0.269817
0	H	0.537378	0.233036	0.269879
0	H	0.767018	0.304384	0.269827
0	C	0.691514	0.161432	0.370853
0	C	0.838704	0.530155	0.370857
0	C	0.469976	0.308835	0.370838
0	C	0.308697	0.838619	0.628214
0	C	0.161477	0.469948	0.628214
0	C	0.530166	0.691207	0.628207
0	C	0.357993	0.49472	0.703889
0	C	0.505468	0.863469	0.703871
0	C	0.136827	0.641981	0.703874
0	C	0.975248	0.172349	0.961398
0	C	0.827783	0.803155	0.961395
0	C	0.196974	0.0247599	0.961393
0	C	0.0249598	0.827694	0.0376707
0	C	0.172391	0.196936	0.0376755
0	C	0.80317	0.975282	0.037651
0	C	0.642208	0.505319	0.295179
0	C	0.494703	0.136616	0.2952
0	C	0.863309	0.358058	0.29517
0	C	0.755853	0.151997	0.382968
0	C	0.84816	0.603933	0.382973
0	C	0.396263	0.244458	0.382959
0	C	0.244369	0.848021	0.616091
0	C	0.152028	0.3962	0.616091
0	C	0.603865	0.755578	0.616083
0	C	0.422367	0.485272	0.715992
0	C	0.514826	0.937202	0.715982
0	C	0.063046	0.577628	0.715988
0	C	0.910642	0.181747	0.94937
0	C	0.818377	0.729134	0.949375
0	C	0.270996	0.0893977	0.949372
0	C	0.0895741	0.818262	0.0496924
0	C	0.181796	0.270986	0.049688
0	C	0.729144	0.910641	0.0496718
0	C	0.577844	0.514735	0.28307
0	C	0.485347	0.0629125	0.283082
0	C	0.937084	0.422409	0.283055
0	H	0.757742	0.163545	0.399298
0	H	0.836597	0.59429	0.399302
0	H	0.405947	0.242601	0.399289
0	H	0.242503	0.836462	0.599762
0	H	0.163594	0.405873	0.599762
0	H	0.594183	0.757436	0.599755
0	H	0.424275	0.496774	0.732325
0	H	0.503252	0.927548	0.732313
0	H	0.0727212	0.575748	0.732319
0	H	0.908475	0.170313	0.933032
0	H	0.829817	0.738389	0.933038
0	H	0.261766	0.091603	0.933034
0	H	0.0917641	0.829687	0.0660305
0	H	0.170358	0.261761	0.0660248
0	H	0.738382	0.908441	0.0660104
0	H	0.575957	0.503223	0.266738
0	H	0.496927	0.0725946	0.266752
0	H	0.927414	0.424296	0.266725
0	C	0.816761	0.127073	0.374283
0	C	0.873121	0.68976	0.374286
0	C	0.310446	0.183459	0.37428
0	C	0.183424	0.87293	0.624766
0	C	0.127046	0.310343	0.624769
0	C	0.689693	0.816584	0.624763
0	C	0.483276	0.460391	0.707294
0	C	0.539716	0.0230261	0.707296
0	C	0.977245	0.516724	0.707308
0	C	0.849781	0.206508	0.958146
0	C	0.793592	0.643529	0.95816
0	C	0.356599	0.150239	0.958162
0	C	0.150396	0.793483	0.0409059
0	C	0.206553	0.356558	0.0408929
0	C	0.643548	0.849801	0.0408857
0	C	0.516898	0.539602	0.291759
0	C	0.460427	0.977056	0.291758
0	C	0.0228923	0.483315	0.291738
0	H	0.865722	0.119028	0.38391
0	H	0.881182	0.746782	0.383909
0	H	0.253458	0.134469	0.383907
0	H	0.134455	0.88093	0.615133
0	H	0.118977	0.253343	0.615138
0	H	0.746672	0.86557	0.615133
0	H	0.532217	0.452304	0.71692
0	H	0.54776	0.0800086	0.716929
0	H	0.920283	0.467747	0.716944
0	H	0.800649	0.214519	0.948574
0	H	0.78555	0.586359	0.948594
0	H	0.413788	0.199365	0.948594
0	H	0.199517	0.785422	0.0504728
0	H	0.214575	0.413744	0.0504508
0	H	0.586353	0.800674	0.0504511
0	H	0.467946	0.547639	0.282127
0	H	0.45237	0.92009	0.282118
0	H	0.079846	0.532293	0.282101
0	C	0.815176	0.111331	0.353274
0	C	0.888874	0.703887	0.353276
0	C	0.29628	0.185025	0.353272
0	C	0.185001	0.888725	0.645773
0	C	0.111274	0.29617	0.645776
0	C	0.703874	0.815009	0.64577
0	C	0.481722	0.444722	0.68628
0	C	0.555465	0.0372253	0.68629
0	C	0.963028	0.518285	0.686298
0	C	0.851594	0.222156	0.979168
0	C	0.777962	0.62974	0.979182
0	C	0.370382	0.148426	0.979186
0	C	0.148578	0.777891	0.0198813
0	C	0.222176	0.370301	0.0198685
0	C	0.629767	0.851597	0.0198604
0	C	0.518448	0.555326	0.31277
0	C	0.444661	0.962811	0.312762
0	C	0.0371151	0.481732	0.312747
0	C	0.751628	0.121896	0.341188
0	C	0.878269	0.629768	0.34119
0	C	0.370334	0.248606	0.341176
0	C	0.24855	0.878194	0.657868
0	C	0.12183	0.370255	0.657871
0	C	0.629827	0.751398	0.657865
0	C	0.418168	0.455342	0.674209
0	C	0.544906	0.963114	0.674203
0	C	0.0371393	0.581758	0.674211
0	C	0.915314	0.211478	0.991167
0	C	0.788647	0.704156	0.991174
0	C	0.295954	0.0846842	0.991174
0	C	0.084863	0.788602	0.00789208
0	C	0.211447	0.295852	0.00788614
0	C	0.704194	0.915309	0.00786849
0	C	0.582006	0.544739	0.324851
0	C	0.455171	0.0368893	0.324858
0	C	0.963005	0.418228	0.32483
0	H	0.748179	0.109286	0.324855
0	H	0.890875	0.638918	0.324856
0	H	0.361142	0.252054	0.324843
0	H	0.251993	0.890843	0.6742
0	H	0.10918	0.361063	0.674203
0	H	0.639041	0.747927	0.674197
0	H	0.414707	0.442841	0.657871
0	H	0.5575	0.972276	0.657869
0	H	0.0280411	0.585147	0.657876
0	H	0.918926	0.223847	0.00751742
0	H	0.776305	0.695437	0.00752398
0	H	0.304674	0.0810745	0.00752549
0	H	0.0812442	0.776271	0.99154
0	H	0.223749	0.304526	0.991534
0	H	0.695483	0.91889	0.991516
0	H	0.585461	0.55728	0.341187
0	H	0.442527	0.0276816	0.341189
0	H	0.972116	0.414807	0.341165
0	C	0.690849	0.147336	0.349831
0	C	0.85278	0.543548	0.349835
0	C	0.456537	0.309453	0.349815
0	C	0.309327	0.852737	0.649235
0	C	0.147316	0.456482	0.649234
0	C	0.543624	0.690568	0.649229
0	C	0.357347	0.48071	0.682866
0	C	0.51951	0.876916	0.682843
0	C	0.123377	0.642572	0.682852
0	C	0.976082	0.186225	0.982431
0	C	0.813883	0.790151	0.982428
0	C	0.209961	0.0238927	0.982428
0	C	0.0240902	0.813837	0.016637
0	C	0.186209	0.209866	0.0166406
0	C	0.790191	0.976121	0.0166164
0	C	0.642821	0.519351	0.316203
0	C	0.480569	0.123096	0.316225
0	C	0.87677	0.357436	0.316192
0	H	0.641635	0.154726	0.340177
0	H	0.845339	0.486926	0.340182
0	H	0.513124	0.358692	0.340158
0	H	0.358528	0.845347	0.658896
0	H	0.154695	0.513074	0.658891
0	H	0.487043	0.641313	0.658884
0	H	0.30811	0.488111	0.67322
0	H	0.512118	0.8203	0.673192
0	H	0.179974	0.691778	0.673193
0	H	0.0253987	0.178801	0.992031
0	H	0.821284	0.846942	0.992017
0	H	0.153197	0.97451	0.992014
0	H	0.974759	0.821261	0.00704406
0	H	0.178749	0.153042	0.00705607
0	H	0.84695	0.0254841	0.00702529
0	H	0.692044	0.511952	0.325855
0	H	0.487899	0.179678	0.325881
0	H	0.820168	0.308208	0.325846
0	C	0.878301	0.0778014	0.344444
0	C	0.922388	0.800518	0.344438
0	C	0.199635	0.121876	0.344446
0	C	0.12185	0.92224	0.654597
0	C	0.0777484	0.19952	0.654606
0	C	0.800532	0.878178	0.654595
0	C	0.544873	0.411199	0.677452
0	C	0.588993	0.133909	0.677471
0	C	0.866332	0.455204	0.677471
0	C	0.788548	0.255708	0.988063
0	C	0.744401	0.533146	0.988078
0	C	0.466979	0.21151	0.988079
0	C	0.211605	0.744335	0.0109784
0	C	0.255738	0.466879	0.0109645
0	C	0.533174	0.788523	0.0109689
0	C	0.455273	0.588838	0.321591
0	C	0.41113	0.866113	0.321574
0	C	0.133817	0.544823	0.321575
0	C	0.885039	0.086407	0.321115
0	C	0.913656	0.798554	0.321114
0	C	0.201514	0.115272	0.321118
0	C	0.115079	0.913587	0.677925
0	C	0.0864567	0.201456	0.677931
0	C	0.798652	0.88481	0.677922
0	C	0.551583	0.41972	0.654124
0	C	0.580554	0.132216	0.654139
0	C	0.868105	0.448424	0.654138
0	C	0.781961	0.247174	0.011401
0	C	0.752928	0.535101	0.0114133
0	C	0.465052	0.218096	0.0114141
0	C	0.218171	0.752842	0.987641
0	C	0.247206	0.4649	0.98763
0	C	0.535092	0.781961	0.987633
0	C	0.448541	0.580281	0.344919
0	C	0.419559	0.867785	0.344906
0	C	0.132037	0.55163	0.344907
0	C	0.866228	0.0111438	0.308492
0	C	0.988896	0.854934	0.308475
0	C	0.145159	0.13423	0.308496
0	C	0.133901	0.988828	0.690558
0	C	0.0112099	0.145051	0.690563
0	C	0.855039	0.865921	0.690552
0	C	0.532893	0.34443	0.64152
0	C	0.655854	0.188776	0.641528
0	C	0.811552	0.467205	0.641538
0	C	0.800622	0.322441	0.024012
0	C	0.67763	0.478473	0.0240136
0	C	0.521711	0.1995	0.0240234
0	C	0.199508	0.677554	0.975038
0	C	0.322501	0.521513	0.975026
0	C	0.478461	0.800622	0.975031
0	C	0.46724	0.65555	0.357533
0	C	0.344258	0.811197	0.357513
0	C	0.18863	0.532929	0.357514
0	H	0.84243	0.942019	0.314792
0	H	0.0580492	0.900207	0.314765
0	H	0.0998666	0.158097	0.314796
0	H	0.157713	0.0579626	0.684263
0	H	0.942071	0.099776	0.684271
0	H	0.900363	0.842087	0.684255
0	H	0.509082	0.2753	0.647829
0	H	0.725015	0.234059	0.647833
0	H	0.766284	0.491068	0.647853
0	H	0.824435	0.391562	0.017698
0	H	0.608511	0.433186	0.0176938
0	H	0.567017	0.175682	0.0177088
0	H	0.175695	0.608436	0.981355
0	H	0.391627	0.5668	0.981345
0	H	0.433182	0.824468	0.98135
0	H	0.491064	0.724689	0.351228
0	H	0.275108	0.765907	0.351207
0	H	0.233931	0.509103	0.351204
0	C	0.878814	0.0229428	0.287501
0	C	0.976999	0.85571	0.28749
0	C	0.144416	0.121693	0.287505
0	C	0.121289	0.976974	0.711546
0	C	0.0230987	0.144258	0.71155
0	C	0.855743	0.878474	0.711542
0	C	0.545627	0.356174	0.620533
0	C	0.644068	0.189781	0.620542
0	C	0.810517	0.454501	0.620549
0	C	0.787822	0.310716	0.0449975
0	C	0.689297	0.477357	0.0450008
0	C	0.522832	0.212367	0.0450074
0	C	0.212282	0.689225	0.954051
0	C	0.310829	0.522618	0.954039
0	C	0.477308	0.787778	0.954046
0	C	0.454476	0.64375	0.378518
0	C	0.356042	0.810181	0.3785
0	C	0.189635	0.545662	0.378501
0	H	0.865093	0.963698	0.278018
0	H	0.0361979	0.901174	0.277996
0	H	0.0989592	0.135533	0.278025
0	H	0.134996	0.0361873	0.721039
0	H	0.963892	0.0987538	0.721036
0	H	0.901226	0.864701	0.721029
0	H	0.532034	0.296892	0.611075
0	H	0.703346	0.235405	0.611072
0	H	0.764864	0.468182	0.611098
0	H	0.801338	0.370055	0.0544211
0	H	0.629912	0.431502	0.0544118
0	H	0.568706	0.198914	0.05443
0	H	0.198757	0.62986	0.944636
0	H	0.370209	0.568443	0.944622
0	H	0.431458	0.801299	0.944631
0	H	0.468052	0.703002	0.387984
0	H	0.296758	0.764523	0.387964
0	H	0.235315	0.532051	0.387961
0	C	0.910062	0.110388	0.278683
0	C	0.889475	0.799578	0.278697
0	C	0.20052	0.0903169	0.278691
0	C	0.0899883	0.889487	0.72035
0	C	0.110612	0.200413	0.720349
0	C	0.799527	0.909744	0.720345
0	C	0.576889	0.443586	0.611697
0	C	0.556605	0.133709	0.611716
0	C	0.866553	0.423136	0.611697
0	C	0.756552	0.223334	0.0538579
0	C	0.776663	0.533455	0.0538734
0	C	0.466684	0.243604	0.0538655
0	C	0.243507	0.77657	0.945178
0	C	0.223456	0.466542	0.945172
0	C	0.533353	0.756448	0.945177
0	C	0.423159	0.556298	0.38734
0	C	0.443495	0.866282	0.387331
0	C	0.133487	0.576923	0.387342
0	C	0.927989	0.185868	0.29121
0	C	0.814026	0.742099	0.291237
0	C	0.257987	0.0722749	0.291219
0	C	0.0720352	0.814033	0.707814
0	C	0.186065	0.257915	0.70781
0	C	0.742023	0.927695	0.70781
0	C	0.594754	0.519102	0.624204
0	C	0.481101	0.0760779	0.624227
0	C	0.924188	0.405205	0.624196
0	C	0.738724	0.147864	0.0413394
0	C	0.852181	0.59111	0.0413621
0	C	0.408988	0.261365	0.0413478
0	C	0.261319	0.852066	0.957688
0	C	0.14794	0.408899	0.957683
0	C	0.591012	0.738597	0.957688
0	C	0.405275	0.480809	0.374824
0	C	0.518999	0.923938	0.37482
0	C	0.0758018	0.594748	0.374838
0	H	0.951119	0.254186	0.284637
0	H	0.745652	0.696986	0.284685
0	H	0.303104	0.0490493	0.284653
0	H	0.0488456	0.745679	0.714376
0	H	0.254434	0.30304	0.714367
0	H	0.696816	0.950828	0.71437
0	H	0.617991	0.587417	0.617622
0	H	0.412769	0.0310156	0.617652
0	H	0.969232	0.381947	0.617603
0	H	0.715416	0.0795042	0.0478983
0	H	0.920546	0.636129	0.0479292
0	H	0.363923	0.284665	0.0479059
0	H	0.284573	0.920394	0.951119
0	H	0.079573	0.363894	0.951119
0	H	0.635993	0.715215	0.951123
0	H	0.381978	0.412461	0.381396
0	H	0.587327	0.969018	0.381399
0	H	0.0306662	0.617913	0.381424
0	C	0.916047	0.173841	0.312168
0	C	0.826151	0.742178	0.312191
0	C	0.257888	0.0841985	0.312176
0	C	0.0840122	0.826115	0.686857
0	C	0.173959	0.257844	0.686857
0	C	0.742185	0.915797	0.686854
0	C	0.582641	0.507122	0.64516
0	C	0.493123	0.0759282	0.645181
0	C	0.924361	0.417288	0.645156
0	C	0.75088	0.159806	0.0203799
0	C	0.840287	0.591367	0.0204026
0	C	0.408745	0.249159	0.0203906
0	C	0.249199	0.840175	0.978649
0	C	0.159849	0.408643	0.978643
0	C	0.591311	0.750818	0.978646
0	C	0.417426	0.492843	0.35387
0	C	0.50699	0.92409	0.353867
0	C	0.0756841	0.582675	0.353879
0	H	0.931145	0.233546	0.32171
0	H	0.766469	0.697626	0.321744
0	H	0.302423	0.0690169	0.321723
0	H	0.0688916	0.766427	0.677307
0	H	0.23364	0.302403	0.677303
0	H	0.697622	0.93091	0.677302
0	H	0.597681	0.56685	0.654687
0	H	0.433405	0.0312744	0.654713
0	H	0.969016	0.402151	0.654671
0	H	0.735797	0.100063	0.0108549
0	H	0.900059	0.636046	0.0108844
0	H	0.364041	0.26418	0.0108639
0	H	0.264265	0.899934	0.988168
0	H	0.100071	0.363963	0.988159
0	H	0.635986	0.73573	0.988167
0	H	0.402368	0.433132	0.344337
0	H	0.566701	0.96875	0.344333
0	H	0.0309917	0.597734	0.344358
0	C	0.923438	0.122011	0.256217
0	C	0.877724	0.801337	0.256237
0	C	0.198751	0.0768699	0.25623
0	C	0.0765402	0.877794	0.742814
0	C	0.122342	0.198639	0.742809
0	C	0.801204	0.92315	0.742807
0	C	0.590358	0.455129	0.589234
0	C	0.544959	0.135682	0.589256
0	C	0.864436	0.409622	0.589231
0	C	0.743019	0.211819	0.076327
0	C	0.788111	0.531411	0.0763444
0	C	0.46866	0.257154	0.0763335
0	C	0.256972	0.788016	0.922706
0	C	0.211987	0.468575	0.922701
0	C	0.531295	0.742866	0.922709
0	C	0.409609	0.544678	0.409801
0	C	0.45512	0.8643	0.409791
0	C	0.135525	0.590409	0.409808
0	H	0.971181	0.0991093	0.250758
0	H	0.900558	0.871972	0.250785
0	H	0.128107	0.0290669	0.250784
0	H	0.028692	0.900586	0.748263
0	H	0.0995645	0.128004	0.748254
0	H	0.871811	0.971	0.748269
0	H	0.638087	0.432172	0.583796
0	H	0.567918	0.206383	0.583829
0	H	0.793677	0.361893	0.583829
0	H	0.695221	0.234694	0.0817609
0	H	0.765205	0.460735	0.0817804
0	H	0.539322	0.304929	0.0817814
0	H	0.304674	0.765038	0.917264
0	H	0.234944	0.53925	0.917259
0	H	0.460602	0.695136	0.917275
0	H	0.361779	0.56753	0.415229
0	H	0.432214	0.793599	0.415212
0	H	0.206254	0.638179	0.415224
0	H	0.95144	0.194335	0.251369
0	H	0.805365	0.757002	0.251411
0	H	0.243091	0.0488739	0.251394
0	H	0.0485964	0.805463	0.747652
0	H	0.194684	0.243036	0.747642
0	H	0.75677	0.951054	0.747633
0	H	0.618419	0.52744	0.584371
0	H	0.472612	0.0914757	0.584407
0	H	0.908604	0.381531	0.584328
0	H	0.715031	0.139559	0.0812171
0	H	0.860367	0.575688	0.0812445
0	H	0.424375	0.285161	0.0812071
0	H	0.285012	0.860267	0.917806
0	H	0.139714	0.424353	0.917809
0	H	0.575494	0.714775	0.917827
0	H	0.381591	0.472356	0.414652
0	H	0.527449	0.90857	0.414647
0	H	0.0912787	0.618428	0.414702
0	H	0.856653	0.0800316	0.24828
0	H	0.919661	0.776559	0.248276
0	H	0.223527	0.143606	0.248279
0	H	0.14328	0.919823	0.750765
0	H	0.080319	0.223328	0.750767
0	H	0.776454	0.856397	0.75075
0	H	0.523581	0.413154	0.581296
0	H	0.586845	0.110853	0.58129
0	H	0.88916	0.476367	0.581286
0	H	0.809679	0.253838	0.0843026
0	H	0.746052	0.556032	0.0843114
0	H	0.443961	0.190488	0.0843096
0	H	0.190272	0.746039	0.914744
0	H	0.253963	0.443871	0.91473
0	H	0.55602	0.809517	0.914726
0	H	0.476338	0.586689	0.417756
0	H	0.413147	0.889043	0.417751
0	H	0.110818	0.523646	0.417746
0	C	0.978825	0.136388	0.351427
0	C	0.863825	0.842459	0.35143
0	C	0.157738	0.0213471	0.351414
0	C	0.0213445	0.86367	0.647606
0	C	0.136328	0.157592	0.647619
0	C	0.842428	0.978697	0.647619
0	C	0.64543	0.469786	0.684433
0	C	0.530365	0.175815	0.684454
0	C	0.824373	0.354694	0.68446
0	C	0.687962	0.197141	0.981099
0	C	0.802946	0.491103	0.981115
0	C	0.508989	0.312097	0.981115
0	C	0.312197	0.802902	0.017944
0	C	0.197187	0.508923	0.0179248
0	C	0.491156	0.687928	0.0179286
0	C	0.354727	0.530257	0.314608
0	C	0.469761	0.82421	0.314594
0	C	0.175764	0.645325	0.314582
0	C	0.0163071	0.230397	0.356214
0	C	0.769837	0.785967	0.356236
0	C	0.214264	0.983835	0.356195
0	C	0.98386	0.769664	0.642813
0	C	0.230328	0.214092	0.642822
0	C	0.785897	0.0161955	0.642829
0	C	0.682985	0.563792	0.68923
0	C	0.43635	0.119336	0.689246
0	C	0.880828	0.317135	0.689255
0	C	0.650471	0.10321	0.976228
0	C	0.896884	0.547539	0.97624
0	C	0.45254	0.349575	0.976243
0	C	0.349687	0.896825	0.0228222
0	C	0.103249	0.452491	0.0227929
0	C	0.547596	0.650442	0.0228021
0	C	0.317172	0.436246	0.309815
0	C	0.563788	0.880705	0.309809
0	C	0.119298	0.682877	0.309791
0	H	0.970907	0.260021	0.357549
0	H	0.740248	0.710918	0.357575
0	H	0.289297	0.029259	0.357542
0	H	0.0292534	0.740032	0.641475
0	H	0.259906	0.289133	0.641486
0	H	0.710861	0.970782	0.641483
0	H	0.637584	0.593462	0.690569
0	H	0.406705	0.0442741	0.690599
0	H	0.955903	0.362535	0.690594
0	H	0.695887	0.07356	0.974868
0	H	0.926566	0.622603	0.974888
0	H	0.377464	0.304161	0.974887
0	H	0.304263	0.926466	0.0241832
0	H	0.0735606	0.377424	0.0241432
0	H	0.622675	0.69586	0.0241639
0	H	0.362565	0.406568	0.308474
0	H	0.593422	0.955765	0.308457
0	H	0.044225	0.637478	0.308457
0	C	0.111802	0.287676	0.358817
0	C	0.712554	0.824157	0.358853
0	C	0.176074	0.888352	0.358781
0	C	0.888373	0.712397	0.640206
0	C	0.287608	0.175899	0.640211
0	C	0.82409	0.111672	0.640229
0	C	0.77848	0.621041	0.691847
0	C	0.37905	0.157532	0.691837
0	C	0.842607	0.221651	0.691862
0	C	0.555022	0.045989	0.973549
0	C	0.954078	0.509295	0.973542
0	C	0.490787	0.445018	0.973555
0	C	0.445142	0.954043	0.0255086
0	C	0.0460427	0.490729	0.025486
0	C	0.509349	0.554996	0.0254858
0	C	0.221685	0.378998	0.3072
0	C	0.621089	0.842513	0.307223
0	C	0.157515	0.778357	0.30718
0	H	0.140254	0.360612	0.362758
0	H	0.639643	0.779675	0.362817
0	H	0.220573	0.859906	0.362716
0	H	0.859927	0.639466	0.636257
0	H	0.360527	0.220393	0.636257
0	H	0.779595	0.140104	0.63628
0	H	0.806937	0.693958	0.695806
0	H	0.306112	0.113058	0.695785
0	H	0.887061	0.193169	0.695811
0	H	0.526653	0.973194	0.969501
0	H	0.0268501	0.553724	0.969482
0	H	0.446345	0.473367	0.969495
0	H	0.473514	0.0268288	0.0295647
0	H	0.973262	0.446294	0.029536
0	H	0.553776	0.526629	0.0295458
0	H	0.193233	0.306078	0.303245
0	H	0.694037	0.886999	0.303281
0	H	0.113045	0.806821	0.303233
0	C	0.171152	0.252373	0.355385
0	C	0.747824	0.91879	0.355402
0	C	0.0814148	0.829002	0.355344
0	C	0.829004	0.747677	0.643644
0	C	0.252334	0.0812586	0.643653
0	C	0.91875	0.171036	0.643675
0	C	0.837831	0.585742	0.688409
0	C	0.414323	0.252159	0.688378
0	C	0.747959	0.162331	0.68842
0	C	0.495616	0.0811849	0.977033
0	C	0.918868	0.414685	0.977017
0	C	0.585392	0.50445	0.97704
0	C	0.504526	0.91883	0.0220193
0	C	0.0812585	0.585339	0.0220137
0	C	0.414752	0.49558	0.0219995
0	C	0.16231	0.414275	0.310636
0	C	0.585813	0.747877	0.310673
0	C	0.252173	0.837693	0.31062
0	H	0.246211	0.299673	0.356027
0	H	0.700492	0.946497	0.35605
0	H	0.0536969	0.75396	0.355982
0	H	0.753949	0.700369	0.642999
0	H	0.299652	0.0535439	0.643002
0	H	0.946463	0.24608	0.643033
0	H	0.912877	0.633079	0.689061
0	H	0.366947	0.279824	0.689001
0	H	0.720222	0.0872858	0.689058
0	H	0.420587	0.0338304	0.976338
0	H	0.966189	0.386972	0.976311
0	H	0.613043	0.579468	0.976344
0	H	0.579561	0.966179	0.0227142
0	H	0.0339283	0.613043	0.0227143
0	H	0.387092	0.420558	0.0226929
0	H	0.0872711	0.366931	0.309984
0	H	0.633181	0.720205	0.310048
0	H	0.279899	0.912735	0.30998
0	C	0.135761	0.158465	0.350816
0	C	0.841722	0.977343	0.350811
0	C	0.0228696	0.864374	0.350785
0	C	0.86439	0.841578	0.648223
0	C	0.158439	0.0227053	0.648236
0	C	0.977285	0.135669	0.648249
0	C	0.802451	0.491837	0.683834
0	C	0.508252	0.31071	0.683816
0	C	0.689457	0.197747	0.68385
0	C	0.530934	0.174994	0.981702
0	C	0.82506	0.356196	0.981692
0	C	0.643902	0.469151	0.98171
0	C	0.469203	0.825023	0.017348
0	C	0.175081	0.643838	0.0173461
0	C	0.356242	0.530881	0.0173322
0	C	0.197682	0.508177	0.315213
0	C	0.491886	0.689326	0.315231
0	C	0.310675	0.802281	0.315192
0	C	0.0381621	0.098227	0.350414
0	C	0.901972	0.939994	0.350411
0	C	0.0602235	0.961986	0.350395
0	C	0.961996	0.901822	0.648624
0	C	0.0981863	0.0600562	0.648635
0	C	0.939939	0.038061	0.648641
0	C	0.704825	0.431621	0.683431
0	C	0.568514	0.273361	0.683434
0	C	0.726814	0.295345	0.683451
0	C	0.628549	0.235267	0.982148
0	C	0.764803	0.393555	0.982152
0	C	0.606537	0.371535	0.982158
0	C	0.371595	0.764758	0.0168972
0	C	0.235329	0.606471	0.0168893
0	C	0.393608	0.628497	0.0168842
0	C	0.295315	0.568401	0.315613
0	C	0.431613	0.726664	0.315613
0	C	0.273322	0.704682	0.315591
0	N	2.41639e-05	0.999998	0.113704
0	N	5.15713e-05	4.4408e-05	0.885335
0	N	0.666671	0.333327	0.446712
0	N	0.666701	0.333315	0.219336
0	N	0.333431	0.666693	0.779708
0	N	0.333454	0.666651	0.552318
0	N	8.52117e-05	5.26685e-05	0.34819
0	N	2.84392e-06	0.999974	0.650852
0	N	0.666718	0.333435	0.681231
0	N	0.666626	0.333444	0.984428
0	N	0.333512	0.666582	0.014616
0	N	0.333412	0.666586	0.317813
