#******************************************
#
# CIF file created by Zeo++
# Zeo++ is an open source package to
# analyze microporous materials
#
#*******************************************

_cell_length_a		31.4132(0)
_cell_length_b		31.4353(0)
_cell_length_c		9.7542(0)
_cell_angle_alpha		90(0)
_cell_angle_beta		90(0)
_cell_angle_gamma		90(0)

_symmetry_space_group_name_H-M		'P1'
_symmetry_Int_Tables_number		1
_symmetry_cell_setting		Monoclinic

loop_
_symmetry_equiv_pos_as_xyz
'+x,+y,+z'

loop_
_atom_site_label
_atom_site_type_symbol
_atom_site_fract_x
_atom_site_fract_y
_atom_site_fract_z
0	Si	0.674379	0.350276	0.623528
0	Si	0.327624	0.64847	0.673067
0	Si	0.650137	0.67299	0.640363
0	Si	0.348801	0.326643	0.652559
0	Si	0.173706	0.848456	0.147354
0	Si	0.825401	0.149907	0.147293
0	Si	0.150062	0.173121	0.147309
0	Si	0.848995	0.825226	0.147026
0	N	0.554943	0.393648	0.476818
0	N	0.442803	0.60565	0.490556
0	N	0.605104	0.555549	0.482403
0	N	0.39274	0.443396	0.485399
0	N	0.0563696	0.89286	0.984194
0	N	0.942746	0.105493	0.984205
0	N	0.105821	0.0557899	0.984276
0	N	0.893302	0.942543	0.984065
0	H	0.564947	0.425528	0.463845
0	H	0.432686	0.573899	0.474708
0	H	0.573261	0.565807	0.469508
0	H	0.424468	0.43329	0.469203
0	H	0.0665288	0.924647	0.969746
0	H	0.932589	0.0737114	0.969657
0	H	0.073986	0.0659054	0.969959
0	H	0.925128	0.932419	0.969641
0	B	0.601393	0.267573	0.329213
0	B	0.396097	0.730037	0.340283
0	B	0.731049	0.601558	0.333016
0	B	0.267797	0.39658	0.335431
0	B	0.102758	0.766874	0.834469
0	B	0.896374	0.231486	0.834528
0	B	0.231801	0.10237	0.834375
0	B	0.767305	0.895973	0.834378
0	S	0.505536	0.384318	0.536265
0	S	0.492726	0.614511	0.546116
0	S	0.614139	0.505875	0.539582
0	S	0.383878	0.492972	0.543743
0	S	0.00662861	0.883642	0.0413207
0	S	0.99248	0.114677	0.041526
0	S	0.115129	0.00611004	0.0417096
0	S	0.884001	0.992226	0.0414776
0	C	0.508443	0.38661	0.712015
0	C	0.490637	0.612044	0.721932
0	C	0.612045	0.508325	0.715398
0	C	0.38649	0.490303	0.719484
0	C	0.00908479	0.886071	0.217248
0	C	0.98995	0.112269	0.217434
0	C	0.112631	0.0086664	0.217629
0	C	0.886501	0.989703	0.217404
0	C	0.494196	0.352181	0.790769
0	C	0.504831	0.646502	0.800595
0	C	0.646618	0.494124	0.793667
0	C	0.352099	0.504497	0.79857
0	C	0.994385	0.851786	0.295779
0	C	0.00458066	0.146567	0.29605
0	C	0.146961	0.994166	0.29641
0	C	0.852238	0.00439998	0.296118
0	H	0.48144	0.323666	0.740161
0	H	0.517611	0.674993	0.749894
0	H	0.675103	0.481429	0.74263
0	H	0.323542	0.517307	0.748219
0	H	0.981279	0.823459	0.245005
0	H	0.0176599	0.174917	0.245324
0	H	0.175395	0.981166	0.245862
0	H	0.823883	0.0175531	0.245515
0	C	0.496232	0.353712	0.933428
0	C	0.502628	0.64504	0.943242
0	C	0.645263	0.496143	0.936349
0	C	0.353699	0.502293	0.941197
0	C	0.996494	0.853141	0.438472
0	C	0.00245008	0.145188	0.438731
0	C	0.145512	0.996317	0.439108
0	C	0.853642	0.00223797	0.438816
0	H	0.4853	0.326632	0.993605
0	H	0.513471	0.672155	0.00342293
0	H	0.672457	0.485273	0.996194
0	H	0.326639	0.51317	0.0016334
0	H	0.985263	0.826152	0.498542
0	H	0.0136293	0.172182	0.498888
0	H	0.172518	0.985218	0.499424
0	H	0.826685	0.0134907	0.499062
0	C	0.512853	0.389761	5.55145e-05
0	C	0.485884	0.609047	0.0098717
0	C	0.609247	0.512684	0.00349677
0	C	0.389771	0.485522	0.00740995
0	C	0.013689	0.888874	0.505364
0	C	0.985312	0.109412	0.505521
0	C	0.109621	0.0133357	0.505684
0	C	0.889403	0.98498	0.505486
0	C	0.527489	0.424194	0.920124
0	C	0.471566	0.574461	0.930026
0	C	0.574632	0.527196	0.924055
0	C	0.424241	0.471103	0.927157
0	C	0.028599	0.923256	0.425764
0	C	0.970464	0.0750183	0.425863
0	C	0.0751973	0.0280461	0.425824
0	C	0.923763	0.970085	0.425688
0	H	0.540921	0.452088	0.970611
0	H	0.458201	0.546529	0.980463
0	H	0.546741	0.540522	0.974935
0	H	0.452204	0.457663	0.977288
0	H	0.0423676	0.950924	0.476662
0	H	0.956739	0.0473186	0.476679
0	H	0.047402	0.041674	0.476491
0	H	0.951463	0.956285	0.476423
0	C	0.525259	0.42251	0.777795
0	C	0.473965	0.576076	0.787732
0	C	0.576143	0.52499	0.781714
0	C	0.422486	0.473506	0.784862
0	C	0.0262799	0.921744	0.283387
0	C	0.972802	0.0765579	0.283482
0	C	0.0768109	0.0256993	0.283485
0	C	0.922205	0.972462	0.283351
0	H	0.536867	0.449485	0.717061
0	H	0.462548	0.549009	0.727087
0	H	0.549028	0.536514	0.721388
0	H	0.449466	0.462019	0.72391
0	H	0.0381948	0.948669	0.223071
0	H	0.960944	0.0496186	0.223133
0	H	0.049852	0.0374616	0.222957
0	H	0.949112	0.96055	0.222893
0	C	0.514984	0.391772	0.151849
0	C	0.483198	0.607277	0.161627
0	C	0.607442	0.514899	0.155316
0	C	0.391727	0.482943	0.159149
0	C	0.016245	0.890509	0.657159
0	C	0.982746	0.107743	0.657309
0	C	0.107877	0.0158877	0.657455
0	C	0.891073	0.982366	0.657248
0	H	0.503177	0.362879	0.20302
0	H	0.495833	0.635816	0.212823
0	H	0.636038	0.502255	0.20625
0	H	0.362988	0.495062	0.210563
0	H	0.0035826	0.86194	0.708147
0	H	0.995617	0.1362	0.708417
0	H	0.13632	0.00303386	0.708719
0	H	0.862446	0.994861	0.708374
0	H	0.496555	0.418539	0.194779
0	H	0.500606	0.579956	0.205456
0	H	0.580163	0.497273	0.198521
0	H	0.418788	0.500826	0.202686
0	H	0.998802	0.91779	0.700972
0	H	0.999969	0.0803145	0.701048
0	H	0.0803894	0.998685	0.700994
0	H	0.918328	0.999883	0.70104
0	H	0.547924	0.396374	0.189474
0	H	0.450014	0.603832	0.198088
0	H	0.603819	0.547947	0.192807
0	H	0.395792	0.449861	0.195797
0	H	0.0494274	0.893908	0.693781
0	H	0.949533	0.104584	0.693876
0	H	0.104699	0.0490754	0.694087
0	H	0.89462	0.949207	0.693767
0	C	0.590691	0.363053	0.493083
0	C	0.407127	0.635994	0.514064
0	C	0.63605	0.590934	0.500206
0	C	0.362173	0.407774	0.505308
0	C	0.0918915	0.862051	0.00321844
0	C	0.907221	0.136291	0.0033116
0	C	0.136608	0.0913242	0.00336857
0	C	0.862511	0.907019	0.00312339
0	H	0.578837	0.333084	0.544525
0	H	0.41978	0.666249	0.561516
0	H	0.666113	0.578488	0.549711
0	H	0.331927	0.420209	0.553636
0	H	0.0794224	0.832047	0.0528828
0	H	0.919692	0.166286	0.0530324
0	H	0.16666	0.0788944	0.0529499
0	H	0.832455	0.919458	0.0526729
0	C	0.626504	0.383675	0.575938
0	C	0.373451	0.615363	0.605784
0	C	0.616006	0.626272	0.586497
0	C	0.382485	0.373147	0.593973
0	C	0.127	0.882194	0.0904114
0	C	0.872104	0.116144	0.0904547
0	C	0.116402	0.126342	0.0906985
0	C	0.882691	0.871987	0.0904633
0	H	0.613619	0.396375	0.674157
0	H	0.388975	0.601401	0.698188
0	H	0.602871	0.612636	0.683094
0	H	0.395821	0.387556	0.689129
0	H	0.113053	0.895427	0.18646
0	H	0.886034	0.102909	0.186527
0	H	0.103277	0.112363	0.186852
0	H	0.895817	0.885952	0.186641
0	H	0.639886	0.411671	0.519069
0	H	0.357873	0.588245	0.550375
0	H	0.588349	0.640726	0.530626
0	H	0.410014	0.358344	0.538438
0	H	0.141615	0.909756	0.0346015
0	H	0.857502	0.0885805	0.0346441
0	H	0.0887337	0.140858	0.0350989
0	H	0.910351	0.857456	0.0348747
0	C	0.707365	0.337763	0.469766
0	C	0.292243	0.66466	0.528646
0	C	0.664334	0.70659	0.489608
0	C	0.333881	0.29232	0.504249
0	C	0.208019	0.833885	0.998547
0	C	0.791089	0.164443	0.998453
0	C	0.164448	0.207393	0.998266
0	C	0.834561	0.790972	0.997987
0	H	0.737183	0.322043	0.500953
0	H	0.263677	0.681182	0.566663
0	H	0.681127	0.735547	0.523103
0	H	0.317376	0.263425	0.539691
0	H	0.237134	0.817635	0.0334844
0	H	0.761951	0.180666	0.0333336
0	H	0.180783	0.236482	0.0328906
0	H	0.8185	0.761741	0.0326813
0	H	0.715769	0.366824	0.412999
0	H	0.281626	0.636891	0.469023
0	H	0.635786	0.716476	0.432544
0	H	0.362112	0.282305	0.445786
0	H	0.217726	0.862174	0.93997
0	H	0.781403	0.136118	0.94001
0	H	0.136029	0.217103	0.940249
0	H	0.862926	0.781508	0.939282
0	H	0.690241	0.316388	0.399275
0	H	0.309092	0.686318	0.458196
0	H	0.685263	0.68914	0.418478
0	H	0.31247	0.309416	0.433678
0	H	0.191043	0.812347	0.928138
0	H	0.80804	0.185968	0.927941
0	H	0.185854	0.190413	0.927433
0	H	0.81289	0.807852	0.927741
0	C	0.656046	0.300518	0.710428
0	C	0.348345	0.696511	0.76405
0	C	0.6991	0.653148	0.728522
0	C	0.300108	0.346591	0.741959
0	C	0.154079	0.799517	0.236045
0	C	0.845051	0.19885	0.235929
0	C	0.199123	0.153651	0.235834
0	C	0.799947	0.844713	0.235589
0	H	0.683376	0.279579	0.731516
0	H	0.321623	0.717286	0.793527
0	H	0.720276	0.679979	0.753392
0	H	0.279148	0.319723	0.768335
0	H	0.181144	0.778619	0.261128
0	H	0.817989	0.21975	0.260976
0	H	0.219996	0.180743	0.260699
0	H	0.779039	0.81763	0.260227
0	H	0.633409	0.282537	0.645472
0	H	0.369626	0.715193	0.696288
0	H	0.717146	0.630938	0.662063
0	H	0.281759	0.368459	0.675148
0	H	0.132055	0.781235	0.169659
0	H	0.867073	0.217118	0.16948
0	H	0.217424	0.13165	0.169432
0	H	0.781679	0.866772	0.169283
0	H	0.640341	0.307617	0.808408
0	H	0.366067	0.688129	0.857224
0	H	0.69129	0.63658	0.824401
0	H	0.308079	0.36353	0.83701
0	H	0.137415	0.807161	0.331877
0	H	0.861717	0.191215	0.331763
0	H	0.191556	0.137016	0.331761
0	H	0.807513	0.861278	0.331647
0	C	0.706538	0.382938	0.746808
0	C	0.297224	0.613896	0.795336
0	C	0.617334	0.704981	0.763601
0	C	0.382347	0.295315	0.775512
0	C	0.205067	0.881902	0.270553
0	C	0.794009	0.116496	0.270483
0	C	0.116535	0.204389	0.270508
0	C	0.882504	0.79391	0.270148
0	H	0.732861	0.363493	0.787919
0	H	0.271345	0.632721	0.842131
0	H	0.636899	0.73101	0.80609
0	H	0.363057	0.269391	0.819957
0	H	0.231114	0.862733	0.314771
0	H	0.767842	0.135621	0.314172
0	H	0.135616	0.230516	0.314565
0	H	0.86339	0.76782	0.314283
0	H	0.687634	0.394331	0.833898
0	H	0.317145	0.601234	0.878081
0	H	0.605476	0.685925	0.849654
0	H	0.394561	0.314753	0.860144
0	H	0.18564	0.893947	0.355457
0	H	0.813367	0.104601	0.355772
0	H	0.104575	0.184958	0.35551
0	H	0.89453	0.81332	0.35511
0	H	0.720593	0.410747	0.695224
0	H	0.28247	0.586909	0.74127
0	H	0.589812	0.71945	0.711524
0	H	0.409637	0.280678	0.722703
0	H	0.219531	0.909283	0.217781
0	H	0.779689	0.0890124	0.217859
0	H	0.0890639	0.218715	0.217748
0	H	0.90993	0.77953	0.217296
0	C	0.605937	0.350827	0.352068
0	C	0.389665	0.647271	0.374874
0	C	0.647894	0.606807	0.359579
0	C	0.350764	0.391106	0.365265
0	C	0.108164	0.850047	0.863118
0	C	0.89094	0.148316	0.863237
0	C	0.148569	0.107627	0.863274
0	C	0.850541	0.890699	0.863064
0	C	0.610492	0.313072	0.282693
0	C	0.385621	0.684208	0.300638
0	C	0.685422	0.611203	0.288656
0	C	0.313515	0.386641	0.292863
0	C	0.112629	0.812606	0.791791
0	C	0.886484	0.185756	0.79189
0	C	0.186007	0.112158	0.791829
0	C	0.813086	0.886163	0.791729
0	C	0.627381	0.323096	0.148831
0	C	0.367771	0.672878	0.169217
0	C	0.674978	0.628532	0.155739
0	C	0.324434	0.368924	0.160908
0	C	0.130322	0.823153	0.659419
0	C	0.868764	0.175208	0.659563
0	C	0.175376	0.129851	0.659534
0	C	0.823672	0.86842	0.659475
0	H	0.634367	0.300096	0.0705964
0	H	0.361039	0.694956	0.0879605
0	H	0.697707	0.635512	0.0766246
0	H	0.302015	0.36186	0.0809289
0	H	0.137407	0.800518	0.580114
0	H	0.861675	0.197836	0.58024
0	H	0.197979	0.136982	0.580146
0	H	0.801042	0.861277	0.580182
0	C	0.632201	0.366308	0.144163
0	C	0.361854	0.629781	0.170769
0	C	0.631761	0.633732	0.153124
0	C	0.367631	0.363532	0.160324
0	C	0.135668	0.866321	0.65744
0	C	0.8634	0.132042	0.657613
0	C	0.132165	0.135124	0.657727
0	C	0.866876	0.863113	0.657579
0	H	0.643031	0.389133	0.0713501
0	H	0.350121	0.606306	0.101638
0	H	0.60871	0.644931	0.0816077
0	H	0.390931	0.352038	0.0901325
0	H	0.147059	0.889426	0.586435
0	H	0.85199	0.108934	0.586657
0	H	0.109	0.146483	0.586828
0	H	0.890015	0.851708	0.586663
0	C	0.58669	0.208589	0.461685
0	C	0.412281	0.7901	0.465765
0	C	0.790404	0.586271	0.463238
0	C	0.208199	0.412164	0.464097
0	C	0.0872511	0.707283	0.963176
0	C	0.911887	0.291088	0.963197
0	C	0.291473	0.0869729	0.963053
0	C	0.707655	0.911383	0.963152
0	H	0.610641	0.195647	0.534825
0	H	0.388609	0.804092	0.5379
0	H	0.803715	0.610078	0.536155
0	H	0.194658	0.388415	0.536785
0	H	0.111029	0.693835	0.0359906
0	H	0.888096	0.304565	0.0359113
0	H	0.304922	0.110751	0.0358195
0	H	0.694225	0.887606	0.0359496
0	C	0.595716	0.194549	0.311504
0	C	0.403	0.802698	0.314393
0	C	0.804009	0.595404	0.312695
0	C	0.19493	0.402966	0.313282
0	C	0.0964936	0.693988	0.812437
0	C	0.902705	0.304365	0.812407
0	C	0.304743	0.0961966	0.812261
0	C	0.69436	0.902159	0.812397
0	H	0.567549	0.179143	0.262831
0	H	0.431125	0.817337	0.263179
0	H	0.819163	0.567257	0.263186
0	H	0.179902	0.431073	0.263177
0	H	0.0683545	0.678981	0.762389
0	H	0.930874	0.319343	0.762416
0	H	0.3198	0.068088	0.762246
0	H	0.679312	0.930268	0.762353
0	C	0.540618	0.198099	0.511948
0	C	0.458507	0.800571	0.514434
0	C	0.800869	0.540147	0.512742
0	C	0.197717	0.458317	0.513273
0	C	0.0411141	0.696744	0.012497
0	C	0.958024	0.301604	0.0125991
0	C	0.302068	0.0408802	0.0123997
0	C	0.697053	0.957475	0.0124955
0	C	0.562181	0.129492	0.612898
0	C	0.437272	0.869413	0.614526
0	C	0.869674	0.561502	0.612997
0	C	0.128929	0.436929	0.613565
0	C	0.0625746	0.628079	0.113384
0	C	0.936627	0.370314	0.113342
0	C	0.370768	0.0623346	0.113331
0	C	0.62835	0.936003	0.113403
0	H	0.547257	0.0980012	0.614781
0	H	0.45227	0.900873	0.615507
0	H	0.901141	0.546489	0.614575
0	H	0.0974204	0.451854	0.614905
0	H	0.0476872	0.596571	0.114791
0	H	0.951531	0.401816	0.114574
0	H	0.402284	0.047426	0.114845
0	H	0.596793	0.950827	0.11461
0	H	0.560307	0.144306	0.714201
0	H	0.43931	0.854765	0.71604
0	H	0.854917	0.559626	0.714395
0	H	0.143648	0.43891	0.715006
0	H	0.0605554	0.642822	0.214756
0	H	0.938671	0.35561	0.214766
0	H	0.355983	0.0603211	0.21466
0	H	0.643069	0.938113	0.214815
0	H	0.595171	0.127511	0.576192
0	H	0.40421	0.87139	0.578496
0	H	0.871725	0.594485	0.576474
0	H	0.126978	0.403916	0.577268
0	H	0.0956113	0.626134	0.0771603
0	H	0.903579	0.372255	0.0772313
0	H	0.372749	0.0953505	0.077152
0	H	0.626473	0.902962	0.0774281
0	C	0.507061	0.212273	0.408911
0	C	0.491845	0.786171	0.410977
0	C	0.786475	0.506716	0.409647
0	C	0.212093	0.491688	0.40996
0	C	0.00757823	0.710861	0.909255
0	C	0.991555	0.287435	0.909412
0	C	0.287955	0.00735882	0.909189
0	C	0.71116	0.990969	0.909187
0	C	0.487966	0.183171	0.318816
0	C	0.511015	0.815175	0.320686
0	C	0.81549	0.487541	0.319383
0	C	0.183094	0.510758	0.319418
0	C	0.988375	0.681679	0.819623
0	C	0.0108361	0.316587	0.819845
0	C	0.317199	0.988024	0.820006
0	C	0.681937	0.0101498	0.819597
0	H	0.49649	0.14957	0.324206
0	H	0.502549	0.848796	0.325796
0	H	0.849133	0.49601	0.324431
0	H	0.149458	0.502265	0.32442
0	H	0.997013	0.648101	0.824668
0	H	0.00228113	0.350186	0.824961
0	H	0.350809	0.996604	0.825259
0	H	0.648334	0.0015346	0.824766
0	C	0.457779	0.197166	0.223845
0	C	0.541214	0.801064	0.225948
0	C	0.801361	0.457339	0.224734
0	C	0.197238	0.540889	0.224547
0	C	0.957853	0.695526	0.725525
0	C	0.04131	0.302679	0.72569
0	C	0.303352	0.957466	0.726095
0	C	0.695796	0.0406091	0.72536
0	H	0.443492	0.174583	0.152955
0	H	0.55557	0.823571	0.154941
0	H	0.823878	0.442978	0.153736
0	H	0.174741	0.555159	0.153299
0	H	0.943411	0.672858	0.655244
0	H	0.0558041	0.325318	0.65541
0	H	0.326062	0.942899	0.656193
0	H	0.6731	0.0550313	0.655087
0	C	0.445811	0.24006	0.219942
0	C	0.55311	0.758144	0.222451
0	C	0.758413	0.445449	0.221295
0	C	0.240173	0.552835	0.221218
0	C	0.945711	0.738366	0.721835
0	C	0.0533441	0.259807	0.721922
0	C	0.260453	0.945457	0.722078
0	C	0.73867	0.0527184	0.721555
0	H	0.421945	0.250777	0.146852
0	H	0.57703	0.747338	0.14967
0	H	0.747587	0.421547	0.148534
0	H	0.250995	0.576685	0.148266
0	H	0.921504	0.748944	0.649693
0	H	0.0775119	0.249176	0.649722
0	H	0.249869	0.921232	0.650087
0	H	0.749254	0.076885	0.649347
0	C	0.46453	0.268968	0.310461
0	C	0.534229	0.729316	0.312879
0	C	0.729581	0.464295	0.311821
0	C	0.268984	0.534102	0.312077
0	C	0.964667	0.767388	0.811484
0	C	0.0343229	0.23082	0.811524
0	C	0.231369	0.964567	0.811205
0	C	0.767724	0.0337745	0.811151
0	H	0.455397	0.30254	0.310912
0	H	0.543301	0.695736	0.313404
0	H	0.695965	0.455251	0.312437
0	H	0.302571	0.543237	0.312949
0	H	0.955454	0.800919	0.811842
0	H	0.0434559	0.197265	0.81183
0	H	0.197785	0.955451	0.811316
0	H	0.80129	0.0429662	0.811434
0	C	0.495317	0.255199	0.404044
0	C	0.503427	0.743197	0.406245
0	C	0.743482	0.495091	0.405122
0	C	0.255073	0.503359	0.405519
0	C	0.995747	0.753771	0.904285
0	C	0.00327114	0.244493	0.904345
0	C	0.244985	0.995666	0.903878
0	C	0.75411	0.00274495	0.904048
0	H	0.510003	0.278417	0.473759
0	H	0.488654	0.720041	0.476015
0	H	0.720308	0.509845	0.474859
0	H	0.278218	0.488695	0.475602
0	H	0.0105475	0.777088	0.97346
0	H	0.988414	0.2212	0.973456
0	H	0.221631	0.0105572	0.972732
0	H	0.777446	0.987953	0.973192
0	C	0.530262	0.214604	0.654997
0	C	0.469266	0.784336	0.657523
0	C	0.784551	0.529597	0.655878
0	C	0.214034	0.468959	0.656352
0	C	0.0305727	0.713177	0.155547
0	C	0.968528	0.285187	0.155683
0	C	0.285617	0.0303336	0.155402
0	C	0.713496	0.968022	0.155494
0	C	0.557087	0.241723	0.728891
0	C	0.442693	0.75737	0.73279
0	C	0.757561	0.556317	0.73056
0	C	0.241163	0.442376	0.730979
0	C	0.0573853	0.740009	0.230548
0	C	0.941739	0.25829	0.230509
0	C	0.258826	0.0571457	0.230568
0	C	0.740445	0.941297	0.230398
0	H	0.586639	0.253947	0.683276
0	H	0.412851	0.745085	0.688881
0	H	0.745316	0.585989	0.685639
0	H	0.253474	0.412678	0.686273
0	H	0.0872181	0.752102	0.186194
0	H	0.911953	0.246143	0.185995
0	H	0.246779	0.0869913	0.186327
0	H	0.75259	0.911515	0.185988
0	C	0.546154	0.254243	0.861988
0	C	0.454073	0.744938	0.865587
0	C	0.74514	0.545213	0.863603
0	C	0.253679	0.453588	0.863831
0	C	0.0461649	0.75253	0.36343
0	C	0.952915	0.245782	0.363441
0	C	0.246287	0.0459128	0.363376
0	C	0.752999	0.95253	0.363198
0	H	0.567309	0.275157	0.919579
0	H	0.433071	0.724085	0.923995
0	H	0.724316	0.566311	0.921736
0	H	0.274639	0.432581	0.921815
0	H	0.0673253	0.773241	0.421784
0	H	0.931772	0.225013	0.421635
0	H	0.225609	0.067081	0.421827
0	H	0.773804	0.93143	0.421433
0	C	0.508295	0.240054	0.921437
0	C	0.492131	0.759152	0.923509
0	C	0.759318	0.507251	0.922223
0	C	0.239403	0.49151	0.92241
0	C	0.00803576	0.738601	0.421636
0	C	0.990973	0.259807	0.421914
0	C	0.260144	0.00775622	0.421461
0	C	0.738973	0.990583	0.421552
0	H	0.500282	0.249307	0.026097
0	H	0.500487	0.749938	0.027885
0	H	0.750124	0.499091	0.0268017
0	H	0.248675	0.499755	0.0268424
0	H	0.999747	0.7479	0.526074
0	H	0.999215	0.250528	0.526405
0	H	0.250844	0.99946	0.52587
0	H	0.74829	0.998872	0.525954
0	C	0.48088	0.213645	0.846904
0	C	0.519278	0.785516	0.84777
0	C	0.785621	0.479932	0.846933
0	C	0.21289	0.518672	0.847272
0	C	0.980676	0.712402	0.346135
0	C	0.0183168	0.28607	0.346564
0	C	0.28629	0.980389	0.345796
0	C	0.712627	0.0178428	0.346195
0	H	0.451047	0.202962	0.892255
0	H	0.549251	0.796265	0.892004
0	H	0.796292	0.450018	0.891652
0	H	0.202103	0.548537	0.892038
0	H	0.950662	0.701846	0.390514
0	H	0.0482818	0.296698	0.391136
0	H	0.296777	0.950342	0.390001
0	H	0.70198	0.0477974	0.390674
0	C	0.491822	0.200936	0.714512
0	C	0.5079	0.798077	0.715619
0	C	0.798224	0.491058	0.714592
0	C	0.200229	0.50745	0.715084
0	C	0.991896	0.699708	0.213948
0	C	0.00714816	0.298738	0.214325
0	C	0.299015	0.991628	0.213624
0	C	0.699907	0.00661605	0.214024
0	H	0.470753	0.180075	0.656054
0	H	0.528774	0.818871	0.656188
0	H	0.818994	0.470061	0.655538
0	H	0.179313	0.52833	0.656129
0	H	0.970839	0.679013	0.154848
0	H	0.0281925	0.319476	0.155317
0	H	0.319651	0.970555	0.154421
0	H	0.679115	0.0275977	0.155039
0	C	0.635782	0.165728	0.292492
0	C	0.363059	0.831668	0.2944
0	C	0.832927	0.635378	0.293302
0	C	0.166069	0.362961	0.29368
0	C	0.136485	0.665067	0.793112
0	C	0.862749	0.333318	0.792899
0	C	0.333631	0.136202	0.792934
0	C	0.665449	0.862179	0.793067
0	C	0.59456	0.0992127	0.309493
0	C	0.404426	0.898105	0.310491
0	C	0.899504	0.594193	0.309672
0	C	0.0995213	0.404171	0.309888
0	C	0.0953886	0.598442	0.809059
0	C	0.903875	0.39992	0.809195
0	C	0.400373	0.0952503	0.808988
0	C	0.598752	0.903202	0.809158
0	H	0.600275	0.0689655	0.362248
0	H	0.398889	0.928383	0.363265
0	H	0.929765	0.599823	0.362573
0	H	0.0691956	0.398517	0.362357
0	H	0.10105	0.56822	0.862047
0	H	0.898343	0.430061	0.862801
0	H	0.430571	0.100921	0.862229
0	H	0.568545	0.89758	0.8624
0	H	0.59796	0.0952182	0.198684
0	H	0.400922	0.902097	0.199719
0	H	0.903527	0.59774	0.198922
0	H	0.0956195	0.400759	0.19905
0	H	0.0990714	0.594417	0.698326
0	H	0.900105	0.404144	0.698571
0	H	0.404466	0.0989971	0.698309
0	H	0.594646	0.899494	0.698472
0	H	0.563281	0.112337	0.33681
0	H	0.435689	0.884869	0.337465
0	H	0.886355	0.562905	0.336519
0	H	0.112675	0.435418	0.337254
0	H	0.0640097	0.61148	0.835557
0	H	0.935237	0.386743	0.835195
0	H	0.387347	0.0638652	0.835229
0	H	0.611845	0.934556	0.835481
0	C	0.646081	0.155847	0.143082
0	C	0.352932	0.841396	0.14481
0	C	0.842706	0.645598	0.14377
0	C	0.156371	0.352752	0.144096
0	C	0.146855	0.655237	0.643731
0	C	0.85249	0.343154	0.643448
0	C	0.343465	0.14659	0.64357
0	C	0.655622	0.851822	0.643682
0	C	0.626685	0.176556	0.0325393
0	C	0.372458	0.820516	0.0348583
0	C	0.821972	0.626068	0.0335329
0	C	0.177202	0.372256	0.033981
0	C	0.127491	0.675975	0.5332
0	C	0.871897	0.322401	0.533033
0	C	0.32279	0.127173	0.533028
0	C	0.676334	0.871207	0.533128
0	H	0.602808	0.201388	0.0490879
0	H	0.396088	0.795518	0.0522906
0	H	0.79718	0.602184	0.0504644
0	H	0.202049	0.396074	0.0511232
0	H	0.103682	0.700863	0.549801
0	H	0.895716	0.297531	0.549759
0	H	0.297986	0.103277	0.549601
0	H	0.701169	0.895074	0.54971
0	C	0.638047	0.166156	0.897937
0	C	0.361489	0.830974	0.899956
0	C	0.832286	0.637339	0.89877
0	C	0.166913	0.361039	0.899168
0	C	0.138859	0.665512	0.39862
0	C	0.860545	0.332806	0.398394
0	C	0.333198	0.138609	0.398458
0	C	0.66592	0.859775	0.398574
0	H	0.62292	0.182815	0.812977
0	H	0.376772	0.814272	0.81537
0	H	0.815628	0.622089	0.814034
0	H	0.183624	0.376275	0.8145
0	H	0.123753	0.682129	0.313528
0	H	0.875705	0.316187	0.313398
0	H	0.316629	0.123455	0.313355
0	H	0.682506	0.874902	0.313445
0	C	0.668649	0.134909	0.873036
0	C	0.331061	0.862333	0.874202
0	C	0.863428	0.668019	0.873435
0	C	0.135716	0.330431	0.873645
0	C	0.169449	0.63424	0.373836
0	C	0.829869	0.363981	0.37343
0	C	0.36433	0.169347	0.373711
0	C	0.634755	0.82907	0.373827
0	H	0.677496	0.126766	0.768368
0	H	0.322514	0.870507	0.769295
0	H	0.871494	0.67681	0.768656
0	H	0.127673	0.321688	0.768806
0	H	0.178298	0.626058	0.269195
0	H	0.820973	0.37207	0.268756
0	H	0.372449	0.178274	0.269085
0	H	0.626642	0.820141	0.269207
0	C	0.688103	0.114	0.983206
0	C	0.311374	0.883301	0.983819
0	C	0.884331	0.687634	0.983332
0	C	0.114741	0.310824	0.983391
0	C	0.188917	0.613352	0.48402
0	C	0.810366	0.384892	0.48351
0	C	0.385165	0.188864	0.483922
0	C	0.613887	0.809593	0.484028
0	H	0.711994	0.0894548	0.964076
0	H	0.287571	0.90788	0.964043
0	H	0.908774	0.711601	0.963849
0	H	0.0902621	0.286904	0.963791
0	H	0.212799	0.588787	0.464893
0	H	0.786355	0.409327	0.46427
0	H	0.409603	0.212878	0.464794
0	H	0.589435	0.785588	0.464977
0	C	0.677005	0.12449	0.11741
0	C	0.322141	0.872817	0.118328
0	C	0.873955	0.676602	0.117673
0	C	0.125082	0.321812	0.117816
0	C	0.177804	0.62389	0.618186
0	C	0.821534	0.374482	0.617715
0	C	0.374711	0.177654	0.618058
0	C	0.624334	0.82081	0.618167
0	H	0.692327	0.108466	0.203626
0	H	0.30667	0.888915	0.20412
0	H	0.889973	0.692042	0.203686
0	H	0.108996	0.306384	0.203711
0	H	0.193166	0.60791	0.70444
0	H	0.806224	0.390546	0.703898
0	H	0.390665	0.193019	0.70435
0	H	0.608332	0.805487	0.704443
0	C	0.674967	0.183709	0.364177
0	C	0.323798	0.813827	0.366006
0	C	0.815059	0.674618	0.364852
0	C	0.183995	0.32376	0.365296
0	C	0.175705	0.682935	0.864858
0	C	0.823469	0.31548	0.864391
0	C	0.315683	0.175376	0.864618
0	C	0.68336	0.82299	0.864761
0	C	0.691058	0.164879	0.48367
0	C	0.307289	0.833184	0.484002
0	C	0.834089	0.690826	0.483845
0	C	0.164983	0.307547	0.484297
0	C	0.191804	0.663938	0.984045
0	C	0.807263	0.334541	0.983327
0	C	0.334746	0.191604	0.983536
0	C	0.664401	0.806913	0.984048
0	H	0.675425	0.136839	0.526325
0	H	0.322549	0.861626	0.525265
0	H	0.862184	0.675221	0.526324
0	H	0.136825	0.323079	0.52662
0	H	0.176135	0.635894	0.026468
0	H	0.822886	0.36262	0.0257077
0	H	0.362889	0.176048	0.0258201
0	H	0.636366	0.822589	0.0266156
0	C	0.727255	0.18173	0.546932
0	C	0.271172	0.816297	0.547656
0	C	0.817359	0.727101	0.546861
0	C	0.181803	0.271345	0.547518
0	C	0.228068	0.680647	0.0473014
0	C	0.770961	0.317864	0.0464094
0	C	0.317974	0.22783	0.0466901
0	C	0.681114	0.770655	0.0471955
0	H	0.739594	0.167207	0.640214
0	H	0.258498	0.831252	0.639754
0	H	0.832035	0.739527	0.639783
0	H	0.16712	0.258907	0.640403
0	H	0.240425	0.665987	0.1403
0	H	0.758511	0.332582	0.139206
0	H	0.332681	0.240293	0.139476
0	H	0.666474	0.758303	0.140243
0	C	0.747698	0.217144	0.49051
0	C	0.251298	0.78026	0.493293
0	C	0.781862	0.747495	0.490698
0	C	0.217397	0.251054	0.49162
0	C	0.248519	0.716103	0.991248
0	C	0.750585	0.282346	0.990483
0	C	0.282372	0.248117	0.990838
0	C	0.716557	0.750197	0.990977
0	H	0.775965	0.230214	0.539594
0	H	0.223131	0.767121	0.542784
0	H	0.768885	0.77582	0.5396
0	H	0.23045	0.222791	0.54068
0	H	0.276808	0.729095	0.0403957
0	H	0.722253	0.269383	0.0394179
0	H	0.269344	0.276388	0.0398607
0	H	0.72953	0.72189	0.0399339
0	C	0.731826	0.23578	0.370709
0	C	0.267591	0.761076	0.374994
0	C	0.763026	0.731508	0.371391
0	C	0.236242	0.267065	0.372338
0	C	0.232621	0.734917	0.871771
0	C	0.766599	0.263445	0.87132
0	C	0.263474	0.232078	0.871702
0	C	0.735371	0.766102	0.871502
0	H	0.747838	0.263253	0.326123
0	H	0.252061	0.733054	0.332259
0	H	0.73548	0.74748	0.327028
0	H	0.26389	0.251191	0.328292
0	H	0.248661	0.762427	0.827552
0	H	0.750643	0.23586	0.827317
0	H	0.235833	0.247966	0.827699
0	H	0.762901	0.750088	0.827265
0	C	0.695426	0.219316	0.3079
0	C	0.303813	0.777683	0.311504
0	C	0.779367	0.695033	0.308828
0	C	0.219765	0.303425	0.30946
0	C	0.196186	0.718574	0.808865
0	C	0.803063	0.279781	0.808535
0	C	0.279887	0.19568	0.80888
0	C	0.719004	0.802517	0.808658
0	H	0.682726	0.233983	0.215034
0	H	0.316777	0.762677	0.219559
0	H	0.764546	0.682241	0.216339
0	H	0.234554	0.316207	0.216895
0	H	0.183464	0.733368	0.716203
0	H	0.815847	0.264935	0.716051
0	H	0.265036	0.182866	0.716443
0	H	0.733777	0.81522	0.715933
0	O	0.479199	0.419342	0.485233
0	O	0.518543	0.579379	0.492971
0	O	0.578847	0.479995	0.487919
0	O	0.418951	0.519053	0.491519
0	O	0.980133	0.918446	0.989338
0	O	0.0189491	0.0798224	0.98973
0	O	0.0803214	0.979624	0.989799
0	O	0.918784	0.0187218	0.989458
0	O	0.492306	0.341601	0.496951
0	O	0.506144	0.657126	0.506266
0	O	0.656704	0.492362	0.499091
0	O	0.341116	0.506352	0.505133
0	O	0.993684	0.840861	0.00163235
0	O	0.00548175	0.157431	0.00175678
0	O	0.157941	0.993248	0.00214189
0	O	0.841172	0.00506313	0.00196091
0	O	0.619214	0.384683	0.26852
0	O	0.375001	0.612736	0.296827
0	O	0.613788	0.620588	0.277914
0	O	0.38514	0.376929	0.285508
0	O	0.122294	0.884161	0.782124
0	O	0.876786	0.114204	0.782288
0	O	0.114379	0.121702	0.782432
0	O	0.884703	0.876571	0.782201
0	O	0.592682	0.254084	0.46358
0	O	0.405701	0.744753	0.472593
0	O	0.744922	0.592495	0.466732
0	O	0.253644	0.405814	0.468702
0	O	0.0934735	0.752719	0.967649
0	O	0.905629	0.245657	0.967719
0	O	0.245999	0.0931451	0.967571
0	O	0.753131	0.905214	0.967585
0	O	0.602406	0.233371	0.236765
0	O	0.395637	0.763231	0.243873
0	O	0.764957	0.602356	0.239293
0	O	0.234131	0.39592	0.240799
0	O	0.103596	0.733163	0.739957
0	O	0.895595	0.265186	0.739963
0	O	0.265521	0.103226	0.73981
0	O	0.733566	0.895099	0.739895
0	O	0.627467	0.126215	0.365497
0	O	0.371476	0.871241	0.366939
0	O	0.87249	0.627013	0.366085
0	O	0.126444	0.371257	0.366207
0	O	0.128081	0.625533	0.865894
0	O	0.871139	0.372837	0.865787
0	O	0.373184	0.127855	0.865813
0	O	0.625876	0.870521	0.865856
0	O	0.536868	0.151901	0.512523
0	O	0.462339	0.84677	0.514048
0	O	0.847098	0.536338	0.512624
0	O	0.151483	0.462093	0.513125
0	O	0.0373761	0.650537	0.0128506
0	O	0.961788	0.347807	0.0128225
0	O	0.348305	0.0371828	0.0127017
0	O	0.650813	0.96116	0.0127699
