#******************************************
#
# CIF file created by Zeo++
# Zeo++ is an open source package to
# analyze microporous materials
#
#*******************************************

_cell_length_a		50.6146(0)
_cell_length_b		24.9554(0)
_cell_length_c		19.7332(0)
_cell_angle_alpha		90(0)
_cell_angle_beta		95.0154(0)
_cell_angle_gamma		90(0)

_symmetry_space_group_name_H-M		'P1'
_symmetry_Int_Tables_number		1
_symmetry_cell_setting		Monoclinic

loop_
_symmetry_equiv_pos_as_xyz
'+x,+y,+z'

loop_
_atom_site_label
_atom_site_type_symbol
_atom_site_fract_x
_atom_site_fract_y
_atom_site_fract_z
0	C	0.0140698	0.254351	0.265983
0	C	0.98629	0.254173	0.264195
0	C	0.985311	0.740249	0.764883
0	C	0.0130819	0.740077	0.766356
0	C	0.514245	0.756471	0.266241
0	C	0.486473	0.756869	0.263926
0	C	0.485407	0.237873	0.764311
0	C	0.513179	0.237878	0.766573
0	C	0.0279211	0.205358	0.262574
0	C	0.972549	0.204963	0.266947
0	C	0.971623	0.789442	0.768445
0	C	0.0269691	0.789069	0.7634
0	C	0.527909	0.707254	0.262949
0	C	0.47253	0.707902	0.266561
0	C	0.471614	0.286946	0.767594
0	C	0.527005	0.286976	0.763914
0	C	0.014175	0.156548	0.262414
0	C	0.986406	0.156339	0.266271
0	C	0.985514	0.838073	0.768374
0	C	0.0132569	0.837876	0.764245
0	C	0.513967	0.65868	0.262552
0	C	0.486188	0.659016	0.266136
0	C	0.485439	0.335675	0.767976
0	C	0.513209	0.335702	0.76438
0	C	0.0659586	0.227706	0.196531
0	C	0.934436	0.227139	0.332922
0	C	0.933556	0.767616	0.834669
0	C	0.0650754	0.766504	0.697507
0	C	0.566067	0.728972	0.197142
0	C	0.434328	0.730261	0.332085
0	C	0.43344	0.265205	0.833362
0	C	0.565222	0.264781	0.698377
0	H	0.051766	0.238324	0.153807
0	H	0.948592	0.237436	0.375869
0	H	0.947733	0.757147	0.877491
0	H	0.0509277	0.756069	0.654604
0	H	0.55193	0.739886	0.154423
0	H	0.448436	0.740961	0.374966
0	H	0.447565	0.2544	0.876151
0	H	0.551121	0.254053	0.655494
0	C	0.0569322	0.207667	0.256972
0	C	0.943528	0.207173	0.272503
0	C	0.942613	0.787395	0.77413
0	C	0.0559819	0.786647	0.757817
0	C	0.556937	0.709112	0.257558
0	C	0.443496	0.710282	0.271776
0	C	0.442583	0.284903	0.772886
0	C	0.556038	0.284798	0.758651
0	C	0.0929338	0.235727	0.191798
0	C	0.907471	0.235565	0.33736
0	C	0.906578	0.759613	0.839358
0	C	0.0920486	0.758105	0.693106
0	C	0.593077	0.736439	0.192442
0	C	0.40732	0.738115	0.336518
0	C	0.406424	0.257771	0.838043
0	C	0.592228	0.256902	0.69399
0	H	0.0997915	0.251971	0.144693
0	H	0.900573	0.251806	0.384392
0	H	0.899694	0.7435	0.886505
0	H	0.0989468	0.741766	0.646125
0	H	0.600021	0.752476	0.145315
0	H	0.400354	0.754217	0.383565
0	H	0.399465	0.24187	0.885223
0	H	0.599201	0.240738	0.64699
0	C	0.111221	0.224138	0.247909
0	C	0.889245	0.224417	0.280969
0	C	0.888316	0.770981	0.78312
0	C	0.110273	0.769444	0.749436
0	C	0.611294	0.724525	0.248587
0	C	0.389148	0.726487	0.280194
0	C	0.388224	0.269532	0.781819
0	C	0.610394	0.268578	0.750325
0	C	0.102285	0.20155	0.307048
0	C	0.898227	0.201777	0.221899
0	C	0.89728	0.793365	0.723884
0	C	0.101284	0.792213	0.808419
0	C	0.602245	0.702193	0.307743
0	C	0.398227	0.704095	0.221102
0	C	0.39729	0.291619	0.722541
0	C	0.601304	0.291089	0.809336
0	H	0.116476	0.191253	0.349788
0	H	0.884079	0.191777	0.178945
0	H	0.883106	0.803497	0.68104
0	H	0.115428	0.802348	0.851328
0	H	0.616379	0.691692	0.350519
0	H	0.384129	0.693841	0.178154
0	H	0.38317	0.301954	0.67967
0	H	0.615397	0.301415	0.852268
0	C	0.0751868	0.193202	0.311396
0	C	0.925309	0.193031	0.217854
0	C	0.924379	0.801687	0.719576
0	C	0.0741971	0.800931	0.81242
0	C	0.575107	0.694353	0.312027
0	C	0.425351	0.695847	0.217103
0	C	0.42443	0.299447	0.718281
0	C	0.574177	0.299334	0.813294
0	H	0.0682211	0.176108	0.35745
0	H	0.932299	0.175923	0.171829
0	H	0.931367	0.818592	0.673436
0	H	0.0671969	0.818157	0.858366
0	H	0.568043	0.677422	0.358058
0	H	0.432427	0.678835	0.171125
0	H	0.431506	0.316209	0.672165
0	H	0.56709	0.316407	0.859224
0	C	0.13816	0.238503	0.24426
0	C	0.862325	0.239172	0.284105
0	C	0.861381	0.75656	0.786674
0	C	0.137203	0.754738	0.746346
0	C	0.638292	0.738322	0.24486
0	C	0.362141	0.740456	0.283489
0	C	0.361213	0.255841	0.78556
0	C	0.637387	0.254475	0.747104
0	C	0.1605	0.254398	0.239091
0	C	0.839958	0.2552	0.288543
0	C	0.839041	0.740611	0.791703
0	C	0.159572	0.738715	0.74195
0	C	0.660691	0.753766	0.239476
0	C	0.339672	0.755771	0.28817
0	C	0.338792	0.240519	0.790929
0	C	0.659823	0.238962	0.74244
0	C	0.185816	0.275915	0.230678
0	C	0.814588	0.276825	0.296077
0	C	0.813745	0.718936	0.79997
0	C	0.184946	0.717116	0.734418
0	C	0.686056	0.774891	0.230792
0	C	0.31421	0.77677	0.296045
0	C	0.313427	0.219398	0.799618
0	C	0.685256	0.217815	0.734573
0	C	0.188912	0.331713	0.223057
0	C	0.811484	0.332629	0.30359
0	C	0.810738	0.66311	0.807524
0	C	0.188065	0.661318	0.726902
0	C	0.689298	0.830646	0.223032
0	C	0.310864	0.832498	0.303765
0	C	0.310218	0.163634	0.80739
0	C	0.688544	0.162073	0.726878
0	H	0.171704	0.35842	0.2242
0	H	0.828734	0.359283	0.302878
0	H	0.827989	0.63651	0.806419
0	H	0.170824	0.63465	0.727648
0	H	0.672162	0.857559	0.224194
0	H	0.327992	0.859489	0.303057
0	H	0.327365	0.136748	0.806241
0	H	0.671391	0.135158	0.727644
0	C	0.213794	0.352712	0.213048
0	C	0.786572	0.353721	0.313033
0	C	0.785883	0.641934	0.817416
0	C	0.212977	0.640249	0.717391
0	C	0.714227	0.851303	0.212892
0	C	0.285865	0.853053	0.313382
0	C	0.285299	0.142923	0.817517
0	C	0.713515	0.1414	0.717196
0	H	0.216434	0.395843	0.207007
0	H	0.78396	0.396867	0.319062
0	H	0.783317	0.598777	0.823422
0	H	0.215596	0.59711	0.71135
0	H	0.717008	0.894384	0.206808
0	H	0.283033	0.896119	0.319475
0	H	0.282546	0.0998337	0.823608
0	H	0.716294	0.0983188	0.711094
0	C	0.235307	0.317846	0.209551
0	C	0.764995	0.318948	0.316098
0	C	0.764303	0.676635	0.820851
0	C	0.23454	0.675055	0.714275
0	C	0.735629	0.816153	0.209385
0	C	0.264468	0.817823	0.316461
0	C	0.263873	0.178017	0.820996
0	C	0.734945	0.176537	0.714054
0	C	0.208028	0.242059	0.227583
0	C	0.792294	0.243083	0.298491
0	C	0.791468	0.752625	0.80299
0	C	0.207228	0.750889	0.731983
0	C	0.708154	0.740727	0.227612
0	C	0.292098	0.742544	0.298549
0	C	0.291309	0.253504	0.802789
0	C	0.707402	0.251948	0.732028
0	H	0.206475	0.197994	0.232943
0	H	0.793824	0.199021	0.293086
0	H	0.792951	0.796706	0.797671
0	H	0.205692	0.794946	0.737413
0	H	0.70647	0.696688	0.233045
0	H	0.293834	0.698527	0.293022
0	H	0.292969	0.297546	0.797353
0	H	0.705716	0.295972	0.737552
0	C	0.262786	0.329817	0.197745
0	C	0.737509	0.330949	0.327825
0	C	0.736835	0.664462	0.832549
0	C	0.26202	0.663101	0.702441
0	C	0.763141	0.827818	0.197651
0	C	0.236935	0.829306	0.328175
0	C	0.236366	0.166274	0.832685
0	C	0.76246	0.164955	0.70224
0	C	0.273911	0.379824	0.185896
0	C	0.726407	0.380899	0.340165
0	C	0.725787	0.614367	0.844283
0	C	0.273125	0.613174	0.689991
0	C	0.774396	0.877703	0.185794
0	C	0.225625	0.879046	0.340596
0	C	0.225144	0.11635	0.844485
0	C	0.773716	0.115177	0.68974
0	H	0.262032	0.416164	0.186286
0	H	0.738297	0.417242	0.340067
0	H	0.73772	0.578101	0.843859
0	H	0.261246	0.576819	0.690072
0	H	0.762595	0.914151	0.185991
0	H	0.237375	0.915577	0.340696
0	H	0.236965	0.0799301	0.844266
0	H	0.761934	0.078691	0.689644
0	C	0.300632	0.382252	0.173379
0	C	0.699707	0.383255	0.352858
0	C	0.699061	0.611737	0.856721
0	C	0.299816	0.610864	0.677203
0	C	0.801148	0.879857	0.173536
0	C	0.198898	0.880932	0.353103
0	C	0.19839	0.114112	0.85671
0	C	0.800431	0.1132	0.677136
0	H	0.309663	0.420674	0.163512
0	H	0.690702	0.421624	0.363131
0	H	0.69009	0.573237	0.86649
0	H	0.308819	0.572511	0.666835
0	H	0.810281	0.918174	0.163666
0	H	0.189731	0.919125	0.363444
0	H	0.189284	0.0757586	0.866529
0	H	0.809552	0.0749736	0.666726
0	C	0.315764	0.335196	0.172691
0	C	0.684545	0.336205	0.353268
0	C	0.683846	0.65868	0.857443
0	C	0.314969	0.657929	0.676829
0	C	0.816179	0.832656	0.173118
0	C	0.183921	0.833632	0.35324
0	C	0.183322	0.161262	0.857149
0	C	0.815457	0.160442	0.677007
0	H	0.336468	0.337697	0.161693
0	H	0.663864	0.338668	0.364437
0	H	0.663139	0.656021	0.868374
0	H	0.335645	0.655499	0.665595
0	H	0.836917	0.834935	0.162361
0	H	0.163206	0.835715	0.364226
0	H	0.162584	0.158916	0.867878
0	H	0.836162	0.158283	0.665954
0	C	0.304677	0.285298	0.185593
0	C	0.695597	0.286375	0.33991
0	C	0.694859	0.708672	0.844636
0	C	0.303913	0.707731	0.690304
0	C	0.80495	0.782886	0.185991
0	C	0.195191	0.784022	0.339824
0	C	0.19452	0.211071	0.844309
0	C	0.80424	0.210088	0.690506
0	H	0.316487	0.2487	0.184316
0	H	0.683809	0.249778	0.341025
0	H	0.682987	0.745184	0.84591
0	H	0.315693	0.744347	0.689223
0	H	0.816692	0.746172	0.184933
0	H	0.183527	0.747229	0.340728
0	H	0.18275	0.247748	0.845361
0	H	0.815935	0.246843	0.689613
0	C	0.278167	0.28223	0.198842
0	C	0.722101	0.283403	0.326523
0	C	0.721371	0.711939	0.831463
0	C	0.277416	0.710666	0.703754
0	C	0.778404	0.780074	0.198948
0	C	0.221728	0.781495	0.326657
0	C	0.221067	0.21397	0.831383
0	C	0.777713	0.212708	0.70374
0	C	0.263526	0.200893	0.284215
0	C	0.736795	0.201633	0.241797
0	C	0.735911	0.793469	0.746236
0	C	0.262728	0.79235	0.788606
0	C	0.763484	0.698921	0.284245
0	C	0.236829	0.700089	0.241906
0	C	0.235955	0.295221	0.746166
0	C	0.762718	0.294157	0.788563
0	C	0.253469	0.148686	0.291071
0	C	0.74689	0.149419	0.235389
0	C	0.745923	0.845723	0.739434
0	C	0.252638	0.84456	0.795095
0	C	0.753329	0.646787	0.291049
0	C	0.24708	0.647999	0.235523
0	C	0.246099	0.347373	0.739408
0	C	0.752514	0.346278	0.795011
0	C	0.259958	0.11903	0.350906
0	C	0.740505	0.119516	0.175706
0	C	0.739451	0.875359	0.679574
0	C	0.259047	0.874423	0.854804
0	C	0.759712	0.617106	0.350917
0	C	0.240799	0.618046	0.17583
0	C	0.239731	0.377057	0.679535
0	C	0.758819	0.376171	0.854748
0	H	0.252539	0.0784078	0.354789
0	H	0.747985	0.0789175	0.172105
0	H	0.746852	0.915999	0.675714
0	H	0.251576	0.915023	0.858462
0	H	0.752234	0.576525	0.354748
0	H	0.248378	0.577522	0.172264
0	H	0.247214	0.417638	0.675721
0	H	0.751278	0.416719	0.858363
0	C	0.275688	0.141351	0.405427
0	C	0.724786	0.141556	0.120972
0	C	0.723768	0.853006	0.625003
0	C	0.274765	0.852318	0.909496
0	C	0.775398	0.639365	0.405561
0	C	0.225074	0.639959	0.121019
0	C	0.22406	0.354809	0.624866
0	C	0.774511	0.354146	0.909546
0	C	0.283992	0.194547	0.400715
0	C	0.71639	0.194719	0.125305
0	C	0.715488	0.799796	0.629697
0	C	0.283132	0.799138	0.905105
0	C	0.783791	0.692505	0.400894
0	C	0.216548	0.693037	0.12531
0	C	0.215665	0.301671	0.629512
0	C	0.782978	0.301031	0.905193
0	H	0.295478	0.212923	0.443704
0	H	0.704902	0.212861	0.0821549
0	H	0.704029	0.781402	0.586683
0	H	0.294609	0.780939	0.948236
0	H	0.795242	0.710839	0.443967
0	H	0.205063	0.711095	0.0820958
0	H	0.20422	0.28335	0.586426
0	H	0.794431	0.282886	0.9484
0	C	0.277519	0.224574	0.341257
0	C	0.722808	0.22503	0.184553
0	C	0.721959	0.769766	0.689155
0	C	0.276706	0.768885	0.845818
0	C	0.777452	0.722532	0.34137
0	C	0.222829	0.723371	0.184607
0	C	0.222002	0.271621	0.689019
0	C	0.776685	0.270773	0.845845
0	C	0.285862	0.282202	0.344506
0	C	0.714418	0.282621	0.180922
0	C	0.713651	0.71212	0.685842
0	C	0.285058	0.71127	0.849375
0	C	0.785902	0.780095	0.344648
0	C	0.214291	0.780873	0.180974
0	C	0.213561	0.214055	0.685692
0	C	0.785158	0.21323	0.849413
0	H	0.292293	0.294986	0.396625
0	H	0.708119	0.295255	0.128666
0	H	0.707299	0.699328	0.633681
0	H	0.291425	0.698617	0.901583
0	H	0.792319	0.792849	0.396786
0	H	0.207986	0.793472	0.128709
0	H	0.207212	0.201297	0.633515
0	H	0.791529	0.200609	0.901631
0	H	0.2695	0.308923	0.326477
0	H	0.730709	0.309456	0.199131
0	H	0.729999	0.685417	0.704013
0	H	0.268722	0.684495	0.831319
0	H	0.769604	0.806936	0.326525
0	H	0.230505	0.807866	0.199258
0	H	0.229837	0.187206	0.703946
0	H	0.768887	0.186322	0.831294
0	H	0.302475	0.290033	0.313707
0	H	0.697703	0.290453	0.211374
0	H	0.69699	0.704261	0.716468
0	H	0.301712	0.703368	0.818743
0	H	0.802561	0.787777	0.313949
0	H	0.197535	0.788504	0.211364
0	H	0.196856	0.206379	0.716238
0	H	0.801848	0.205492	0.818842
0	C	0.283498	0.109425	0.468158
0	C	0.717083	0.109391	0.0583732
0	C	0.71598	0.884894	0.562226
0	C	0.282489	0.884435	0.97213
0	C	0.783056	0.607458	0.468401
0	C	0.217515	0.607769	0.0583532
0	C	0.216421	0.386706	0.562007
0	C	0.782089	0.386258	0.972271
0	H	0.274929	0.0690412	0.466278
0	H	0.725729	0.0690731	0.0604906
0	H	0.724651	0.925191	0.563953
0	H	0.273785	0.924701	0.970159
0	H	0.774436	0.567117	0.466483
0	H	0.226211	0.567495	0.0605556
0	H	0.225142	0.426962	0.563805
0	H	0.773325	0.42647	0.970256
0	H	0.277018	0.129217	0.513632
0	H	0.723557	0.129101	0.0128342
0	H	0.72236	0.864954	0.516743
0	H	0.276091	0.864611	0.0176752
0	H	0.776511	0.627332	0.513749
0	H	0.224052	0.627525	0.0129157
0	H	0.222869	0.36671	0.516635
0	H	0.775635	0.366356	0.0177023
0	H	0.305174	0.105065	0.475983
0	H	0.695418	0.104865	0.0504708
0	H	0.694312	0.889463	0.554534
0	H	0.304151	0.889082	0.979891
0	H	0.804722	0.603004	0.476507
0	H	0.195861	0.603149	0.0501891
0	H	0.194763	0.391365	0.554034
0	H	0.80374	0.391014	0.980285
0	C	0.235674	0.120441	0.237802
0	C	0.764598	0.121464	0.289109
0	C	0.763646	0.874049	0.792791
0	C	0.234911	0.87253	0.741435
0	C	0.735512	0.618685	0.237697
0	C	0.264875	0.620282	0.28927
0	C	0.263888	0.375488	0.792817
0	C	0.734744	0.374078	0.741291
0	H	0.223297	0.147863	0.204964
0	H	0.776978	0.149073	0.321669
0	H	0.776025	0.846678	0.8257
0	H	0.222535	0.844925	0.708866
0	H	0.723163	0.646214	0.204946
0	H	0.277217	0.648068	0.321661
0	H	0.276233	0.347961	0.82558
0	H	0.722397	0.346346	0.70884
0	H	0.222292	0.0921077	0.260001
0	H	0.777962	0.0928453	0.267372
0	H	0.777018	0.902442	0.770663
0	H	0.221537	0.901101	0.763231
0	H	0.722099	0.590363	0.259804
0	H	0.278284	0.591726	0.26758
0	H	0.277298	0.403841	0.770757
0	H	0.721339	0.402627	0.763011
0	H	0.247409	0.0973772	0.203345
0	H	0.752786	0.0987969	0.323773
0	H	0.751847	0.897053	0.827163
0	H	0.2467	0.895243	0.706762
0	H	0.747223	0.595625	0.203183
0	H	0.253138	0.597584	0.324075
0	H	0.252147	0.398509	0.827305
0	H	0.746495	0.396789	0.706528
0	C	0.242845	0.19671	0.0876596
0	C	0.757109	0.199818	0.439045
0	C	0.756526	0.797543	0.942837
0	C	0.242355	0.794177	0.591356
0	C	0.742908	0.694646	0.0877019
0	C	0.257061	0.698046	0.439082
0	C	0.256487	0.299439	0.942712
0	C	0.742427	0.296087	0.591338
0	C	0.260514	0.19345	0.146547
0	C	0.739702	0.195346	0.379796
0	C	0.738881	0.800789	0.883909
0	C	0.259768	0.798711	0.650585
0	C	0.760569	0.69142	0.146607
0	C	0.239649	0.693626	0.37984
0	C	0.23884	0.302653	0.883785
0	C	0.759839	0.300597	0.650576
0	C	0.280777	0.154566	0.148643
0	C	0.719458	0.156456	0.378374
0	C	0.718576	0.839584	0.881809
0	C	0.28	0.837627	0.651942
0	C	0.780794	0.65245	0.148807
0	C	0.219471	0.654585	0.378285
0	C	0.218587	0.341566	0.881581
0	C	0.780024	0.339617	0.652024
0	C	0.281118	0.115829	0.0970352
0	C	0.718828	0.118922	0.431322
0	C	0.718195	0.87831	0.933421
0	C	0.280621	0.875091	0.598908
0	C	0.781118	0.613654	0.0972706
0	C	0.218878	0.616967	0.431144
0	C	0.218235	0.380349	0.933129
0	C	0.780622	0.377138	0.59905
0	H	0.296552	0.0854845	0.100028
0	H	0.703389	0.0885974	0.428898
0	H	0.702724	0.908579	0.930434
0	H	0.296058	0.905424	0.601266
0	H	0.796529	0.583259	0.100343
0	H	0.203475	0.586563	0.428633
0	H	0.202795	0.410683	0.930075
0	H	0.796032	0.407528	0.601475
0	C	0.261909	0.116173	0.0416581
0	C	0.737716	0.120543	0.487357
0	C	0.737401	0.878026	0.988813
0	C	0.261736	0.873395	0.542885
0	C	0.76192	0.613984	0.0418698
0	C	0.237761	0.618579	0.487189
0	C	0.237435	0.380063	0.988535
0	C	0.761742	0.375442	0.54301
0	C	0.243105	0.157255	0.0366794
0	C	0.756566	0.161548	0.491338
0	C	0.756227	0.836986	0.993827
0	C	0.242886	0.832388	0.538992
0	C	0.743147	0.655123	0.0367974
0	C	0.256567	0.659668	0.49127
0	C	0.256224	0.338955	0.993622
0	C	0.742929	0.33437	0.539045
0	H	0.228742	0.159352	0.992385
0	H	0.77072	0.164595	0.535993
0	H	0.77058	0.83491	0.0381487
0	H	0.22873	0.829292	0.494353
0	H	0.72879	0.657203	0.992489
0	H	0.270723	0.662693	0.535923
0	H	0.270577	0.336893	0.0379424
0	H	0.728775	0.331279	0.494396
0	C	0.302944	0.150684	0.204025
0	C	0.697538	0.151511	0.322492
0	C	0.696406	0.843355	0.826427
0	C	0.301925	0.842632	0.707806
0	C	0.80292	0.648482	0.204281
0	C	0.197603	0.649494	0.322294
0	C	0.196464	0.345474	0.826099
0	C	0.801909	0.34473	0.707972
0	H	0.321305	0.136048	0.184721
0	H	0.679166	0.136602	0.341439
0	H	0.678042	0.858022	0.845683
0	H	0.320272	0.857675	0.68886
0	H	0.821267	0.633664	0.185093
0	H	0.179253	0.634346	0.34111
0	H	0.178117	0.36035	0.845236
0	H	0.820235	0.35998	0.689134
0	H	0.297768	0.122788	0.243999
0	H	0.70305	0.123402	0.283121
0	H	0.701569	0.871156	0.786335
0	H	0.296385	0.870654	0.747243
0	H	0.797651	0.620707	0.244291
0	H	0.203235	0.621521	0.282904
0	H	0.201735	0.373159	0.785994
0	H	0.79627	0.372617	0.747449
0	H	0.307484	0.189302	0.229172
0	H	0.692861	0.189807	0.296663
0	H	0.691875	0.804675	0.801428
0	H	0.306656	0.804316	0.733537
0	H	0.807522	0.687097	0.229376
0	H	0.192838	0.687766	0.296498
0	H	0.191854	0.306816	0.801125
0	H	0.806715	0.306421	0.733648
0	C	0.262041	0.0741659	0.987565
0	C	0.737231	0.080226	0.543385
0	C	0.737223	0.920021	0.0429154
0	C	0.262217	0.91361	0.486736
0	C	0.762028	0.571879	0.987893
0	C	0.237321	0.578133	0.543082
0	C	0.237292	0.422154	0.042526
0	C	0.762191	0.415756	0.486966
0	H	0.241851	0.0630449	0.967808
0	H	0.757324	0.0677639	0.562339
0	H	0.757398	0.931282	0.0626257
0	H	0.242125	0.926252	0.468023
0	H	0.741835	0.560867	0.968043
0	H	0.257428	0.565759	0.562034
0	H	0.257475	0.433303	0.0622993
0	H	0.742087	0.428281	0.468187
0	H	0.27219	0.0374272	0.00588403
0	H	0.726083	0.0440197	0.527442
0	H	0.726997	0.956685	0.0246202
0	H	0.273488	0.949721	0.502458
0	H	0.7721	0.535102	0.00637088
0	H	0.226231	0.541892	0.526997
0	H	0.227142	0.458858	0.0240881
0	H	0.773389	0.451922	0.502823
0	H	0.272497	0.089023	0.944726
0	H	0.727661	0.0974498	0.58638
0	H	0.726803	0.90508	0.0857717
0	H	0.271645	0.896207	0.44363
0	H	0.772549	0.586575	0.94508
0	H	0.227714	0.595191	0.58612
0	H	0.226819	0.407369	0.0853758
0	H	0.771679	0.398503	0.44386
0	C	0.223712	0.241774	0.0726365
0	C	0.776199	0.245091	0.453243
0	C	0.775656	0.752479	0.957907
0	C	0.223279	0.748876	0.577206
0	C	0.723788	0.739721	0.0726047
0	C	0.276131	0.743342	0.453359
0	C	0.275605	0.254362	0.957828
0	C	0.723369	0.250766	0.577137
0	H	0.232649	0.280875	0.0862284
0	H	0.76714	0.283993	0.43922
0	H	0.766721	0.713381	0.944291
0	H	0.232348	0.709982	0.59123
0	H	0.732738	0.778826	0.0861167
0	H	0.26705	0.782247	0.43946
0	H	0.266649	0.215259	0.944341
0	H	0.732457	0.211873	0.591069
0	H	0.205393	0.237006	0.0975556
0	H	0.794485	0.240212	0.428207
0	H	0.793983	0.757239	0.933023
0	H	0.204992	0.753735	0.602244
0	H	0.705472	0.73501	0.0975497
0	H	0.294407	0.738541	0.428262
0	H	0.293916	0.259051	0.932858
0	H	0.70509	0.255562	0.602229
0	H	0.217731	0.24517	0.0176321
0	H	0.782278	0.248984	0.508163
0	H	0.781622	0.749085	0.0129191
0	H	0.217197	0.744956	0.522292
0	H	0.717804	0.743063	0.017596
0	H	0.28222	0.747154	0.508285
0	H	0.281596	0.251039	0.0128344
0	H	0.717272	0.246903	0.522222
0	C	0.029169	0.305211	0.275124
0	C	0.971114	0.30498	0.255366
0	C	0.970089	0.689536	0.755751
0	C	0.0281519	0.68914	0.775144
0	C	0.529486	0.807114	0.27555
0	C	0.471452	0.807788	0.254858
0	C	0.470254	0.187133	0.754978
0	C	0.528289	0.187052	0.775577
0	C	0.0429608	0.314772	0.338936
0	C	0.957286	0.314548	0.191592
0	C	0.956194	0.680207	0.692018
0	C	0.0419596	0.679486	0.838935
0	C	0.543184	0.816676	0.339475
0	C	0.457832	0.817551	0.190862
0	C	0.456529	0.177619	0.691076
0	C	0.541973	0.177337	0.839504
0	H	0.0427011	0.284666	0.379369
0	H	0.957546	0.284457	0.151125
0	H	0.956396	0.710451	0.651723
0	H	0.0417009	0.709544	0.879444
0	H	0.542815	0.786637	0.379938
0	H	0.458272	0.787663	0.150246
0	H	0.456882	0.207672	0.650629
0	H	0.541593	0.207295	0.880077
0	C	0.0571791	0.361977	0.351002
0	C	0.943039	0.361714	0.179577
0	C	0.941969	0.633031	0.679789
0	C	0.056183	0.63229	0.850891
0	C	0.557425	0.863867	0.351538
0	C	0.443545	0.864687	0.178973
0	C	0.442266	0.130461	0.679012
0	C	0.556219	0.130153	0.851425
0	H	0.0677627	0.369209	0.400662
0	H	0.932423	0.368917	0.129945
0	H	0.93132	0.625986	0.630166
0	H	0.0667862	0.625016	0.900523
0	H	0.567944	0.871168	0.401252
0	H	0.433053	0.872092	0.129247
0	H	0.431718	0.123214	0.629322
0	H	0.566742	0.122773	0.90112
0	C	0.0579511	0.400412	0.298768
0	C	0.942288	0.400175	0.231801
0	C	0.941295	0.594366	0.731776
0	C	0.056945	0.593898	0.79859
0	C	0.558279	0.902189	0.299211
0	C	0.442578	0.902823	0.231501
0	C	0.441423	0.0921061	0.7313
0	C	0.557096	0.091929	0.798977
0	C	0.0299928	0.343186	0.223138
0	C	0.970309	0.342967	0.307344
0	C	0.969324	0.651372	0.807537
0	C	0.0289468	0.6512	0.72312
0	C	0.530415	0.844963	0.22345
0	C	0.470499	0.845525	0.307066
0	C	0.469364	0.149225	0.807016
0	C	0.529194	0.149263	0.72341
0	H	0.0195397	0.335898	0.173216
0	H	0.980794	0.335706	0.357248
0	H	0.979839	0.658491	0.857431
0	H	0.0184727	0.65852	0.673216
0	H	0.520029	0.837556	0.173478
0	H	0.480872	0.838032	0.357046
0	H	0.479788	0.156579	0.85696
0	H	0.518798	0.15673	0.673454
0	C	0.0443466	0.390652	0.234842
0	C	0.955936	0.390422	0.295679
0	C	0.954973	0.603927	0.795671
0	C	0.0433042	0.603714	0.734722
0	C	0.544769	0.892407	0.235179
0	C	0.456096	0.892941	0.295498
0	C	0.454991	0.101809	0.795288
0	C	0.543556	0.101801	0.735003
0	H	0.044998	0.420118	0.193977
0	H	0.955306	0.419894	0.336548
0	H	0.954388	0.574295	0.836368
0	H	0.0439364	0.574286	0.693809
0	H	0.545487	0.921834	0.194307
0	H	0.455324	0.922242	0.336493
0	H	0.454292	0.0723383	0.836115
0	H	0.544272	0.0724479	0.694051
0	C	0.0723528	0.448345	0.313472
0	C	0.927848	0.448055	0.217023
0	C	0.926941	0.546402	0.716902
0	C	0.0713944	0.546019	0.813297
0	C	0.572645	0.950162	0.313788
0	C	0.428036	0.950594	0.217003
0	C	0.427002	0.0441978	0.716749
0	C	0.57155	0.0440542	0.813508
0	C	0.084681	0.488442	0.330507
0	C	0.915443	0.488002	0.199743
0	C	0.914672	0.506248	0.699807
0	C	0.0838006	0.506062	0.830518
0	C	0.584899	0.99039	0.33057
0	C	0.415556	0.9905	0.199996
0	C	0.414699	0.00402557	0.700004
0	C	0.583928	0.00401323	0.83047
0	C	0.0981673	0.534836	0.355739
0	C	0.901855	0.534255	0.174422
0	C	0.901241	0.459787	0.674601
0	C	0.0974138	0.459828	0.85581
0	C	0.598291	0.0368252	0.355755
0	C	0.401922	0.0366148	0.174663
0	C	0.401266	0.957643	0.674824
0	C	0.597495	0.957787	0.855699
0	C	0.0999743	0.543237	0.426937
0	C	0.899798	0.542411	0.103161
0	C	0.899448	0.451309	0.603418
0	C	0.0994971	0.451681	0.927075
0	C	0.600058	0.0451174	0.426973
0	C	0.399832	0.0445014	0.103349
0	C	0.399463	0.949393	0.603593
0	C	0.599572	0.949762	0.926986
0	H	0.0915178	0.51396	0.461045
0	H	0.908153	0.513055	0.0689797
0	H	0.907881	0.480572	0.569254
0	H	0.0911377	0.481026	0.961275
0	H	0.591633	0.0157373	0.461014
0	H	0.408165	0.0150132	0.0692962
0	H	0.407869	0.978793	0.569545
0	H	0.591244	0.979198	0.96113
0	C	0.109219	0.57303	0.314021
0	C	0.890921	0.572556	0.216213
0	C	0.890219	0.421592	0.71637
0	C	0.108354	0.421544	0.814006
0	C	0.609272	0.07513	0.31408
0	C	0.391023	0.0750208	0.216341
0	C	0.390291	0.919326	0.716495
0	C	0.608371	0.91942	0.813921
0	H	0.107661	0.567687	0.258701
0	H	0.892651	0.567361	0.271569
0	H	0.891764	0.426994	0.771682
0	H	0.106603	0.426729	0.758647
0	H	0.607711	0.0698648	0.258748
0	H	0.392799	0.070004	0.271726
0	H	0.391868	0.924574	0.771832
0	H	0.606596	0.924524	0.758548
0	C	0.121817	0.618211	0.34352
0	C	0.878231	0.617646	0.186761
0	C	0.877664	0.376338	0.686954
0	C	0.121071	0.376481	0.843442
0	C	0.621809	0.120338	0.343674
0	C	0.378314	0.120019	0.186702
0	C	0.377746	0.874133	0.686903
0	C	0.621058	0.874353	0.843433
0	H	0.130177	0.648409	0.311376
0	H	0.869969	0.647946	0.21897
0	H	0.869329	0.346138	0.719139
0	H	0.129329	0.346187	0.811221
0	H	0.630138	0.150634	0.311622
0	H	0.370058	0.150423	0.21876
0	H	0.369425	0.843821	0.718946
0	H	0.62929	0.843981	0.811286
0	C	0.122923	0.625471	0.414081
0	C	0.876884	0.624693	0.11615
0	C	0.876566	0.369013	0.616406
0	C	0.122449	0.369445	0.914061
0	C	0.622906	0.127477	0.414251
0	C	0.376937	0.126827	0.116054
0	C	0.376634	0.867019	0.616322
0	C	0.62245	0.86744	0.914067
0	C	0.134347	0.669204	0.456387
0	C	0.865348	0.668339	0.0738634
0	C	0.865165	0.325219	0.574178
0	C	0.134027	0.325839	0.956349
0	C	0.634314	0.171149	0.456668
0	C	0.365381	0.170334	0.0735792
0	C	0.365226	0.82335	0.573907
0	C	0.63403	0.823896	0.956444
0	C	0.148907	0.713175	0.436418
0	C	0.850944	0.712515	0.0938595
0	C	0.850632	0.281233	0.594221
0	C	0.148417	0.281655	0.936328
0	C	0.648817	0.215221	0.436767
0	C	0.351011	0.214602	0.0934417
0	C	0.350735	0.779263	0.59381
0	C	0.648368	0.779625	0.936464
0	H	0.153096	0.71834	0.383575
0	H	0.846929	0.717963	0.146794
0	H	0.846461	0.276092	0.647078
0	H	0.152383	0.27617	0.883369
0	H	0.652929	0.22053	0.383903
0	H	0.347061	0.220222	0.146383
0	H	0.346639	0.773931	0.64668
0	H	0.65226	0.774021	0.883481
0	C	0.158409	0.750163	0.485837
0	C	0.841338	0.749366	0.044358
0	C	0.841131	0.244203	0.544864
0	C	0.158063	0.244835	0.985829
0	C	0.658345	0.252115	0.486277
0	C	0.341372	0.251306	0.0437996
0	C	0.341196	0.742388	0.544301
0	C	0.658043	0.742888	0.986027
0	H	0.169969	0.78452	0.471572
0	H	0.829888	0.78387	0.0585938
0	H	0.829592	0.209835	0.559186
0	H	0.169491	0.210308	0.971569
0	H	0.669851	0.286555	0.472044
0	H	0.329962	0.28589	0.0579508
0	H	0.329702	0.707934	0.558533
0	H	0.669422	0.70829	0.971782
0	C	0.15373	0.742583	0.554201
0	C	0.845756	0.741477	0.975886
0	C	0.845779	0.251747	0.47647
0	C	0.153701	0.252785	0.0543272
0	C	0.653751	0.244323	0.554655
0	C	0.345712	0.243159	0.975331
0	C	0.345757	0.750213	0.475902
0	C	0.653767	0.751015	0.0545421
0	H	0.161452	0.771598	0.592237
0	H	0.837948	0.77038	0.937815
0	H	0.83805	0.222702	0.438486
0	H	0.161543	0.223908	0.0923923
0	H	0.661494	0.273253	0.592769
0	H	0.337877	0.27194	0.937145
0	H	0.337996	0.721304	0.43779
0	H	0.661632	0.722207	0.0926611
0	C	0.13947	0.698201	0.574279
0	C	0.859863	0.696902	0.955786
0	C	0.860021	0.296125	0.456311
0	C	0.139599	0.297362	0.0744544
0	C	0.639543	0.199837	0.574646
0	C	0.359781	0.198474	0.955384
0	C	0.359959	0.794708	0.455906
0	C	0.639715	0.795685	0.0746078
0	H	0.136524	0.691709	0.627741
0	H	0.862647	0.690129	0.90227
0	H	0.862957	0.302579	0.402831
0	H	0.136862	0.304173	0.127984
0	H	0.63667	0.193179	0.628114
0	H	0.362484	0.191487	0.901873
0	H	0.362807	0.801396	0.40243
0	H	0.637049	0.802636	0.128148
0	C	0.129347	0.661793	0.525389
0	C	0.8701	0.660652	0.00475087
0	C	0.870144	0.33258	0.505153
0	C	0.129313	0.333558	0.0254819
0	C	0.629376	0.163535	0.525683
0	C	0.370078	0.162391	0.00447151
0	C	0.370147	0.830982	0.504882
0	C	0.629382	0.83179	0.0255922
0	C	0.133413	0.571699	0.585125
0	C	0.865804	0.570542	0.945435
0	C	0.866055	0.422611	0.445276
0	C	0.133567	0.423726	0.084695
0	C	0.633376	0.0731442	0.585056
0	C	0.365882	0.0719391	0.945633
0	C	0.366168	0.921353	0.445474
0	C	0.633574	0.922242	0.0844797
0	C	0.130262	0.576935	0.655231
0	C	0.868642	0.575836	0.87518
0	C	0.869228	0.417365	0.375181
0	C	0.130771	0.418477	0.154973
0	C	0.630236	0.0781485	0.655198
0	C	0.36872	0.0769336	0.875338
0	C	0.36935	0.916409	0.375346
0	C	0.6308	0.917211	0.154797
0	C	0.146079	0.546927	0.703504
0	C	0.852546	0.546086	0.827245
0	C	0.853406	0.447315	0.326866
0	C	0.146884	0.448283	0.202825
0	C	0.645927	0.0477031	0.703264
0	C	0.35276	0.0466871	0.827644
0	C	0.353652	0.946814	0.32726
0	C	0.64677	0.947497	0.202437
0	H	0.142715	0.549809	0.757018
0	H	0.855641	0.549063	0.773559
0	H	0.856789	0.444441	0.273363
0	H	0.143819	0.445337	0.256529
0	H	0.642593	0.0504988	0.756809
0	H	0.355832	0.0495238	0.773927
0	H	0.357017	0.944073	0.273729
0	H	0.643739	0.944636	0.256175
0	C	0.165958	0.512922	0.683375
0	C	0.832695	0.512248	0.847878
0	C	0.833476	0.481227	0.346931
0	C	0.166707	0.482134	0.182069
0	C	0.665612	0.0133311	0.682877
0	C	0.333106	0.0124893	0.848568
0	C	0.3339	0.981047	0.347599
0	C	0.666379	0.981761	0.181416
0	C	0.170227	0.510294	0.61456
0	C	0.828729	0.509553	0.916874
0	C	0.829174	0.483839	0.415725
0	C	0.17062	0.484807	0.113038
0	C	0.66989	0.010931	0.61405
0	C	0.329127	0.0100775	0.917577
0	C	0.32958	0.983383	0.416401
0	C	0.670297	0.984208	0.11237
0	H	0.186062	0.485208	0.598371
0	H	0.812911	0.484637	0.933482
0	H	0.813294	0.508832	0.43186
0	H	0.186412	0.509746	0.0963328
0	H	0.685589	0.985636	0.597663
0	H	0.313449	0.984953	0.934405
0	H	0.313828	0.00855959	0.432746
0	H	0.685941	0.00938573	0.0954641
0	C	0.154381	0.540023	0.565702
0	C	0.844872	0.539026	0.9654
0	C	0.845037	0.454181	0.464628
0	C	0.154465	0.455284	0.0646036
0	C	0.654231	0.0412495	0.565423
0	C	0.345072	0.0401997	0.965844
0	C	0.345257	0.953115	0.465053
0	C	0.654342	0.954058	0.0641679
0	C	0.110522	0.613768	0.683073
0	C	0.888309	0.612568	0.846867
0	C	0.888966	0.380496	0.347404
0	C	0.111137	0.38174	0.183404
0	C	0.610606	0.115114	0.683235
0	C	0.388278	0.113767	0.84678
0	C	0.389001	0.879476	0.34734
0	C	0.611302	0.880285	0.183428
0	H	0.11646	0.626499	0.735389
0	H	0.882481	0.624455	0.794176
0	H	0.883109	0.367971	0.294964
0	H	0.117029	0.369805	0.236045
0	H	0.616628	0.127741	0.735546
0	H	0.382341	0.125587	0.794122
0	H	0.383029	0.866961	0.294958
0	H	0.617263	0.868529	0.236097
0	H	0.091054	0.594125	0.683801
0	H	0.907881	0.593246	0.847012
0	H	0.908479	0.40001	0.347031
0	H	0.09157	0.401057	0.18344
0	H	0.591105	0.0956181	0.684043
0	H	0.40787	0.094553	0.846746
0	H	0.408518	0.898938	0.346728
0	H	0.591679	0.899369	0.183448
0	H	0.107114	0.650339	0.652473
0	H	0.891448	0.649613	0.876658
0	H	0.892246	0.343805	0.377837
0	H	0.107961	0.344717	0.153591
0	H	0.607234	0.15173	0.652704
0	H	0.391416	0.150837	0.876516
0	H	0.392317	0.842791	0.377766
0	H	0.60822	0.843177	0.153746
0	C	0.182346	0.480366	0.734999
0	C	0.816035	0.479886	0.79661
0	C	0.81706	0.513666	0.295241
0	C	0.1834	0.51452	0.233252
0	C	0.681801	0.980227	0.734244
0	C	0.316652	0.979536	0.797582
0	C	0.317674	0.0140334	0.296177
0	C	0.682857	0.0147344	0.232341
0	H	0.198139	0.457788	0.712863
0	H	0.800122	0.457877	0.818991
0	H	0.801216	0.536142	0.317307
0	H	0.199198	0.53677	0.210706
0	H	0.697519	0.957533	0.711965
0	H	0.300805	0.957437	0.820109
0	H	0.301899	0.0366013	0.318391
0	H	0.698583	0.0370953	0.209663
0	H	0.170027	0.45087	0.759187
0	H	0.828138	0.449911	0.772584
0	H	0.829343	0.543235	0.271063
0	H	0.171287	0.544279	0.257629
0	H	0.669327	0.950787	0.758026
0	H	0.328917	0.94959	0.774027
0	H	0.330105	0.0435676	0.272417
0	H	0.670575	0.0444469	0.256257
0	H	0.191876	0.505472	0.775752
0	H	0.80663	0.505	0.755706
0	H	0.807591	0.48849	0.254481
0	H	0.19296	0.489359	0.273897
0	H	0.691407	0.00487482	0.775309
0	H	0.307179	0.00415694	0.75632
0	H	0.308135	0.989315	0.255097
0	H	0.692487	0.990063	0.273337
0	C	0.162211	0.536271	0.494333
0	C	0.837365	0.535163	0.0370403
0	C	0.837165	0.457867	0.535961
0	C	0.161923	0.459131	0.992916
0	C	0.662136	0.0378387	0.494099
0	C	0.337496	0.0367347	0.0374526
0	C	0.337307	0.956413	0.536344
0	C	0.661867	0.957567	0.992516
0	H	0.18163	0.516894	0.492129
0	H	0.817985	0.515741	0.0397971
0	H	0.817711	0.477118	0.538104
0	H	0.181267	0.478674	0.990045
0	H	0.681573	0.0185246	0.491944
0	H	0.31811	0.017343	0.0402094
0	H	0.317842	0.975618	0.538462
0	H	0.681225	0.977064	0.989675
0	H	0.1642	0.576379	0.472143
0	H	0.835434	0.575261	0.0593185
0	H	0.835223	0.417733	0.558122
0	H	0.1639	0.419022	0.970706
0	H	0.664132	0.0780405	0.472185
0	H	0.335542	0.0769446	0.0593917
0	H	0.33535	0.916171	0.558179
0	H	0.663858	0.917364	0.970585
0	H	0.148085	0.5127	0.461378
0	H	0.851624	0.511581	0.0695819
0	H	0.851242	0.48151	0.568972
0	H	0.147612	0.482594	0.960379
0	H	0.648059	0.0143544	0.460895
0	H	0.351726	0.0133007	0.0702726
0	H	0.351345	0.979928	0.569632
0	H	0.647596	0.980929	0.959733
0	C	0.082785	0.606175	0.547045
0	C	0.916573	0.605157	0.98254
0	C	0.916695	0.388189	0.483433
0	C	0.0828125	0.388922	0.0477937
0	C	0.582782	0.10787	0.547112
0	C	0.416598	0.106826	0.982555
0	C	0.416756	0.88662	0.483515
0	C	0.582859	0.887208	0.0477758
0	C	0.0668386	0.652082	0.536809
0	C	0.932499	0.65111	0.992589
0	C	0.932637	0.342274	0.493672
0	C	0.0669251	0.342917	0.0378051
0	C	0.566842	0.153783	0.536809
0	C	0.432521	0.152782	0.992653
0	C	0.432683	0.840688	0.493816
0	C	0.566971	0.841205	0.0377261
0	C	0.0392382	0.649252	0.541261
0	C	0.960099	0.648305	0.988175
0	C	0.960238	0.345098	0.489225
0	C	0.0393228	0.345636	0.0422393
0	C	0.539226	0.150945	0.541033
0	C	0.460135	0.14995	0.98847
0	C	0.460302	0.843511	0.489647
0	C	0.539357	0.843948	0.0419537
0	H	0.0271188	0.684954	0.531646
0	H	0.972192	0.684059	0.997613
0	H	0.972351	0.309388	0.498851
0	H	0.0272595	0.309841	0.0328293
0	H	0.527126	0.186671	0.531397
0	H	0.472217	0.185718	0.997942
0	H	0.472391	0.807769	0.499289
0	H	0.527304	0.808141	0.0325034
0	C	0.0270941	0.601033	0.556416
0	C	0.972268	0.60005	0.973286
0	C	0.972386	0.393303	0.474012
0	C	0.0271129	0.393849	0.0571052
0	C	0.527041	0.102713	0.555923
0	C	0.472338	0.101673	0.973853
0	C	0.472502	0.891734	0.474774
0	C	0.527115	0.892176	0.0565923
0	C	0.0429476	0.555456	0.568354
0	C	0.956435	0.554432	0.96145
0	C	0.956533	0.438876	0.462045
0	C	0.0429128	0.439522	0.0689097
0	C	0.542885	0.0571338	0.567897
0	C	0.456511	0.0560593	0.961997
0	C	0.456668	0.937321	0.462777
0	C	0.542913	0.937839	0.0684404
0	H	0.0337366	0.517774	0.580774
0	H	0.965666	0.516723	0.949162
0	H	0.965744	0.476543	0.449558
0	H	0.0336509	0.477202	0.0811866
0	H	0.533646	0.0194184	0.580059
0	H	0.465764	0.0183107	0.949975
0	H	0.465917	0.975027	0.450611
0	H	0.533632	0.975551	0.0804973
0	C	0.070495	0.557814	0.564077
0	C	0.92888	0.5568	0.965591
0	C	0.928987	0.436535	0.466355
0	C	0.0704674	0.437242	0.0647361
0	C	0.570456	0.0594862	0.563944
0	C	0.428934	0.0584301	0.965838
0	C	0.429096	0.934995	0.466705
0	C	0.570488	0.935555	0.0645486
0	C	0.997751	0.597791	0.560108
0	C	0.00161774	0.596887	0.969614
0	C	0.00172563	0.396508	0.470234
0	C	0.99776	0.396925	0.0607404
0	C	0.49768	0.0994636	0.559212
0	C	0.501706	0.0984834	0.970604
0	C	0.501865	0.894953	0.471509
0	C	0.497747	0.895266	0.0598598
0	H	0.987705	0.636146	0.548101
0	H	0.0116626	0.635142	0.982202
0	H	0.0117671	0.358175	0.482409
0	H	0.987773	0.358513	0.0487483
0	H	0.487675	0.137923	0.547555
0	H	0.511713	0.136855	0.982785
0	H	0.511858	0.856492	0.48326
0	H	0.487794	0.856761	0.0481788
0	H	0.992792	0.58583	0.611091
0	H	0.00658277	0.585457	0.918438
0	H	0.00665912	0.408283	0.419158
0	H	0.992766	0.408839	0.111717
0	H	0.49259	0.0871028	0.609939
0	H	0.506805	0.0865876	0.919706
0	H	0.506963	0.907226	0.420754
0	H	0.492634	0.907539	0.110606
0	H	0.988775	0.568057	0.523999
0	H	0.010599	0.566833	0.00524974
0	H	0.0107207	0.426354	0.50616
0	H	0.988738	0.426585	0.0246072
0	H	0.48875	0.0700217	0.522627
0	H	0.510636	0.068749	0.00677532
0	H	0.510799	0.924442	0.50803
0	H	0.488769	0.92467	0.023304
0	C	0.0850833	0.506332	0.579713
0	C	0.914262	0.50538	0.94983
0	C	0.914396	0.487998	0.450633
0	C	0.0850486	0.488719	0.080424
0	C	0.584998	0.00795817	0.579611
0	C	0.414361	0.00694988	0.950136
0	C	0.414563	0.986525	0.450992
0	C	0.585031	0.98707	0.0802605
0	H	0.072005	0.471219	0.574785
0	H	0.927296	0.4702	0.954983
0	H	0.927453	0.523137	0.455811
0	H	0.0719657	0.523833	0.0755168
0	H	0.571887	0.972951	0.574801
0	H	0.427428	0.971878	0.955245
0	H	0.427659	0.021547	0.456107
0	H	0.57192	0.0220851	0.0754693
0	H	0.0942328	0.506674	0.632512
0	H	0.905217	0.505767	0.896929
0	H	0.905357	0.487692	0.39773
0	H	0.0942013	0.488315	0.133222
0	H	0.594177	0.0083648	0.632386
0	H	0.405291	0.00733891	0.897254
0	H	0.405504	0.986198	0.398104
0	H	0.594215	0.986601	0.133033
0	H	0.101314	0.499375	0.547254
0	H	0.897931	0.498543	0.981988
0	H	0.898079	0.494882	0.48284
0	H	0.101292	0.49568	0.0480209
0	H	0.601194	0.000986295	0.547059
0	H	0.398062	0.000139982	0.982395
0	H	0.398275	0.993412	0.483281
0	H	0.601239	0.994037	0.0477587
0	C	0.0771408	0.706505	0.520918
0	C	0.922191	0.705564	0.0082594
0	C	0.922332	0.287843	0.509501
0	C	0.0772643	0.288479	0.0221704
0	C	0.577157	0.20821	0.520987
0	C	0.422197	0.207247	0.00822512
0	C	0.422348	0.786256	0.509526
0	C	0.577317	0.786757	0.0221571
0	H	0.0869906	0.706602	0.473023
0	H	0.912415	0.70579	0.0562785
0	H	0.912446	0.287725	0.557342
0	H	0.0869913	0.288238	0.974076
0	H	0.58693	0.208362	0.472976
0	H	0.412512	0.207559	0.0563752
0	H	0.41254	0.786061	0.557481
0	H	0.586964	0.786451	0.973946
0	H	0.0914939	0.721102	0.561972
0	H	0.907754	0.719986	0.967251
0	H	0.908007	0.273256	0.468383
0	H	0.0917473	0.274139	0.0631211
0	H	0.591573	0.222724	0.561949
0	H	0.407684	0.221547	0.967317
0	H	0.407951	0.771802	0.468483
0	H	0.591863	0.772498	0.063013
0	H	0.0613237	0.736658	0.514426
0	H	0.937972	0.735789	0.0144006
0	H	0.938147	0.25769	0.51605
0	H	0.0615088	0.258198	0.0161797
0	H	0.561342	0.23838	0.514741
0	H	0.437971	0.2375	0.0140546
0	H	0.438149	0.756059	0.515787
0	H	0.561561	0.756465	0.0164216
0	C	0.0285681	0.105029	0.258247
0	C	0.972123	0.104641	0.269639
0	C	0.971234	0.889721	0.772512
0	C	0.027668	0.889428	0.76082
0	C	0.528174	0.606956	0.258294
0	C	0.471775	0.607469	0.26953
0	C	0.471122	0.387278	0.772149
0	C	0.527534	0.387355	0.760959
0	C	0.0311525	0.0703295	0.314441
0	C	0.969777	0.0702325	0.213152
0	C	0.968761	0.924446	0.716331
0	C	0.0301617	0.92376	0.817383
0	C	0.530684	0.572174	0.314403
0	C	0.469402	0.573005	0.21309
0	C	0.468656	0.422089	0.71605
0	C	0.529968	0.421742	0.817461
0	H	0.0230701	0.0818399	0.361755
0	H	0.977996	0.0820669	0.166137
0	H	0.976929	0.912944	0.669123
0	H	0.0220147	0.911904	0.864483
0	H	0.522603	0.583691	0.361734
0	H	0.477578	0.584836	0.165999
0	H	0.476794	0.410606	0.66878
0	H	0.521821	0.409875	0.864575
0	C	0.0437631	0.0209617	0.30965
0	C	0.957217	0.0207396	0.217252
0	C	0.956123	0.973796	0.72098
0	C	0.0427609	0.973204	0.813225
0	C	0.543228	0.522726	0.309538
0	C	0.456902	0.523459	0.217346
0	C	0.456084	0.471502	0.720858
0	C	0.542509	0.471256	0.813239
0	H	0.0456242	0.993929	0.353125
0	H	0.95554	0.993951	0.173526
0	H	0.954326	0.000817889	0.677485
0	H	0.0445509	0.99994	0.857002
0	H	0.545036	0.49561	0.352993
0	H	0.455233	0.496579	0.173646
0	H	0.45431	0.498628	0.677403
0	H	0.544251	0.498073	0.857
0	C	0.0540055	0.00591798	0.248379
0	C	0.946785	0.00529781	0.278109
0	C	0.945751	0.988818	0.782092
0	C	0.0530687	0.988684	0.752217
0	C	0.55347	0.507656	0.248271
0	C	0.446551	0.507981	0.278303
0	C	0.445768	0.48654	0.782044
0	C	0.552808	0.486769	0.75223
0	C	0.0517797	0.0411029	0.192389
0	C	0.948783	0.0402004	0.334413
0	C	0.94791	0.953645	0.838098
0	C	0.050943	0.953841	0.695864
0	C	0.55127	0.542894	0.192324
0	C	0.448525	0.543001	0.334499
0	C	0.447894	0.451243	0.837935
0	C	0.55072	0.45187	0.695922
0	H	0.0599158	0.0296547	0.145137
0	H	0.940498	0.0284307	0.38135
0	H	0.939686	0.965089	0.885243
0	H	0.0591411	0.965633	0.648819
0	H	0.559376	0.531437	0.145026
0	H	0.440285	0.53126	0.381519
0	H	0.439709	0.462652	0.885154
0	H	0.558895	0.463669	0.648838
0	C	0.0391543	0.0904217	0.197469
0	C	0.961354	0.0896252	0.330033
0	C	0.960548	0.904334	0.833163
0	C	0.0383463	0.904449	0.70031
0	C	0.538716	0.59229	0.197471
0	C	0.461036	0.592485	0.329978
0	C	0.460466	0.401868	0.832854
0	C	0.538186	0.402407	0.700423
0	H	0.0375106	0.117769	0.154208
0	H	0.962817	0.116762	0.373511
0	H	0.962119	0.876969	0.876411
0	H	0.0367823	0.877358	0.65679
0	H	0.537102	0.619662	0.15423
0	H	0.462497	0.619676	0.373409
0	H	0.46202	0.374442	0.876044
0	H	0.536651	0.37529	0.656924
0	C	0.0665855	0.955577	0.242812
0	C	0.9342	0.954924	0.283229
0	C	0.933078	0.0390692	0.7875
0	C	0.0656419	0.0390697	0.747048
0	C	0.566033	0.457233	0.242634
0	C	0.434106	0.457407	0.283615
0	C	0.433203	0.536957	0.787659
0	C	0.565336	0.537268	0.746971
0	C	0.0773689	0.912655	0.237602
0	C	0.923347	0.912082	0.288555
0	C	0.922172	0.0818725	0.792642
0	C	0.0764633	0.0819446	0.741741
0	C	0.57682	0.414318	0.237309
0	C	0.423405	0.414415	0.289071
0	C	0.422404	0.579859	0.792999
0	C	0.57612	0.580173	0.741525
0	C	0.0906467	0.863512	0.230004
0	C	0.909956	0.863108	0.296403
0	C	0.90883	0.130942	0.800217
0	C	0.0897794	0.131009	0.733898
0	C	0.590162	0.365237	0.229701
0	C	0.410081	0.365348	0.296894
0	C	0.409083	0.628962	0.800632
0	C	0.58946	0.629216	0.73365
0	C	0.118591	0.861241	0.237831
0	C	0.882023	0.860944	0.287533
0	C	0.880887	0.133148	0.79232
0	C	0.11771	0.133377	0.742767
0	C	0.618108	0.363111	0.237774
0	C	0.382149	0.363093	0.287781
0	C	0.38114	0.631173	0.792502
0	C	0.617389	0.631522	0.742752
0	H	0.129976	0.897381	0.251881
0	H	0.870758	0.897005	0.272367
0	H	0.869531	0.0969833	0.778209
0	H	0.129035	0.0973932	0.757946
0	H	0.629431	0.39931	0.251928
0	H	0.370873	0.399134	0.272544
0	H	0.369798	0.595003	0.77829
0	H	0.62868	0.595515	0.758053
0	C	0.131467	0.813127	0.226838
0	C	0.868993	0.813077	0.298888
0	C	0.867974	0.181215	0.803328
0	C	0.130653	0.181339	0.731367
0	C	0.631075	0.315074	0.226913
0	C	0.369131	0.315186	0.298962
0	C	0.368201	0.679225	0.803379
0	C	0.630386	0.679446	0.731452
0	H	0.153113	0.810639	0.231935
0	H	0.847348	0.810727	0.29306
0	H	0.846327	0.183653	0.798186
0	H	0.152295	0.18385	0.737182
0	H	0.652719	0.312715	0.232245
0	H	0.34749	0.312781	0.292892
0	H	0.346556	0.681648	0.798007
0	H	0.652026	0.681892	0.737499
0	C	0.116399	0.767509	0.208091
0	C	0.883902	0.767522	0.318892
0	C	0.883013	0.226868	0.822158
0	C	0.115658	0.226772	0.711337
0	C	0.616103	0.269353	0.208029
0	C	0.38404	0.26965	0.319074
0	C	0.3832	0.724905	0.822336
0	C	0.615452	0.724924	0.711259
0	C	0.0760872	0.816345	0.212957
0	C	0.924365	0.816024	0.314869
0	C	0.923359	0.178134	0.817358
0	C	0.0752827	0.177987	0.715446
0	C	0.575704	0.317969	0.212496
0	C	0.424488	0.318278	0.315452
0	C	0.423571	0.676182	0.817931
0	C	0.575026	0.676236	0.715021
0	H	0.0541812	0.8166	0.206973
0	H	0.946266	0.81614	0.32171
0	H	0.945267	0.177923	0.82341
0	H	0.053382	0.177713	0.708635
0	H	0.553799	0.318073	0.206307
0	H	0.446386	0.318427	0.322482
0	H	0.445476	0.676012	0.824186
0	H	0.553129	0.676044	0.70802
0	C	0.125289	0.714423	0.189605
0	C	0.874842	0.714589	0.337513
0	C	0.874095	0.279932	0.840655
0	C	0.124622	0.279757	0.69262
0	C	0.625102	0.216297	0.189713
0	C	0.374973	0.216681	0.337555
0	C	0.374233	0.777985	0.840666
0	C	0.624483	0.777897	0.692666
0	C	0.151418	0.695729	0.190692
0	C	0.848677	0.696012	0.335699
0	C	0.847961	0.298591	0.83952
0	C	0.150756	0.298507	0.694332
0	C	0.651266	0.197753	0.19103
0	C	0.348809	0.19806	0.335535
0	C	0.348085	0.796604	0.83931
0	C	0.650636	0.796583	0.694592
0	H	0.168148	0.721487	0.20738
0	H	0.832032	0.721752	0.318271
0	H	0.831242	0.27282	0.822793
0	H	0.167446	0.272884	0.711765
0	H	0.667948	0.223613	0.207773
0	H	0.332164	0.223773	0.318025
0	H	0.331386	0.770806	0.822517
0	H	0.6673	0.770916	0.712095
0	C	0.15571	0.643414	0.169557
0	C	0.844229	0.643818	0.357078
0	C	0.843645	0.350898	0.860669
0	C	0.15511	0.350704	0.67283
0	C	0.655657	0.145436	0.170036
0	C	0.344356	0.145845	0.356827
0	C	0.343725	0.848926	0.860337
0	C	0.655048	0.848789	0.673201
0	H	0.175929	0.62823	0.169582
0	H	0.823971	0.628733	0.356486
0	H	0.823418	0.366047	0.860609
0	H	0.17534	0.365921	0.673325
0	H	0.675909	0.13038	0.170243
0	H	0.324093	0.130734	0.356063
0	H	0.323482	0.864036	0.860106
0	H	0.675299	0.863949	0.673884
0	C	0.134168	0.610407	0.14754
0	C	0.865639	0.610818	0.380133
0	C	0.86517	0.383933	0.88275
0	C	0.133633	0.383543	0.649799
0	C	0.634186	0.112283	0.147914
0	C	0.365756	0.112864	0.38002
0	C	0.365217	0.882015	0.882534
0	C	0.633616	0.881699	0.650041
0	H	0.137955	0.5694	0.131285
0	H	0.861716	0.569932	0.396608
0	H	0.861364	0.424928	0.899016
0	H	0.137483	0.424437	0.633228
0	H	0.63806	0.0712909	0.131761
0	H	0.361823	0.0719729	0.396434
0	H	0.361367	0.923007	0.898714
0	H	0.637519	0.922585	0.633549
0	C	0.108144	0.629229	0.146307
0	C	0.891702	0.629527	0.382103
0	C	0.891201	0.365139	0.884037
0	C	0.107602	0.364677	0.647973
0	C	0.608128	0.130951	0.146448
0	C	0.39182	0.131616	0.382198
0	C	0.391262	0.86326	0.884039
0	C	0.607567	0.8629	0.64799
0	H	0.0915258	0.603275	0.129208
0	H	0.908235	0.603627	0.40003
0	H	0.90781	0.391102	0.901195
0	H	0.0910201	0.390461	0.630081
0	H	0.591567	0.104888	0.129261
0	H	0.40834	0.105734	0.400238
0	H	0.407839	0.889264	0.901292
0	H	0.591022	0.888733	0.629991
0	C	0.103444	0.681514	0.166882
0	C	0.896552	0.681662	0.361211
0	C	0.895923	0.312867	0.863452
0	C	0.102847	0.31252	0.668946
0	C	0.60333	0.183233	0.166902
0	C	0.396672	0.18377	0.361368
0	C	0.396026	0.810975	0.863556
0	C	0.602755	0.810743	0.668881
0	C	0.0630349	0.676994	0.233001
0	C	0.937282	0.67676	0.296388
0	C	0.936354	0.317466	0.797424
0	C	0.062165	0.317196	0.733973
0	C	0.562879	0.178583	0.232817
0	C	0.437443	0.17901	0.296729
0	C	0.436503	0.815519	0.797732
0	C	0.562025	0.815447	0.733697
0	C	0.0664304	0.684597	0.303622
0	C	0.934057	0.684111	0.225704
0	C	0.932973	0.309884	0.726802
0	C	0.0654215	0.309855	0.804657
0	C	0.566249	0.186278	0.303428
0	C	0.434229	0.186404	0.226047
0	C	0.433143	0.807849	0.727118
0	C	0.565257	0.808052	0.804379
0	C	0.0543646	0.649558	0.347641
0	C	0.946173	0.648835	0.182068
0	C	0.945043	0.34494	0.682808
0	C	0.0532954	0.345097	0.848321
0	C	0.554266	0.151165	0.347523
0	C	0.44629	0.151075	0.182364
0	C	0.445153	0.842949	0.683054
0	C	0.553198	0.843369	0.848085
0	H	0.056698	0.656465	0.402314
0	H	0.943964	0.655551	0.127343
0	H	0.942716	0.338057	0.628134
0	H	0.0555371	0.338398	0.903048
0	H	0.556592	0.158128	0.402188
0	H	0.444072	0.157802	0.127639
0	H	0.442826	0.836016	0.628385
0	H	0.555438	0.836646	0.902811
0	C	0.0393164	0.605983	0.322305
0	C	0.961097	0.605238	0.207861
0	C	0.960094	0.388502	0.708195
0	C	0.0383098	0.388618	0.822551
0	C	0.539312	0.107438	0.322269
0	C	0.461165	0.107395	0.208103
0	C	0.460134	0.88663	0.708352
0	C	0.538286	0.887001	0.822364
0	C	0.0363683	0.597622	0.251899
0	C	0.963878	0.597121	0.278321
0	C	0.963025	0.39685	0.778604
0	C	0.0354783	0.396696	0.752087
0	C	0.536379	0.0990016	0.251878
0	C	0.46397	0.0992769	0.278559
0	C	0.463069	0.895034	0.77875
0	C	0.535457	0.895108	0.751905
0	H	0.02435	0.564104	0.231333
0	H	0.975789	0.56358	0.299233
0	H	0.975041	0.430365	0.799206
0	H	0.0234981	0.43015	0.73118
0	H	0.524431	0.0653682	0.231376
0	H	0.475861	0.0656988	0.299441
0	H	0.475044	0.928623	0.79929
0	H	0.523526	0.928636	0.731029
0	C	0.0480536	0.632457	0.207402
0	C	0.952128	0.632191	0.322431
0	C	0.951329	0.362004	0.823062
0	C	0.0472453	0.361678	0.707951
0	C	0.547992	0.13389	0.207316
0	C	0.452259	0.134377	0.322708
0	C	0.451421	0.860166	0.82327
0	C	0.547171	0.860036	0.707736
0	C	0.0827835	0.728605	0.337976
0	C	0.91779	0.727992	0.190801
0	C	0.916632	0.265883	0.692407
0	C	0.0817016	0.265977	0.839532
0	C	0.582489	0.230462	0.337747
0	C	0.418027	0.230374	0.191129
0	C	0.416887	0.763717	0.692742
0	C	0.581447	0.764048	0.839261
0	H	0.0853971	0.722876	0.393884
0	H	0.915294	0.722005	0.134923
0	H	0.914047	0.271604	0.636492
0	H	0.0842005	0.271953	0.895413
0	H	0.585065	0.224834	0.393677
0	H	0.415586	0.224458	0.135238
0	H	0.414347	0.769349	0.63681
0	H	0.583905	0.769957	0.895157
0	H	0.0734046	0.76784	0.329489
0	H	0.927166	0.767246	0.1991
0	H	0.925999	0.226638	0.700918
0	H	0.0723306	0.226721	0.831223
0	H	0.573036	0.269609	0.329103
0	H	0.427425	0.269591	0.199584
0	H	0.4263	0.724533	0.701412
0	H	0.572023	0.724855	0.830824
0	H	0.102872	0.729723	0.321391
0	H	0.897637	0.729189	0.206966
0	H	0.89653	0.264777	0.708915
0	H	0.10185	0.264792	0.82335
0	H	0.602592	0.23172	0.321273
0	H	0.397856	0.23161	0.207162
0	H	0.396769	0.762529	0.70913
0	H	0.601611	0.76276	0.823197
0	C	0.0428419	0.619237	0.13328
0	C	0.957068	0.619092	0.396648
0	C	0.956506	0.375206	0.897199
0	C	0.0422348	0.374739	0.633739
0	C	0.542818	0.120517	0.133229
0	C	0.4572	0.12119	0.396899
0	C	0.456581	0.873517	0.897369
0	C	0.542184	0.873195	0.633548
0	H	0.0394322	0.576265	0.124751
0	H	0.960495	0.576146	0.40536
0	H	0.959992	0.418153	0.905751
0	H	0.0388236	0.417688	0.625008
0	H	0.539456	0.077518	0.124817
0	H	0.460598	0.0782263	0.405537
0	H	0.460023	0.916491	0.905799
0	H	0.538818	0.916165	0.624891
0	H	0.0590831	0.631198	0.103004
0	H	0.940664	0.631009	0.426406
0	H	0.940206	0.363379	0.927354
0	H	0.0585857	0.362762	0.603841
0	H	0.55906	0.13247	0.102955
0	H	0.440809	0.133102	0.426701
0	H	0.440289	0.861701	0.927555
0	H	0.558529	0.861202	0.603639
0	H	0.0249649	0.640419	0.111426
0	H	0.974841	0.640389	0.418943
0	H	0.974322	0.353878	0.919159
0	H	0.0244254	0.353483	0.611604
0	H	0.524926	0.141605	0.111285
0	H	0.474991	0.142423	0.419198
0	H	0.474418	0.852285	0.919383
0	H	0.524357	0.852017	0.611375
0	C	0.026682	0.568415	0.368825
0	C	0.973752	0.567374	0.161737
0	C	0.972741	0.426073	0.661696
0	C	0.0256463	0.42644	0.868713
0	C	0.52676	0.0697837	0.368838
0	C	0.473727	0.0694317	0.161928
0	C	0.472691	0.924281	0.661785
0	C	0.525699	0.92492	0.86855
0	H	0.0286565	0.582037	0.422054
0	H	0.971843	0.580735	0.108403
0	H	0.970874	0.412344	0.608511
0	H	0.0275319	0.413008	0.922018
0	H	0.528822	0.0833116	0.422103
0	H	0.471758	0.0827258	0.10857
0	H	0.470751	0.910615	0.608576
0	H	0.527659	0.911585	0.921891
0	H	0.0356149	0.528346	0.367638
0	H	0.964775	0.52736	0.163186
0	H	0.963723	0.466074	0.662654
0	H	0.0346415	0.466444	0.867365
0	H	0.535684	0.0297179	0.36744
0	H	0.464725	0.0294487	0.163531
0	H	0.463662	0.964264	0.662906
0	H	0.534694	0.964914	0.867001
0	H	0.00527311	0.564142	0.353565
0	H	0.995147	0.563071	0.177214
0	H	0.994127	0.430526	0.677166
0	H	0.00425672	0.430793	0.853205
0	H	0.505335	0.065539	0.353781
0	H	0.49513	0.0650597	0.177228
0	H	0.494089	0.928764	0.677058
0	H	0.504297	0.929268	0.853223
0	C	0.0562419	0.731308	0.113535
0	C	0.943499	0.731237	0.416008
0	C	0.943126	0.263127	0.916884
0	C	0.0559311	0.262675	0.614411
0	C	0.556092	0.232566	0.113067
0	C	0.443567	0.233233	0.416581
0	C	0.44321	0.76152	0.917482
0	C	0.555851	0.76118	0.61389
0	C	0.029823	0.744939	0.123373
0	C	0.970063	0.744484	0.407381
0	C	0.969555	0.249524	0.90712
0	C	0.0293901	0.24934	0.62319
0	C	0.529645	0.246128	0.122705
0	C	0.470148	0.246492	0.408151
0	C	0.46966	0.747933	0.907926
0	C	0.529284	0.747887	0.622445
0	C	0.0119007	0.758876	0.0675597
0	C	0.987713	0.757858	0.463974
0	C	0.987454	0.235552	0.962971
0	C	0.0117006	0.235975	0.566679
0	C	0.511734	0.259757	0.0667357
0	C	0.487781	0.259545	0.464905
0	C	0.487549	0.734325	0.963954
0	C	0.511621	0.734802	0.565769
0	H	0.991441	0.768115	0.0759299
0	H	0.00828221	0.766839	0.456539
0	H	0.0079187	0.22632	0.954649
0	H	0.991147	0.22694	0.574228
0	H	0.491277	0.269016	0.0749493
0	H	0.508344	0.268584	0.45764
0	H	0.508008	0.725033	0.955803
0	H	0.491069	0.725738	0.573129
0	C	0.0200871	0.760546	0.00184081
0	C	0.979116	0.759289	0.529292
0	C	0.979231	0.233819	0.0286479
0	C	0.0202294	0.234631	0.501286
0	C	0.519943	0.261064	0.00102649
0	C	0.479162	0.26056	0.530215
0	C	0.479307	0.733058	0.0296324
0	C	0.52019	0.733792	0.500405
0	C	0.0465425	0.748981	0.992387
0	C	0.952499	0.748323	0.537501
0	C	0.952764	0.245355	0.0380225
0	C	0.0468268	0.245671	0.492917
0	C	0.54641	0.249469	0.991733
0	C	0.452539	0.24952	0.538269
0	C	0.452834	0.744669	0.0388486
0	C	0.5468	0.74486	0.492229
0	H	0.0531122	0.750501	0.941222
0	H	0.945591	0.749801	0.58832
0	H	0.946164	0.243773	0.0891523
0	H	0.0536809	0.244274	0.442041
0	H	0.552997	0.250608	0.940579
0	H	0.445615	0.250561	0.589065
0	H	0.446222	0.743559	0.0899606
0	H	0.553688	0.743814	0.441384
0	C	0.064619	0.734865	0.0476375
0	C	0.934667	0.734919	0.48141
0	C	0.934712	0.259495	0.982738
0	C	0.0647015	0.25906	0.548937
0	C	0.564498	0.235813	0.0471719
0	C	0.434703	0.236588	0.48198
0	C	0.434769	0.758273	0.983343
0	C	0.564669	0.757828	0.548441
0	C	0.000998625	0.774382	0.942185
0	C	0.997922	0.772294	0.589828
0	C	0.99829	0.219896	0.0883354
0	C	0.00138225	0.221607	0.440846
0	C	0.500867	0.274562	0.941206
0	C	0.497958	0.273233	0.590896
0	C	0.498363	0.719508	0.0894814
0	C	0.50137	0.721072	0.439797
0	H	0.997742	0.739856	0.907731
0	H	0.000680253	0.737511	0.624069
0	H	0.00151232	0.254342	0.122934
0	H	0.998834	0.256149	0.406158
0	H	0.497713	0.239916	0.906909
0	H	0.500625	0.23834	0.624972
0	H	0.5015	0.754099	0.123876
0	H	0.498949	0.755692	0.405209
0	H	0.00846068	0.807259	0.912131
0	H	0.990509	0.805301	0.619769
0	H	0.990821	0.186922	0.118214
0	H	0.00863532	0.188169	0.411355
0	H	0.508299	0.3074	0.911024
0	H	0.490569	0.306187	0.62098
0	H	0.490921	0.686606	0.119541
0	H	0.508591	0.687633	0.410242
0	H	0.981549	0.786681	0.957317
0	H	0.0176058	0.784027	0.575733
0	H	0.0177562	0.207672	0.07324
0	H	0.981622	0.210477	0.454992
0	H	0.481385	0.286745	0.956156
0	H	0.517668	0.284865	0.576971
0	H	0.517855	0.707369	0.074558
0	H	0.481571	0.710106	0.453737
0	C	0.0185931	0.745598	0.191096
0	C	0.981708	0.745272	0.340179
0	C	0.980816	0.248909	0.839435
0	C	0.0178096	0.248433	0.690473
0	C	0.518367	0.246971	0.190371
0	C	0.481824	0.247588	0.340994
0	C	0.480958	0.747005	0.840287
0	C	0.517647	0.746783	0.689654
0	H	0.0330945	0.756218	0.233495
0	H	0.967443	0.755969	0.29729
0	H	0.966316	0.238489	0.796952
0	H	0.0321238	0.237771	0.733273
0	H	0.532842	0.257695	0.232795
0	H	0.467567	0.258389	0.298122
0	H	0.466472	0.736454	0.797817
0	H	0.531932	0.736024	0.732487
0	H	0.0111171	0.705344	0.203156
0	H	0.989245	0.705036	0.32825
0	H	0.988383	0.289124	0.827539
0	H	0.010231	0.288615	0.702492
0	H	0.510891	0.20674	0.202553
0	H	0.489394	0.20742	0.328862
0	H	0.488543	0.787161	0.828172
0	H	0.510056	0.78693	0.701794
0	H	0.00174272	0.773094	0.192379
0	H	0.998589	0.772784	0.339679
0	H	0.997607	0.221268	0.838114
0	H	0.000969428	0.220827	0.691037
0	H	0.501501	0.274428	0.191431
0	H	0.498693	0.275129	0.340747
0	H	0.497748	0.719356	0.839237
0	H	0.500798	0.7192	0.689976
0	C	0.0925249	0.724585	0.0315137
0	C	0.906519	0.725605	0.496173
0	C	0.906787	0.26969	0.998765
0	C	0.0928308	0.268417	0.534037
0	C	0.592435	0.225679	0.0312025
0	C	0.406522	0.227429	0.496555
0	C	0.406807	0.768309	0.999178
0	C	0.592833	0.767019	0.533735
0	H	0.0960787	0.736711	0.979646
0	H	0.902656	0.738336	0.547608
0	H	0.903206	0.257494	0.0505876
0	H	0.0966486	0.255766	0.482539
0	H	0.596016	0.237816	0.979343
0	H	0.402622	0.240202	0.54796
0	H	0.403191	0.756092	0.0509831
0	H	0.596689	0.754325	0.482268
0	H	0.0974254	0.681712	0.0358084
0	H	0.901333	0.682845	0.492186
0	H	0.90186	0.312553	0.994515
0	H	0.0980216	0.311174	0.538091
0	H	0.597396	0.182841	0.0356003
0	H	0.401273	0.184705	0.492487
0	H	0.401814	0.811133	0.994827
0	H	0.59809	0.809736	0.537873
0	H	0.106995	0.746397	0.0658482
0	H	0.892438	0.747525	0.460895
0	H	0.892349	0.247876	0.964349
0	H	0.106936	0.246447	0.569202
0	H	0.606846	0.24757	0.0655949
0	H	0.392511	0.249413	0.461184
0	H	0.392439	0.746412	0.964681
0	H	0.606866	0.744979	0.568993
0	N	0.231976	0.262891	0.216554
0	N	0.768316	0.263992	0.309011
0	N	0.767544	0.731619	0.813892
0	N	0.231206	0.730002	0.721405
0	N	0.732147	0.761248	0.216443
0	N	0.268036	0.76295	0.309277
0	N	0.267323	0.232931	0.813942
0	N	0.731437	0.231425	0.721256
0	N	0.11203	0.587329	0.454851
0	N	0.887623	0.5864	0.07529
0	N	0.887435	0.407144	0.575573
0	N	0.111697	0.40772	0.954928
0	N	0.612048	0.0892371	0.454951
0	N	0.387649	0.0884087	0.0753218
0	N	0.387474	0.90528	0.575613
0	N	0.611736	0.905795	0.954891
0	N	0.0888314	0.769601	0.203124
0	N	0.911477	0.769513	0.324952
0	N	0.910582	0.224824	0.8272
0	N	0.0880866	0.224593	0.705336
0	N	0.588533	0.271298	0.202784
0	N	0.411613	0.271716	0.325386
0	N	0.41077	0.722871	0.827656
0	N	0.587881	0.722809	0.704994
0	B	0.259318	0.231682	0.212082
0	B	0.740971	0.232832	0.313595
0	B	0.740145	0.76263	0.818332
0	B	0.258536	0.761203	0.716778
0	B	0.759412	0.729722	0.21209
0	B	0.240826	0.731268	0.313747
0	B	0.240034	0.26438	0.818289
0	B	0.758668	0.263003	0.716713
0	B	0.113769	0.60592	0.532868
0	B	0.885639	0.604778	0.997184
0	B	0.885709	0.38846	0.497589
0	B	0.113737	0.389391	0.0330538
0	B	0.613781	0.107649	0.533006
0	B	0.385652	0.106512	0.997141
0	B	0.38575	0.886859	0.49756
0	B	0.613791	0.887633	0.0330514
0	B	0.0762532	0.713414	0.177556
0	B	0.923852	0.713381	0.351281
0	B	0.923131	0.281019	0.852829
0	B	0.075607	0.280638	0.679032
0	B	0.576071	0.214984	0.177292
0	B	0.423979	0.21555	0.35167
0	B	0.423266	0.779146	0.853209
0	B	0.575472	0.778923	0.678712
