#******************************************
#
# CIF file created by Zeo++
# Zeo++ is an open source package to
# analyze microporous materials
#
#*******************************************

_cell_length_a		11.7791(0)
_cell_length_b		31.6846(0)
_cell_length_c		40.9153(0)
_cell_angle_alpha		90(0)
_cell_angle_beta		90(0)
_cell_angle_gamma		90(0)

_symmetry_space_group_name_H-M		'P1'
_symmetry_Int_Tables_number		1
_symmetry_cell_setting		Monoclinic

loop_
_symmetry_equiv_pos_as_xyz
'+x,+y,+z'

loop_
_atom_site_label
_atom_site_type_symbol
_atom_site_fract_x
_atom_site_fract_y
_atom_site_fract_z
0	C	0.480311	0.0360155	0.434883
0	C	0.00303476	0.976965	0.922436
0	C	0.499355	0.537319	0.0510367
0	C	0.972477	0.477221	0.539731
0	C	0.987266	0.978733	0.401684
0	C	0.492133	0.0366069	0.893035
0	C	0.99121	0.478188	0.0810737
0	C	0.488417	0.534957	0.572648
0	C	0.94963	0.0158746	0.380133
0	C	0.529122	0.999652	0.871123
0	C	0.028763	0.51498	0.103059
0	C	0.4522	0.497754	0.594237
0	C	0.931661	0.00672035	0.347544
0	C	0.547215	0.00923657	0.838569
0	C	0.0476629	0.50546	0.135586
0	C	0.434808	0.506641	0.626905
0	C	0.928469	0.0396648	0.322761
0	C	0.549049	0.976677	0.8135
0	C	0.0489874	0.537974	0.16061
0	C	0.432156	0.473467	0.651468
0	H	0.940531	0.0725189	0.330589
0	H	0.535997	0.943741	0.821051
0	H	0.0355069	0.570793	0.153036
0	H	0.44454	0.440733	0.643409
0	C	0.914761	0.0299752	0.290328
0	C	0.562481	0.986814	0.781107
0	C	0.0624749	0.527867	0.193015
0	C	0.418461	0.482885	0.68394
0	H	0.917453	0.0552698	0.271385
0	H	0.55935	0.961709	0.761947
0	H	0.058752	0.553012	0.21209
0	H	0.420821	0.457328	0.702607
0	C	0.901173	0.987697	0.280227
0	C	0.576325	0.0291465	0.771351
0	C	0.0771114	0.485594	0.202717
0	C	0.405223	0.525011	0.694332
0	H	0.889904	0.97972	0.253911
0	H	0.585242	0.0373246	0.744984
0	H	0.0860814	0.477534	0.229132
0	H	0.395132	0.532761	0.720743
0	C	0.901261	0.954714	0.3036
0	C	0.578651	0.0617308	0.7951
0	C	0.0799689	0.452992	0.178939
0	C	0.404526	0.558227	0.671123
0	H	0.888646	0.922204	0.295014
0	H	0.592633	0.0941942	0.786728
0	H	0.0937571	0.420485	0.18737
0	H	0.391643	0.590641	0.679926
0	C	0.917167	0.963167	0.336279
0	C	0.563375	0.0529151	0.827795
0	C	0.0648526	0.461889	0.146245
0	C	0.420051	0.550078	0.638397
0	C	0.914273	0.929318	0.36063
0	C	0.568402	0.0861348	0.852824
0	C	0.0708032	0.428932	0.121044
0	C	0.416409	0.584081	0.614155
0	H	0.886622	0.897912	0.35236
0	H	0.59902	0.117253	0.844855
0	H	0.103477	0.397962	0.128882
0	H	0.388805	0.615431	0.622568
0	C	0.94449	0.93579	0.391922
0	C	0.537347	0.0796717	0.884092
0	C	0.0386103	0.435441	0.0898712
0	C	0.446016	0.577848	0.582781
0	C	0.946613	0.90257	0.417037
0	C	0.535631	0.111935	0.910167
0	C	0.0369644	0.402961	0.0639757
0	C	0.448119	0.611316	0.557836
0	C	0.0418048	0.875708	0.419634
0	C	0.441122	0.139073	0.913616
0	C	0.941764	0.3761	0.0607893
0	C	0.54305	0.638387	0.555616
0	C	0.0442066	0.844863	0.444149
0	C	0.437765	0.168172	0.939427
0	C	0.938468	0.346361	0.0354305
0	C	0.545676	0.669557	0.531368
0	H	0.118314	0.824372	0.445748
0	H	0.36363	0.188557	0.941588
0	H	0.863859	0.326214	0.0333654
0	H	0.619947	0.690036	0.529977
0	C	0.954718	0.840358	0.466372
0	C	0.525925	0.171094	0.962327
0	C	0.0272079	0.342542	0.0127962
0	C	0.456324	0.674334	0.509108
0	C	0.859464	0.866617	0.462817
0	C	0.620666	0.144836	0.957877
0	C	0.122528	0.368583	0.0169838
0	C	0.361377	0.647854	0.512242
0	H	0.787856	0.862954	0.479529
0	H	0.691585	0.147046	0.974973
0	H	0.19366	0.365676	0.999989
0	H	0.289964	0.651613	0.495457
0	C	0.854457	0.897918	0.438785
0	C	0.626253	0.115161	0.932588
0	C	0.128232	0.398895	0.0418372
0	C	0.356468	0.616115	0.535948
0	C	0.141575	0.879452	0.396213
0	C	0.343014	0.136964	0.88949
0	C	0.843166	0.379032	0.0847293
0	C	0.642514	0.634405	0.579133
0	H	0.132933	0.909081	0.381503
0	H	0.350964	0.107552	0.874419
0	H	0.85199	0.408568	0.0995974
0	H	0.633529	0.604643	0.59369
0	C	0.254837	0.882295	0.414494
0	C	0.227889	0.134626	0.906815
0	C	0.728428	0.381745	0.0672304
0	C	0.755782	0.631491	0.560845
0	H	0.276569	0.852823	0.427093
0	H	0.206541	0.163987	0.91958
0	H	0.706212	0.352366	0.0546103
0	H	0.777662	0.660946	0.548254
0	H	0.254942	0.90737	0.433061
0	H	0.225241	0.109172	0.925031
0	H	0.726608	0.407049	0.0488919
0	H	0.755366	0.606438	0.542231
0	H	0.325035	0.889376	0.397767
0	H	0.159098	0.128362	0.889398
0	H	0.659545	0.388458	0.0845184
0	H	0.826102	0.624287	0.577509
0	C	0.140773	0.842042	0.372418
0	C	0.348447	0.174781	0.866111
0	C	0.846366	0.341483	0.108392
0	C	0.641641	0.671536	0.603212
0	H	0.210138	0.844509	0.354646
0	H	0.279628	0.173514	0.848047
0	H	0.776657	0.343205	0.126123
0	H	0.710962	0.668915	0.620989
0	H	0.0612549	0.840207	0.358696
0	H	0.428895	0.175804	0.85274
0	H	0.925983	0.340288	0.122117
0	H	0.561954	0.673147	0.616887
0	H	0.151405	0.81185	0.385212
0	H	0.340139	0.204894	0.879135
0	H	0.837836	0.31128	0.0955335
0	H	0.65223	0.701864	0.590654
0	C	0.7516	0.92694	0.437475
0	C	0.728958	0.0862479	0.930466
0	C	0.231936	0.427389	0.0436943
0	C	0.253873	0.586946	0.536902
0	H	0.758955	0.948939	0.416184
0	H	0.72008	0.0646923	0.908951
0	H	0.222618	0.449883	0.0646203
0	H	0.262089	0.564201	0.557704
0	C	0.64186	0.901645	0.432901
0	C	0.83791	0.111897	0.925534
0	C	0.339916	0.401492	0.0496322
0	C	0.144238	0.612024	0.542359
0	H	0.639342	0.885922	0.409123
0	H	0.839522	0.127626	0.901732
0	H	0.339803	0.38642	0.073672
0	H	0.143151	0.627272	0.566331
0	H	0.566376	0.922212	0.434486
0	H	0.913812	0.0914992	0.927092
0	H	0.416316	0.421649	0.0480544
0	H	0.0688743	0.591407	0.540817
0	H	0.630502	0.877365	0.451723
0	H	0.849144	0.136209	0.9443
0	H	0.351594	0.376633	0.0313094
0	H	0.13179	0.636678	0.523915
0	C	0.748227	0.953596	0.468749
0	C	0.735238	0.0588787	0.961317
0	C	0.241331	0.453342	0.0121602
0	C	0.249438	0.561262	0.505143
0	H	0.744412	0.934053	0.490883
0	H	0.739255	0.077915	0.983669
0	H	0.24298	0.433323	0.99028
0	H	0.247261	0.58149	0.483365
0	H	0.673078	0.973843	0.469474
0	H	0.811628	0.0392525	0.961373
0	H	0.320099	0.471671	0.0116508
0	H	0.173052	0.541608	0.503937
0	H	0.823357	0.973752	0.471156
0	H	0.661322	0.0381564	0.963723
0	H	0.170048	0.475201	0.00926604
0	H	0.323383	0.540507	0.502505
0	C	0.958187	0.809323	0.494983
0	C	0.522154	0.200057	0.992341
0	C	0.0234697	0.312642	0.98335
0	C	0.459728	0.706089	0.48099
0	C	0.948201	0.835257	0.527108
0	C	0.532657	0.172136	0.0234772
0	C	0.033961	0.33954	0.951677
0	C	0.449799	0.681212	0.448376
0	H	0.870484	0.854751	0.526944
0	H	0.610874	0.152958	0.022612
0	H	0.112237	0.3587	0.95213
0	H	0.372063	0.661714	0.448168
0	H	0.0196636	0.857715	0.52895
0	H	0.461453	0.149488	0.024465
0	H	0.962961	0.362227	0.950217
0	H	0.521391	0.658877	0.446074
0	C	0.946838	0.805389	0.556851
0	C	0.533434	0.199859	0.0544898
0	C	0.034559	0.31071	0.921276
0	C	0.448311	0.712032	0.419207
0	H	0.938755	0.8245	0.579605
0	H	0.541808	0.179144	0.0764021
0	H	0.0428391	0.330612	0.898932
0	H	0.440298	0.69368	0.396096
0	C	0.0583128	0.779828	0.557807
0	C	0.42159	0.225091	0.0565481
0	C	0.922799	0.285404	0.919798
0	C	0.55971	0.737664	0.418725
0	H	0.0597836	0.75903	0.579456
0	H	0.420191	0.244412	0.079037
0	H	0.920958	0.265427	0.897673
0	H	0.561106	0.759134	0.39748
0	H	0.131675	0.801287	0.560347
0	H	0.348419	0.203408	0.0583714
0	H	0.849671	0.307054	0.9177
0	H	0.633178	0.71634	0.415761
0	C	0.0689629	0.753568	0.526179
0	C	0.410598	0.253398	0.0259996
0	C	0.911907	0.258124	0.950895
0	C	0.570209	0.762903	0.450847
0	H	0.149687	0.735268	0.526697
0	H	0.329457	0.271384	0.0272978
0	H	0.830907	0.240063	0.949964
0	H	0.65086	0.781267	0.450659
0	C	0.96771	0.722835	0.523603
0	C	0.511394	0.284498	0.0247588
0	C	0.0125403	0.227081	0.95295
0	C	0.468748	0.793445	0.45406
0	H	0.975753	0.70289	0.501593
0	H	0.503052	0.305915	0.00363649
0	H	0.00432046	0.20676	0.974742
0	H	0.476652	0.812583	0.476496
0	H	0.967247	0.700951	0.544616
0	H	0.511585	0.304807	0.0467277
0	H	0.0125234	0.205613	0.931661
0	H	0.468141	0.816065	0.433524
0	C	0.856282	0.748431	0.522497
0	C	0.623178	0.259225	0.0225803
0	C	0.12429	0.252431	0.954359
0	C	0.35744	0.767747	0.454644
0	H	0.782945	0.726379	0.520495
0	H	0.696272	0.281482	0.0215684
0	H	0.197283	0.230204	0.95582
0	H	0.283968	0.789654	0.457069
0	C	0.85721	0.777999	0.492481
0	C	0.62284	0.231705	0.991388
0	C	0.124347	0.281114	0.984911
0	C	0.358457	0.737205	0.484066
0	H	0.863964	0.759417	0.469726
0	H	0.616532	0.251879	0.969492
0	H	0.118575	0.261843	0.00730761
0	H	0.364879	0.755042	0.507178
0	H	0.775916	0.795259	0.490951
0	H	0.704381	0.214764	0.98936
0	H	0.205763	0.298257	0.986384
0	H	0.277335	0.719794	0.485213
0	C	0.0696699	0.783345	0.496266
0	C	0.410351	0.225708	0.99487
0	C	0.911599	0.286954	0.981389
0	C	0.571131	0.732165	0.480169
0	H	0.143533	0.804759	0.497803
0	H	0.336826	0.204114	0.995567
0	H	0.838199	0.308578	0.980149
0	H	0.645162	0.710884	0.478219
0	H	0.0797324	0.764724	0.473624
0	H	0.399762	0.245895	0.973113
0	H	0.900823	0.267645	0.00362469
0	H	0.581148	0.750098	0.50314
0	C	0.844961	0.774911	0.554024
0	C	0.634604	0.230825	0.053084
0	C	0.135584	0.279752	0.923272
0	C	0.346283	0.742344	0.422596
0	H	0.841338	0.754084	0.575655
0	H	0.636862	0.250249	0.0755186
0	H	0.137763	0.259564	0.901252
0	H	0.342716	0.763877	0.4014
0	H	0.76463	0.792857	0.55378
0	H	0.715486	0.213254	0.0524866
0	H	0.216541	0.297292	0.923549
0	H	0.266027	0.724359	0.422416
0	C	0.0205318	0.0771903	0.41192
0	C	0.46039	0.938454	0.903574
0	C	0.959042	0.576507	0.0712683
0	C	0.522098	0.436034	0.562379
0	C	0.934395	0.057708	0.394016
0	C	0.54496	0.957772	0.884891
0	C	0.0440101	0.556889	0.089559
0	C	0.436667	0.455913	0.580355
0	C	0.831182	0.08173	0.388462
0	C	0.647586	0.933663	0.878756
0	C	0.146727	0.580814	0.0960651
0	C	0.333045	0.432281	0.586194
0	C	0.734096	0.0643435	0.372425
0	C	0.742736	0.950725	0.861625
0	C	0.241838	0.563316	0.11297
0	C	0.236437	0.450399	0.601995
0	H	0.734552	0.0313885	0.364827
0	H	0.741913	0.983635	0.853912
0	H	0.241395	0.530245	0.120259
0	H	0.237532	0.483568	0.608975
0	C	0.638706	0.0883814	0.366904
0	C	0.836633	0.926319	0.855123
0	C	0.335933	0.587472	0.119819
0	C	0.140724	0.426783	0.60805
0	H	0.564576	0.075047	0.354433
0	H	0.908924	0.939374	0.841718
0	H	0.408314	0.574173	0.133143
0	H	0.0670072	0.440625	0.620425
0	C	0.634507	0.131108	0.377465
0	C	0.841131	0.883608	0.865717
0	C	0.34079	0.630335	0.109576
0	C	0.135659	0.383794	0.598147
0	H	0.558103	0.149516	0.372444
0	H	0.915585	0.864703	0.859544
0	H	0.416058	0.648931	0.115646
0	H	0.0589206	0.365739	0.603556
0	C	0.724979	0.148383	0.393855
0	C	0.752998	0.86684	0.883414
0	C	0.252487	0.647657	0.0922451
0	C	0.225482	0.365834	0.581891
0	H	0.721864	0.181006	0.402577
0	H	0.756319	0.834276	0.892103
0	H	0.256232	0.680326	0.0837821
0	H	0.221465	0.333027	0.573647
0	C	0.825201	0.124074	0.39995
0	C	0.654647	0.891591	0.890725
0	C	0.153604	0.623219	0.0848196
0	C	0.326169	0.389701	0.575333
0	C	0.918538	0.142478	0.417217
0	C	0.564433	0.873749	0.909599
0	C	0.0627464	0.641375	0.0663555
0	C	0.419166	0.370793	0.558248
0	H	0.912402	0.175252	0.425607
0	H	0.57173	0.841344	0.918746
0	H	0.0691691	0.674191	0.0580589
0	H	0.412434	0.337823	0.550442
0	C	0.0159889	0.119871	0.423301
0	C	0.46754	0.896451	0.916212
0	C	0.966268	0.61873	0.0591052
0	C	0.516829	0.393083	0.551623
0	C	0.116109	0.138697	0.43957
0	C	0.369567	0.877843	0.933621
0	C	0.869132	0.63785	0.0415937
0	C	0.616392	0.373686	0.535454
0	C	0.204706	0.155326	0.420146
0	C	0.280545	0.860287	0.914778
0	C	0.78066	0.655786	0.0604323
0	C	0.704332	0.356778	0.554968
0	C	0.301556	0.17158	0.435363
0	C	0.18523	0.843775	0.930591
0	C	0.68619	0.673072	0.0446744
0	C	0.800755	0.340047	0.539841
0	H	0.370237	0.18408	0.420231
0	H	0.116268	0.830492	0.91593
0	H	0.617653	0.686603	0.0593624
0	H	0.868968	0.327392	0.555038
0	C	0.312618	0.172212	0.469472
0	C	0.176257	0.843777	0.9648
0	C	0.677506	0.673506	0.0104595
0	C	0.811986	0.339123	0.505748
0	C	0.223032	0.156496	0.488366
0	C	0.266138	0.860365	0.983089
0	C	0.767008	0.656485	0.992243
0	C	0.722995	0.355122	0.486767
0	H	0.229762	0.156732	0.514986
0	H	0.261213	0.860484	0.00976736
0	H	0.762339	0.656693	0.965594
0	H	0.729749	0.354649	0.460155
0	C	0.124476	0.140061	0.473962
0	C	0.36323	0.877158	0.968049
0	C	0.863269	0.638891	0.00716436
0	C	0.62492	0.372094	0.501068
0	C	0.196771	0.157737	0.383057
0	C	0.28808	0.857369	0.87767
0	C	0.787776	0.658054	0.0975635
0	C	0.696215	0.354527	0.592057
0	H	0.125531	0.137345	0.374158
0	H	0.358314	0.878073	0.86853
0	H	0.857923	0.63719	0.106624
0	H	0.624849	0.374916	0.600826
0	C	0.305772	0.142082	0.366503
0	C	0.178955	0.872331	0.860849
0	C	0.678013	0.642592	0.113757
0	C	0.805083	0.370388	0.608547
0	H	0.378734	0.162488	0.371682
0	H	0.105654	0.852634	0.867085
0	H	0.604972	0.662493	0.107654
0	H	0.877773	0.349723	0.603766
0	H	0.296438	0.141241	0.339742
0	H	0.187624	0.871364	0.834087
0	H	0.685547	0.642571	0.140552
0	H	0.795246	0.371868	0.635251
0	H	0.327873	0.110121	0.374596
0	H	0.158275	0.904912	0.867655
0	H	0.657801	0.61025	0.106141
0	H	0.827911	0.402083	0.600035
0	C	0.171184	0.20354	0.37319
0	C	0.315995	0.811717	0.868045
0	C	0.815684	0.703474	0.107843
0	C	0.670842	0.308773	0.602034
0	H	0.237738	0.225268	0.381431
0	H	0.250225	0.789607	0.876157
0	H	0.749809	0.72582	0.100217
0	H	0.737565	0.287052	0.593932
0	H	0.0909465	0.214591	0.383665
0	H	0.396261	0.801223	0.878788
0	H	0.895772	0.714272	0.0971546
0	H	0.59084	0.297576	0.59152
0	H	0.165422	0.206595	0.346502
0	H	0.322728	0.808576	0.84141
0	H	0.823237	0.705888	0.134513
0	H	0.664816	0.305863	0.628707
0	C	0.0281449	0.124727	0.495685
0	C	0.459376	0.893495	0.989459
0	C	0.958789	0.622269	0.985624
0	C	0.528967	0.387562	0.479245
0	H	0.973151	0.102256	0.481537
0	H	0.513041	0.916088	0.975033
0	H	0.0115546	0.599181	0.999855
0	H	0.475272	0.410735	0.493125
0	C	0.0712047	0.1008	0.525827
0	C	0.415502	0.917432	0.0195609
0	C	0.913652	0.599013	0.955369
0	C	0.572638	0.410462	0.448701
0	H	0.144126	0.0805506	0.520407
0	H	0.342103	0.937433	0.0140001
0	H	0.839186	0.579527	0.960804
0	H	0.646506	0.43042	0.45375
0	H	0.00467819	0.0798593	0.535396
0	H	0.481511	0.938529	0.0292749
0	H	0.978228	0.577494	0.94551
0	H	0.506783	0.431493	0.438873
0	H	0.096536	0.121878	0.545749
0	H	0.390372	0.896162	0.0394379
0	H	0.889956	0.620648	0.935604
0	H	0.596856	0.388699	0.429109
0	C	0.954412	0.16237	0.506016
0	C	0.53471	0.856519	0.000367844
0	C	0.0355334	0.658942	0.974988
0	C	0.453264	0.350108	0.469638
0	H	0.0038915	0.186164	0.519329
0	H	0.485873	0.832571	0.0136555
0	H	0.987691	0.683412	0.962018
0	H	0.501429	0.325445	0.456943
0	H	0.885694	0.151988	0.522234
0	H	0.601678	0.867631	0.0169256
0	H	0.101585	0.647716	0.958203
0	H	0.385448	0.360446	0.453091
0	H	0.915483	0.178056	0.485
0	H	0.575411	0.840835	0.979633
0	H	0.0775578	0.673923	0.99577
0	H	0.413206	0.335521	0.490946
0	C	0.422417	0.188718	0.484694
0	C	0.0685036	0.827075	0.981063
0	C	0.570681	0.691132	0.994171
0	C	0.921149	0.321956	0.490587
0	C	0.406186	0.201851	0.520889
0	C	0.0891344	0.813905	0.0170938
0	C	0.59236	0.704668	0.958268
0	C	0.903995	0.308479	0.454491
0	H	0.374101	0.17483	0.535323
0	H	0.122692	0.840905	0.0312846
0	H	0.624848	0.677689	0.943887
0	H	0.872585	0.335486	0.439905
0	H	0.341427	0.226929	0.522666
0	H	0.154287	0.788895	0.0182894
0	H	0.65848	0.729321	0.957377
0	H	0.838313	0.283693	0.45299
0	C	0.519961	0.217124	0.535451
0	C	0.97718	0.798494	0.0326777
0	C	0.481401	0.721008	0.942616
0	C	0.0169592	0.29246	0.439908
0	H	0.506827	0.226189	0.561473
0	H	0.993241	0.78945	0.0585782
0	H	0.498388	0.73029	0.916827
0	H	0.00319173	0.283243	0.413939
0	C	0.607952	0.181096	0.533542
0	C	0.888648	0.834394	0.0315656
0	C	0.391063	0.685726	0.943265
0	C	0.106367	0.328029	0.441547
0	H	0.578664	0.153583	0.547878
0	H	0.919056	0.861905	0.0456769
0	H	0.42037	0.658211	0.928982
0	H	0.0781422	0.35554	0.427046
0	H	0.689083	0.191063	0.544605
0	H	0.808899	0.824279	0.0432959
0	H	0.312005	0.696564	0.931473
0	H	0.186987	0.317492	0.430514
0	C	0.563316	0.25561	0.516001
0	C	0.932077	0.759914	0.0136587
0	C	0.437662	0.759616	0.961838
0	C	0.0589696	0.253926	0.459545
0	H	0.502425	0.282011	0.517647
0	H	0.993392	0.733585	0.0147927
0	H	0.500222	0.785545	0.961021
0	H	0.99709	0.227803	0.458087
0	H	0.643643	0.267581	0.526474
0	H	0.853138	0.747912	0.0248791
0	H	0.359516	0.772328	0.950581
0	H	0.138779	0.241452	0.449099
0	C	0.668856	0.206815	0.477885
0	C	0.822045	0.808647	0.976484
0	C	0.324306	0.711227	0.998367
0	C	0.166758	0.302507	0.497278
0	H	0.683528	0.197872	0.452158
0	H	0.804636	0.817503	0.950893
0	H	0.305288	0.702228	0.0238356
0	H	0.182185	0.311586	0.522928
0	H	0.751395	0.21762	0.48759
0	H	0.740716	0.797827	0.986919
0	H	0.243913	0.722779	0.987724
0	H	0.248645	0.291144	0.487533
0	C	0.580715	0.242815	0.47996
0	C	0.910546	0.772698	0.977798
0	C	0.41483	0.746497	0.997554
0	C	0.0771734	0.266989	0.4955
0	H	0.611755	0.270582	0.465795
0	H	0.878323	0.744934	0.963878
0	H	0.383636	0.774304	0.0116257
0	H	0.107131	0.239156	0.509814
0	C	0.466826	0.227683	0.465469
0	C	0.0225763	0.788012	0.962289
0	C	0.525819	0.730205	0.0131613
0	C	0.964165	0.282944	0.510008
0	H	0.403314	0.253282	0.466249
0	H	0.0865824	0.762553	0.962585
0	H	0.590832	0.755291	0.0132696
0	H	0.899505	0.257731	0.509443
0	H	0.478182	0.219681	0.439366
0	H	0.00847621	0.795948	0.936269
0	H	0.51042	0.721942	0.0390466
0	H	0.97624	0.291128	0.536062
0	C	0.512277	0.152944	0.482888
0	C	0.978338	0.862794	0.980142
0	C	0.478477	0.656106	0.994654
0	C	0.0123739	0.357264	0.492099
0	H	0.524877	0.142991	0.457305
0	H	0.963149	0.872874	0.954703
0	H	0.462076	0.645796	0.0199706
0	H	0.0254541	0.36749	0.517614
0	H	0.481926	0.124764	0.496231
0	H	0.00994401	0.890972	0.99331
0	H	0.508631	0.627859	0.981341
0	H	0.982917	0.385445	0.478566
0	C	0.625714	0.168342	0.497496
0	C	0.86679	0.847168	0.995724
0	C	0.367932	0.672646	0.978984
0	C	0.124995	0.341045	0.477502
0	H	0.689155	0.142331	0.496079
0	H	0.802955	0.873056	0.994933
0	H	0.302818	0.647165	0.979456
0	H	0.189538	0.366696	0.478709
0	C	0.733197	0.0547935	0.21247
0	C	0.752443	0.960193	0.703155
0	C	0.254708	0.554168	0.270796
0	C	0.230552	0.459923	0.760795
0	C	0.120316	0.0994237	0.248683
0	C	0.364677	0.914822	0.737532
0	C	0.866168	0.600183	0.236979
0	C	0.619963	0.413886	0.726325
0	C	0.211352	0.0796046	0.263754
0	C	0.273374	0.93469	0.752465
0	C	0.775023	0.580087	0.222168
0	C	0.710571	0.434037	0.711322
0	C	0.30782	0.104952	0.272877
0	C	0.176255	0.909438	0.76115
0	C	0.67712	0.604989	0.213709
0	C	0.808074	0.409181	0.702301
0	C	0.411597	0.0870664	0.284688
0	C	0.0723572	0.927332	0.7729
0	C	0.573095	0.586677	0.202472
0	C	0.911592	0.427688	0.690876
0	H	0.418109	0.0527763	0.286552
0	H	0.0659471	0.961633	0.774845
0	H	0.567317	0.552381	0.200805
0	H	0.916987	0.462017	0.689354
0	C	0.501925	0.112414	0.292762
0	C	0.981825	0.901989	0.780765
0	C	0.481684	0.611688	0.194793
0	C	0.00284884	0.402847	0.682787
0	H	0.581636	0.0987496	0.301041
0	H	0.901947	0.915683	0.788946
0	H	0.401623	0.597754	0.187065
0	H	0.0824196	0.416992	0.674844
0	C	0.494114	0.157053	0.289698
0	C	0.989464	0.857352	0.777524
0	C	0.488652	0.656387	0.197697
0	C	0.996226	0.358121	0.68544
0	H	0.567138	0.176612	0.296189
0	H	0.916469	0.837807	0.783967
0	H	0.414926	0.675614	0.191345
0	H	0.0700341	0.339048	0.678903
0	C	0.396206	0.175115	0.278137
0	C	0.0871181	0.839314	0.765817
0	C	0.586479	0.674815	0.208988
0	C	0.898688	0.339481	0.696695
0	H	0.389335	0.209177	0.275031
0	H	0.0937029	0.805297	0.762493
0	H	0.592403	0.708901	0.212111
0	H	0.893078	0.30536	0.69947
0	C	0.301283	0.149472	0.269218
0	C	0.182271	0.864958	0.757061
0	C	0.682486	0.649499	0.217597
0	C	0.802746	0.364608	0.705674
0	C	0.200693	0.168638	0.256383
0	C	0.282454	0.845767	0.74397
0	C	0.782734	0.668965	0.230405
0	C	0.702322	0.345049	0.718288
0	H	0.196884	0.202959	0.254659
0	H	0.285491	0.811475	0.741697
0	H	0.784927	0.703305	0.232444
0	H	0.699357	0.310693	0.719762
0	C	0.110826	0.144525	0.245985
0	C	0.373116	0.869788	0.734006
0	C	0.874017	0.645251	0.240389
0	C	0.611663	0.368713	0.728793
0	C	0.00556465	0.1648	0.233993
0	C	0.478129	0.849467	0.721871
0	C	0.978684	0.665991	0.252461
0	C	0.506728	0.348006	0.740602
0	C	0.9158	0.172229	0.25616
0	C	0.567751	0.841837	0.744074
0	C	0.0682286	0.67385	0.230288
0	C	0.417341	0.340281	0.718367
0	C	0.821785	0.19562	0.245941
0	C	0.661783	0.818452	0.733895
0	C	0.161644	0.697689	0.240418
0	C	0.323896	0.316426	0.728393
0	H	0.753854	0.202131	0.263259
0	H	0.72956	0.811861	0.751256
0	H	0.229224	0.704431	0.223017
0	H	0.256321	0.309752	0.710969
0	C	0.812837	0.210822	0.213783
0	C	0.671115	0.803343	0.701702
0	C	0.170512	0.713066	0.272539
0	C	0.314908	0.300929	0.760466
0	C	0.899626	0.201346	0.191739
0	C	0.584484	0.812971	0.67964
0	C	0.0841786	0.703072	0.294617
0	C	0.400937	0.310881	0.782656
0	H	0.893951	0.211429	0.166364
0	H	0.590244	0.80294	0.654235
0	H	0.0898117	0.713132	0.320023
0	H	0.395112	0.300739	0.808035
0	C	0.996	0.178294	0.201328
0	C	0.48812	0.836081	0.6892
0	C	0.988428	0.679541	0.285126
0	C	0.496606	0.334464	0.773247
0	C	0.920675	0.155799	0.291077
0	C	0.561911	0.858111	0.779021
0	C	0.0634218	0.657304	0.195392
0	C	0.421847	0.356938	0.683513
0	H	0.981809	0.128727	0.292114
0	H	0.501409	0.885418	0.779937
0	H	0.0023697	0.63017	0.194433
0	H	0.483516	0.383873	0.682484
0	C	0.963945	0.190674	0.31391
0	C	0.516387	0.823273	0.801535
0	C	0.019695	0.692044	0.172494
0	C	0.464107	0.322135	0.660464
0	H	0.909542	0.218751	0.312762
0	H	0.570797	0.795192	0.800877
0	H	0.0744916	0.720007	0.173302
0	H	0.409995	0.294026	0.661796
0	H	0.0499133	0.200573	0.307003
0	H	0.431157	0.813417	0.793875
0	H	0.934205	0.702159	0.179679
0	H	0.550568	0.312322	0.666959
0	H	0.96635	0.180044	0.339357
0	H	0.511312	0.833951	0.826918
0	H	0.0160806	0.681129	0.147155
0	H	0.465125	0.332869	0.635049
0	C	0.805	0.139186	0.302627
0	C	0.677286	0.874455	0.790993
0	C	0.178971	0.64054	0.183922
0	C	0.306168	0.373934	0.672326
0	H	0.742306	0.16466	0.304851
0	H	0.739514	0.848907	0.793514
0	H	0.241871	0.665886	0.181594
0	H	0.242861	0.348671	0.670211
0	H	0.810911	0.12404	0.326586
0	H	0.670431	0.88984	0.814839
0	H	0.172732	0.625098	0.160108
0	H	0.311599	0.389216	0.648427
0	H	0.770301	0.116317	0.285117
0	H	0.712874	0.897209	0.77352
0	H	0.213234	0.617737	0.201561
0	H	0.272635	0.396831	0.689998
0	C	0.088061	0.168739	0.176364
0	C	0.396339	0.845703	0.664138
0	C	0.897064	0.669581	0.310222
0	C	0.587791	0.344532	0.798388
0	H	0.143601	0.142589	0.185867
0	H	0.340521	0.871782	0.673688
0	H	0.842418	0.643142	0.300725
0	H	0.64274	0.370926	0.788912
0	C	0.162186	0.208004	0.170914
0	C	0.322697	0.806357	0.658446
0	C	0.82168	0.708492	0.31575
0	C	0.66308	0.305611	0.804005
0	H	0.112817	0.234238	0.160898
0	H	0.372505	0.780245	0.648404
0	H	0.870078	0.734848	0.325932
0	H	0.614562	0.279226	0.814097
0	H	0.230941	0.20104	0.153673
0	H	0.254194	0.813319	0.641113
0	H	0.753018	0.701064	0.332889
0	H	0.731535	0.312997	0.821236
0	H	0.201316	0.218571	0.193743
0	H	0.283355	0.795583	0.681187
0	H	0.782534	0.719046	0.292931
0	H	0.702491	0.295085	0.781191
0	C	0.0374421	0.152911	0.144093
0	C	0.447238	0.861786	0.631969
0	C	0.948546	0.653963	0.342441
0	C	0.535958	0.360333	0.830511
0	H	0.983516	0.125036	0.148493
0	H	0.500768	0.889753	0.636541
0	H	0.000917744	0.625656	0.338045
0	H	0.48317	0.388486	0.826004
0	H	0.104494	0.141857	0.127568
0	H	0.380248	0.872758	0.615387
0	H	0.881857	0.643693	0.35935
0	H	0.602514	0.37093	0.847374
0	H	0.987131	0.176733	0.131411
0	H	0.498017	0.838101	0.619267
0	H	0.000693649	0.677644	0.354638
0	H	0.484211	0.336641	0.842852
0	C	0.708626	0.236918	0.204498
0	C	0.775259	0.777176	0.692405
0	C	0.273588	0.739929	0.281717
0	C	0.211985	0.273969	0.769472
0	C	0.601108	0.208737	0.206812
0	C	0.882918	0.805286	0.694768
0	C	0.382745	0.71262	0.279472
0	C	0.102749	0.301222	0.767187
0	H	0.608385	0.181886	0.189679
0	H	0.875827	0.832175	0.677642
0	H	0.377111	0.685822	0.296703
0	H	0.108043	0.327979	0.78448
0	H	0.593861	0.19441	0.231331
0	H	0.890163	0.819547	0.719327
0	H	0.39067	0.69825	0.25499
0	H	0.0948783	0.315676	0.742721
0	C	0.494056	0.234964	0.199111
0	C	0.989755	0.778953	0.687062
0	C	0.488339	0.739751	0.287041
0	C	0.997452	0.273931	0.774646
0	H	0.417764	0.214336	0.201104
0	H	0.0661079	0.799543	0.689084
0	H	0.56576	0.719708	0.285102
0	H	0.919896	0.29389	0.772708
0	C	0.484052	0.271836	0.223659
0	C	0.99956	0.742001	0.711548
0	C	0.496236	0.776566	0.262382
0	C	0.990061	0.237155	0.749932
0	H	0.40627	0.290241	0.218932
0	H	0.0771773	0.723542	0.706715
0	H	0.57288	0.795638	0.267104
0	H	0.913568	0.217981	0.754623
0	H	0.476217	0.259481	0.248789
0	H	0.00776148	0.754233	0.736706
0	H	0.505042	0.764222	0.237289
0	H	0.98119	0.249528	0.724843
0	C	0.589764	0.300457	0.220837
0	C	0.893713	0.713475	0.708713
0	C	0.388835	0.804308	0.265101
0	C	0.0976173	0.20949	0.752644
0	H	0.582706	0.327123	0.238497
0	H	0.90058	0.686801	0.726364
0	H	0.394279	0.830882	0.247318
0	H	0.0925207	0.182947	0.734808
0	C	0.598499	0.31817	0.185763
0	C	0.884924	0.695778	0.673634
0	C	0.379342	0.822193	0.300105
0	C	0.10707	0.191504	0.787624
0	H	0.672856	0.339183	0.183731
0	H	0.810457	0.674824	0.671592
0	H	0.303947	0.842692	0.302082
0	H	0.182653	0.1711	0.789624
0	H	0.523537	0.3377	0.180077
0	H	0.959716	0.676167	0.667927
0	H	0.453316	0.8423	0.305689
0	H	0.0332812	0.171251	0.79312
0	C	0.608516	0.28115	0.161393
0	C	0.875191	0.732842	0.649292
0	C	0.371451	0.785247	0.324607
0	C	0.114406	0.228375	0.81222
0	H	0.615249	0.29375	0.136067
0	H	0.868539	0.720281	0.623933
0	H	0.364224	0.797964	0.349896
0	H	0.121622	0.215608	0.837495
0	C	0.71573	0.255003	0.169294
0	C	0.768167	0.759101	0.657189
0	C	0.265717	0.7582	0.316855
0	C	0.219894	0.255568	0.804561
0	H	0.724143	0.22893	0.151509
0	H	0.75999	0.785194	0.639404
0	H	0.258938	0.732195	0.33476
0	H	0.226481	0.281522	0.822512
0	H	0.792261	0.274806	0.166691
0	H	0.691463	0.739397	0.654598
0	H	0.188055	0.777399	0.319402
0	H	0.297702	0.236453	0.807056
0	C	0.502435	0.252743	0.164051
0	C	0.981356	0.761187	0.651998
0	C	0.479148	0.757693	0.322032
0	C	0.00657904	0.255862	0.80961
0	H	0.507583	0.226603	0.146252
0	H	0.976519	0.787321	0.63417
0	H	0.475757	0.731673	0.339974
0	H	0.00957216	0.281821	0.827613
0	H	0.425165	0.270696	0.157859
0	H	0.0585501	0.743159	0.645856
0	H	0.555365	0.776353	0.328084
0	H	0.930439	0.237099	0.815554
0	C	0.697162	0.274524	0.228692
0	C	0.786499	0.739512	0.71656
0	C	0.282943	0.777472	0.257392
0	C	0.203225	0.236516	0.745042
0	H	0.773482	0.294694	0.227385
0	H	0.710051	0.719431	0.71523
0	H	0.205549	0.797071	0.258636
0	H	0.280868	0.217067	0.74629
0	H	0.693042	0.262867	0.254118
0	H	0.790666	0.751129	0.741995
0	H	0.2877	0.765722	0.232005
0	H	0.198502	0.248379	0.719687
0	C	0.187883	0.0053135	0.244299
0	C	0.29807	0.00891327	0.733065
0	C	0.799621	0.505794	0.241397
0	C	0.685417	0.508409	0.730467
0	C	0.2067	0.0336987	0.269701
0	C	0.27862	0.980621	0.758505
0	C	0.78059	0.534228	0.216031
0	C	0.704619	0.479859	0.705201
0	C	0.221863	0.0174653	0.302288
0	C	0.26457	0.99698	0.791089
0	C	0.766144	0.518115	0.183411
0	C	0.719342	0.495745	0.6725
0	C	0.23135	0.0443201	0.330241
0	C	0.25455	0.970173	0.819067
0	C	0.756814	0.545141	0.155543
0	C	0.728703	0.468597	0.644709
0	H	0.22332	0.0783825	0.326876
0	H	0.259939	0.936023	0.815702
0	H	0.763287	0.579209	0.158994
0	H	0.721409	0.43457	0.648319
0	C	0.25192	0.0277881	0.360689
0	C	0.236888	0.986897	0.849608
0	C	0.738571	0.528713	0.124939
0	C	0.748099	0.484789	0.614088
0	H	0.262023	0.04874	0.381709
0	H	0.226184	0.965995	0.870651
0	H	0.72751	0.549882	0.104086
0	H	0.757822	0.463656	0.593148
0	C	0.261258	0.983456	0.36531
0	C	0.231024	0.03131	0.854276
0	C	0.732179	0.484338	0.120018
0	C	0.756696	0.529106	0.609172
0	H	0.280035	0.971244	0.389599
0	H	0.21473	0.0436611	0.878656
0	H	0.716555	0.472091	0.0955004
0	H	0.774535	0.541159	0.584743
0	C	0.248576	0.956764	0.33914
0	C	0.243404	0.0579129	0.828031
0	C	0.743376	0.457532	0.146213
0	C	0.744714	0.556076	0.635218
0	H	0.255862	0.922686	0.342028
0	H	0.238036	0.0920024	0.830951
0	H	0.736671	0.423429	0.143098
0	H	0.751955	0.590176	0.632021
0	C	0.228078	0.973187	0.307175
0	C	0.260854	0.0413378	0.795962
0	C	0.761092	0.473836	0.178385
0	C	0.725067	0.539967	0.66733
0	C	0.219762	0.945396	0.279787
0	C	0.26925	0.0690405	0.768495
0	C	0.768688	0.445959	0.205808
0	C	0.716756	0.568004	0.694605
0	H	0.23099	0.911586	0.283885
0	H	0.259417	0.102907	0.772537
0	H	0.758023	0.41213	0.201619
0	H	0.727944	0.601779	0.690272
0	C	0.202608	0.960387	0.248684
0	C	0.284841	0.0539324	0.737343
0	C	0.784953	0.46081	0.237014
0	C	0.699777	0.553341	0.72583
0	C	0.214894	0.930313	0.22121
0	C	0.272667	0.08382	0.709702
0	C	0.772595	0.430758	0.264549
0	C	0.711916	0.583723	0.753113
0	C	0.316679	0.931316	0.202905
0	C	0.170985	0.0827959	0.691353
0	C	0.671101	0.431668	0.28296
0	C	0.813623	0.583142	0.771439
0	C	0.339938	0.898335	0.181192
0	C	0.147598	0.115653	0.669532
0	C	0.647373	0.398524	0.304511
0	C	0.8364	0.616404	0.792939
0	H	0.419367	0.899215	0.167441
0	H	0.0681535	0.114651	0.655773
0	H	0.567761	0.399354	0.318148
0	H	0.915865	0.615875	0.806625
0	C	0.265166	0.864292	0.177149
0	C	0.222183	0.149715	0.665364
0	C	0.721876	0.364411	0.308489
0	C	0.761056	0.650291	0.796854
0	C	0.161433	0.865236	0.193709
0	C	0.326084	0.148768	0.681817
0	C	0.826087	0.365626	0.292153
0	C	0.657198	0.64889	0.780375
0	H	0.0992471	0.840308	0.190171
0	H	0.388453	0.173633	0.678091
0	H	0.888656	0.340828	0.29585
0	H	0.594237	0.673571	0.783924
0	C	0.134925	0.898152	0.215393
0	C	0.35263	0.115906	0.703565
0	C	0.852595	0.398622	0.270531
0	C	0.6315	0.615784	0.758783
0	C	0.403635	0.966622	0.206211
0	C	0.0841227	0.0475026	0.694569
0	C	0.584871	0.46717	0.279996
0	C	0.900563	0.547861	0.768483
0	H	0.378992	0.988769	0.226367
0	H	0.107789	0.0256872	0.715019
0	H	0.610612	0.489807	0.260307
0	H	0.875734	0.525381	0.748594
0	C	0.405447	0.992312	0.174426
0	C	0.0842475	0.0214307	0.662981
0	C	0.582195	0.492051	0.312142
0	C	0.902192	0.522735	0.800508
0	H	0.463026	0.0194026	0.176191
0	H	0.0263812	0.994434	0.664656
0	H	0.522436	0.518473	0.310854
0	H	0.96151	0.496208	0.79923
0	H	0.320284	0.00496873	0.169185
0	H	0.169559	0.00861085	0.65829
0	H	0.666467	0.505476	0.317383
0	H	0.817685	0.509394	0.80553
0	H	0.432428	0.973535	0.153361
0	H	0.0589585	0.0399649	0.641641
0	H	0.557047	0.472503	0.332943
0	H	0.926966	0.542102	0.821444
0	C	0.520228	0.948431	0.214917
0	C	0.967057	0.0656547	0.702669
0	C	0.468533	0.449419	0.270563
0	C	0.0170737	0.565766	0.759469
0	H	0.515776	0.927965	0.23638
0	H	0.970069	0.0864144	0.723983
0	H	0.473504	0.42964	0.248734
0	H	0.0128921	0.585414	0.737565
0	H	0.581735	0.973564	0.220426
0	H	0.905604	0.0405162	0.708151
0	H	0.407567	0.474807	0.265343
0	H	0.078663	0.540479	0.754609
0	H	0.557808	0.930281	0.194843
0	H	0.93028	0.0834719	0.682327
0	H	0.42968	0.430772	0.290136
0	H	0.0545909	0.584581	0.779138
0	C	0.0193983	0.89852	0.231931
0	C	0.468796	0.115556	0.71973
0	C	0.968303	0.399261	0.254094
0	C	0.516255	0.615032	0.742061
0	H	0.0121818	0.928009	0.24687
0	H	0.476918	0.0860234	0.734643
0	H	0.975397	0.428928	0.239295
0	H	0.509574	0.58521	0.727419
0	C	0.00584936	0.860399	0.254733
0	C	0.483389	0.153718	0.74249
0	C	0.98228	0.361388	0.231046
0	C	0.502647	0.652689	0.718758
0	H	0.921982	0.859981	0.26614
0	H	0.567426	0.153879	0.753879
0	H	0.0658957	0.361514	0.219427
0	H	0.418875	0.652636	0.707185
0	H	0.0701248	0.860328	0.273988
0	H	0.419095	0.154077	0.76175
0	H	0.917305	0.361234	0.211959
0	H	0.567519	0.652514	0.699639
0	H	0.0145806	0.830608	0.241319
0	H	0.47533	0.183522	0.729036
0	H	0.974921	0.331414	0.244303
0	H	0.510541	0.682793	0.731825
0	C	0.925297	0.899808	0.206129
0	C	0.56192	0.114364	0.69359
0	C	0.0624717	0.400544	0.279877
0	C	0.421384	0.614101	0.767662
0	H	0.915788	0.86987	0.193211
0	H	0.5709	0.144295	0.680609
0	H	0.0700459	0.371038	0.293465
0	H	0.413451	0.643857	0.780949
0	H	0.942802	0.924216	0.187717
0	H	0.543807	0.0898884	0.675285
0	H	0.0467443	0.42586	0.297677
0	H	0.436819	0.58909	0.785758
0	H	0.842466	0.908095	0.216785
0	H	0.645194	0.106069	0.704057
0	H	0.145758	0.407684	0.268974
0	H	0.338332	0.606661	0.756723
0	C	0.302208	0.828013	0.155059
0	C	0.184823	0.185983	0.643291
0	C	0.684214	0.327716	0.33012
0	C	0.797584	0.687041	0.818578
0	C	0.41854	0.811034	0.16735
0	C	0.0682911	0.202796	0.655554
0	C	0.567828	0.311117	0.317562
0	C	0.91363	0.704012	0.806082
0	H	0.409693	0.799186	0.192625
0	H	0.0769561	0.214589	0.680849
0	H	0.576684	0.299934	0.292108
0	H	0.90462	0.715255	0.780648
0	H	0.481357	0.83691	0.168575
0	H	0.0055995	0.176886	0.656706
0	H	0.505096	0.337049	0.316741
0	H	0.976919	0.678272	0.805236
0	C	0.46205	0.775872	0.144542
0	C	0.0246068	0.23795	0.632788
0	C	0.524029	0.275393	0.339781
0	C	0.956587	0.73975	0.828418
0	H	0.545821	0.764359	0.153502
0	H	0.940735	0.24931	0.641735
0	H	0.440335	0.264176	0.330579
0	H	0.0401009	0.751224	0.819272
0	C	0.475477	0.793618	0.109582
0	C	0.0116016	0.220337	0.597774
0	C	0.510429	0.292121	0.375035
0	C	0.970272	0.722844	0.863617
0	H	0.510001	0.769299	0.0930857
0	H	0.977199	0.244732	0.581293
0	H	0.476338	0.26722	0.391108
0	H	0.00415511	0.747682	0.879773
0	H	0.53742	0.819826	0.109581
0	H	0.949729	0.19413	0.597647
0	H	0.448108	0.318167	0.375572
0	H	0.0328389	0.696864	0.864009
0	C	0.273549	0.772459	0.0969058
0	C	0.213262	0.241733	0.585275
0	C	0.712157	0.270647	0.387421
0	C	0.768022	0.743743	0.876042
0	H	0.302828	0.74736	0.0802432
0	H	0.183944	0.266837	0.568586
0	H	0.682662	0.245081	0.40366
0	H	0.796657	0.769276	0.892415
0	H	0.190753	0.783302	0.0874446
0	H	0.296389	0.231063	0.575936
0	H	0.795024	0.281151	0.397053
0	H	0.685356	0.732902	0.885607
0	C	0.315179	0.844768	0.119581
0	C	0.172102	0.169268	0.60779
0	C	0.670784	0.343581	0.36583
0	C	0.810967	0.671045	0.854252
0	H	0.373776	0.872004	0.119051
0	H	0.113584	0.142002	0.607231
0	H	0.611893	0.370729	0.36666
0	H	0.870164	0.643991	0.855101
0	H	0.232731	0.856895	0.110804
0	H	0.254588	0.157182	0.599019
0	H	0.75302	0.355577	0.374879
0	H	0.728832	0.658846	0.863205
0	C	0.216947	0.790736	0.154717
0	C	0.269694	0.223396	0.643047
0	C	0.769191	0.290339	0.329954
0	C	0.71186	0.724191	0.818461
0	H	0.132858	0.801786	0.146384
0	H	0.353918	0.2125	0.634712
0	H	0.853293	0.301108	0.338508
0	H	0.627864	0.713186	0.8269
0	H	0.20511	0.778458	0.17978
0	H	0.281376	0.235601	0.668135
0	H	0.781064	0.27871	0.304708
0	H	0.69994	0.73592	0.79324
0	C	0.260248	0.755263	0.132036
0	C	0.226153	0.258883	0.620423
0	C	0.72558	0.254331	0.352051
0	C	0.754593	0.76022	0.840705
0	H	0.197891	0.728824	0.132129
0	H	0.288329	0.285386	0.620568
0	H	0.787834	0.227862	0.351587
0	H	0.691808	0.786531	0.8403
0	C	0.35924	0.809388	0.0970463
0	C	0.12799	0.204684	0.585294
0	C	0.626619	0.307617	0.387807
0	C	0.854357	0.707016	0.876355
0	H	0.368969	0.821947	0.0717842
0	H	0.118521	0.192193	0.559967
0	H	0.61679	0.319533	0.413278
0	H	0.864266	0.695012	0.901779
0	C	0.376203	0.739048	0.144367
0	C	0.109971	0.274927	0.632676
0	C	0.609551	0.238476	0.33955
0	C	0.870309	0.776422	0.828208
0	H	0.367729	0.725689	0.169251
0	H	0.118111	0.288366	0.657537
0	H	0.617704	0.225357	0.314573
0	H	0.861748	0.789412	0.80319
0	H	0.407297	0.713149	0.128731
0	H	0.0786844	0.300716	0.616947
0	H	0.57829	0.212411	0.355013
0	H	0.901068	0.80261	0.843638
0	F	0.583873	0.044666	0.446425
0	F	0.894919	0.970299	0.930852
0	F	0.390636	0.543133	0.0426032
0	F	0.0781223	0.469156	0.529545
0	F	0.435428	0.0737097	0.428086
0	F	0.0458676	0.93834	0.917942
0	F	0.539778	0.576277	0.0556943
0	F	0.926939	0.439247	0.545247
0	F	0.498531	0.0180582	0.405766
0	F	0.997796	0.993867	0.892556
0	F	0.495056	0.520101	0.080854
0	F	0.985461	0.494438	0.569396
0	F	0.787008	0.0918348	0.213666
0	F	0.699988	0.922858	0.703367
0	F	0.203518	0.591749	0.270402
0	F	0.281686	0.422346	0.759871
0	F	0.634322	0.0633411	0.197983
0	F	0.853173	0.952529	0.689456
0	F	0.356478	0.56161	0.283909
0	F	0.129062	0.452224	0.774013
0	F	0.705202	0.0466352	0.243686
0	F	0.776581	0.967803	0.734723
0	F	0.276634	0.545816	0.239231
0	F	0.207743	0.468845	0.729363
0	N	0.267238	0.0164429	0.450071
0	N	0.210908	0.998252	0.941091
0	N	0.708156	0.516958	0.0336637
0	N	0.762934	0.498732	0.522941
0	N	0.940028	0.0163075	0.207877
0	N	0.546105	0.998776	0.698392
0	N	0.0480293	0.516432	0.276048
0	N	0.437979	0.497074	0.766595
0	O	0.053853	0.981838	0.424312
0	O	0.424457	0.0332289	0.915356
0	O	0.921723	0.481595	0.0592103
0	O	0.553821	0.532045	0.549682
0	O	0.122653	0.0559572	0.415284
0	O	0.357195	0.959101	0.906433
0	O	0.855619	0.555881	0.0686393
0	O	0.623928	0.457112	0.558191
0	O	0.0486123	0.0337621	0.473764
0	O	0.429267	0.981366	0.965019
0	O	0.926138	0.53533	0.00990776
0	O	0.543603	0.479625	0.50058
0	O	0.419327	0.960121	0.452794
0	O	0.0535911	0.0525316	0.944265
0	O	0.553362	0.461965	0.0290012
0	O	0.919412	0.553468	0.520724
0	O	0.416377	0.0176417	0.494732
0	O	0.0553344	0.99222	0.983602
0	O	0.555407	0.522626	0.990008
0	O	0.914945	0.495191	0.479314
0	O	0.029734	0.0756207	0.238385
0	O	0.456277	0.938677	0.728027
0	O	0.958075	0.576556	0.246543
0	O	0.52867	0.43729	0.736641
0	O	0.169248	0.0184748	0.212953
0	O	0.316924	0.995354	0.701814
0	O	0.819165	0.519129	0.272601
0	O	0.666875	0.495392	0.761817
0	O	0.0834195	0.0719846	0.174923
0	O	0.407991	0.942178	0.664326
0	O	0.908141	0.572714	0.31007
0	O	0.582064	0.441845	0.800002
0	O	0.76383	0.974286	0.210385
0	O	0.723315	0.0408616	0.699993
0	O	0.224474	0.473594	0.276075
0	O	0.262778	0.540221	0.765564
0	O	0.797945	0.0149026	0.158959
0	O	0.687114	0.999159	0.64931
0	O	0.187479	0.517727	0.325504
0	O	0.296109	0.496704	0.815562
0	P	0.141262	0.0308185	0.450529
0	P	0.337023	0.984039	0.941651
0	P	0.834146	0.53157	0.0332602
0	P	0.638001	0.483153	0.523167
0	P	0.0522832	0.0467269	0.203654
0	P	0.43559	0.967662	0.693218
0	P	0.937024	0.547354	0.281202
0	P	0.550486	0.466766	0.77114
0	S	0.394193	0.00270031	0.462435
0	S	0.0813213	0.00964644	0.952266
0	S	0.57989	0.505089	0.0214161
0	S	0.891405	0.511074	0.511261
0	S	0.814516	0.0103006	0.193555
0	S	0.67163	0.00455977	0.683891
0	S	0.173056	0.510734	0.291038
0	S	0.312633	0.503167	0.781145
