#******************************************
#
# CIF file created by Zeo++
# Zeo++ is an open source package to
# analyze microporous materials
#
#*******************************************

_cell_length_a		36.125(0)
_cell_length_b		36.921(0)
_cell_length_c		12.1517(0)
_cell_angle_alpha		90(0)
_cell_angle_beta		105.628(0)
_cell_angle_gamma		90(0)

_symmetry_space_group_name_H-M		'P1'
_symmetry_Int_Tables_number		1
_symmetry_cell_setting		Monoclinic

loop_
_symmetry_equiv_pos_as_xyz
'+x,+y,+z'

loop_
_atom_site_label
_atom_site_type_symbol
_atom_site_fract_x
_atom_site_fract_y
_atom_site_fract_z
0	S	0.227079	0.452912	0.205087
0	S	0.758493	0.450104	0.261269
0	S	0.759861	0.543268	0.763063
0	S	0.227283	0.54064	0.706438
0	S	0.722758	0.953968	0.210374
0	S	0.265939	0.953974	0.257814
0	S	0.26673	0.039323	0.760017
0	S	0.722463	0.0394149	0.711008
0	S	0.308476	0.534959	0.492902
0	S	0.679778	0.534905	0.978349
0	S	0.680412	0.459375	0.47729
0	S	0.308818	0.458442	0.99163
0	S	0.805268	0.0340712	0.500584
0	S	0.183167	0.0343887	0.971139
0	S	0.183461	0.959748	0.46995
0	S	0.805475	0.95938	0.998725
0	N	0.276269	0.521723	0.274201
0	N	0.711879	0.520746	0.196407
0	N	0.712303	0.472697	0.69611
0	N	0.275965	0.472405	0.773868
0	N	0.77176	0.0222097	0.281979
0	N	0.217548	0.0218449	0.188652
0	N	0.217325	0.971499	0.688393
0	N	0.77124	0.971956	0.781126
0	N	0.249114	0.489924	0.412871
0	N	0.738668	0.489112	0.056846
0	N	0.739504	0.504674	0.557875
0	N	0.249484	0.503847	0.914424
0	N	0.745014	0.989734	0.420137
0	N	0.243504	0.989774	0.0482836
0	N	0.243892	0.00391892	0.549758
0	N	0.74524	0.00409484	0.921279
0	N	0.190872	0.388606	0.0127951
0	N	0.797111	0.387701	0.456747
0	N	0.797635	0.605988	0.957663
0	N	0.191028	0.604957	0.513726
0	N	0.686324	0.890873	0.0135505
0	N	0.30212	0.890567	0.453986
0	N	0.302462	0.102917	0.955694
0	N	0.686344	0.102808	0.514486
0	N	0.204164	0.441192	0.386933
0	N	0.78302	0.439899	0.0814674
0	N	0.784302	0.5535	0.583271
0	N	0.204686	0.552785	0.888699
0	N	0.699246	0.941414	0.390769
0	N	0.288915	0.941091	0.0765983
0	N	0.289723	0.0521908	0.578915
0	N	0.69955	0.0525631	0.89219
0	C	0.326788	0.557626	0.392664
0	C	0.661657	0.557307	0.0795067
0	C	0.662135	0.436517	0.577244
0	C	0.326699	0.436165	0.889758
0	C	0.823163	0.0572436	0.400274
0	C	0.165747	0.0571019	0.0733041
0	C	0.165696	0.936604	0.570562
0	C	0.822837	0.93653	0.896688
0	C	0.306451	0.546891	0.280068
0	C	0.682008	0.546158	0.191652
0	C	0.682314	0.447295	0.689956
0	C	0.306003	0.44724	0.777864
0	C	0.802127	0.0471696	0.287688
0	C	0.187279	0.0467198	0.185069
0	C	0.186905	0.946633	0.683029
0	C	0.801416	0.946961	0.784852
0	C	0.228857	0.464472	0.349153
0	C	0.758183	0.463027	0.119252
0	C	0.759283	0.530518	0.620812
0	C	0.229192	0.529322	0.85086
0	C	0.724384	0.96475	0.355043
0	C	0.26409	0.964639	0.112838
0	C	0.264699	0.0288008	0.61491
0	C	0.724465	0.0290286	0.856282
0	O	0.161306	0.393977	0.330976
0	O	0.826187	0.392905	0.137579
0	O	0.827466	0.600476	0.63919
0	O	0.161822	0.599995	0.832189
0	O	0.65695	0.893916	0.332332
0	O	0.331057	0.893449	0.134759
0	O	0.331941	0.0997701	0.63707
0	O	0.657297	0.100093	0.833459
0	C	0.274301	0.512478	0.377589
0	C	0.713692	0.511775	0.0926956
0	C	0.714323	0.482042	0.592871
0	C	0.274407	0.481286	0.877929
0	C	0.770326	0.0123239	0.385386
0	C	0.21847	0.0123268	0.0844647
0	C	0.218617	0.981379	0.584838
0	C	0.770271	0.981492	0.885273
0	C	0.366987	0.596319	0.317265
0	C	0.621668	0.595695	0.156718
0	C	0.62212	0.397476	0.652162
0	C	0.366547	0.397963	0.811413
0	C	0.863014	0.0962269	0.324205
0	C	0.126199	0.0953802	0.152819
0	C	0.125917	0.897713	0.647204
0	C	0.862164	0.897909	0.817444
0	C	0.195082	0.417249	0.199813
0	C	0.791527	0.41529	0.267572
0	C	0.792802	0.578136	0.769289
0	C	0.19546	0.576445	0.701107
0	C	0.690665	0.918243	0.202628
0	C	0.297639	0.917986	0.264907
0	C	0.298468	0.0752995	0.767174
0	C	0.690732	0.0754082	0.703559
0	C	0.172987	0.358158	0.935634
0	C	0.815165	0.357448	0.534382
0	C	0.815697	0.636139	0.035849
0	C	0.173271	0.635477	0.436807
0	C	0.668866	0.860473	0.935454
0	C	0.319628	0.860187	0.531967
0	C	0.319853	0.133357	0.0337133
0	C	0.668943	0.133243	0.436605
0	C	0.18137	0.392999	0.111641
0	C	0.805913	0.391526	0.356664
0	C	0.80692	0.601989	0.858326
0	C	0.181738	0.600687	0.612898
0	C	0.67711	0.894388	0.113171
0	C	0.311149	0.894032	0.354124
0	C	0.31181	0.0993158	0.856298
0	C	0.677247	0.0993311	0.614238
0	C	0.316992	0.561029	0.185497
0	C	0.67172	0.560054	0.286912
0	C	0.671797	0.432976	0.784334
0	C	0.316113	0.433469	0.682158
0	C	0.812242	0.0616691	0.192855
0	C	0.17766	0.0607804	0.281227
0	C	0.17689	0.932179	0.77808
0	C	0.811008	0.932782	0.688809
0	C	0.215732	0.412163	0.963851
0	C	0.772267	0.411375	0.505369
0	C	0.772596	0.582373	0.00576518
0	C	0.215886	0.581402	0.464784
0	C	0.710179	0.915506	0.964359
0	C	0.27827	0.915134	0.50339
0	C	0.278628	0.0782958	0.00499084
0	C	0.710231	0.0782324	0.465246
0	C	0.356982	0.58228	0.411979
0	C	0.631529	0.582004	0.0613369
0	C	0.632103	0.411681	0.557627
0	C	0.356906	0.411578	0.907231
0	C	0.853531	0.081723	0.419164
0	C	0.135256	0.0813796	0.0565559
0	C	0.135281	0.912189	0.55202
0	C	0.853151	0.912047	0.9136
0	C	0.184042	0.414838	0.304818
0	C	0.803011	0.413378	0.163192
0	C	0.804317	0.58002	0.66496
0	C	0.184517	0.579037	0.80624
0	C	0.679542	0.915192	0.307351
0	C	0.308588	0.914822	0.159924
0	C	0.309454	0.0784235	0.66225
0	C	0.679781	0.0786873	0.808495
0	O	0.178197	0.39408	0.771712
0	O	0.810128	0.393662	0.697744
0	O	0.810135	0.599843	0.198657
0	O	0.178329	0.599679	0.272714
0	O	0.67238	0.897394	0.772187
0	O	0.316494	0.897171	0.695318
0	O	0.316497	0.0964241	0.197094
0	O	0.672322	0.0964403	0.273197
0	C	0.347314	0.585619	0.205578
0	C	0.641475	0.584703	0.267967
0	C	0.641651	0.40819	0.763959
0	C	0.346457	0.408944	0.700413
0	C	0.84271	0.0860809	0.212551
0	C	0.147066	0.0849911	0.263673
0	C	0.146371	0.907841	0.758737
0	C	0.841429	0.908368	0.706531
0	C	0.152307	0.372505	0.816849
0	C	0.836058	0.372183	0.652455
0	C	0.836237	0.621353	0.154183
0	C	0.152424	0.621122	0.318207
0	C	0.647206	0.875093	0.817915
0	C	0.341588	0.874947	0.649016
0	C	0.341609	0.118747	0.151177
0	C	0.647119	0.118591	0.319303
0	C	0.193391	0.424665	0.843504
0	C	0.794586	0.424062	0.62554
0	C	0.794715	0.569519	0.125947
0	C	0.193632	0.569052	0.344185
0	C	0.687211	0.927959	0.844523
0	C	0.301336	0.927662	0.62303
0	C	0.301631	0.0658574	0.124809
0	C	0.687325	0.0658604	0.345259
0	S	0.0321553	0.303275	0.136032
0	S	0.956354	0.302888	0.334975
0	S	0.956466	0.69095	0.834918
0	S	0.0325048	0.691027	0.636197
0	S	0.53187	0.801895	0.135937
0	S	0.456726	0.802075	0.333285
0	S	0.456736	0.191994	0.833914
0	S	0.532033	0.192061	0.636516
0	S	0.937892	0.126961	0.662942
0	S	0.0515332	0.12686	0.808207
0	S	0.0508685	0.866894	0.308292
0	S	0.937058	0.867059	0.162091
0	S	0.43865	0.626538	0.661102
0	S	0.550473	0.626225	0.809622
0	S	0.549853	0.367471	0.3096
0	S	0.437887	0.367595	0.160007
0	S	0.876216	0.225862	0.419228
0	S	0.112268	0.226309	0.051021
0	S	0.112728	0.767977	0.551881
0	S	0.876189	0.767645	0.91898
0	S	0.38048	0.726894	0.418813
0	S	0.607992	0.727043	0.0507552
0	S	0.608297	0.267109	0.551564
0	S	0.38036	0.266771	0.918567
0	S	0.954596	0.21983	0.84622
0	S	0.0343952	0.219965	0.62478
0	S	0.0338119	0.774582	0.124267
0	S	0.95453	0.774061	0.346316
0	S	0.453739	0.718842	0.846675
0	S	0.534729	0.719202	0.622683
0	S	0.53427	0.27537	0.122821
0	S	0.453859	0.274979	0.347551
0	N	0.975134	0.246876	0.0555745
0	N	0.013211	0.246982	0.415366
0	N	0.0135721	0.747173	0.915386
0	N	0.975823	0.747268	0.555908
0	N	0.475503	0.745075	0.0567824
0	N	0.512674	0.745285	0.41241
0	N	0.51293	0.248771	0.913139
0	N	0.476138	0.24899	0.557912
0	N	0.931491	0.171194	0.48829
0	N	0.0574188	0.171316	0.982247
0	N	0.0575514	0.822712	0.483169
0	N	0.931142	0.822662	0.987937
0	N	0.434189	0.670933	0.48768
0	N	0.554687	0.670678	0.982717
0	N	0.554651	0.323095	0.48324
0	N	0.433645	0.323241	0.986663
0	N	0.893734	0.187007	0.62206
0	N	0.0952648	0.187122	0.848787
0	N	0.0951052	0.806852	0.348971
0	N	0.893296	0.806782	0.121349
0	N	0.397028	0.688248	0.621621
0	N	0.591751	0.688104	0.848577
0	N	0.591664	0.305839	0.34889
0	N	0.396571	0.305742	0.120723
0	N	0.847252	0.235152	0.591584
0	N	0.141408	0.235555	0.878997
0	N	0.141045	0.758292	0.378385
0	N	0.847198	0.758316	0.0912089
0	N	0.351807	0.737715	0.590948
0	N	0.636691	0.737806	0.878698
0	N	0.636485	0.256061	0.378589
0	N	0.351744	0.255958	0.0907494
0	C	0.9484	0.218781	0.0552042
0	C	0.0399613	0.218958	0.415058
0	C	0.0403715	0.775203	0.915641
0	C	0.94887	0.775146	0.555877
0	C	0.448943	0.716816	0.0569437
0	C	0.539243	0.717028	0.412168
0	C	0.539492	0.277029	0.912943
0	C	0.449336	0.277047	0.558065
0	N	0.00599348	0.273363	0.917797
0	N	0.982611	0.273273	0.553715
0	N	0.982473	0.720977	0.0530095
0	N	0.00650787	0.720901	0.41781
0	N	0.505602	0.772156	0.917853
0	N	0.482748	0.772437	0.551553
0	N	0.482644	0.221858	0.0518756
0	N	0.506109	0.221987	0.418618
0	C	0.95783	0.143575	0.478515
0	C	0.0311005	0.143631	0.991716
0	C	0.0310496	0.850187	0.492833
0	C	0.957447	0.850362	0.978471
0	C	0.459726	0.642586	0.478258
0	C	0.529203	0.642284	0.992124
0	C	0.528921	0.351282	0.492571
0	C	0.459143	0.351643	0.977409
0	C	0.97695	0.141317	0.392163
0	C	0.0115435	0.141535	0.0770701
0	C	0.0118395	0.852284	0.579002
0	C	0.976962	0.852504	0.893003
0	C	0.4794	0.640021	0.393332
0	C	0.509387	0.639749	0.0766842
0	C	0.509176	0.353667	0.577354
0	C	0.478941	0.35423	0.89282
0	C	0.936511	0.207452	0.150615
0	C	0.0515914	0.207659	0.319186
0	C	0.0524451	0.786324	0.820352
0	C	0.937089	0.786395	0.651559
0	C	0.437799	0.704936	0.153083
0	C	0.550223	0.705054	0.315841
0	C	0.55081	0.28875	0.816937
0	C	0.438224	0.288879	0.654322
0	C	0.919258	0.166446	0.580655
0	C	0.0698026	0.16653	0.890149
0	C	0.0696731	0.827467	0.390611
0	C	0.918753	0.827413	0.0800378
0	C	0.421728	0.666702	0.579826
0	C	0.567149	0.666508	0.890545
0	C	0.567005	0.327369	0.390908
0	C	0.421171	0.327366	0.0788252
0	N	0.833611	0.283055	0.210693
0	N	0.154612	0.283634	0.25936
0	N	0.1549	0.710183	0.759059
0	N	0.833868	0.710418	0.710648
0	N	0.33806	0.782933	0.206915
0	N	0.650374	0.782981	0.26261
0	N	0.650555	0.210715	0.762593
0	N	0.338125	0.210694	0.707008
0	C	0.981412	0.250165	0.953434
0	C	0.0072469	0.25019	0.517972
0	C	0.00711284	0.744098	0.0173541
0	C	0.981834	0.74397	0.453401
0	C	0.481473	0.748657	0.95432
0	C	0.506875	0.748952	0.515012
0	C	0.506777	0.245355	0.0154114
0	C	0.481914	0.245362	0.45527
0	O	0.106197	0.356939	0.0288535
0	O	0.88215	0.356515	0.441835
0	O	0.882374	0.637288	0.941896
0	O	0.106846	0.637509	0.529949
0	O	0.601466	0.860478	0.0254462
0	O	0.386702	0.860563	0.442444
0	O	0.387265	0.133111	0.944002
0	O	0.601856	0.133545	0.526623
0	N	0.0566769	0.316766	0.957427
0	N	0.93139	0.316123	0.51301
0	N	0.931851	0.677491	0.0133781
0	N	0.0573962	0.677667	0.458159
0	N	0.554528	0.817689	0.955576
0	N	0.433542	0.817744	0.512861
0	N	0.433948	0.1761	0.0139784
0	N	0.555167	0.176536	0.45675
0	O	0.800025	0.277652	0.522953
0	O	0.188047	0.278609	0.946972
0	O	0.187868	0.715336	0.445803
0	O	0.800158	0.715648	0.0228371
0	O	0.305771	0.781305	0.521248
0	O	0.682539	0.781589	0.948003
0	O	0.682225	0.212131	0.447305
0	O	0.305914	0.212155	0.0215683
0	C	0.964219	0.116614	0.565341
0	C	0.0250157	0.116566	0.905373
0	C	0.024473	0.877098	0.405824
0	C	0.963543	0.877407	0.0648705
0	C	0.465013	0.615477	0.564442
0	C	0.524028	0.615152	0.906044
0	C	0.523419	0.378357	0.406222
0	C	0.464337	0.378724	0.0636528
0	C	0.93356	0.201483	0.947485
0	C	0.0550983	0.201682	0.522665
0	C	0.0550894	0.792652	0.0231549
0	C	0.933625	0.792278	0.4481
0	C	0.433583	0.699807	0.949017
0	C	0.554748	0.700094	0.520131
0	C	0.554663	0.294198	0.0206969
0	C	0.433673	0.293883	0.450026
0	C	0.00669791	0.0850557	0.477912
0	C	0.9819	0.0852167	0.991101
0	C	0.981641	0.908317	0.492769
0	C	0.00663868	0.908791	0.979094
0	C	0.507891	0.583389	0.480189
0	C	0.481093	0.583048	0.989987
0	C	0.480207	0.410077	0.490135
0	C	0.50732	0.410853	0.979937
0	C	0.839184	0.257416	0.402569
0	C	0.149106	0.258044	0.0675694
0	C	0.14932	0.73601	0.567451
0	C	0.839309	0.735951	0.902471
0	C	0.344076	0.759136	0.401151
0	C	0.644271	0.759395	0.0681734
0	C	0.64439	0.234584	0.568382
0	C	0.344126	0.234381	0.901263
0	C	0.895333	0.162525	0.0287398
0	C	0.0931122	0.162792	0.440408
0	C	0.0936062	0.83132	0.942001
0	C	0.895202	0.830903	0.529801
0	C	0.396415	0.660046	0.0319485
0	C	0.591752	0.660231	0.436873
0	C	0.592059	0.333762	0.937932
0	C	0.396238	0.333351	0.533051
0	C	0.825963	0.259192	0.504078
0	C	0.162354	0.259935	0.966041
0	C	0.162246	0.734061	0.465419
0	C	0.826043	0.734144	0.00388646
0	C	0.331128	0.761914	0.50286
0	C	0.657222	0.762179	0.966511
0	C	0.657098	0.231703	0.466272
0	C	0.331193	0.231594	0.00296214
0	C	0.910042	0.179236	0.135915
0	C	0.0781099	0.179491	0.333388
0	C	0.0789924	0.814483	0.835001
0	C	0.910316	0.814351	0.637012
0	C	0.411594	0.67651	0.139179
0	C	0.576413	0.676625	0.329624
0	C	0.577028	0.317169	0.830842
0	C	0.411739	0.317061	0.640385
0	C	0.988413	0.087307	0.565228
0	C	0.00054403	0.0873949	0.904478
0	C	1.84463e-05	0.906216	0.405631
0	C	0.988006	0.906587	0.0657482
0	C	0.488748	0.58572	0.565534
0	C	0.500309	0.585372	0.904826
0	C	0.49941	0.407919	0.404897
0	C	0.488088	0.408491	0.0650532
0	C	0.0679985	0.335963	0.151007
0	C	0.920203	0.335367	0.319464
0	C	0.920625	0.658252	0.819853
0	C	0.0684093	0.658357	0.651613
0	C	0.565527	0.836579	0.149723
0	C	0.422879	0.836644	0.318811
0	C	0.423144	0.157246	0.819879
0	C	0.565729	0.157379	0.65052
0	C	0.874141	0.213111	0.559794
0	C	0.114586	0.213411	0.910769
0	C	0.114528	0.780608	0.410954
0	C	0.873972	0.780502	0.0593591
0	C	0.378119	0.714745	0.559699
0	C	0.61046	0.714773	0.910074
0	C	0.610452	0.279216	0.41045
0	C	0.377912	0.279046	0.059269
0	O	0.824613	0.276281	0.971225
0	O	0.16403	0.276503	0.49856
0	O	0.164589	0.717107	0.998761
0	O	0.824653	0.717437	0.471495
0	O	0.328894	0.775696	0.967503
0	O	0.659707	0.775389	0.501637
0	O	0.660053	0.217873	0.00214748
0	O	0.328833	0.218257	0.467992
0	C	0.0800542	0.33885	0.0470145
0	C	0.908123	0.338317	0.423483
0	C	0.908512	0.655391	0.923765
0	C	0.0806583	0.655543	0.547856
0	C	0.576767	0.840668	0.0448105
0	C	0.411443	0.840732	0.423435
0	C	0.411864	0.15305	0.924679
0	C	0.577171	0.15339	0.545843
0	N	0.0748396	0.361223	0.344148
0	N	0.913231	0.360627	0.126135
0	N	0.914029	0.63287	0.627003
0	N	0.0751632	0.633153	0.844864
0	N	0.57139	0.86185	0.34243
0	N	0.417048	0.861721	0.125786
0	N	0.417376	0.132127	0.627054
0	N	0.57141	0.132039	0.843122
0	C	0.0295591	0.29503	0.98879
0	C	0.95884	0.294634	0.482248
0	C	0.958965	0.699252	0.982087
0	C	0.0300988	0.699327	0.489034
0	C	0.528787	0.794336	0.987596
0	C	0.459495	0.794509	0.481416
0	C	0.45962	0.199568	0.982117
0	C	0.529277	0.199785	0.488467
0	C	0.0825651	0.358891	0.241509
0	C	0.905473	0.358194	0.228733
0	C	0.906152	0.635278	0.729434
0	C	0.0829155	0.635443	0.742237
0	C	0.579228	0.859878	0.239892
0	C	0.409158	0.859818	0.228271
0	C	0.409511	0.133988	0.729567
0	C	0.57934	0.134051	0.740706
0	C	0.00120017	0.111952	0.392847
0	C	0.987082	0.112292	0.0755878
0	C	0.987303	0.881444	0.577961
0	C	0.00141767	0.881751	0.894508
0	C	0.503418	0.61036	0.395716
0	C	0.485408	0.610061	0.074294
0	C	0.48487	0.383115	0.574699
0	C	0.502962	0.383903	0.895426
0	C	0.815145	0.31244	0.130016
0	C	0.173035	0.313027	0.340001
0	C	0.173291	0.680706	0.839453
0	C	0.81546	0.681012	0.630043
0	C	0.320931	0.812704	0.126
0	C	0.667597	0.812673	0.343703
0	C	0.667616	0.180846	0.843185
0	C	0.320905	0.180987	0.625996
0	C	0.840295	0.246501	0.0461905
0	C	0.148388	0.24674	0.423533
0	C	0.148923	0.746917	0.923891
0	C	0.840229	0.747229	0.546499
0	C	0.343257	0.745516	0.0422023
0	C	0.645258	0.74529	0.426726
0	C	0.645736	0.24812	0.92769
0	C	0.34323	0.248368	0.542929
0	C	0.824389	0.279895	0.310361
0	C	0.163782	0.280638	0.15962
0	C	0.163999	0.713321	0.659207
0	C	0.82464	0.713415	0.810317
0	C	0.329584	0.781315	0.307952
0	C	0.658712	0.781587	0.161383
0	C	0.658844	0.212275	0.661285
0	C	0.329699	0.212167	0.808109
0	C	0.907023	0.173414	0.933297
0	C	0.0816556	0.173663	0.536249
0	C	0.0817283	0.820635	0.0373182
0	C	0.906797	0.820084	0.434142
0	C	0.407329	0.671502	0.935742
0	C	0.580974	0.671769	0.533205
0	C	0.580954	0.322471	0.0339864
0	C	0.40714	0.321952	0.436787
0	C	0.0938577	0.390733	0.423771
0	C	0.894368	0.390222	0.0466079
0	C	0.895141	0.603277	0.54754
0	C	0.094	0.603582	0.924477
0	C	0.589669	0.891516	0.422583
0	C	0.398827	0.891336	0.0453461
0	C	0.399203	0.10246	0.546769
0	C	0.589672	0.102405	0.923413
0	O	0.102249	0.348976	0.583635
0	O	0.88745	0.349028	0.885791
0	O	0.886715	0.644917	0.38736
0	O	0.101464	0.644969	0.085031
0	O	0.59857	0.849515	0.582076
0	O	0.391104	0.84959	0.885542
0	O	0.390322	0.144495	0.387388
0	O	0.597687	0.144177	0.0832911
0	C	0.0564692	0.333429	0.400549
0	C	0.932113	0.333055	0.0704732
0	C	0.932357	0.660674	0.570506
0	C	0.0564741	0.660839	0.900714
0	C	0.553289	0.833704	0.398258
0	C	0.435567	0.833684	0.0707739
0	C	0.43546	0.160344	0.571439
0	C	0.552951	0.160038	0.898453
0	C	0.085789	0.319358	0.508826
0	C	0.90353	0.319238	0.960333
0	C	0.903038	0.674615	0.462034
0	C	0.0852766	0.674704	0.0103982
0	C	0.582524	0.819839	0.506955
0	C	0.406928	0.819879	0.960765
0	C	0.406242	0.174178	0.462661
0	C	0.581715	0.173873	0.00818878
0	C	0.796737	0.296815	0.0112691
0	C	0.19169	0.297292	0.458457
0	C	0.192116	0.696307	0.95797
0	C	0.79694	0.696667	0.511403
0	C	0.301779	0.797315	0.00748139
0	C	0.686798	0.797084	0.461912
0	C	0.686975	0.196143	0.96168
0	C	0.301765	0.196514	0.507648
0	C	0.86036	0.260122	0.167321
0	C	0.12808	0.260416	0.302678
0	C	0.12845	0.73328	0.803119
0	C	0.860482	0.733569	0.667418
0	C	0.363612	0.758426	0.163944
0	C	0.62484	0.758351	0.305233
0	C	0.625182	0.235301	0.806015
0	C	0.363687	0.235281	0.664353
0	C	0.122113	0.374444	0.529763
0	C	0.86691	0.374124	0.938721
0	C	0.866897	0.619417	0.441258
0	C	0.121745	0.61973	0.0317482
0	C	0.618066	0.875468	0.528774
0	C	0.371048	0.875277	0.93795
0	C	0.370832	0.118477	0.440474
0	C	0.617608	0.11847	0.0305131
0	S	0.177266	0.125275	0.817959
0	S	0.811483	0.125517	0.650732
0	S	0.810956	0.868487	0.151916
0	S	0.177306	0.86876	0.318934
0	S	0.672678	0.626628	0.822726
0	S	0.316173	0.626868	0.644906
0	S	0.31574	0.367123	0.147326
0	S	0.672704	0.367217	0.32492
0	S	0.11337	0.0336322	0.525668
0	S	0.875803	0.0333019	0.941261
0	S	0.874856	0.959983	0.444364
0	S	0.112651	0.96077	0.0285083
0	S	0.612173	0.532662	0.535654
0	S	0.377054	0.532026	0.93005
0	S	0.376207	0.461198	0.433884
0	S	0.611484	0.461599	0.0390325
0	N	0.117317	0.0667772	0.721411
0	N	0.871409	0.066531	0.745412
0	N	0.870739	0.926926	0.248381
0	N	0.117408	0.92751	0.224518
0	N	0.6147	0.566583	0.729093
0	N	0.37408	0.565929	0.736318
0	N	0.373506	0.427219	0.240436
0	N	0.614736	0.42782	0.233149
0	N	0.157996	0.0910153	0.604631
0	N	0.830763	0.0904958	0.862821
0	N	0.830169	0.902627	0.365384
0	N	0.158092	0.9038	0.106915
0	N	0.654105	0.591925	0.610115
0	N	0.334663	0.591046	0.855778
0	N	0.334079	0.402022	0.359564
0	N	0.654046	0.402672	0.113469
0	C	0.131524	0.0680599	0.632169
0	C	0.857298	0.0677034	0.834863
0	C	0.856606	0.925613	0.337767
0	C	0.131459	0.926455	0.134927
0	C	0.628753	0.568107	0.639561
0	C	0.360122	0.56741	0.826034
0	C	0.359488	0.425767	0.330045
0	C	0.628608	0.426323	0.143256
0	C	0.0853513	0.0165229	0.610664
0	C	0.903877	0.0164526	0.856029
0	C	0.902783	0.977141	0.359159
0	C	0.0844326	0.977342	0.113725
0	C	0.58486	0.51488	0.621593
0	C	0.404375	0.514393	0.843893
0	C	0.403517	0.478884	0.34778
0	C	0.584114	0.479157	0.12517
0	N	0.206302	0.136888	0.647387
0	N	0.782377	0.136329	0.821609
0	N	0.782003	0.856606	0.322513
0	N	0.206416	0.85789	0.148108
0	N	0.70067	0.639273	0.650608
0	N	0.287898	0.638218	0.817197
0	N	0.287511	0.354665	0.319083
0	N	0.700596	0.35529	0.152181
0	N	0.220894	0.179961	0.0342855
0	N	0.767177	0.180134	0.434731
0	N	0.767552	0.813651	0.935517
0	N	0.221234	0.813752	0.534464
0	N	0.715724	0.682077	0.0378889
0	N	0.272351	0.682406	0.430727
0	N	0.272727	0.311646	0.932116
0	N	0.71606	0.311281	0.538821
0	C	0.0906921	0.0378712	0.711297
0	C	0.898231	0.0377973	0.755284
0	C	0.89736	0.955836	0.258423
0	C	0.0903273	0.95602	0.214603
0	C	0.589318	0.536717	0.720963
0	C	0.399637	0.536196	0.744329
0	C	0.398952	0.457029	0.248414
0	C	0.589026	0.457435	0.224971
0	C	0.228956	0.178784	0.932156
0	C	0.759337	0.178803	0.537181
0	C	0.759445	0.81484	0.0375761
0	C	0.229015	0.81506	0.431938
0	C	0.723532	0.680972	0.935504
0	C	0.264805	0.681057	0.533489
0	C	0.26489	0.31277	0.0344663
0	C	0.723532	0.312571	0.435972
0	C	0.239213	0.208932	0.116995
0	C	0.748388	0.208895	0.351812
0	C	0.749248	0.784674	0.852813
0	C	0.239804	0.784822	0.617027
0	C	0.734242	0.710932	0.120724
0	C	0.25336	0.711137	0.348029
0	C	0.254179	0.2828	0.849283
0	C	0.734745	0.282331	0.621109
0	C	0.227656	0.16004	0.737436
0	C	0.760981	0.159673	0.732067
0	C	0.760695	0.833481	0.232306
0	C	0.227628	0.834368	0.23741
0	C	0.721805	0.662654	0.74025
0	C	0.266835	0.662009	0.728573
0	C	0.266523	0.331161	0.229572
0	C	0.721593	0.331509	0.240903
0	C	0.0705044	0.0293359	0.791799
0	C	0.918368	0.0294535	0.674491
0	C	0.917444	0.964423	0.177707
0	C	0.0701104	0.964144	0.295379
0	C	0.569289	0.527808	0.801558
0	C	0.419593	0.527395	0.663465
0	C	0.418929	0.465876	0.167632
0	C	0.569041	0.466179	0.305813
0	O	0.25334	0.179322	0.721188
0	O	0.735232	0.178764	0.748755
0	O	0.735077	0.814104	0.248488
0	O	0.253266	0.815157	0.220616
0	O	0.746966	0.682437	0.723078
0	O	0.241612	0.681552	0.746463
0	O	0.241379	0.31136	0.24675
0	O	0.746624	0.311728	0.222911
0	C	0.0459117	0.99955	0.770798
0	C	0.943256	0.999878	0.695395
0	C	0.942052	0.994203	0.198676
0	C	0.0448909	0.99346	0.27434
0	C	0.545858	0.497217	0.782018
0	C	0.443243	0.496946	0.682939
0	C	0.442448	0.496411	0.187055
0	C	0.545178	0.496477	0.28607
0	C	0.21431	0.156901	0.838771
0	C	0.774261	0.156923	0.630471
0	C	0.774027	0.836736	0.130975
0	C	0.21429	0.837111	0.338925
0	C	0.708923	0.659032	0.842249
0	C	0.2797	0.658995	0.626338
0	C	0.279485	0.334725	0.127711
0	C	0.708839	0.33475	0.343279
0	C	0.0414846	0.978267	0.67223
0	C	0.94802	0.978611	0.794121
0	C	0.946576	0.0154375	0.297396
0	C	0.0398589	0.0146938	0.175427
0	C	0.542348	0.475403	0.684777
0	C	0.447038	0.475168	0.780376
0	C	0.446084	0.518235	0.28435
0	C	0.5412	0.518167	0.188357
0	O	0.247903	0.165563	0.272492
0	O	0.739824	0.165401	0.196621
0	O	0.740671	0.827998	0.697236
0	O	0.249028	0.828254	0.772601
0	O	0.740794	0.667919	0.276632
0	O	0.246063	0.667933	0.192277
0	O	0.247351	0.325904	0.693493
0	O	0.742402	0.3253	0.777556
0	C	0.178769	0.114522	0.675575
0	C	0.809939	0.114169	0.792733
0	C	0.809437	0.879112	0.294394
0	C	0.17888	0.880082	0.176943
0	C	0.674128	0.616061	0.680213
0	C	0.314594	0.615385	0.786731
0	C	0.314106	0.377837	0.289572
0	C	0.674097	0.378354	0.182662
0	C	0.0612152	0.986546	0.591206
0	C	0.928325	0.986692	0.875396
0	C	0.926918	0.00711997	0.378566
0	C	0.0596205	0.00682845	0.094165
0	C	0.561887	0.484058	0.603604
0	C	0.427579	0.483721	0.861837
0	C	0.426571	0.509655	0.365638
0	C	0.560682	0.509675	0.10691
0	C	0.20233	0.151403	0.0870796
0	C	0.785799	0.151702	0.381567
0	C	0.786164	0.84218	0.882758
0	C	0.202919	0.842293	0.588121
0	C	0.696065	0.654157	0.0897049
0	C	0.291628	0.654446	0.377788
0	C	0.292236	0.339647	0.880117
0	C	0.696969	0.339305	0.592085
0	C	0.267618	0.191945	0.221195
0	C	0.719995	0.191613	0.248156
0	C	0.720907	0.801636	0.748438
0	C	0.268501	0.801881	0.720519
0	C	0.761568	0.693672	0.226515
0	C	0.22561	0.693721	0.243328
0	C	0.226721	0.30004	0.74369
0	C	0.762657	0.29945	0.726065
0	C	0.231521	0.136607	0.194717
0	C	0.756557	0.136598	0.274574
0	C	0.757024	0.856968	0.775016
0	C	0.232396	0.857174	0.69501
0	C	0.724338	0.639044	0.198587
0	C	0.262862	0.639141	0.270208
0	C	0.263797	0.354775	0.771583
0	C	0.725786	0.354275	0.700138
0	H	0.390732	0.615532	0.329972
0	H	0.597905	0.614847	0.144839
0	H	0.598499	0.378118	0.639245
0	H	0.390344	0.378873	0.82275
0	H	0.886805	0.115395	0.33643
0	H	0.102273	0.114308	0.1422
0	H	0.102099	0.878589	0.635252
0	H	0.88594	0.8788	0.828203
0	H	0.195952	0.338406	0.930969
0	H	0.792261	0.337773	0.540258
0	H	0.792844	0.655945	0.041131
0	H	0.196333	0.65508	0.431803
0	H	0.69219	0.841481	0.928324
0	H	0.296292	0.841324	0.539972
0	H	0.296467	0.152258	0.0409601
0	H	0.692332	0.152109	0.429049
0	H	0.152154	0.34273	0.971555
0	H	0.835898	0.341887	0.498459
0	H	0.836662	0.65159	0.000538495
0	H	0.152578	0.651067	0.472821
0	H	0.648813	0.844149	0.971865
0	H	0.339479	0.843724	0.495231
0	H	0.339818	0.149749	0.997174
0	H	0.64903	0.149689	0.473165
0	H	0.226704	0.436456	0.0170641
0	H	0.761467	0.43573	0.452166
0	H	0.761673	0.558146	0.952162
0	H	0.226706	0.556998	0.517679
0	H	0.720367	0.939885	0.0180655
0	H	0.267884	0.939486	0.449723
0	H	0.268379	0.0539229	0.951336
0	H	0.720426	0.053797	0.51872
0	H	0.241838	0.396332	0.961154
0	H	0.74609	0.395644	0.508024
0	H	0.746502	0.598213	0.00848535
0	H	0.242103	0.597185	0.462703
0	H	0.73675	0.900633	0.960615
0	H	0.251776	0.900147	0.5074
0	H	0.252068	0.0931868	0.00877206
0	H	0.736829	0.0931522	0.461854
0	H	0.372478	0.59022	0.498944
0	H	0.615928	0.590221	0.974821
0	H	0.616719	0.403732	0.470575
0	H	0.372735	0.403377	0.993542
0	H	0.869583	0.089285	0.505953
0	H	0.118737	0.0891501	0.970511
0	H	0.119106	0.904655	0.465341
0	H	0.869566	0.904216	0.999695
0	H	0.3564	0.596373	0.133259
0	H	0.632563	0.595244	0.34086
0	H	0.632583	0.397284	0.836118
0	H	0.355222	0.3985	0.627145
0	H	0.851389	0.097153	0.13996
0	H	0.138733	0.0956669	0.337368
0	H	0.13776	0.896818	0.831506
0	H	0.849726	0.897576	0.632921
0	H	0.143844	0.350407	0.752816
0	H	0.844924	0.350274	0.716911
0	H	0.844917	0.643243	0.218867
0	H	0.143767	0.643219	0.25431
0	H	0.638711	0.853215	0.753125
0	H	0.350375	0.853132	0.713858
0	H	0.350142	0.140623	0.215956
0	H	0.638415	0.140464	0.254643
0	H	0.126768	0.388844	0.817721
0	H	0.861371	0.38871	0.650469
0	H	0.861603	0.604835	0.152758
0	H	0.126978	0.604681	0.319391
0	H	0.621594	0.890962	0.82116
0	H	0.367054	0.890917	0.644911
0	H	0.367207	0.102888	0.147724
0	H	0.621619	0.102598	0.322894
0	H	0.169664	0.443172	0.846321
0	H	0.818142	0.442761	0.622485
0	H	0.818292	0.550853	0.1229
0	H	0.16995	0.550414	0.346465
0	H	0.663199	0.945961	0.848404
0	H	0.325193	0.945836	0.618925
0	H	0.325622	0.047838	0.120858
0	H	0.6634	0.0476948	0.34879
0	H	0.212338	0.43766	0.796924
0	H	0.775511	0.43693	0.671938
0	H	0.775549	0.556533	0.171835
0	H	0.21269	0.55627	0.297583
0	H	0.70571	0.941489	0.797487
0	H	0.282815	0.94101	0.67034
0	H	0.283149	0.052338	0.171929
0	H	0.705927	0.052546	0.298148
0	H	0.97328	0.162692	0.328448
0	H	0.0150627	0.162876	0.140759
0	H	0.0156485	0.830921	0.642801
0	H	0.973408	0.831186	0.829225
0	H	0.476271	0.661271	0.329179
0	H	0.512344	0.661059	0.140591
0	H	0.512459	0.332416	0.641578
0	H	0.475948	0.332972	0.828747
0	H	0.948601	0.220361	0.233642
0	H	0.0392941	0.220517	0.236197
0	H	0.0404461	0.773333	0.737408
0	H	0.949445	0.773633	0.73468
0	H	0.450173	0.717602	0.236311
0	H	0.537713	0.717647	0.232596
0	H	0.53855	0.275986	0.7338
0	H	0.45084	0.276348	0.737607
0	H	0.0258668	0.0623946	0.475975
0	H	0.962428	0.062762	0.992009
0	H	0.962245	0.93081	0.494436
0	H	0.0261163	0.931247	0.978192
0	H	0.527126	0.560642	0.479928
0	H	0.461859	0.560288	0.990215
0	H	0.460746	0.432658	0.490187
0	H	0.526587	0.433602	0.979876
0	H	0.874945	0.140229	0.0202501
0	H	0.113482	0.140506	0.448497
0	H	0.114058	0.853561	0.950444
0	H	0.874605	0.85301	0.52141
0	H	0.376248	0.637564	0.0240662
0	H	0.611893	0.637737	0.444647
0	H	0.612253	0.356226	0.945819
0	H	0.375846	0.355637	0.525151
0	H	0.900927	0.169506	0.209528
0	H	0.0870297	0.169793	0.259483
0	H	0.0882286	0.824065	0.76143
0	H	0.901261	0.824005	0.710747
0	H	0.402983	0.666532	0.213302
0	H	0.58488	0.666587	0.25538
0	H	0.585748	0.327039	0.756773
0	H	0.403146	0.326986	0.714553
0	H	0.993417	0.0669585	0.632256
0	H	0.995999	0.0668092	0.83793
0	H	0.994879	0.926521	0.338466
0	H	0.992583	0.927165	0.132345
0	H	0.492669	0.564961	0.6314
0	H	0.496459	0.564585	0.83895
0	H	0.495321	0.428652	0.338901
0	H	0.491958	0.429244	0.131053
0	H	0.0165001	0.109777	0.326952
0	H	0.971558	0.11007	0.141136
0	H	0.971886	0.883465	0.643602
0	H	0.0169178	0.883991	0.828882
0	H	0.519563	0.608188	0.331937
0	H	0.469161	0.607912	0.137843
0	H	0.468634	0.385122	0.638298
0	H	0.519197	0.386087	0.831851
0	H	0.792822	0.327047	0.161786
0	H	0.195238	0.327715	0.307871
0	H	0.195352	0.665895	0.807084
0	H	0.793178	0.666401	0.662041
0	H	0.299376	0.828526	0.157767
0	H	0.689186	0.828425	0.311828
0	H	0.689034	0.164953	0.811042
0	H	0.299267	0.165287	0.657815
0	H	0.837322	0.333174	0.126332
0	H	0.150798	0.333672	0.343968
0	H	0.151008	0.660162	0.843708
0	H	0.837685	0.660312	0.626449
0	H	0.344033	0.832361	0.121958
0	H	0.644561	0.832383	0.347911
0	H	0.644459	0.161277	0.847367
0	H	0.343929	0.161233	0.622018
0	H	0.817084	0.227033	0.0461274
0	H	0.171646	0.227383	0.422907
0	H	0.172215	0.766217	0.923227
0	H	0.816935	0.766562	0.546978
0	H	0.319239	0.7269	0.041175
0	H	0.669218	0.726645	0.427217
0	H	0.669813	0.266645	0.928506
0	H	0.319233	0.266956	0.542537
0	H	0.861081	0.234183	0.00456806
0	H	0.12775	0.234264	0.465341
0	H	0.128397	0.759427	0.966084
0	H	0.860877	0.759716	0.504757
0	H	0.363724	0.732407	0.000964855
0	H	0.624813	0.732161	0.467927
0	H	0.625407	0.261302	0.969276
0	H	0.36363	0.261558	0.501689
0	H	0.896254	0.160071	0.850218
0	H	0.0926053	0.160372	0.619187
0	H	0.0924681	0.834035	0.120312
0	H	0.895735	0.833252	0.351038
0	H	0.396042	0.658331	0.852803
0	H	0.592329	0.658652	0.616093
0	H	0.592151	0.33572	0.116842
0	H	0.39564	0.334967	0.353802
0	H	0.109476	0.409791	0.38042
0	H	0.878104	0.408879	0.0891491
0	H	0.879529	0.58422	0.590905
0	H	0.11002	0.584733	0.881768
0	H	0.605001	0.911027	0.379908
0	H	0.382976	0.910596	0.0871747
0	H	0.383869	0.0829022	0.589281
0	H	0.605391	0.0830998	0.881333
0	H	0.0709765	0.406367	0.448462
0	H	0.917399	0.40628	0.0241175
0	H	0.918098	0.587671	0.523152
0	H	0.0709923	0.587725	0.947746
0	H	0.566392	0.906593	0.447063
0	H	0.422189	0.906713	0.0223115
0	H	0.422539	0.0874406	0.522425
0	H	0.566348	0.0870793	0.946826
0	H	0.0315172	0.346301	0.423243
0	H	0.957444	0.346018	0.0501927
0	H	0.957372	0.647838	0.54805
0	H	0.0312233	0.647948	0.921676
0	H	0.528012	0.846209	0.420184
0	H	0.461094	0.846273	0.0505287
0	H	0.460788	0.147905	0.549641
0	H	0.52752	0.147399	0.919109
0	H	0.0443437	0.310175	0.343803
0	H	0.943721	0.30961	0.127029
0	H	0.944391	0.683982	0.627141
0	H	0.0447687	0.684242	0.844089
0	H	0.541598	0.810391	0.34124
0	H	0.446886	0.810274	0.127821
0	H	0.447065	0.183664	0.62854
0	H	0.541481	0.183425	0.841484
0	H	0.109467	0.303732	0.489054
0	H	0.879619	0.303391	0.977806
0	H	0.879277	0.690174	0.481584
0	H	0.109127	0.690484	0.992309
0	H	0.606409	0.804365	0.487799
0	H	0.382898	0.804226	0.978308
0	H	0.382278	0.189555	0.481722
0	H	0.605661	0.189563	0.990297
0	H	0.0717124	0.303001	0.562292
0	H	0.918203	0.303192	0.90772
0	H	0.917083	0.690985	0.408517
0	H	0.0707662	0.69083	0.0632658
0	H	0.568453	0.803335	0.560117
0	H	0.421502	0.803588	0.908427
0	H	0.420304	0.190758	0.409659
0	H	0.567212	0.190138	0.0607791
0	H	0.788021	0.318436	0.945829
0	H	0.200348	0.318881	0.524093
0	H	0.200826	0.674684	0.0234151
0	H	0.788386	0.675025	0.44594
0	H	0.293778	0.818992	0.941985
0	H	0.694833	0.818687	0.52768
0	H	0.694951	0.174425	0.0270334
0	H	0.293837	0.174876	0.44197
0	H	0.771877	0.279256	0.0103694
0	H	0.21666	0.27993	0.458883
0	H	0.217064	0.713672	0.958191
0	H	0.77192	0.714016	0.510536
0	H	0.27632	0.780641	0.0068694
0	H	0.712261	0.780454	0.462179
0	H	0.71249	0.212715	0.962067
0	H	0.276234	0.213083	0.507102
0	H	0.886317	0.276564	0.166951
0	H	0.101964	0.276605	0.303158
0	H	0.102509	0.716943	0.804373
0	H	0.886565	0.717314	0.667058
0	H	0.390689	0.773281	0.165135
0	H	0.597702	0.7731	0.304035
0	H	0.598073	0.220541	0.805054
0	H	0.390775	0.22047	0.665403
0	H	0.871177	0.23632	0.222901
0	H	0.117413	0.236601	0.246965
0	H	0.117527	0.757049	0.747531
0	H	0.871183	0.757386	0.723103
0	H	0.372569	0.734131	0.219038
0	H	0.615917	0.734098	0.249875
0	H	0.616242	0.259628	0.751065
0	H	0.372704	0.259513	0.719749
0	H	0.146599	0.360863	0.508423
0	H	0.842199	0.360214	0.957615
0	H	0.842314	0.632929	0.462275
0	H	0.146387	0.633529	0.0120859
0	H	0.642884	0.862429	0.507709
0	H	0.346115	0.861947	0.957369
0	H	0.345942	0.131443	0.46133
0	H	0.642472	0.13179	0.010648
0	H	0.133052	0.39493	0.597452
0	H	0.856347	0.394816	0.871432
0	H	0.856097	0.59886	0.373732
0	H	0.132426	0.59909	0.0991289
0	H	0.628527	0.895957	0.596829
0	H	0.360785	0.895837	0.86999
0	H	0.360471	0.0979863	0.372379
0	H	0.627976	0.0979146	0.0984153
0	H	0.254364	0.229043	0.0759818
0	H	0.733084	0.228897	0.392754
0	H	0.734051	0.764591	0.893779
0	H	0.254818	0.764674	0.575711
0	H	0.750402	0.730439	0.0807378
0	H	0.237419	0.730679	0.388617
0	H	0.238114	0.263252	0.889419
0	H	0.750479	0.262681	0.580241
0	H	0.215922	0.223593	0.143349
0	H	0.771416	0.223774	0.324851
0	H	0.772549	0.769973	0.826643
0	H	0.216685	0.770166	0.644215
0	H	0.710994	0.726351	0.144878
0	H	0.276316	0.726579	0.322491
0	H	0.277403	0.267435	0.824837
0	H	0.711626	0.267089	0.646458
0	H	0.0745248	0.0456314	0.868712
0	H	0.91411	0.0457162	0.597393
0	H	0.913347	0.948176	0.100671
0	H	0.0745569	0.947878	0.372527
0	H	0.572621	0.544532	0.877478
0	H	0.416077	0.544054	0.587276
0	H	0.415502	0.449152	0.09168
0	H	0.572684	0.449564	0.382147
0	H	0.0298822	0.9924	0.832179
0	H	0.959262	0.992883	0.633807
0	H	0.957996	0.00138788	0.137111
0	H	0.0288135	0.000278282	0.335894
0	H	0.530032	0.489753	0.843472
0	H	0.45902	0.489572	0.621263
0	H	0.458225	0.503825	0.125428
0	H	0.529362	0.5038	0.347695
0	H	0.0226083	0.954666	0.659237
0	H	0.967122	0.955176	0.806957
0	H	0.965467	0.0390298	0.31038
0	H	0.0204891	0.0379272	0.162485
0	H	0.524426	0.451193	0.673183
0	H	0.465117	0.451061	0.791836
0	H	0.464081	0.542395	0.295854
0	H	0.522943	0.542155	0.176647
0	H	0.058243	0.969479	0.516128
0	H	0.931624	0.969641	0.950628
0	H	0.929938	0.0241612	0.453729
0	H	0.0560709	0.0238385	0.0187296
0	H	0.55949	0.466839	0.529086
0	H	0.430272	0.466528	0.936523
0	H	0.429047	0.526894	0.440166
0	H	0.55783	0.52679	0.031977
0	H	0.177071	0.163664	0.109927
0	H	0.810761	0.16419	0.357664
0	H	0.811421	0.829878	0.86
0	H	0.177921	0.829974	0.612264
0	H	0.670869	0.667146	0.110986
0	H	0.316451	0.667485	0.354554
0	H	0.31738	0.326713	0.858378
0	H	0.671977	0.326421	0.614816
0	H	0.190741	0.12869	0.0276068
0	H	0.797778	0.129126	0.441168
0	H	0.797767	0.864891	0.942227
0	H	0.191033	0.864945	0.528742
0	H	0.684198	0.63152	0.0302654
0	H	0.303919	0.631921	0.437178
0	H	0.304153	0.362259	0.939612
0	H	0.684927	0.361979	0.533014
0	H	0.292234	0.178942	0.19885
0	H	0.69563	0.178378	0.271238
0	H	0.696248	0.814634	0.770552
0	H	0.292908	0.814907	0.697061
0	H	0.786206	0.680006	0.206322
0	H	0.20125	0.680042	0.265085
0	H	0.202067	0.313585	0.764158
0	H	0.787125	0.31299	0.704507
0	H	0.278241	0.211986	0.29037
0	H	0.708979	0.211513	0.178791
0	H	0.710334	0.781578	0.679296
0	H	0.279465	0.78192	0.789721
0	H	0.772155	0.713745	0.295583
0	H	0.214583	0.713657	0.174097
0	H	0.216144	0.279994	0.674545
0	H	0.773544	0.279368	0.794916
0	H	0.255231	0.121332	0.174066
0	H	0.733016	0.121193	0.295725
0	H	0.733286	0.872252	0.795491
0	H	0.255985	0.87245	0.673674
0	H	0.748038	0.623296	0.179645
0	H	0.239346	0.623468	0.290529
0	H	0.240093	0.370416	0.790928
0	H	0.749422	0.369893	0.68031
0	H	0.217333	0.119534	0.246365
0	H	0.77077	0.11958	0.222894
0	H	0.771253	0.874025	0.723434
0	H	0.218386	0.874252	0.747083
0	H	0.709342	0.62237	0.24903
0	H	0.277494	0.622362	0.219072
0	H	0.278639	0.371548	0.720962
0	H	0.711199	0.371011	0.751513
0	H	0.30218	0.552024	0.0993298
0	H	0.686685	0.550832	0.372709
0	H	0.686494	0.44198	0.870611
0	H	0.300944	0.442684	0.596532
0	H	0.797007	0.0530941	0.106658
0	H	0.193374	0.0519962	0.366762
0	H	0.192238	0.940758	0.864181
0	H	0.795399	0.941596	0.603204
0	H	0.159473	0.373096	0.126071
0	H	0.82786	0.37167	0.342304
0	H	0.829025	0.621746	0.84452
0	H	0.159999	0.620718	0.627693
0	H	0.655602	0.873952	0.126918
0	H	0.332438	0.873458	0.339794
0	H	0.333214	0.119833	0.8424
0	H	0.655912	0.119889	0.628434
0	H	0.801072	0.298909	0.320414
0	H	0.186884	0.299836	0.149198
0	H	0.187045	0.694098	0.64851
0	H	0.80147	0.694252	0.820521
0	H	0.307215	0.801384	0.318314
0	H	0.68094	0.801779	0.150815
0	H	0.681006	0.192062	0.650443
0	H	0.307435	0.192008	0.81862
0	H	0.250034	0.199932	0.920035
0	H	0.738161	0.199795	0.549674
0	H	0.738386	0.793667	0.049665
0	H	0.249948	0.793886	0.419039
0	H	0.744531	0.702167	0.923067
0	H	0.243807	0.702127	0.546688
0	H	0.243913	0.291561	0.0469265
0	H	0.744292	0.291302	0.422462
0	H	0.103159	0.380029	0.226322
0	H	0.88462	0.379147	0.243528
0	H	0.885541	0.614143	0.744511
0	H	0.103574	0.614324	0.727293
0	H	0.599106	0.881676	0.224469
0	H	0.389116	0.88155	0.243222
0	H	0.389675	0.112122	0.744815
0	H	0.59931	0.112297	0.725482
0	C	0.839501	0.23266	0.704917
0	C	0.14924	0.233092	0.765774
0	C	0.148182	0.760624	0.264217
0	C	0.839492	0.760725	0.204622
0	C	0.343974	0.736249	0.704332
0	C	0.644572	0.736322	0.765371
0	C	0.643871	0.257399	0.264608
0	C	0.343955	0.257414	0.204193
0	C	0.21587	0.133829	0.536655
0	C	0.772655	0.132639	0.932005
0	C	0.772268	0.859573	0.433008
0	C	0.216002	0.861424	0.0374942
0	C	0.709771	0.636627	0.539138
0	C	0.278462	0.634622	0.928003
0	C	0.278097	0.357467	0.430055
0	C	0.709706	0.358443	0.0408092
0	C	0.0636723	0.313173	0.843293
0	C	0.924086	0.312319	0.626637
0	C	0.924805	0.681033	0.127465
0	C	0.0646619	0.681377	0.344462
0	C	0.561619	0.815773	0.84118
0	C	0.426043	0.815638	0.626659
0	C	0.426692	0.177943	0.128162
0	C	0.56253	0.178605	0.342778
0	C	0.199774	0.443028	0.50447
0	C	0.788163	0.442432	0.964866
0	C	0.789453	0.550891	0.466723
0	C	0.200398	0.551195	0.00639412
0	C	0.694095	0.942872	0.507517
0	C	0.293733	0.942302	0.959448
0	C	0.294691	0.0507904	0.461958
0	C	0.694643	0.051458	0.00924424
0	H	0.189282	0.133601	0.465571
0	H	0.799039	0.133569	0.00366076
0	H	0.798789	0.861481	0.504007
0	H	0.18961	0.860083	0.965999
0	H	0.682974	0.635986	0.468821
0	H	0.305027	0.634717	0.999124
0	H	0.304728	0.359788	0.500519
0	H	0.683021	0.357977	0.970179
0	H	0.231664	0.10844	0.532733
0	H	0.75817	0.106514	0.936371
0	H	0.75488	0.884065	0.434869
0	H	0.230141	0.887674	0.0322575
0	H	0.726021	0.611575	0.534479
0	H	0.263214	0.60889	0.931851
0	H	0.260342	0.381691	0.432118
0	H	0.72475	0.384189	0.0354987
0	H	0.233785	0.157069	0.525463
0	H	0.753415	0.154945	0.942078
0	H	0.755855	0.835462	0.446186
0	H	0.235498	0.83928	0.0279442
0	H	0.727034	0.660289	0.527435
0	H	0.260077	0.657468	0.93937
0	H	0.262234	0.333067	0.443858
0	H	0.728176	0.335597	0.0300019
0	H	0.0359522	0.311109	0.776447
0	H	0.951639	0.309648	0.693897
0	H	0.952471	0.684001	0.194117
0	H	0.0371069	0.684637	0.277571
0	H	0.534278	0.811368	0.774423
0	H	0.45306	0.810134	0.693656
0	H	0.453823	0.183258	0.194913
0	H	0.535488	0.184209	0.276014
0	H	0.080019	0.288185	0.838593
0	H	0.907186	0.287595	0.630047
0	H	0.907595	0.705509	0.131272
0	H	0.0820952	0.705763	0.341493
0	H	0.580868	0.79291	0.836717
0	H	0.405866	0.793383	0.629207
0	H	0.406598	0.200182	0.131555
0	H	0.582783	0.200778	0.340085
0	H	0.0796963	0.336896	0.825926
0	H	0.908469	0.336233	0.644739
0	H	0.909646	0.656862	0.145902
0	H	0.0796735	0.657146	0.325688
0	H	0.574802	0.841238	0.823091
0	H	0.413782	0.841451	0.646118
0	H	0.414409	0.152101	0.147145
0	H	0.574654	0.152744	0.323132
0	H	0.193549	0.415847	0.532696
0	H	0.795962	0.415668	0.937414
0	H	0.795966	0.577847	0.437503
0	H	0.19335	0.578308	0.0332045
0	H	0.688232	0.915535	0.535362
0	H	0.300932	0.915119	0.933613
0	H	0.300822	0.0780992	0.434507
0	H	0.688215	0.0788028	0.0357888
0	H	0.176274	0.461609	0.508194
0	H	0.81087	0.462109	0.962426
0	H	0.813025	0.532107	0.465346
0	H	0.177458	0.53208	0.0112307
0	H	0.670034	0.9609	0.510055
0	H	0.316817	0.961297	0.955008
0	H	0.318507	0.0325251	0.458823
0	H	0.670978	0.0330936	0.0130861
0	H	0.226519	0.453423	0.564923
0	H	0.761214	0.451863	0.903124
0	H	0.762909	0.540335	0.405739
0	H	0.227449	0.541581	0.0672711
0	H	0.72036	0.953628	0.569208
0	H	0.266881	0.951766	0.89742
0	H	0.268266	0.0403223	0.400308
0	H	0.721206	0.0413247	0.0711091
0	H	0.861798	0.216162	0.764351
0	H	0.126274	0.21763	0.705168
0	H	0.122743	0.771906	0.201016
0	H	0.863438	0.774647	0.266478
0	H	0.365741	0.719422	0.764286
0	H	0.622273	0.720223	0.704684
0	H	0.619891	0.271072	0.202208
0	H	0.367045	0.272381	0.265881
0	H	0.81138	0.219787	0.697587
0	H	0.176785	0.219141	0.772686
0	H	0.172872	0.778513	0.26654
0	H	0.812912	0.776198	0.199054
0	H	0.31544	0.724312	0.697454
0	H	0.672718	0.723574	0.771987
0	H	0.670487	0.272586	0.268225
0	H	0.31648	0.271346	0.198608
0	H	0.839477	0.259983	0.741709
0	H	0.150581	0.260498	0.730838
0	H	0.15414	0.73339	0.235709
0	H	0.836369	0.733284	0.236962
0	H	0.344852	0.763801	0.740329
0	H	0.644653	0.763955	0.730649
0	H	0.646694	0.229655	0.233884
0	H	0.34252	0.229701	0.236992
