#******************************************
#
# CIF file created by Zeo++
# Zeo++ is an open source package to
# analyze microporous materials
#
#*******************************************

_cell_length_a		39.0834(0)
_cell_length_b		38.9164(0)
_cell_length_c		8.93079(0)
_cell_angle_alpha		90(0)
_cell_angle_beta		90(0)
_cell_angle_gamma		90(0)

_symmetry_space_group_name_H-M		'P1'
_symmetry_Int_Tables_number		1
_symmetry_cell_setting		Monoclinic

loop_
_symmetry_equiv_pos_as_xyz
'+x,+y,+z'

loop_
_atom_site_label
_atom_site_type_symbol
_atom_site_fract_x
_atom_site_fract_y
_atom_site_fract_z
0	C	0.146543	0.83276	0.530128
0	C	0.354718	0.172726	0.0295657
0	C	0.921989	0.398663	0.7791
0	C	0.579819	0.606911	0.277574
0	C	0.855185	0.172774	0.534429
0	C	0.646776	0.833422	0.0323448
0	C	0.0794584	0.607315	0.283183
0	C	0.421806	0.398811	0.784423
0	C	0.647136	0.330987	0.0294363
0	C	0.854775	0.675144	0.52919
0	C	0.421848	0.899962	0.277013
0	C	0.0793447	0.106115	0.778135
0	C	0.354363	0.674829	0.0333014
0	C	0.146831	0.330669	0.533612
0	C	0.5797	0.105844	0.785652
0	C	0.922239	0.899781	0.284603
0	H	0.138413	0.834016	0.649267
0	H	0.36282	0.171494	0.148729
0	H	0.920734	0.390566	0.898345
0	H	0.581121	0.615051	0.39677
0	H	0.863385	0.171509	0.415352
0	H	0.638709	0.83473	0.91316
0	H	0.0807068	0.61542	0.163953
0	H	0.420512	0.390671	0.66524
0	H	0.639037	0.332194	0.148604
0	H	0.862954	0.673956	0.648292
0	H	0.420659	0.891814	0.396209
0	H	0.0804809	0.114239	0.89736
0	H	0.362451	0.673636	0.914116
0	H	0.138676	0.331871	0.414485
0	H	0.580897	0.113974	0.666434
0	H	0.921112	0.891676	0.165353
0	C	0.124378	0.807857	0.436484
0	C	0.376933	0.197581	0.935914
0	C	0.946684	0.376241	0.68572
0	C	0.554988	0.629229	0.184396
0	C	0.877303	0.197702	0.628141
0	C	0.624522	0.808527	0.125654
0	C	0.0547759	0.629732	0.376659
0	C	0.446623	0.376493	0.877682
0	C	0.624908	0.306157	0.93574
0	C	0.876921	0.7	0.435237
0	C	0.446677	0.877743	0.183335
0	C	0.0546458	0.128422	0.684206
0	C	0.3766	0.699654	0.127009
0	C	0.124675	0.305802	0.627448
0	C	0.554864	0.128082	0.879224
0	C	0.946937	0.877464	0.37849
0	H	0.104645	0.795587	0.507163
0	H	0.396687	0.209815	0.00661803
0	H	0.958828	0.356422	0.756642
0	H	0.5428	0.648982	0.255518
0	H	0.897096	0.209915	0.557588
0	H	0.604804	0.796317	0.0546999
0	H	0.0426263	0.649555	0.30578
0	H	0.458823	0.356737	0.8066
0	H	0.605171	0.293895	0.00643653
0	H	0.896691	0.71228	0.505709
0	H	0.458935	0.857974	0.254119
0	H	0.0424218	0.148253	0.754781
0	H	0.396327	0.711921	0.05627
0	H	0.104939	0.293507	0.556868
0	H	0.542599	0.147825	0.808313
0	H	0.959177	0.857654	0.307855
0	H	0.110447	0.821404	0.346404
0	H	0.390837	0.184001	0.845866
0	H	0.933137	0.362242	0.595836
0	H	0.568438	0.64329	0.0944303
0	H	0.891153	0.184192	0.718562
0	H	0.610571	0.822075	0.215659
0	H	0.0683346	0.643724	0.466539
0	H	0.433154	0.36243	0.967589
0	H	0.61098	0.319754	0.845818
0	H	0.890803	0.686422	0.34511
0	H	0.433213	0.863713	0.0933288
0	H	0.0682025	0.142384	0.594241
0	H	0.390538	0.686046	0.21687
0	H	0.11075	0.319373	0.71747
0	H	0.568327	0.142142	0.969159
0	H	0.933373	0.863474	0.468344
0	C	0.146889	0.77909	0.36492
0	C	0.354464	0.226384	0.86439
0	C	0.975404	0.398697	0.613854
0	C	0.526308	0.60667	0.112796
0	C	0.854747	0.226531	0.698984
0	C	0.646951	0.779693	0.197224
0	C	0.0260599	0.607269	0.448503
0	C	0.475295	0.399056	0.949392
0	C	0.647375	0.277383	0.863983
0	C	0.854383	0.728759	0.363775
0	C	0.475285	0.90041	0.111781
0	C	0.0260089	0.105843	0.612466
0	C	0.354136	0.728423	0.198825
0	C	0.147211	0.277062	0.699066
0	C	0.526263	0.105424	0.950867
0	C	0.975556	0.900045	0.450411
0	H	0.153218	0.758936	0.449213
0	H	0.348157	0.246521	0.948803
0	H	0.995521	0.405004	0.697989
0	H	0.506254	0.600301	0.197143
0	H	0.848472	0.24661	0.614272
0	H	0.653273	0.759571	0.112769
0	H	0.00594932	0.600964	0.364338
0	H	0.495368	0.405416	0.8651
0	H	0.653717	0.25723	0.948285
0	H	0.848079	0.748918	0.448098
0	H	0.495298	0.906864	0.196255
0	H	0.0059429	0.0994479	0.696751
0	H	0.347789	0.748574	0.114524
0	H	0.153556	0.256908	0.614782
0	H	0.506255	0.0989461	0.866404
0	H	0.995632	0.906459	0.3662
0	C	0.178501	0.795535	0.298708
0	C	0.322837	0.209997	0.798071
0	C	0.959148	0.430474	0.547356
0	C	0.542651	0.574934	0.0463268
0	C	0.823092	0.210135	0.76504
0	C	0.678572	0.796045	0.263796
0	C	0.0423188	0.575489	0.514958
0	C	0.458951	0.430801	0.0158129
0	C	0.678975	0.293816	0.797607
0	C	0.822758	0.712298	0.297774
0	C	0.458799	0.932079	0.0453512
0	C	0.0424247	0.0741356	0.546075
0	C	0.322539	0.711991	0.26522
0	C	0.17881	0.293551	0.76519
0	C	0.542756	0.07377	0.0174258
0	C	0.959123	0.931739	0.516861
0	H	0.185572	0.791026	0.182189
0	H	0.315793	0.214544	0.681554
0	H	0.963659	0.43747	0.430711
0	H	0.538126	0.567902	0.929778
0	H	0.815957	0.214716	0.88143
0	H	0.685598	0.791462	0.380303
0	H	0.0378145	0.568477	0.631582
0	H	0.463465	0.437848	0.132365
0	H	0.685979	0.289331	0.680998
0	H	0.815675	0.716771	0.18123
0	H	0.463262	0.939105	0.928759
0	H	0.0379899	0.0671377	0.429404
0	H	0.315539	0.716481	0.381829
0	H	0.185871	0.289094	0.881758
0	H	0.538295	0.066759	0.134035
0	H	0.963549	0.938727	0.63356
0	C	0.193422	0.818156	0.390915
0	C	0.307879	0.187378	0.890183
0	C	0.936674	0.445604	0.639356
0	C	0.565186	0.559887	0.138301
0	C	0.808228	0.187463	0.672915
0	C	0.69357	0.818668	0.171822
0	C	0.0647727	0.56036	0.422872
0	C	0.436432	0.445841	0.92376
0	C	0.69396	0.316391	0.889864
0	C	0.807859	0.689698	0.390134
0	C	0.436251	0.947028	0.137519
0	C	0.0648989	0.0591063	0.63835
0	C	0.307551	0.689418	0.172986
0	C	0.193729	0.316129	0.672779
0	C	0.56529	0.0588002	0.925275
0	C	0.936658	0.946772	0.424568
0	C	0.209077	0.852671	0.36063
0	C	0.292201	0.152879	0.859851
0	C	0.902354	0.461416	0.608852
0	C	0.599527	0.544109	0.107898
0	C	0.792538	0.152965	0.703203
0	C	0.70929	0.85314	0.202395
0	C	0.0990835	0.54453	0.453378
0	C	0.402091	0.461625	0.954102
0	C	0.709639	0.350897	0.859675
0	C	0.792202	0.655179	0.360043
0	C	0.401842	0.962704	0.107779
0	C	0.0992829	0.0433914	0.608511
0	C	0.291872	0.654912	0.203134
0	C	0.209393	0.350654	0.702767
0	C	0.599695	0.0431139	0.95504
0	C	0.902261	0.962477	0.454264
0	H	0.220237	0.855029	0.246046
0	H	0.28111	0.150528	0.745137
0	H	0.900035	0.472451	0.493941
0	H	0.601871	0.533021	0.993135
0	H	0.781324	0.150632	0.81769
0	H	0.720401	0.855443	0.317089
0	H	0.101399	0.533501	0.568304
0	H	0.399738	0.472748	0.0688056
0	H	0.720663	0.353287	0.744853
0	H	0.781115	0.65278	0.245334
0	H	0.39937	0.974007	0.993521
0	H	0.101724	0.0321619	0.494067
0	H	0.280845	0.652512	0.317946
0	H	0.220511	0.353067	0.817402
0	H	0.60217	0.0318116	0.0692822
0	H	0.899792	0.97375	0.568606
0	C	0.180072	0.878178	0.390447
0	C	0.321157	0.127333	0.889954
0	C	0.876844	0.432434	0.639483
0	C	0.625014	0.573138	0.138244
0	C	0.821516	0.127408	0.673654
0	C	0.680344	0.878713	0.172547
0	C	0.124601	0.57351	0.42275
0	C	0.376613	0.432589	0.923819
0	C	0.680702	0.376437	0.890202
0	C	0.821164	0.629655	0.390355
0	C	0.376475	0.933566	0.137872
0	C	0.124679	0.0724869	0.638895
0	C	0.320803	0.629373	0.172536
0	C	0.180416	0.376165	0.672528
0	C	0.625065	0.0722527	0.924928
0	C	0.876886	0.933366	0.423904
0	C	0.183348	0.913216	0.329918
0	C	0.31788	0.0922941	0.829443
0	C	0.841884	0.435863	0.57988
0	C	0.660007	0.56968	0.0790096
0	C	0.818142	0.0923552	0.733896
0	C	0.683627	0.91372	0.233422
0	C	0.159557	0.570067	0.482393
0	C	0.341625	0.436049	0.983139
0	C	0.684037	0.411548	0.830512
0	C	0.817776	0.594529	0.330923
0	C	0.341471	0.936905	0.0786246
0	C	0.159656	0.0691602	0.579371
0	C	0.317464	0.594257	0.232153
0	C	0.183783	0.411294	0.731983
0	C	0.660066	0.0689217	0.984223
0	C	0.841905	0.936666	0.483422
0	C	0.215036	0.926669	0.284933
0	C	0.286198	0.0788797	0.78421
0	C	0.828507	0.467747	0.535686
0	C	0.673423	0.537769	0.0354276
0	C	0.786405	0.0789644	0.778537
0	C	0.715316	0.927131	0.27861
0	C	0.172919	0.538175	0.526562
0	C	0.328208	0.467961	0.0267025
0	C	0.715761	0.425055	0.786418
0	C	0.786028	0.581066	0.286888
0	C	0.328027	0.968721	0.0339033
0	C	0.173046	0.03736	0.534113
0	C	0.285738	0.580753	0.276208
0	C	0.215522	0.424806	0.775877
0	C	0.673514	0.0371042	0.0289051
0	C	0.828478	0.968454	0.528629
0	H	0.238191	0.91119	0.296748
0	H	0.263053	0.0943834	0.795777
0	H	0.844039	0.490937	0.546965
0	H	0.657901	0.514581	0.0469963
0	H	0.763289	0.0944989	0.766665
0	H	0.738459	0.911633	0.266835
0	H	0.157386	0.514991	0.515179
0	H	0.343727	0.491147	0.0150542
0	H	0.738891	0.409531	0.798062
0	H	0.762921	0.596628	0.298435
0	H	0.343557	0.991938	0.0441501
0	H	0.157501	0.0141495	0.544173
0	H	0.262606	0.596279	0.264615
0	H	0.238647	0.409271	0.764249
0	H	0.657994	0.0138853	0.0185791
0	H	0.844005	0.991678	0.518622
0	C	0.217266	0.959809	0.225771
0	C	0.28395	0.0457364	0.725095
0	C	0.795363	0.470144	0.478162
0	C	0.706591	0.535343	0.978198
0	C	0.784071	0.0458021	0.837379
0	C	0.717563	0.960254	0.337951
0	C	0.206052	0.535768	0.584219
0	C	0.295045	0.470385	0.0839726
0	C	0.718063	0.458304	0.728424
0	C	0.783665	0.5478	0.229148
0	C	0.294806	0.971044	0.977204
0	C	0.206233	0.0350549	0.477001
0	C	0.283428	0.547492	0.334072
0	C	0.217848	0.458078	0.833598
0	C	0.706729	0.0347925	0.085688
0	C	0.795274	0.97073	0.585581
0	H	0.242065	0.969905	0.19152
0	H	0.259152	0.0356706	0.690687
0	H	0.785327	0.495107	0.444615
0	H	0.71664	0.51036	0.944997
0	H	0.759232	0.03575	0.871293
0	H	0.742363	0.970325	0.372314
0	H	0.216066	0.5108	0.617816
0	H	0.284989	0.495369	0.117102
0	H	0.742897	0.468423	0.694782
0	H	0.758811	0.537718	0.195604
0	H	0.284704	0.995968	0.943497
0	H	0.216288	0.0101446	0.442821
0	H	0.258589	0.537375	0.367647
0	H	0.242693	0.468203	0.867073
0	H	0.71683	0.00986729	0.119392
0	H	0.785179	0.995634	0.619624
0	C	0.187805	0.979833	0.209872
0	C	0.313388	0.0256682	0.709512
0	C	0.775275	0.440648	0.462931
0	C	0.72668	0.564834	0.96273
0	C	0.813475	0.0256985	0.853372
0	C	0.688113	0.980296	0.353818
0	C	0.22615	0.565259	0.599507
0	C	0.274974	0.440889	0.0996075
0	C	0.688635	0.478383	0.712857
0	C	0.813051	0.527656	0.213694
0	C	0.274719	0.941528	0.962845
0	C	0.226349	0.064563	0.462988
0	C	0.312848	0.527399	0.349585
0	C	0.188432	0.478176	0.849151
0	C	0.726809	0.0643141	0.100096
0	C	0.775196	0.941201	0.599648
0	H	0.189469	0.00563178	0.162884
0	H	0.311709	0.999861	0.662633
0	H	0.749479	0.442429	0.417182
0	H	0.752499	0.563026	0.917234
0	H	0.811728	0.999883	0.900128
0	H	0.689792	0.00608841	0.400866
0	H	0.251938	0.563468	0.645337
0	H	0.249158	0.442699	0.145133
0	H	0.690348	0.504268	0.666823
0	H	0.811291	0.50176	0.167808
0	H	0.248871	0.943253	0.917619
0	H	0.252171	0.0628513	0.417474
0	H	0.311129	0.501504	0.395498
0	H	0.190161	0.504077	0.895025
0	H	0.752654	0.0625916	0.145363
0	H	0.749362	0.942891	0.64505
0	C	0.156122	0.966935	0.255426
0	C	0.345069	0.0385278	0.755341
0	C	0.788131	0.40875	0.507471
0	C	0.713796	0.596755	0.00679692
0	C	0.845207	0.0385361	0.808129
0	C	0.656426	0.967438	0.308107
0	C	0.21331	0.59716	0.554918
0	C	0.287866	0.408962	0.0556592
0	C	0.656904	0.465415	0.757506
0	C	0.844804	0.540586	0.258272
0	C	0.287653	0.909689	0.0076991
0	C	0.213469	0.0963782	0.508458
0	C	0.344583	0.540371	0.304986
0	C	0.156689	0.465199	0.804736
0	C	0.713873	0.0961491	0.0552124
0	C	0.788121	0.909392	0.554348
0	H	0.133205	0.982738	0.243118
0	H	0.367968	0.0226829	0.743314
0	H	0.772284	0.385812	0.495678
0	H	0.729646	0.619692	0.994838
0	H	0.868077	0.0226641	0.820457
0	H	0.633516	0.983259	0.320395
0	H	0.229166	0.620095	0.566754
0	H	0.272027	0.386023	0.0677944
0	H	0.634026	0.481269	0.745523
0	H	0.867644	0.524679	0.2464
0	H	0.271818	0.886721	0.996518
0	H	0.229326	0.119337	0.497577
0	H	0.367457	0.524507	0.316923
0	H	0.13382	0.481062	0.816718
0	H	0.729705	0.119122	0.0664135
0	H	0.772293	0.886415	0.565301
0	C	0.15369	0.933879	0.316531
0	C	0.34752	0.0715912	0.816347
0	C	0.821179	0.406153	0.567017
0	C	0.680712	0.599384	0.0659124
0	C	0.847742	0.0716067	0.747263
0	C	0.653979	0.934398	0.246868
0	C	0.180269	0.599771	0.495331
0	C	0.320936	0.406341	0.996389
0	C	0.654395	0.432244	0.817301
0	C	0.847375	0.573769	0.317904
0	C	0.320764	0.907181	0.0666569
0	C	0.180381	0.0988799	0.567669
0	C	0.3471	0.573548	0.245279
0	C	0.154156	0.43201	0.745146
0	C	0.680765	0.0986504	0.996236
0	C	0.821212	0.906926	0.495152
0	C	0.119416	0.920262	0.36466
0	C	0.381793	0.0851798	0.864699
0	C	0.83477	0.371675	0.614273
0	C	0.667059	0.633889	0.11242
0	C	0.882066	0.0851402	0.699355
0	C	0.619701	0.920813	0.198611
0	C	0.166683	0.63425	0.44808
0	C	0.334596	0.371839	0.949879
0	C	0.620094	0.418486	0.864395
0	C	0.881706	0.587464	0.364939
0	C	0.334419	0.872753	0.11414
0	C	0.16678	0.13329	0.615739
0	C	0.381399	0.587315	0.198177
0	C	0.119837	0.418264	0.698266
0	C	0.667092	0.133071	0.948755
0	C	0.834857	0.872532	0.447118
0	H	0.102656	0.941517	0.404308
0	H	0.39853	0.0639107	0.904387
0	H	0.81364	0.354771	0.653574
0	H	0.68815	0.650859	0.151574
0	H	0.898755	0.0638481	0.659496
0	H	0.602916	0.942089	0.159424
0	H	0.187816	0.651161	0.408867
0	H	0.313505	0.354841	0.910985
0	H	0.60315	0.439651	0.903297
0	H	0.898542	0.566274	0.404545
0	H	0.313337	0.855908	0.15444
0	H	0.187892	0.15008	0.656215
0	H	0.398343	0.566149	0.159283
0	H	0.10294	0.439429	0.658987
0	H	0.688167	0.149944	0.908606
0	H	0.813765	0.855693	0.406897
0	H	0.106199	0.909482	0.264881
0	H	0.395055	0.0959619	0.765049
0	H	0.84556	0.358554	0.514241
0	H	0.65631	0.646886	0.0120175
0	H	0.895319	0.0958095	0.799284
0	H	0.606495	0.90993	0.298198
0	H	0.155872	0.64736	0.548095
0	H	0.345405	0.358867	0.0502146
0	H	0.607133	0.407527	0.764374
0	H	0.894749	0.598226	0.2647
0	H	0.34499	0.859539	0.0139246
0	H	0.156183	0.146594	0.515782
0	H	0.39436	0.59828	0.298194
0	H	0.106858	0.407419	0.798497
0	H	0.656478	0.146258	0.0489472
0	H	0.845529	0.859268	0.547021
0	C	0.122149	0.892957	0.487865
0	C	0.379017	0.112471	0.987945
0	C	0.861946	0.374367	0.737561
0	C	0.639813	0.631301	0.235471
0	C	0.879443	0.112525	0.576453
0	C	0.622458	0.893625	0.0749399
0	C	0.139522	0.631569	0.324734
0	C	0.361788	0.37444	0.826603
0	C	0.622835	0.391264	0.987969
0	C	0.879071	0.614863	0.487813
0	C	0.361825	0.875497	0.236418
0	C	0.139413	0.130476	0.738125
0	C	0.378653	0.614536	0.0745974
0	C	0.122499	0.390929	0.575141
0	C	0.639716	0.130317	0.826371
0	C	0.862168	0.87539	0.324507
0	H	0.0973828	0.879388	0.499277
0	H	0.403795	0.126004	0.999697
0	H	0.875353	0.349448	0.749367
0	H	0.626357	0.656211	0.246514
0	H	0.904246	0.126043	0.565348
0	H	0.597687	0.880083	0.0631391
0	H	0.126122	0.656491	0.312923
0	H	0.37522	0.349524	0.815333
0	H	0.598056	0.377744	0.999852
0	H	0.903868	0.628387	0.498964
0	H	0.375289	0.8506	0.247689
0	H	0.125977	0.155377	0.749896
0	H	0.403434	0.628053	0.0626784
0	H	0.0977153	0.377389	0.563836
0	H	0.626243	0.155208	0.815044
0	H	0.875601	0.850496	0.312445
0	H	0.126707	0.905864	0.598627
0	H	0.37436	0.099558	0.0985911
0	H	0.849095	0.379076	0.848244
0	H	0.652609	0.626748	0.346391
0	H	0.874898	0.0997016	0.465506
0	H	0.627067	0.906611	0.964427
0	H	0.152381	0.626854	0.21408
0	H	0.348944	0.379021	0.715839
0	H	0.627502	0.404233	0.0984968
0	H	0.874499	0.602038	0.598744
0	H	0.349152	0.880187	0.347512
0	H	0.152108	0.125666	0.849083
0	H	0.373975	0.601573	0.964075
0	H	0.127073	0.403795	0.464286
0	H	0.652409	0.125632	0.715328
0	H	0.849429	0.880235	0.213683
0	C	0.151095	0.868403	0.462509
0	C	0.350125	0.13707	0.962193
0	C	0.886498	0.403325	0.711704
0	C	0.615303	0.602285	0.210029
0	C	0.850546	0.137134	0.601871
0	C	0.651372	0.869026	0.100221
0	C	0.114954	0.602622	0.350536
0	C	0.386316	0.403447	0.851975
0	C	0.651724	0.36666	0.962252
0	C	0.850172	0.639455	0.462127
0	C	0.386296	0.904492	0.209939
0	C	0.114906	0.101533	0.711291
0	C	0.349771	0.639147	0.1004
0	C	0.151415	0.366352	0.600754
0	C	0.615248	0.101316	0.852779
0	C	0.88667	0.904337	0.351411
0	C	0.140001	0.734248	0.178307
0	C	0.361548	0.271522	0.679385
0	C	0.0200304	0.391431	0.42753
0	C	0.481452	0.613814	0.927201
0	C	0.861548	0.271537	0.884931
0	C	0.639838	0.734584	0.382355
0	C	0.981483	0.614431	0.635117
0	C	0.520105	0.391886	0.135224
0	C	0.640357	0.232348	0.678504
0	C	0.861168	0.773579	0.177035
0	C	0.520155	0.893675	0.926103
0	C	0.981392	0.112562	0.425884
0	C	0.36118	0.773475	0.384214
0	C	0.140399	0.232258	0.885864
0	C	0.481415	0.11214	0.136667
0	C	0.0201844	0.893211	0.636915
0	H	0.155216	0.719305	0.259525
0	H	0.346581	0.286416	0.761673
0	H	0.0349588	0.406665	0.508741
0	H	0.466719	0.598422	0.00851065
0	H	0.846397	0.286421	0.803282
0	H	0.654885	0.7197	0.300325
0	H	0.966578	0.599125	0.554084
0	H	0.53488	0.407252	0.0539724
0	H	0.655398	0.217438	0.760478
0	H	0.846025	0.788551	0.258413
0	H	0.534833	0.909082	0.00757117
0	H	0.966585	0.0971981	0.507084
0	H	0.346177	0.788399	0.302156
0	H	0.155623	0.217305	0.804714
0	H	0.466752	0.0966753	0.0553625
0	H	0.0350392	0.908516	0.555676
0	H	0.156777	0.743798	0.0875015
0	H	0.344565	0.262344	0.588603
0	H	0.0106699	0.4083	0.336517
0	H	0.490733	0.597101	0.835483
0	H	0.844708	0.262075	0.97568
0	H	0.656742	0.743827	0.473302
0	H	0.99094	0.597612	0.726118
0	H	0.510803	0.408618	0.226844
0	H	0.657279	0.241652	0.587743
0	H	0.844311	0.764007	0.0865672
0	H	0.51072	0.910431	0.83483
0	H	0.990989	0.0957368	0.335189
0	H	0.344223	0.764192	0.474884
0	H	0.157176	0.241872	0.976531
0	H	0.490905	0.0954326	0.228
0	H	0.0106347	0.910075	0.727571
0	C	0.109392	0.714383	0.11959
0	C	0.392265	0.291249	0.620832
0	C	0.0396433	0.360543	0.369211
0	C	0.461582	0.644676	0.87022
0	C	0.892141	0.291426	0.943692
0	C	0.609128	0.714801	0.440614
0	C	0.96178	0.64526	0.693446
0	C	0.539918	0.361005	0.19241
0	C	0.609684	0.212569	0.619887
0	C	0.891732	0.793414	0.117693
0	C	0.540186	0.862999	0.868343
0	C	0.961468	0.143192	0.367063
0	C	0.391864	0.793216	0.442988
0	C	0.109824	0.212377	0.9448
0	C	0.461328	0.142793	0.194293
0	C	0.040002	0.862516	0.695801
0	H	0.0912752	0.708655	0.20998
0	H	0.4108	0.296079	0.710621
0	H	0.0449903	0.342267	0.459717
0	H	0.456613	0.662996	0.960974
0	H	0.910156	0.297364	0.853172
0	H	0.590587	0.710062	0.350755
0	H	0.956412	0.663528	0.602929
0	H	0.545085	0.342766	0.101565
0	H	0.591081	0.207841	0.70952
0	H	0.909836	0.799346	0.207892
0	H	0.545382	0.844652	0.958745
0	H	0.956101	0.161572	0.457157
0	H	0.410348	0.798206	0.353166
0	H	0.0917249	0.206558	0.854448
0	H	0.456139	0.161121	0.103805
0	H	0.0455379	0.844232	0.605544
0	H	0.117411	0.690293	0.0666461
0	H	0.384464	0.315815	0.57157
0	H	0.0638119	0.368405	0.317279
0	H	0.437189	0.636797	0.82046
0	H	0.884079	0.3154	0.99751
0	H	0.616932	0.690178	0.489336
0	H	0.937614	0.63733	0.745201
0	H	0.564201	0.368884	0.243213
0	H	0.617516	0.187946	0.571242
0	H	0.883653	0.817384	0.0638853
0	H	0.564475	0.871094	0.818262
0	H	0.937277	0.135057	0.316155
0	H	0.384009	0.8177	0.492886
0	H	0.117884	0.188336	0.998069
0	H	0.437031	0.134671	0.244209
0	H	0.0640905	0.870599	0.747808
0	H	0.0954878	0.729447	0.0350149
0	H	0.405595	0.276516	0.53343
0	H	0.0246798	0.346753	0.283964
0	H	0.476153	0.658429	0.783577
0	H	0.906167	0.276268	0.0275703
0	H	0.595799	0.729436	0.528325
0	H	0.976687	0.659079	0.778804
0	H	0.525201	0.347159	0.27829
0	H	0.596414	0.227204	0.532006
0	H	0.905672	0.778224	0.03365
0	H	0.525618	0.84921	0.781806
0	H	0.976209	0.15695	0.28097
0	H	0.405272	0.778414	0.52994
0	H	0.095882	0.227478	0.029139
0	H	0.475852	0.156611	0.280898
0	H	0.0250913	0.848664	0.781041
0	C	0.264482	0.839689	0.471732
0	C	0.236676	0.165938	0.969516
0	C	0.915366	0.517279	0.71755
0	C	0.586337	0.488504	0.218934
0	C	0.737271	0.166112	0.591117
0	C	0.764703	0.839948	0.091909
0	C	0.0859299	0.488767	0.343968
0	C	0.415202	0.517245	0.842906
0	C	0.765222	0.337906	0.969089
0	C	0.736726	0.668172	0.470491
0	C	0.415126	0.0179565	0.221948
0	C	0.0860471	0.98798	0.721134
0	C	0.236334	0.667978	0.0934397
0	C	0.264786	0.337634	0.591519
0	C	0.586268	0.987982	0.839996
0	C	0.915428	0.0178848	0.341377
0	C	0.286	0.847493	0.603468
0	C	0.215006	0.15835	0.100955
0	C	0.907849	0.539188	0.848624
0	C	0.594293	0.466657	0.349715
0	C	0.715766	0.158265	0.459398
0	C	0.786373	0.847634	0.960573
0	C	0.0936546	0.466756	0.213443
0	C	0.407183	0.53907	0.712144
0	C	0.787008	0.345746	0.0999016
0	C	0.715036	0.660227	0.601511
0	C	0.40709	0.0393819	0.353904
0	C	0.0939002	0.966415	0.852863
0	C	0.214527	0.660101	0.962749
0	C	0.286435	0.345684	0.46046
0	C	0.594462	0.966519	0.708327
0	C	0.90758	0.0393628	0.209361
0	H	0.305766	0.82768	0.620364
0	H	0.194683	0.177711	0.114679
0	H	0.927382	0.559347	0.862725
0	H	0.575366	0.445902	0.362821
0	H	0.695888	0.177976	0.442792
0	H	0.806574	0.828167	0.946135
0	H	0.0741739	0.44655	0.199257
0	H	0.426083	0.559847	0.6989
0	H	0.807556	0.326605	0.11303
0	H	0.694844	0.679675	0.616628
0	H	0.425845	0.0602548	0.367997
0	H	0.0747328	0.945945	0.867668
0	H	0.193825	0.679093	0.950205
0	H	0.306518	0.326154	0.444535
0	H	0.575746	0.945618	0.694093
0	H	0.926742	0.0598315	0.194345
0	H	0.270908	0.84838	0.708563
0	H	0.229842	0.158441	0.20688
0	H	0.907656	0.524313	0.954567
0	H	0.593877	0.481445	0.455946
0	H	0.730833	0.157507	0.354202
0	H	0.771512	0.847786	0.854738
0	H	0.0939476	0.481532	0.107247
0	H	0.407556	0.52429	0.605911
0	H	0.772301	0.34546	0.206174
0	H	0.729908	0.659862	0.707305
0	H	0.407548	0.0243325	0.459428
0	H	0.0939653	0.981455	0.958393
0	H	0.229168	0.66058	0.856295
0	H	0.271504	0.346266	0.354858
0	H	0.594067	0.981517	0.602677
0	H	0.907526	0.0242689	0.103995
0	H	0.299225	0.872675	0.592478
0	H	0.202439	0.132781	0.092276
0	H	0.882555	0.552097	0.839118
0	H	0.619983	0.454542	0.340908
0	H	0.702667	0.133013	0.470128
0	H	0.799091	0.873115	0.969951
0	H	0.118955	0.453896	0.2237
0	H	0.381482	0.551155	0.721033
0	H	0.799259	0.371463	0.0909754
0	H	0.702342	0.634761	0.591112
0	H	0.38125	0.0512279	0.345716
0	H	0.119456	0.953994	0.843567
0	H	0.202463	0.634291	0.971331
0	H	0.299261	0.37107	0.471495
0	H	0.62031	0.954713	0.71695
0	H	0.882016	0.0517703	0.218489
0	C	0.14898	0.851667	0.0387168
0	C	0.352237	0.154186	0.537201
0	C	0.903217	0.400429	0.287115
0	C	0.598588	0.605042	0.786652
0	C	0.852576	0.154156	0.0249071
0	C	0.649284	0.851701	0.525378
0	C	0.0983112	0.605397	0.775368
0	C	0.40298	0.40084	0.275632
0	C	0.649199	0.349928	0.537176
0	C	0.852669	0.655936	0.0385657
0	C	0.402949	0.902148	0.78642
0	C	0.0983277	0.104084	0.286722
0	C	0.352284	0.65592	0.525454
0	C	0.148897	0.349932	0.0242437
0	C	0.598628	0.103671	0.276359
0	C	0.903211	0.901831	0.775944
0	H	0.140947	0.852171	0.158092
0	H	0.360314	0.153741	0.656566
0	H	0.902757	0.392306	0.40645
0	H	0.599046	0.613076	0.906114
0	H	0.860577	0.153675	0.905485
0	H	0.641206	0.852161	0.406015
0	H	0.0987925	0.613507	0.656022
0	H	0.402525	0.392826	0.15615
0	H	0.641122	0.350358	0.656534
0	H	0.860689	0.655494	0.157961
0	H	0.40256	0.894152	0.905934
0	H	0.0987371	0.112169	0.406109
0	H	0.360324	0.655505	0.406042
0	H	0.1409	0.350383	0.904823
0	H	0.599035	0.111652	0.156825
0	H	0.902816	0.893775	0.656522
0	C	0.140305	0.885296	0.955174
0	C	0.3608	0.120484	0.454006
0	C	0.869693	0.391793	0.203633
0	C	0.632093	0.613796	0.703312
0	C	0.861247	0.120502	0.108244
0	C	0.64072	0.885394	0.608652
0	C	0.131832	0.61404	0.858891
0	C	0.369466	0.392082	0.358895
0	C	0.640532	0.383599	0.453895
0	C	0.861429	0.622297	0.955238
0	C	0.369367	0.893445	0.703626
0	C	0.13191	0.11269	0.203659
0	C	0.360941	0.622227	0.608582
0	C	0.140114	0.383562	0.107601
0	C	0.6322	0.112385	0.359223
0	C	0.869615	0.893216	0.858871
0	H	0.12105	0.880908	0.866391
0	H	0.380027	0.124753	0.364986
0	H	0.874025	0.37258	0.114302
0	H	0.627742	0.633072	0.614252
0	H	0.880547	0.124844	0.196889
0	H	0.621484	0.881118	0.697623
0	H	0.127489	0.633257	0.948203
0	H	0.373799	0.372761	0.447783
0	H	0.62138	0.379252	0.36464
0	H	0.880642	0.626701	0.866286
0	H	0.373598	0.874069	0.614864
0	H	0.127665	0.131955	0.11446
0	H	0.380136	0.626532	0.697702
0	H	0.12088	0.379148	0.19645
0	H	0.627959	0.131758	0.447989
0	H	0.873832	0.873898	0.947876
0	H	0.128811	0.904137	0.0330801
0	H	0.372272	0.101666	0.532076
0	H	0.850979	0.380121	0.281339
0	H	0.650796	0.625432	0.781198
0	H	0.872678	0.101662	0.0301545
0	H	0.62925	0.904214	0.530586
0	H	0.150552	0.625709	0.781188
0	H	0.350751	0.380501	0.280912
0	H	0.628915	0.402369	0.531753
0	H	0.87301	0.603512	0.0331296
0	H	0.350663	0.881964	0.781948
0	H	0.150605	0.124277	0.28168
0	H	0.372497	0.603455	0.530578
0	H	0.128543	0.402346	0.0296739
0	H	0.650904	0.123875	0.280926
0	H	0.850916	0.881691	0.780692
0	C	0.172812	0.901627	0.882904
0	C	0.328211	0.10419	0.382282
0	C	0.853385	0.424554	0.132506
0	C	0.648437	0.581121	0.631654
0	C	0.828746	0.104203	0.180695
0	C	0.673308	0.901686	0.680421
0	C	0.148133	0.581281	0.930087
0	C	0.353152	0.424743	0.430808
0	C	0.673103	0.400032	0.382592
0	C	0.828942	0.605851	0.883309
0	C	0.353074	0.92609	0.631495
0	C	0.148222	0.0799614	0.132289
0	C	0.328375	0.605825	0.680059
0	C	0.172586	0.400014	0.179665
0	C	0.648499	0.0797401	0.431349
0	C	0.853327	0.925928	0.930501
0	H	0.187292	0.91718	0.966036
0	H	0.313706	0.0887804	0.465819
0	H	0.838133	0.439095	0.216472
0	H	0.663723	0.566538	0.715354
0	H	0.814213	0.0886953	0.0975848
0	H	0.687807	0.917108	0.596899
0	H	0.163393	0.566734	0.846175
0	H	0.337872	0.43936	0.347205
0	H	0.687574	0.415381	0.466456
0	H	0.814458	0.590393	0.966746
0	H	0.337801	0.940754	0.71497
0	H	0.163489	0.0653818	0.216082
0	H	0.313854	0.590514	0.596234
0	H	0.187078	0.415475	0.096264
0	H	0.663771	0.0650758	0.34787
0	H	0.838081	0.940547	0.846773
0	C	0.194349	0.873615	0.813279
0	C	0.306736	0.132211	0.312312
0	C	0.881275	0.446132	0.0624168
0	C	0.620587	0.559531	0.561335
0	C	0.807264	0.132226	0.250575
0	C	0.694789	0.873657	0.750291
0	C	0.120239	0.559706	0.000158637
0	C	0.381022	0.446298	0.501204
0	C	0.694638	0.372073	0.312425
0	C	0.807382	0.633799	0.813242
0	C	0.380945	0.947595	0.560867
0	C	0.120341	0.0584148	0.0620334
0	C	0.306892	0.6338	0.750446
0	C	0.194143	0.372062	0.249744
0	C	0.62063	0.0582322	0.501967
0	C	0.881222	0.947435	0.000923552
0	H	0.202819	0.875691	0.697462
0	H	0.298204	0.130079	0.196588
0	H	0.879149	0.454679	0.94673
0	H	0.622759	0.551027	0.445576
0	H	0.79883	0.130144	0.36644
0	H	0.703324	0.875772	0.866027
0	H	0.122361	0.55116	0.115851
0	H	0.378872	0.454775	0.61701
0	H	0.703171	0.374262	0.196745
0	H	0.798921	0.631641	0.697475
0	H	0.378772	0.956038	0.445008
0	H	0.122511	0.0498997	0.946326
0	H	0.29838	0.631603	0.866144
0	H	0.202593	0.374216	0.365531
0	H	0.622811	0.0497837	0.617812
0	H	0.879061	0.955922	0.116684
0	C	0.197843	0.845762	0.900157
0	C	0.303346	0.160127	0.398862
0	C	0.90907	0.449565	0.148967
0	C	0.592791	0.555991	0.647825
0	C	0.803755	0.160082	0.16373
0	C	0.698179	0.845754	0.663674
0	C	0.0924468	0.556274	0.91361
0	C	0.408802	0.449858	0.414626
0	C	0.698114	0.344143	0.398854
0	C	0.803804	0.661687	0.899884
0	C	0.408764	0.951127	0.647219
0	C	0.0925039	0.054992	0.148313
0	C	0.303416	0.661736	0.664059
0	C	0.197742	0.344185	0.163071
0	C	0.592811	0.0546997	0.415633
0	C	0.909049	0.950881	0.9146
0	C	0.19665	0.808365	0.859434
0	C	0.304597	0.197511	0.357882
0	C	0.946317	0.448378	0.108201
0	C	0.555546	0.557168	0.60704
0	C	0.804978	0.197481	0.204448
0	C	0.696938	0.808363	0.704539
0	C	0.0551982	0.557468	0.954333
0	C	0.446053	0.448668	0.455315
0	C	0.696985	0.306749	0.357901
0	C	0.804907	0.699084	0.858982
0	C	0.44599	0.949862	0.606199
0	C	0.05529	0.0562402	0.107105
0	C	0.304586	0.699131	0.705044
0	C	0.196645	0.306781	0.203869
0	C	0.555582	0.0559629	0.456613
0	C	0.946271	0.94962	0.955718
0	H	0.206432	0.802858	0.744456
0	H	0.294827	0.202992	0.242848
0	H	0.951826	0.458325	0.99343
0	H	0.550051	0.547305	0.492125
0	H	0.795216	0.203005	0.319424
0	H	0.706731	0.802853	0.819501
0	H	0.0496759	0.547522	0.0690761
0	H	0.45157	0.45852	0.570222
0	H	0.706807	0.301287	0.24292
0	H	0.795109	0.704539	0.743974
0	H	0.451485	0.959724	0.491323
0	H	0.049829	0.0463091	0.992324
0	H	0.294793	0.704604	0.820058
0	H	0.206456	0.301298	0.318828
0	H	0.550071	0.0461012	0.571468
0	H	0.951758	0.959543	0.0704876
0	C	0.159127	0.79854	0.881986
0	C	0.342133	0.207306	0.380361
0	C	0.956105	0.410685	0.130282
0	C	0.545718	0.59484	0.629673
0	C	0.842508	0.207276	0.181793
0	C	0.659399	0.798572	0.682133
0	C	0.0454181	0.595165	0.9322
0	C	0.455857	0.410988	0.432625
0	C	0.659473	0.296845	0.3803
0	C	0.84241	0.709001	0.881528
0	C	0.455756	0.912174	0.628782
0	C	0.0455264	0.0939438	0.129171
0	C	0.342102	0.709002	0.682476
0	C	0.159142	0.29687	0.181297
0	C	0.545815	0.0936513	0.43397
0	C	0.956013	0.911914	0.933565
0	C	0.146728	0.766973	0.809276
0	C	0.354546	0.238883	0.307772
0	C	0.987548	0.398294	0.0574261
0	C	0.514197	0.607249	0.55754
0	C	0.854947	0.238843	0.254374
0	C	0.646995	0.766984	0.75466
0	C	0.0139755	0.607573	0.00500577
0	C	0.48736	0.398542	0.5048
0	C	0.647153	0.265233	0.30769
0	C	0.854751	0.740582	0.808714
0	C	0.487232	0.899694	0.556495
0	C	0.0141158	0.10638	0.0562011
0	C	0.354477	0.740598	0.755066
0	C	0.146791	0.265284	0.254035
0	C	0.514327	0.106135	0.506154
0	C	0.987415	0.899448	0.00651959
0	C	0.169075	0.74078	0.764067
0	C	0.332192	0.265067	0.262524
0	C	0.0135525	0.420786	0.0119999
0	C	0.488161	0.584758	0.512288
0	C	0.832632	0.265075	0.299424
0	C	0.669349	0.740796	0.799878
0	C	0.987954	0.585097	0.0503311
0	C	0.513417	0.421004	0.550124
0	C	0.669571	0.239101	0.262458
0	C	0.832359	0.766735	0.763511
0	C	0.513299	0.922115	0.510888
0	C	0.988107	0.0839322	0.0104762
0	C	0.332101	0.766761	0.800346
0	C	0.169168	0.239113	0.299195
0	C	0.488251	0.0837203	0.551648
0	C	0.0134429	0.921873	0.0522986
0	H	0.196403	0.742448	0.789672
0	H	0.304855	0.263356	0.287846
0	H	0.011831	0.448246	0.037285
0	H	0.489958	0.557285	0.537143
0	H	0.8053	0.26344	0.273818
0	H	0.696687	0.74251	0.774563
0	H	0.989659	0.557638	0.0249835
0	H	0.511654	0.448481	0.525272
0	H	0.696904	0.240891	0.28772
0	H	0.805032	0.76502	0.789052
0	H	0.511552	0.949578	0.535722
0	H	0.989816	0.0564899	0.0357715
0	H	0.304759	0.765021	0.775147
0	H	0.196497	0.24082	0.273667
0	H	0.489994	0.0562554	0.526805
0	H	0.0117605	0.94932	0.0270471
0	C	0.156702	0.712134	0.686917
0	C	0.344574	0.293751	0.185651
0	C	0.042104	0.408412	0.93489
0	C	0.459474	0.597165	0.436218
0	C	0.845048	0.293733	0.376397
0	C	0.65697	0.712097	0.876644
0	C	0.959401	0.597485	0.127397
0	C	0.542079	0.408558	0.626252
0	C	0.65726	0.210375	0.185706
0	C	0.844694	0.795403	0.686373
0	C	0.541915	0.909609	0.43463
0	C	0.959595	0.0963606	0.933249
0	C	0.344469	0.795469	0.877105
0	C	0.156818	0.210432	0.376177
0	C	0.459615	0.0962282	0.627787
0	C	0.0419443	0.909408	0.129497
0	H	0.174842	0.692347	0.651301
0	H	0.326418	0.313516	0.149924
0	H	0.0617339	0.426681	0.899042
0	H	0.439808	0.5789	0.400665
0	H	0.826931	0.313552	0.411869
0	H	0.675119	0.692318	0.912288
0	H	0.939746	0.579231	0.163068
0	H	0.56176	0.426798	0.661871
0	H	0.675452	0.190622	0.150084
0	H	0.826522	0.815172	0.650793
0	H	0.561639	0.927795	0.398574
0	H	0.939913	0.0781398	0.897083
0	H	0.326309	0.815245	0.912786
0	H	0.174971	0.190635	0.41165
0	H	0.439876	0.078042	0.663666
0	H	0.0616366	0.927611	0.165729
0	C	0.121834	0.709274	0.655212
0	C	0.379458	0.296677	0.154392
0	C	0.0450674	0.373382	0.903587
0	C	0.456409	0.632218	0.405686
0	C	0.879919	0.29656	0.408071
0	C	0.622085	0.709169	0.907906
0	C	0.956475	0.632508	0.158881
0	C	0.545104	0.373498	0.656729
0	C	0.622385	0.207364	0.154402
0	C	0.879554	0.798319	0.654625
0	C	0.54491	0.874541	0.404374
0	C	0.956672	0.131394	0.902066
0	C	0.379352	0.798425	0.908348
0	C	0.121955	0.207532	0.407906
0	C	0.456633	0.131292	0.658145
0	C	0.044843	0.874364	0.160536
0	H	0.112269	0.687426	0.591663
0	H	0.389035	0.318577	0.0912165
0	H	0.0668608	0.363809	0.840201
0	H	0.434507	0.641823	0.343118
0	H	0.889517	0.318416	0.471475
0	H	0.61251	0.687257	0.971003
0	H	0.934685	0.642085	0.222284
0	H	0.566988	0.363862	0.719333
0	H	0.612867	0.185426	0.0912908
0	H	0.889085	0.820184	0.59107
0	H	0.566765	0.864874	0.341657
0	H	0.934912	0.140995	0.838526
0	H	0.388915	0.820343	0.971472
0	H	0.112414	0.185654	0.471348
0	H	0.434768	0.140957	0.720811
0	H	0.0665983	0.86473	0.224025
0	C	0.0990677	0.734576	0.704807
0	C	0.40222	0.271362	0.203912
0	C	0.0199223	0.35048	0.953286
0	C	0.481579	0.65512	0.455223
0	C	0.902649	0.271209	0.358608
0	C	0.59932	0.734483	0.858431
0	C	0.981641	0.655399	0.109247
0	C	0.519916	0.35063	0.607126
0	C	0.599557	0.232624	0.203835
0	C	0.902358	0.773042	0.704156
0	C	0.519731	0.851714	0.454387
0	C	0.981804	0.15426	0.952221
0	C	0.402132	0.773127	0.858845
0	C	0.0991632	0.23282	0.358423
0	C	0.481827	0.154118	0.608225
0	C	0.0196941	0.851529	0.110337
0	H	0.0718669	0.731982	0.681361
0	H	0.429429	0.273999	0.180739
0	H	0.0225869	0.323164	0.930025
0	H	0.478833	0.682462	0.432676
0	H	0.929855	0.27378	0.382024
0	H	0.572111	0.731844	0.881588
0	H	0.978995	0.68271	0.132627
0	H	0.522631	0.323284	0.629635
0	H	0.572355	0.229923	0.180637
0	H	0.929553	0.775674	0.680642
0	H	0.522436	0.824357	0.432162
0	H	0.979152	0.181586	0.929211
0	H	0.429342	0.775785	0.881992
0	H	0.0719648	0.230197	0.381886
0	H	0.479127	0.181474	0.630506
0	H	0.0223258	0.824196	0.133246
0	C	0.111194	0.763204	0.783406
0	C	0.390084	0.242669	0.282008
0	C	0.991385	0.362615	0.0316664
0	C	0.510259	0.642952	0.532627
0	C	0.890489	0.242575	0.280195
0	C	0.611457	0.763183	0.780357
0	C	0.0101581	0.643254	0.0307774
0	C	0.491254	0.362833	0.529695
0	C	0.611624	0.261345	0.281967
0	C	0.890279	0.744403	0.782782
0	C	0.491101	0.863976	0.531851
0	C	0.0102928	0.14207	0.0307628
0	C	0.390016	0.74443	0.780727
0	C	0.111259	0.261463	0.279853
0	C	0.510454	0.141855	0.530765
0	C	0.991208	0.863751	0.0318754
0	C	0.0868178	0.790347	0.838521
0	C	0.414455	0.215465	0.336583
0	C	0.964368	0.338095	0.0864353
0	C	0.537264	0.667477	0.5876
0	C	0.914818	0.215387	0.225127
0	C	0.587076	0.790376	0.725779
0	C	0.0371707	0.667764	0.975858
0	C	0.464224	0.338344	0.474725
0	C	0.587172	0.288457	0.336716
0	C	0.914696	0.717309	0.838011
0	C	0.464079	0.83953	0.587208
0	C	0.0372647	0.166556	0.0862114
0	C	0.414413	0.717277	0.725896
0	C	0.0868497	0.288552	0.224528
0	C	0.537471	0.1663	0.475312
0	C	0.964207	0.8393	0.976453
0	H	0.0614915	0.779057	0.864741
0	H	0.439788	0.226728	0.362928
0	H	0.975613	0.312657	0.112577
0	H	0.525949	0.69284	0.614543
0	H	0.940165	0.226632	0.19891
0	H	0.561749	0.779107	0.699406
0	H	0.0259216	0.693198	0.949661
0	H	0.475495	0.312957	0.447872
0	H	0.561872	0.277111	0.362985
0	H	0.940012	0.728644	0.86409
0	H	0.475351	0.814151	0.614236
0	H	0.0259725	0.191954	0.11272
0	H	0.439729	0.728582	0.699602
0	H	0.0615347	0.277221	0.198444
0	H	0.526186	0.191668	0.448201
0	H	0.975454	0.813878	0.950019
0	H	0.0821844	0.808992	0.746459
0	H	0.419085	0.196904	0.244193
0	H	0.945853	0.333455	0.994201
0	H	0.555712	0.67229	0.49526
0	H	0.91941	0.196734	0.317195
0	H	0.582433	0.808931	0.818192
0	H	0.0557024	0.67242	0.0680122
0	H	0.445754	0.333571	0.567026
0	H	0.582484	0.307045	0.244489
0	H	0.919339	0.698627	0.746116
0	H	0.445596	0.834732	0.494998
0	H	0.0558084	0.171302	0.994204
0	H	0.419072	0.698667	0.818068
0	H	0.0822017	0.307251	0.316358
0	H	0.55596	0.171119	0.567484
0	H	0.945643	0.834598	0.0684316
0	C	0.10049	0.809284	0.977067
0	C	0.400808	0.196396	0.474816
0	C	0.945419	0.351758	0.22486
0	C	0.556313	0.65369	0.725518
0	C	0.901121	0.196468	0.0865924
0	C	0.600725	0.809462	0.587589
0	C	0.0560949	0.654075	0.837419
0	C	0.445205	0.352149	0.336764
0	C	0.600785	0.307494	0.475108
0	C	0.901059	0.698423	0.976748
0	C	0.445104	0.853397	0.725162
0	C	0.0561449	0.152794	0.224628
0	C	0.40076	0.698277	0.587495
0	C	0.100512	0.307409	0.0857591
0	C	0.556438	0.152414	0.337371
0	C	0.945352	0.853081	0.838008
0	H	0.0841957	0.831894	0.00113687
0	H	0.417055	0.173703	0.498073
0	H	0.922896	0.335371	0.248478
0	H	0.578817	0.670091	0.749298
0	H	0.917381	0.173831	0.062528
0	H	0.584467	0.832147	0.564351
0	H	0.0786094	0.670461	0.813645
0	H	0.422683	0.335775	0.312977
0	H	0.584442	0.330087	0.498844
0	H	0.9174	0.675865	0.00112214
0	H	0.422583	0.837041	0.749157
0	H	0.0786458	0.169176	0.248705
0	H	0.417059	0.675652	0.56372
0	H	0.0841612	0.329946	0.0611643
0	H	0.578951	0.168777	0.313262
0	H	0.922839	0.836722	0.813894
0	H	0.0986559	0.792164	0.0781305
0	H	0.40276	0.213381	0.576271
0	H	0.962404	0.349877	0.326111
0	H	0.539362	0.655412	0.826959
0	H	0.902974	0.213577	0.985507
0	H	0.598782	0.792494	0.486084
0	H	0.0390889	0.655941	0.736246
0	H	0.462154	0.350401	0.235331
0	H	0.598964	0.290416	0.576321
0	H	0.902832	0.715611	0.0776151
0	H	0.462096	0.851697	0.826492
0	H	0.0390801	0.154575	0.325687
0	H	0.402599	0.71535	0.486272
0	H	0.0987815	0.290193	0.984974
0	H	0.539437	0.154087	0.23607
0	H	0.962414	0.851289	0.736952
0	C	0.137363	0.819006	0.959682
0	C	0.363896	0.186788	0.457805
0	C	0.935725	0.388793	0.207793
0	C	0.566064	0.616693	0.707577
0	C	0.864237	0.186792	0.104008
0	C	0.637632	0.819084	0.604682
0	C	0.0657938	0.617042	0.854585
0	C	0.435494	0.389158	0.354703
0	C	0.637648	0.317275	0.457864
0	C	0.864212	0.688603	0.959364
0	C	0.435403	0.8904	0.70704
0	C	0.0658694	0.115778	0.207177
0	C	0.363884	0.688551	0.6048
0	C	0.137349	0.317255	0.103342
0	C	0.566159	0.115419	0.355621
0	C	0.935658	0.890105	0.855502
0	C	0.182663	0.948086	0.703169
0	C	0.318079	0.0576919	0.203106
0	C	0.807001	0.434945	0.953905
0	C	0.695053	0.571131	0.453783
0	C	0.818901	0.0576817	0.3601
0	C	0.68343	0.948163	0.859723
0	C	0.194531	0.570948	0.108751
0	C	0.306551	0.434719	0.608751
0	C	0.683179	0.446705	0.204091
0	C	0.819123	0.559194	0.704425
0	C	0.306527	0.935962	0.453126
0	C	0.19458	0.0697525	0.953242
0	C	0.318312	0.55913	0.858478
0	C	0.182359	0.446687	0.358492
0	C	0.695053	0.0699023	0.60978
0	C	0.80697	0.936115	0.109543
0	H	0.169754	0.95428	0.595924
0	H	0.330827	0.0515342	0.0954459
0	H	0.801014	0.422353	0.8456
0	H	0.701275	0.583946	0.346251
0	H	0.83181	0.0514553	0.467311
0	H	0.67063	0.954368	0.967216
0	H	0.200564	0.5836	0.21688
0	H	0.30035	0.421895	0.716286
0	H	0.670467	0.452819	0.0962979
0	H	0.831902	0.55314	0.596731
0	H	0.300427	0.9231	0.345575
0	H	0.200464	0.0824063	0.844972
0	H	0.331039	0.553017	0.966239
0	H	0.169516	0.452817	0.46596
0	H	0.701204	0.0828253	0.717143
0	H	0.801103	0.923447	0.217802
0	H	0.207191	0.935146	0.67936
0	H	0.293559	0.0707211	0.180084
0	H	0.819978	0.459624	0.932116
0	H	0.682232	0.546437	0.430518
0	H	0.794376	0.0706214	0.383976
0	H	0.70792	0.935108	0.883061
0	H	0.181558	0.546284	0.130897
0	H	0.319388	0.459406	0.631989
0	H	0.707749	0.433749	0.181332
0	H	0.794501	0.572038	0.68149
0	H	0.31939	0.960636	0.429899
0	H	0.181622	0.0450692	0.931367
0	H	0.293751	0.572099	0.881292
0	H	0.206954	0.433833	0.38186
0	H	0.682177	0.0452538	0.633379
0	H	0.819941	0.960792	0.13142
0	C	0.186761	0.979289	0.803509
0	C	0.314002	0.0264301	0.30311
0	C	0.775737	0.438832	0.0532661
0	C	0.726074	0.567186	0.554595
0	C	0.814789	0.0265093	0.2596
0	C	0.687586	0.979389	0.759569
0	C	0.225759	0.566995	0.00921056
0	C	0.275503	0.438676	0.508112
0	C	0.687125	0.478013	0.303978
0	C	0.815279	0.527873	0.804298
0	C	0.275383	0.939958	0.55316
0	C	0.225932	0.0658563	0.0520639
0	C	0.314331	0.52782	0.75864
0	C	0.186284	0.477943	0.25829
0	C	0.726155	0.0658167	0.509563
0	C	0.775602	0.940023	0.0108373
0	H	0.162451	0.993469	0.814094
0	H	0.338282	0.0121704	0.312965
0	H	0.761591	0.414411	0.0623702
0	H	0.740316	0.591539	0.56415
0	H	0.839045	0.0122169	0.249515
0	H	0.66331	0.993642	0.749318
0	H	0.240031	0.59135	0.000474892
0	H	0.261282	0.414313	0.498484
0	H	0.662833	0.492246	0.313569
0	H	0.839548	0.513572	0.813124
0	H	0.260977	0.91568	0.561668
0	H	0.240423	0.0901173	0.0589595
0	H	0.338569	0.513482	0.749483
0	H	0.162015	0.492223	0.248903
0	H	0.740714	0.0900125	0.501474
0	H	0.761122	0.915756	0.00389936
0	H	0.205755	0.997252	0.758356
0	H	0.294896	0.00856393	0.258156
0	H	0.757916	0.457987	0.00830881
0	H	0.743901	0.547913	0.510664
0	H	0.795658	0.0086271	0.30423
0	H	0.706663	0.997269	0.804673
0	H	0.243486	0.547697	0.0537421
0	H	0.257665	0.457917	0.552234
0	H	0.70621	0.495913	0.259102
0	H	0.796084	0.510022	0.759989
0	H	0.257731	0.959399	0.509275
0	H	0.243439	0.0462765	0.00821038
0	H	0.295131	0.510009	0.803219
0	H	0.205436	0.495831	0.302702
0	H	0.743691	0.0462155	0.552984
0	H	0.75809	0.959581	0.0548306
0	H	0.194665	0.972156	0.917227
0	H	0.306255	0.0334997	0.41711
0	H	0.782607	0.446492	0.167651
0	H	0.718893	0.559597	0.668692
0	H	0.807057	0.0336911	0.145706
0	H	0.695409	0.972282	0.645717
0	H	0.218825	0.559481	0.894717
0	H	0.282648	0.446299	0.394013
0	H	0.694824	0.471	0.418111
0	H	0.807784	0.534893	0.91869
0	H	0.282434	0.947335	0.667694
0	H	0.219115	0.0587584	0.167203
0	H	0.306766	0.534844	0.644343
0	H	0.193878	0.470854	0.144104
0	H	0.719035	0.058606	0.394911
0	H	0.78239	0.947144	0.895685
0	C	0.250229	0.789529	0.974812
0	C	0.250998	0.216353	0.472932
0	C	0.965783	0.502191	0.220821
0	C	0.536319	0.503371	0.721441
0	C	0.751445	0.216163	0.0879239
0	C	0.750499	0.789564	0.588985
0	C	0.0358184	0.503696	0.840776
0	C	0.465139	0.502452	0.340317
0	C	0.750621	0.287672	0.472077
0	C	0.751287	0.718063	0.97386
0	C	0.464239	0.0033421	0.726413
0	C	0.0369331	0.00274059	0.226539
0	C	0.250974	0.718061	0.590062
0	C	0.250232	0.28785	0.0884223
0	C	0.537391	0.00252432	0.335604
0	C	0.964537	0.00310456	0.83587
0	C	0.262863	0.766104	0.0928098
0	C	0.238296	0.239636	0.591342
0	C	0.988361	0.514915	0.341472
0	C	0.513077	0.490784	0.839994
0	C	0.738889	0.23966	0.970018
0	C	0.763154	0.766248	0.470599
0	C	0.0130284	0.491091	0.720622
0	C	0.488463	0.515019	0.222003
0	C	0.763313	0.264362	0.590423
0	C	0.738664	0.741595	0.0915067
0	C	0.488131	0.0156911	0.842932
0	C	0.0132867	0.990381	0.343967
0	C	0.238314	0.741493	0.472111
0	C	0.262793	0.264258	0.970877
0	C	0.513382	0.990257	0.219365
0	C	0.988169	0.015466	0.718387
0	H	0.287265	0.753854	0.0613227
0	H	0.213701	0.251594	0.560616
0	H	0.000579626	0.539527	0.311805
0	H	0.501256	0.465995	0.810059
0	H	0.714447	0.251863	0.00126946
0	H	0.787752	0.754286	0.501263
0	H	0.000824843	0.466476	0.750323
0	H	0.500411	0.539723	0.252339
0	H	0.787946	0.25246	0.55988
0	H	0.714216	0.753756	0.0600676
0	H	0.500058	0.0403616	0.811838
0	H	0.00106188	0.965865	0.312794
0	H	0.213738	0.753464	0.503081
0	H	0.287188	0.252006	0.00246724
0	H	0.501552	0.96552	0.250181
0	H	0.000483416	0.0399308	0.749741
0	H	0.244633	0.745258	0.120499
0	H	0.256346	0.260679	0.618492
0	H	0.00902527	0.496688	0.371211
0	H	0.492053	0.508908	0.866154
0	H	0.757121	0.260534	0.942822
0	H	0.745091	0.745203	0.443696
0	H	0.992336	0.509342	0.691698
0	H	0.5094	0.496815	0.195623
0	H	0.745293	0.243278	0.61727
0	H	0.756866	0.762499	0.118689
0	H	0.509108	0.997373	0.867325
0	H	0.992549	0.0088077	0.370156
0	H	0.256399	0.762528	0.445338
0	H	0.244526	0.243419	0.943689
0	H	0.492331	0.0085401	0.195873
0	H	0.00883687	0.996986	0.691802
0	H	0.267379	0.780492	0.198586
0	H	0.23413	0.225185	0.697234
0	H	0.973392	0.519268	0.445757
0	H	0.527369	0.486853	0.946328
0	H	0.734459	0.225332	0.864023
0	H	0.76729	0.78066	0.364586
0	H	0.0278205	0.486787	0.615816
0	H	0.474203	0.519114	0.115715
0	H	0.767407	0.278769	0.696501
0	H	0.734214	0.727301	0.197586
0	H	0.474322	0.0198248	0.950327
0	H	0.0273973	0.985929	0.450429
0	H	0.234099	0.727165	0.365934
0	H	0.26732	0.278512	0.864753
0	H	0.527053	0.986288	0.111505
0	H	0.974029	0.0200246	0.6121
0	O	0.18081	0.81767	0.540343
0	O	0.320465	0.187854	0.039618
0	O	0.937128	0.433028	0.788926
0	O	0.564755	0.572518	0.287806
0	O	0.820931	0.187878	0.523628
0	O	0.681015	0.818261	0.0223409
0	O	0.0643162	0.572949	0.273328
0	O	0.436875	0.433206	0.774266
0	O	0.681389	0.315857	0.0393192
0	O	0.82051	0.690234	0.539502
0	O	0.43682	0.934406	0.28704
0	O	0.0643037	0.0716975	0.787896
0	O	0.320107	0.689959	0.0235003
0	O	0.181097	0.315576	0.523389
0	O	0.564727	0.0713979	0.775713
0	O	0.937276	0.934203	0.274987
0	O	0.125286	0.764355	0.251282
0	O	0.376062	0.241105	0.750693
0	O	0.989937	0.376878	0.50031
0	O	0.51163	0.628408	0.999337
0	O	0.876285	0.241357	0.812629
0	O	0.625301	0.764946	0.310677
0	O	0.0114971	0.629076	0.562029
0	O	0.489945	0.37731	0.0628916
0	O	0.62576	0.262656	0.750379
0	O	0.875939	0.743493	0.249966
0	O	0.490112	0.878792	0.998296
0	O	0.011287	0.127507	0.49887
0	O	0.375757	0.743147	0.312423
0	O	0.12562	0.262308	0.812684
0	O	0.511411	0.12706	0.0642272
0	O	0.99025	0.878348	0.563949
0	O	0.235871	0.860613	0.470303
0	O	0.265302	0.145023	0.969184
0	O	0.894558	0.488532	0.717757
0	O	0.607409	0.517057	0.216949
0	O	0.765766	0.145033	0.593379
0	O	0.736183	0.861012	0.0930618
0	O	0.106908	0.517388	0.344637
0	O	0.394204	0.488647	0.844912
0	O	0.736573	0.358781	0.968756
0	O	0.765335	0.647256	0.469378
0	O	0.393944	0.989509	0.217969
0	O	0.10714	0.0165004	0.718352
0	O	0.26493	0.64703	0.0940881
0	O	0.236214	0.358601	0.593259
0	O	0.607617	0.0162964	0.844955
0	O	0.894408	0.989309	0.344155
0	O	0.269287	0.818623	0.373607
0	O	0.23196	0.186847	0.870658
0	O	0.936154	0.521948	0.618516
0	O	0.565032	0.483963	0.121926
0	O	0.732526	0.187335	0.688668
0	O	0.769328	0.818828	0.189991
0	O	0.064834	0.484261	0.441897
0	O	0.436515	0.521837	0.939932
0	O	0.769855	0.316839	0.8708
0	O	0.732039	0.689326	0.372576
0	O	0.436535	0.0227088	0.125607
0	O	0.0648225	0.983252	0.623997
0	O	0.231746	0.689128	0.191435
0	O	0.269467	0.31635	0.688843
0	O	0.564596	0.983355	0.935319
0	O	0.93659	0.0227087	0.438695
0	O	0.186344	0.849786	0.0499217
0	O	0.314883	0.156158	0.548654
0	O	0.905116	0.437946	0.298714
0	O	0.596741	0.567512	0.797717
0	O	0.815208	0.156063	0.0138946
0	O	0.686638	0.849735	0.513892
0	O	0.096406	0.567879	0.763839
0	O	0.40484	0.438371	0.264696
0	O	0.686558	0.348066	0.548652
0	O	0.8153	0.657737	0.0497006
0	O	0.404871	0.939681	0.79724
0	O	0.0963786	0.0665629	0.298157
0	O	0.314922	0.657815	0.514188
0	O	0.18627	0.348142	0.0132244
0	O	0.596707	0.0661364	0.265599
0	O	0.905169	0.939356	0.764696
0	O	0.15884	0.923804	0.768463
0	O	0.342068	0.0818242	0.268288
0	O	0.830973	0.410743	0.018799
0	O	0.670788	0.59511	0.518106
0	O	0.842732	0.0819698	0.294895
0	O	0.659447	0.924038	0.794458
0	O	0.170536	0.595114	0.0437922
0	O	0.330786	0.410734	0.544246
0	O	0.659224	0.422501	0.269023
0	O	0.84294	0.583526	0.769461
0	O	0.330722	0.912016	0.518174
0	O	0.170595	0.0938683	0.0186357
0	O	0.342273	0.58331	0.793412
0	O	0.158563	0.422334	0.293473
0	O	0.670851	0.0938274	0.54465
0	O	0.830929	0.911996	0.0439808
0	O	0.21511	0.786673	0.965638
0	O	0.286119	0.219218	0.463998
0	O	0.96776	0.46682	0.215379
0	O	0.53396	0.538683	0.713532
0	O	0.786529	0.2192	0.0983059
0	O	0.715387	0.78667	0.598272
0	O	0.0337249	0.539049	0.847233
0	O	0.467642	0.467152	0.348845
0	O	0.715464	0.285077	0.464164
0	O	0.786423	0.720794	0.965036
0	O	0.467769	0.96824	0.712196
0	O	0.0335555	0.0378895	0.213359
0	O	0.286099	0.720844	0.598968
0	O	0.215107	0.285076	0.0977233
0	O	0.533788	0.0375988	0.350649
0	O	0.967995	0.967969	0.849418
0	O	0.266039	0.808689	0.892865
0	O	0.235215	0.197278	0.390541
0	O	0.947825	0.518092	0.134232
0	O	0.555006	0.487374	0.638246
0	O	0.735588	0.196806	0.1688
0	O	0.766314	0.808685	0.671071
0	O	0.0539973	0.487711	0.926208
0	O	0.44628	0.518439	0.422791
0	O	0.766418	0.306571	0.388972
0	O	0.735463	0.698903	0.892008
0	O	0.444275	0.0193524	0.649162
0	O	0.0565594	0.986724	0.147703
0	O	0.235156	0.698927	0.672034
0	O	0.266094	0.307081	0.169852
0	O	0.557483	0.986457	0.412007
0	O	0.944828	0.0191072	0.914374
