#******************************************
#
# CIF file created by Zeo++
# Zeo++ is an open source package to
# analyze microporous materials
#
#*******************************************

_cell_length_a		42.947(0)
_cell_length_b		43.2403(0)
_cell_length_c		8.04609(0)
_cell_angle_alpha		90(0)
_cell_angle_beta		90(0)
_cell_angle_gamma		120.879(0)

_symmetry_space_group_name_H-M		'P1'
_symmetry_Int_Tables_number		1
_symmetry_cell_setting		Monoclinic

loop_
_symmetry_equiv_pos_as_xyz
'+x,+y,+z'

loop_
_atom_site_label
_atom_site_type_symbol
_atom_site_fract_x
_atom_site_fract_y
_atom_site_fract_z
0	S	0.958639	0.35974	0.71954
0	S	0.662042	0.601115	0.79849
0	S	0.416479	0.0516646	0.702427
0	S	0.0730077	0.665988	0.0990512
0	S	0.353202	0.405192	0.100254
0	S	0.617542	0.950142	0.0956356
0	S	0.627335	0.692548	0.082243
0	S	0.331554	0.933996	0.0808045
0	S	0.0850874	0.38833	0.0750018
0	S	0.739483	0.999637	0.423404
0	S	0.0243688	0.740383	0.428644
0	S	0.277522	0.281284	0.43245
0	S	0.287444	0.023903	0.383784
0	S	0.990211	0.264548	0.391075
0	S	0.758387	0.724969	0.3925
0	S	0.403234	0.330517	0.759065
0	S	0.684801	0.0706865	0.754502
0	S	0.949809	0.615351	0.761492
0	S	0.938397	0.359504	0.137242
0	S	0.653421	0.571983	0.206033
0	S	0.437257	0.0747656	0.118088
0	S	0.101429	0.6656	0.696512
0	S	0.355773	0.435576	0.698899
0	S	0.58739	0.920727	0.694723
0	S	0.604012	0.693441	0.494485
0	S	0.32939	0.909659	0.493533
0	S	0.109966	0.410558	0.487488
0	S	0.770501	0.998224	0.0271885
0	S	0.0267403	0.772185	0.0303431
0	S	0.245683	0.251254	0.0338906
0	S	0.266768	0.0234233	0.801061
0	S	0.989096	0.241193	0.804452
0	S	0.783008	0.747416	0.804987
0	S	0.433224	0.329996	0.35957
0	S	0.686965	0.101672	0.354432
0	S	0.918769	0.58676	0.360563
0	S	0.0160481	0.434764	0.781064
0	S	0.585687	0.580991	0.83248
0	S	0.436928	0.997679	0.773008
0	S	0.022404	0.589036	0.0446311
0	S	0.429979	0.430329	0.0470594
0	S	0.588461	0.99758	0.0441223
0	S	0.684417	0.767613	0.144065
0	S	0.2565	0.915846	0.140565
0	S	0.102733	0.331849	0.131638
0	S	0.690117	0.922446	0.373238
0	S	0.101405	0.766891	0.375585
0	S	0.252796	0.332098	0.376204
0	S	0.343395	0.0995536	0.444045
0	S	0.915192	0.246255	0.453777
0	S	0.775766	0.668367	0.451212
0	S	0.351317	0.254225	0.700225
0	S	0.761883	0.0974132	0.701847
0	S	0.925178	0.666376	0.70881
0	S	0.997946	0.435435	0.131155
0	S	0.578399	0.55689	0.177661
0	S	0.456931	0.0186867	0.120087
0	S	0.0448507	0.587899	0.702175
0	S	0.432941	0.455415	0.706085
0	S	0.563994	0.974439	0.7027
0	S	0.664236	0.769088	0.49019
0	S	0.253958	0.893977	0.486795
0	S	0.125126	0.351304	0.477849
0	S	0.714279	0.920434	0.0350097
0	S	0.104117	0.792725	0.0363631
0	S	0.226616	0.308213	0.0371923
0	S	0.325087	0.0998814	0.794079
0	S	0.91349	0.22513	0.800599
0	S	0.797352	0.687569	0.798263
0	S	0.37477	0.252974	0.359506
0	S	0.764411	0.122644	0.361441
0	S	0.899816	0.643769	0.367845
0	S	0.0797477	0.51847	0.801497
0	S	0.500694	0.560282	0.832639
0	S	0.458862	0.937236	0.801086
0	S	0.957801	0.506991	0.0210809
0	S	0.511643	0.446958	0.0241416
0	S	0.568615	0.059446	0.021422
0	S	0.748611	0.850429	0.163889
0	S	0.173493	0.89736	0.161538
0	S	0.120679	0.267606	0.150939
0	S	0.625534	0.841147	0.351679
0	S	0.182757	0.783501	0.351584
0	S	0.236372	0.396047	0.351817
0	S	0.407523	0.183046	0.46666
0	S	0.831766	0.226572	0.476479
0	S	0.794582	0.604655	0.471202
0	S	0.285138	0.173601	0.672292
0	S	0.843315	0.113323	0.674174
0	S	0.910364	0.731963	0.682901
0	S	0.0626508	0.521633	0.153074
0	S	0.493911	0.537191	0.181459
0	S	0.480496	0.956244	0.150483
0	S	0.977458	0.501068	0.677804
0	S	0.519114	0.474405	0.683465
0	S	0.542437	0.038932	0.678725
0	S	0.729745	0.855522	0.510641
0	S	0.168238	0.873644	0.508542
0	S	0.144899	0.286738	0.497404
0	S	0.645813	0.833598	0.0117615
0	S	0.190334	0.810993	0.0110286
0	S	0.208605	0.375313	0.011355
0	S	0.390202	0.18605	0.817987
0	S	0.827581	0.204217	0.825061
0	S	0.816954	0.622943	0.820185
0	S	0.305852	0.166682	0.332107
0	S	0.850169	0.140984	0.334059
0	S	0.882784	0.711088	0.342216
0	O	0.190049	0.629414	0.591602
0	O	0.391414	0.560747	0.609237
0	O	0.460831	0.829433	0.599108
0	O	0.835289	0.40123	0.194783
0	O	0.616143	0.429528	0.19503
0	O	0.583099	0.179026	0.193977
0	O	0.866157	0.958357	0.980165
0	O	0.0668306	0.907079	0.980287
0	O	0.106666	0.148567	0.977424
0	O	0.502973	0.736653	0.528736
0	O	0.286452	0.765548	0.522955
0	O	0.254286	0.517182	0.524067
0	O	0.521025	0.292892	0.265887
0	O	0.721248	0.225887	0.270367
0	O	0.792962	0.494349	0.264752
0	O	0.16036	0.0666794	0.841882
0	O	0.948203	0.0942582	0.833975
0	O	0.930051	0.855008	0.848347
0	O	0.186468	0.699811	0.0033693
0	O	0.317539	0.483747	0.0106728
0	O	0.538043	0.836708	0.00598732
0	O	0.846052	0.325936	0.827082
0	O	0.693485	0.519431	0.837879
0	O	0.494705	0.165093	0.827725
0	O	0.851466	0.0328055	0.329414
0	O	0.990635	0.819101	0.338527
0	O	0.197282	0.164972	0.327197
0	O	0.513493	0.659594	0.17095
0	O	0.364583	0.854287	0.163358
0	O	0.164672	0.503684	0.165877
0	O	0.516662	0.363448	0.674646
0	O	0.649383	0.149004	0.676808
0	O	0.868956	0.499859	0.673735
0	O	0.176363	0.992314	0.489458
0	O	0.0244511	0.185709	0.480471
0	O	0.839598	0.839727	0.490653
0	N	0.196926	0.655494	0.673145
0	N	0.364564	0.540668	0.686955
0	N	0.481049	0.823748	0.67909
0	N	0.839939	0.373473	0.172646
0	N	0.644588	0.462396	0.175023
0	N	0.549912	0.173242	0.172444
0	N	0.869516	0.985295	0.0415135
0	N	0.0394037	0.883765	0.0439723
0	N	0.130284	0.145364	0.0403527
0	N	0.506899	0.708393	0.50937
0	N	0.315274	0.798182	0.50267
0	N	0.221422	0.512294	0.504083
0	N	0.527581	0.319033	0.346178
0	N	0.694759	0.205503	0.349508
0	N	0.812736	0.488145	0.345316
0	N	0.166726	0.0399588	0.82606
0	N	0.976046	0.127459	0.816616
0	N	0.897127	0.849811	0.828957
0	N	0.194714	0.69092	0.877319
0	N	0.327416	0.501611	0.886287
0	N	0.520212	0.827747	0.881114
0	N	0.837481	0.3374	0.952418
0	N	0.681487	0.497853	0.958523
0	N	0.515078	0.174149	0.953051
0	N	0.862351	0.0227995	0.216511
0	N	0.00112707	0.839692	0.223536
0	N	0.175636	0.153359	0.215959
0	N	0.504618	0.671591	0.293245
0	N	0.352341	0.833141	0.285489
0	N	0.186065	0.513287	0.28765
0	N	0.524979	0.354551	0.54881
0	N	0.658611	0.166544	0.5514
0	N	0.851315	0.491261	0.548301
0	N	0.167022	0.00365752	0.612665
0	N	0.0127755	0.164429	0.602247
0	N	0.860872	0.849529	0.612915
0	C	0.918591	0.326294	0.831306
0	C	0.692061	0.590629	0.91189
0	C	0.421972	0.0912158	0.809538
0	C	0.112279	0.701816	0.991694
0	C	0.318719	0.410198	0.993414
0	C	0.614619	0.911721	0.988211
0	C	0.585952	0.660011	0.188546
0	C	0.363394	0.925195	0.188806
0	C	0.0936897	0.428739	0.184718
0	C	0.779182	0.0352401	0.317827
0	C	0.98983	0.745617	0.324195
0	C	0.271241	0.241027	0.329494
0	C	0.24723	0.990502	0.49446
0	C	0.0225347	0.256365	0.498351
0	C	0.76728	0.76559	0.50104
0	C	0.4436	0.365788	0.655944
0	C	0.650178	0.0756571	0.648984
0	C	0.94397	0.575582	0.65523
0	C	0.927569	0.320856	0.00574426
0	C	0.695115	0.601384	0.0918291
0	C	0.407591	0.0825526	0.984581
0	C	0.104995	0.703821	0.810125
0	C	0.316255	0.401043	0.811479
0	C	0.623481	0.918998	0.806094
0	C	0.593238	0.654434	0.365747
0	C	0.369102	0.93829	0.365794
0	C	0.0809834	0.420858	0.362351
0	C	0.77302	0.0366282	0.134472
0	C	0.987331	0.737133	0.141456
0	C	0.280173	0.247091	0.147039
0	C	0.256123	0.984918	0.668788
0	C	0.0284931	0.269777	0.674885
0	C	0.754326	0.757869	0.678389
0	C	0.437534	0.36849	0.473535
0	C	0.64769	0.0667441	0.466764
0	C	0.953139	0.582306	0.473179
0	C	0.979488	0.394771	0.861186
0	C	0.624042	0.583576	0.924674
0	C	0.432249	0.0332617	0.847492
0	C	0.0575253	0.62987	0.963761
0	C	0.389857	0.425708	0.965902
0	C	0.595295	0.963877	0.962204
0	C	0.647256	0.727891	0.222628
0	C	0.295864	0.918471	0.22025
0	C	0.100562	0.368408	0.212897
0	C	0.725272	0.963157	0.29169
0	C	0.0610688	0.76187	0.295146
0	C	0.256848	0.29647	0.297371
0	C	0.307468	0.0591644	0.524618
0	C	0.954799	0.249172	0.532022
0	C	0.773584	0.704985	0.531523
0	C	0.387565	0.294659	0.622296
0	C	0.721468	0.0920761	0.620741
0	C	0.929369	0.631	0.627514
0	C	0.971672	0.394899	0.0217196
0	C	0.620752	0.572697	0.0823537
0	C	0.440607	0.0422568	0.00694792
0	C	0.0678848	0.629329	0.807872
0	C	0.39122	0.437232	0.81063
0	C	0.583942	0.953177	0.806886
0	C	0.638381	0.728409	0.381234
0	C	0.294871	0.909006	0.379011
0	C	0.110229	0.376892	0.37168
0	C	0.736496	0.962214	0.138038
0	C	0.0623195	0.773815	0.140845
0	C	0.24483	0.285491	0.143027
0	C	0.299531	0.0591536	0.685084
0	C	0.954196	0.24008	0.691098
0	C	0.78303	0.713459	0.690519
0	C	0.398435	0.294058	0.467481
0	C	0.722632	0.103739	0.465924
0	C	0.917676	0.620578	0.472313
0	C	0.0260064	0.46049	0.964118
0	C	0.556717	0.562813	0.005265
0	C	0.454029	0.990108	0.957831
0	C	0.0143802	0.563105	0.863195
0	C	0.456672	0.448756	0.867118
0	C	0.569327	0.00433604	0.863892
0	C	0.693457	0.793647	0.325508
0	C	0.22999	0.898855	0.321626
0	C	0.119784	0.322519	0.311692
0	C	0.682871	0.896174	0.193773
0	C	0.127959	0.78567	0.195497
0	C	0.233964	0.339264	0.196033
0	C	0.353314	0.125103	0.627667
0	C	0.889018	0.22943	0.635919
0	C	0.792456	0.658927	0.632175
0	C	0.343399	0.228529	0.518126
0	C	0.788334	0.11591	0.521336
0	C	0.90708	0.67445	0.528566
0	C	0.0521262	0.494964	0.972885
0	C	0.522349	0.554688	0.00618003
0	C	0.46318	0.965104	0.970016
0	C	0.987542	0.528945	0.853195
0	C	0.490645	0.455855	0.857637
0	C	0.561077	0.0300235	0.854142
0	C	0.719865	0.828015	0.333864
0	C	0.195772	0.891081	0.330552
0	C	0.127352	0.29633	0.319781
0	C	0.655794	0.862124	0.184372
0	C	0.161865	0.792603	0.185221
0	C	0.227107	0.365904	0.185606
0	C	0.379578	0.159514	0.637264
0	C	0.854692	0.221269	0.645655
0	C	0.800182	0.632856	0.640799
0	C	0.315903	0.194713	0.506697
0	C	0.822194	0.122736	0.509979
0	C	0.900751	0.701451	0.517949
0	C	0.105469	0.560346	0.899286
0	C	0.457914	0.5435	0.923703
0	C	0.476311	0.913307	0.900214
0	C	0.9309	0.46483	0.925654
0	C	0.55406	0.46268	0.92975
0	C	0.552209	0.0848278	0.925809
0	C	0.774138	0.892675	0.258442
0	C	0.131333	0.880969	0.258018
0	C	0.136277	0.241851	0.248041
0	C	0.598569	0.798677	0.259276
0	C	0.225162	0.799091	0.257296
0	C	0.220518	0.422048	0.257774
0	C	0.434008	0.224574	0.566425
0	C	0.789577	0.209586	0.573646
0	C	0.810823	0.579447	0.568531
0	C	0.2583	0.131323	0.577987
0	C	0.885247	0.128334	0.576241
0	C	0.895402	0.758475	0.58634
0	C	0.0973483	0.561808	0.066849
0	C	0.45485	0.532721	0.0902015
0	C	0.486544	0.92229	0.0668279
0	C	0.940586	0.461964	0.762844
0	C	0.557615	0.476015	0.768101
0	C	0.539422	0.0747727	0.763203
0	C	0.765038	0.895189	0.423289
0	C	0.128777	0.869523	0.423173
0	C	0.14803	0.251131	0.412924
0	C	0.60847	0.795067	0.0980061
0	C	0.228773	0.812446	0.0956631
0	C	0.207067	0.411946	0.0961242
0	C	0.425774	0.225968	0.733883
0	C	0.787652	0.199022	0.739896
0	C	0.821378	0.58815	0.735012
0	C	0.268454	0.128005	0.416782
0	C	0.888534	0.141755	0.41491
0	C	0.882097	0.748347	0.424495
0	C	0.132326	0.590569	0.817122
0	C	0.428486	0.540723	0.838102
0	C	0.480048	0.886997	0.819676
0	C	0.902239	0.435902	0.00611131
0	C	0.582586	0.462639	0.00996052
0	C	0.551298	0.112688	0.00603744
0	C	0.801786	0.922281	0.17618
0	C	0.101848	0.879076	0.17713
0	C	0.137286	0.213908	0.168147
0	C	0.569692	0.770195	0.340888
0	C	0.253607	0.798924	0.337622
0	C	0.2206	0.450399	0.338282
0	C	0.461546	0.254606	0.485884
0	C	0.759542	0.206437	0.492445
0	C	0.8134	0.552488	0.487433
0	C	0.229391	0.102595	0.65827
0	C	0.913805	0.127927	0.654061
0	C	0.895828	0.787163	0.665184
0	C	0.116284	0.59391	0.155311
0	C	0.4221	0.519183	0.174451
0	C	0.500766	0.90475	0.155827
0	C	0.921767	0.429447	0.677555
0	C	0.590387	0.490134	0.683525
0	C	0.524896	0.0924511	0.677844
0	C	0.783552	0.927782	0.508371
0	C	0.0962834	0.855745	0.509961
0	C	0.161322	0.232551	0.500376
0	C	0.58955	0.762255	0.0151195
0	C	0.261538	0.826429	0.0111379
0	C	0.192962	0.430134	0.0118151
0	C	0.445296	0.25779	0.823917
0	C	0.755303	0.185136	0.82796
0	C	0.834637	0.56967	0.823448
0	C	0.249785	0.0953095	0.33283
0	C	0.920995	0.155422	0.328124
0	C	0.868603	0.766875	0.338334
0	C	0.151798	0.623143	0.906321
0	C	0.395197	0.527072	0.922733
0	C	0.494174	0.868904	0.909495
0	C	0.882721	0.402725	0.921113
0	C	0.616062	0.476907	0.926045
0	C	0.536777	0.131042	0.921023
0	C	0.820906	0.955286	0.262367
0	C	0.0689368	0.865463	0.264947
0	C	0.150366	0.194735	0.256696
0	C	0.550186	0.736697	0.258555
0	C	0.28705	0.812977	0.253562
0	C	0.206443	0.46921	0.254475
0	C	0.481567	0.286888	0.576625
0	C	0.726689	0.192515	0.58108
0	C	0.826675	0.533525	0.576438
0	C	0.210264	0.0691359	0.575424
0	C	0.947102	0.142108	0.568692
0	C	0.882008	0.806131	0.580186
0	C	0.143644	0.624545	0.0745952
0	C	0.392333	0.516586	0.0903326
0	C	0.504413	0.877927	0.0767611
0	C	0.892834	0.399937	0.757536
0	C	0.61952	0.490534	0.763504
0	C	0.523712	0.120606	0.757538
0	C	0.811644	0.957858	0.427375
0	C	0.0663539	0.853857	0.430375
0	C	0.162343	0.204198	0.42175
0	C	0.560401	0.733185	0.0962428
0	C	0.290563	0.826578	0.0909562
0	C	0.192778	0.45878	0.0918276
0	C	0.473354	0.288212	0.744879
0	C	0.724875	0.182088	0.748204
0	C	0.837077	0.542207	0.743796
0	C	0.220708	0.0659952	0.413019
0	C	0.950189	0.155541	0.405997
0	C	0.868633	0.795745	0.417068
0	C	0.180493	0.655512	0.822263
0	C	0.363427	0.523542	0.835293
0	C	0.498147	0.840761	0.826808
0	C	0.853068	0.371621	0.00562265
0	C	0.646901	0.478306	0.0102988
0	C	0.534637	0.159799	0.00558335
0	C	0.850345	0.986891	0.177172
0	C	0.0373911	0.863267	0.181335
0	C	0.151751	0.165081	0.174394
0	C	0.520333	0.705979	0.344096
0	C	0.317761	0.81408	0.337595
0	C	0.205334	0.49853	0.339021
0	C	0.510772	0.319133	0.493919
0	C	0.694379	0.18862	0.49747
0	C	0.829846	0.504931	0.49336
0	C	0.180976	0.0379881	0.661414
0	C	0.978175	0.143896	0.652495
0	C	0.880731	0.835409	0.664263
0	C	0.227652	0.694197	0.621498
0	C	0.326017	0.531964	0.63021
0	C	0.489766	0.79416	0.626854
0	C	0.803762	0.336857	0.191632
0	C	0.680999	0.463058	0.192418
0	C	0.54888	0.2085	0.190977
0	C	0.897144	0.0235781	0.971764
0	C	0.00107991	0.873412	0.976768
0	C	0.140338	0.117551	0.974221
0	C	0.470245	0.672211	0.527216
0	C	0.351293	0.798065	0.519189
0	C	0.221481	0.548148	0.521303
0	C	0.558195	0.357778	0.294183
0	C	0.655872	0.196126	0.295325
0	C	0.820891	0.458137	0.293258
0	C	0.131346	0.00252266	0.84367
0	C	0.0129414	0.128955	0.830076
0	C	0.896931	0.885647	0.841127
0	C	0.223537	0.719147	0.753541
0	C	0.299938	0.502319	0.760296
0	C	0.51962	0.799249	0.75817
0	C	0.810152	0.31066	0.0790653
0	C	0.707953	0.496565	0.082741
0	C	0.515257	0.200789	0.0801704
0	C	0.893458	0.0497859	0.0977476
0	C	0.974372	0.84336	0.10383
0	C	0.170637	0.121829	0.101047
0	C	0.476471	0.645378	0.418726
0	C	0.378587	0.831451	0.40968
0	C	0.187754	0.540972	0.412619
0	C	0.553852	0.382755	0.425284
0	C	0.630463	0.16662	0.427414
0	C	0.850427	0.462671	0.425198
0	C	0.140196	0.976875	0.740378
0	C	0.039431	0.16406	0.728357
0	C	0.862017	0.876901	0.738101
0	C	0.221144	0.700717	0.443648
0	C	0.320274	0.518832	0.452315
0	C	0.502884	0.801094	0.448702
0	C	0.799151	0.32676	0.375617
0	C	0.691068	0.467867	0.376576
0	C	0.543738	0.21319	0.375141
0	C	0.884965	0.0246686	0.796005
0	C	0.998609	0.859949	0.800361
0	C	0.153787	0.128748	0.797589
0	C	0.464712	0.662513	0.711663
0	C	0.361312	0.802491	0.703373
0	C	0.217111	0.553509	0.705636
0	C	0.551618	0.364007	0.115965
0	C	0.649778	0.182645	0.117992
0	C	0.834222	0.464918	0.115527
0	C	0.125475	0.993188	0.0283921
0	C	0.0227859	0.131589	0.0138707
0	C	0.894302	0.893224	0.0242621
0	C	0.262705	0.69401	0.637528
0	C	0.32639	0.567101	0.64344
0	C	0.454268	0.758685	0.64298
0	C	0.771374	0.339552	0.130553
0	C	0.677433	0.42799	0.127639
0	C	0.584123	0.241237	0.127344
0	C	0.934082	0.0272923	0.973048
0	C	0.999115	0.907314	0.979383
0	C	0.10625	0.0807643	0.97755
0	C	0.438576	0.675532	0.460865
0	C	0.34709	0.76282	0.453144
0	C	0.256938	0.580161	0.455056
0	C	0.593443	0.358005	0.311072
0	C	0.655688	0.230987	0.308025
0	C	0.785161	0.422825	0.308487
0	C	0.0986481	0.00311599	0.770428
0	C	0.0106351	0.0954359	0.751806
0	C	0.931384	0.917023	0.763599
0	C	0.207086	0.740165	0.68386
0	C	0.278233	0.464587	0.689145
0	C	0.557629	0.81619	0.687362
0	C	0.829034	0.293763	0.170578
0	C	0.725898	0.532225	0.17824
0	C	0.479104	0.18091	0.173333
0	C	0.881369	0.0734841	0.0181
0	C	0.950184	0.806855	0.0258774
0	C	0.20678	0.133555	0.0211105
0	C	0.494282	0.627991	0.515089
0	C	0.396976	0.867045	0.505595
0	C	0.15194	0.522524	0.508821
0	C	0.537323	0.403587	0.354292
0	C	0.608814	0.12874	0.357952
0	C	0.888467	0.479259	0.355222
0	C	0.160456	0.962589	0.840792
0	C	0.0547394	0.198769	0.830078
0	C	0.826843	0.857418	0.838919
0	C	0.257832	0.74351	0.847679
0	C	0.275711	0.512034	0.852821
0	C	0.509861	0.765522	0.853304
0	C	0.776818	0.281644	0.986867
0	C	0.736458	0.492702	0.986949
0	C	0.518715	0.233343	0.988732
0	C	0.926779	0.0721719	0.204076
0	C	0.952165	0.854243	0.207532
0	C	0.15897	0.0892058	0.210658
0	C	0.443353	0.616714	0.323994
0	C	0.406791	0.827139	0.313677
0	C	0.191958	0.573518	0.318098
0	C	0.588004	0.407303	0.520005
0	C	0.606242	0.176132	0.521386
0	C	0.840143	0.428768	0.519911
0	C	0.108152	0.945896	0.64944
0	C	0.0700108	0.162924	0.637338
0	C	0.864227	0.908821	0.645876
0	H	0.907432	0.301104	0.756735
0	H	0.718765	0.605857	0.847428
0	H	0.406921	0.100776	0.733254
0	H	0.118532	0.727088	0.0575826
0	H	0.292792	0.391474	0.0586404
0	H	0.634498	0.906529	0.0527797
0	H	0.574745	0.634684	0.114995
0	H	0.389029	0.939425	0.115829
0	H	0.0788392	0.439272	0.113391
0	H	0.784829	0.0606302	0.380341
0	H	0.96396	0.726617	0.38898
0	H	0.289751	0.234174	0.395613
0	H	0.235955	0.965379	0.419465
0	H	0.0480117	0.27068	0.424227
0	H	0.752754	0.77634	0.428768
0	H	0.450312	0.391149	0.722225
0	H	0.624327	0.056802	0.714226
0	H	0.962508	0.568645	0.720566
0	H	0.896921	0.333504	0.828452
0	H	0.683428	0.561577	0.895065
0	H	0.451074	0.113712	0.805701
0	H	0.136134	0.698803	0.0123924
0	H	0.323589	0.437676	0.0152101
0	H	0.587594	0.887424	0.010462
0	H	0.564933	0.668013	0.179267
0	H	0.354637	0.895933	0.179874
0	H	0.123037	0.45035	0.174733
0	H	0.803035	0.0325355	0.344313
0	H	0.994561	0.77297	0.348547
0	H	0.243347	0.218165	0.352769
0	H	0.225681	0.997889	0.491724
0	H	0.0140483	0.227148	0.490579
0	H	0.79674	0.786953	0.491843
0	H	0.466715	0.361738	0.679663
0	H	0.654948	0.103054	0.671857
0	H	0.916121	0.552563	0.677276
0	H	0.903927	0.297382	0.0659519
0	H	0.716636	0.598865	0.156245
0	H	0.406759	0.105557	0.0416806
0	H	0.127431	0.728465	0.750705
0	H	0.292133	0.399592	0.752228
0	H	0.626163	0.89727	0.746307
0	H	0.568802	0.631357	0.423422
0	H	0.391897	0.937082	0.424617
0	H	0.082524	0.444795	0.422399
0	H	0.79579	0.061153	0.0758192
0	H	0.963163	0.735878	0.0836463
0	H	0.280899	0.224026	0.0900086
0	H	0.232505	0.961345	0.728482
0	H	0.0515041	0.268855	0.73307
0	H	0.755896	0.781884	0.737584
0	H	0.460753	0.39289	0.416557
0	H	0.623404	0.065066	0.408223
0	H	0.954099	0.559548	0.414097
0	H	0.950162	0.31536	0.00962651
0	H	0.702469	0.629919	0.106784
0	H	0.379455	0.0590332	0.990577
0	H	0.080133	0.705251	0.790122
0	H	0.31319	0.374181	0.790565
0	H	0.649842	0.944309	0.784608
0	H	0.61529	0.648241	0.37577
0	H	0.376018	0.96678	0.375126
0	H	0.0522735	0.398611	0.372832
0	H	0.748175	0.0377577	0.108533
0	H	0.984339	0.710393	0.117733
0	H	0.307415	0.271177	0.123999
0	H	0.278823	0.979561	0.672687
0	H	0.0352545	0.298231	0.683387
0	H	0.725563	0.735717	0.688383
0	H	0.413306	0.370877	0.450622
0	H	0.644953	0.0400534	0.444839
0	H	0.980375	0.606547	0.451893
0	H	0.137844	0.588811	0.685998
0	H	0.431356	0.54887	0.707833
0	H	0.472249	0.880857	0.689167
0	H	0.894142	0.437688	0.134335
0	H	0.580272	0.452112	0.137153
0	H	0.56131	0.121032	0.134188
0	H	0.808314	0.919758	0.0476572
0	H	0.104425	0.888005	0.0482866
0	H	0.128101	0.207136	0.0396785
0	H	0.561433	0.772617	0.467862
0	H	0.251213	0.788388	0.464862
0	H	0.231158	0.458801	0.465618
0	H	0.467222	0.252947	0.354928
0	H	0.761642	0.214524	0.362392
0	H	0.805371	0.546472	0.357181
0	H	0.22093	0.104722	0.784819
0	H	0.911692	0.117227	0.78042
0	H	0.906268	0.795672	0.792381
0	H	0.109842	0.595456	0.285111
0	H	0.419391	0.510379	0.303477
0	H	0.509317	0.911863	0.284844
0	H	0.929393	0.426426	0.551725
0	H	0.593886	0.501271	0.558444
0	H	0.514053	0.0845202	0.552173
0	H	0.776178	0.930133	0.635615
0	H	0.0938809	0.846174	0.637523
0	H	0.171149	0.240062	0.627674
0	H	0.597243	0.758693	0.890328
0	H	0.265112	0.837601	0.886083
0	H	0.181722	0.422232	0.886742
0	H	0.438814	0.2593	0.953709
0	H	0.753377	0.176401	0.956768
0	H	0.843333	0.576532	0.952482
0	H	0.257807	0.0920238	0.208242
0	H	0.924216	0.166541	0.203144
0	H	0.857552	0.758967	0.212972
0	H	0.158236	0.649636	0.144621
0	H	0.366754	0.50587	0.157273
0	H	0.515765	0.864446	0.147104
0	H	0.878097	0.373862	0.692514
0	H	0.645878	0.502413	0.699525
0	H	0.511756	0.134455	0.692439
0	H	0.825877	0.983444	0.493787
0	H	0.0408633	0.842791	0.498324
0	H	0.173025	0.189884	0.490173
0	H	0.545589	0.706873	0.0332603
0	H	0.316857	0.838175	0.0266285
0	H	0.181118	0.473008	0.0276188
0	H	0.488446	0.313094	0.816077
0	H	0.699596	0.171045	0.818044
0	H	0.847613	0.52796	0.814026
0	H	0.206334	0.0397374	0.349548
0	H	0.976322	0.167176	0.340444
0	H	0.85721	0.810061	0.351761
0	H	0.243913	0.728778	0.407965
0	H	0.292304	0.512879	0.413162
0	H	0.508484	0.779055	0.411935
0	H	0.777314	0.298968	0.39604
0	H	0.718865	0.474053	0.396219
0	H	0.537338	0.234308	0.395579
0	H	0.904998	0.0519563	0.741565
0	H	0.971142	0.852883	0.749386
0	H	0.160798	0.108614	0.746711
0	H	0.442478	0.634908	0.732125
0	H	0.388948	0.808209	0.723114
0	H	0.21143	0.575126	0.725731
0	H	0.574121	0.392183	0.0799571
0	H	0.621501	0.1761	0.0805425
0	H	0.839807	0.442747	0.0799826
0	H	0.104387	0.965018	0.0485159
0	H	0.0507088	0.137896	0.031542
0	H	0.888232	0.914734	0.0396148
0	H	0.195652	0.700011	0.421591
0	H	0.320823	0.494091	0.432206
0	H	0.527931	0.826826	0.426817
0	H	0.824178	0.329807	0.429383
0	H	0.68853	0.489705	0.432859
0	H	0.521784	0.188097	0.430483
0	H	0.85816	0.0217442	0.78653
0	H	0.00039383	0.835699	0.788621
0	H	0.178272	0.155345	0.785484
0	H	0.489354	0.665272	0.768615
0	H	0.359139	0.824481	0.760444
0	H	0.194928	0.528807	0.76259
0	H	0.525935	0.362883	0.0933598
0	H	0.650756	0.158122	0.0981388
0	H	0.859374	0.490546	0.0937501
0	H	0.150506	0.997611	0.0885325
0	H	0.0199939	0.152608	0.0773408
0	H	0.872979	0.869119	0.088621
0	H	0.222932	0.682312	0.355894
0	H	0.339382	0.539429	0.365825
0	H	0.482188	0.798867	0.361717
0	H	0.793319	0.344663	0.448024
0	H	0.67267	0.443528	0.447051
0	H	0.568201	0.219911	0.446068
0	H	0.885783	0.00479142	0.714543
0	H	0.0186723	0.880736	0.717423
0	H	0.13286	0.127391	0.714886
0	H	0.458984	0.680863	0.780879
0	H	0.342578	0.778133	0.773014
0	H	0.24163	0.559842	0.775108
0	H	0.553769	0.345717	0.0288469
0	H	0.668391	0.203218	0.0301151
0	H	0.813691	0.462668	0.0275586
0	H	0.11786	0.010482	0.0943974
0	H	0.00452151	0.106333	0.0784997
0	H	0.91965	0.900941	0.0895109
0	H	0.285538	0.721824	0.593489
0	H	0.298639	0.561394	0.596688
0	H	0.459782	0.736615	0.598612
0	H	0.745455	0.316096	0.165408
0	H	0.700641	0.425519	0.16129
0	H	0.586323	0.26667	0.161594
0	H	0.953779	0.0551455	0.916485
0	H	0.971185	0.899489	0.924767
0	H	0.114094	0.0610323	0.924089
0	H	0.412264	0.652496	0.494562
0	H	0.370002	0.759822	0.486437
0	H	0.259957	0.605987	0.488446
0	H	0.616087	0.385845	0.266725
0	H	0.627651	0.224737	0.263333
0	H	0.790425	0.40062	0.264966
0	H	0.0729459	0.979124	0.802788
0	H	0.0339458	0.0929365	0.782662
0	H	0.934705	0.943156	0.792782
0	H	0.269646	0.690349	0.763593
0	H	0.329696	0.577872	0.769121
0	H	0.443577	0.751481	0.769105
0	H	0.772045	0.343184	0.99572
0	H	0.673837	0.425531	0.992655
0	H	0.586765	0.240367	0.992409
0	H	0.944544	0.0266348	0.0957721
0	H	0.00071189	0.918742	0.102169
0	H	0.0947693	0.0708893	0.100739
0	H	0.439903	0.678904	0.32573
0	H	0.343561	0.760623	0.318092
0	H	0.259082	0.578926	0.319943
0	H	0.600394	0.354583	0.43753
0	H	0.659289	0.241998	0.433355
0	H	0.77426	0.415735	0.434373
0	H	0.100529	0.00591922	0.634929
0	H	0.00799899	0.0953073	0.616461
0	H	0.931783	0.914337	0.628432
0	H	0.263833	0.674382	0.555528
0	H	0.346561	0.588246	0.562226
0	H	0.432956	0.756811	0.561308
0	H	0.773241	0.363916	0.185521
0	H	0.652581	0.404951	0.181067
0	H	0.60739	0.240372	0.181087
0	H	0.935548	0.00749935	0.893603
0	H	0.0193559	0.928628	0.898931
0	H	0.0847939	0.078878	0.896765
0	H	0.440768	0.700265	0.512943
0	H	0.322006	0.73996	0.505907
0	H	0.279985	0.578715	0.507443
0	H	0.594815	0.338391	0.229962
0	H	0.675391	0.252091	0.225187
0	H	0.764073	0.421201	0.226029
0	H	0.0988405	0.0272255	0.817833
0	H	0.985671	0.0712501	0.796769
0	H	0.955125	0.916212	0.811118
0	H	0.201748	0.754885	0.780639
0	H	0.262725	0.44413	0.78482
0	H	0.578168	0.821941	0.78361
0	H	0.83845	0.280834	0.0825596
0	H	0.739222	0.555219	0.0922598
0	H	0.45615	0.170777	0.0864212
0	H	0.878962	0.0913988	0.10741
0	H	0.932454	0.786256	0.116671
0	H	0.227414	0.136214	0.110293
0	H	0.50378	0.614658	0.429863
0	H	0.410615	0.890091	0.420089
0	H	0.128713	0.512546	0.423515
0	H	0.531859	0.418368	0.450267
0	H	0.593632	0.108425	0.454618
0	H	0.908868	0.484744	0.451768
0	H	0.17141	0.950081	0.758924
0	H	0.0677966	0.222582	0.748718
0	H	0.803042	0.84639	0.756661
0	H	0.227792	0.76161	0.599124
0	H	0.257158	0.463944	0.603167
0	H	0.558341	0.795812	0.602698
0	H	0.810821	0.273343	0.259746
0	H	0.746384	0.534132	0.265322
0	H	0.476572	0.198511	0.263154
0	H	0.904069	0.0922451	0.928602
0	H	0.931091	0.809979	0.938157
0	H	0.202201	0.110611	0.933221
0	H	0.475381	0.607812	0.603349
0	H	0.417249	0.868481	0.592722
0	H	0.15042	0.541021	0.596762
0	H	0.558114	0.425015	0.269524
0	H	0.587421	0.127845	0.272994
0	H	0.888877	0.458628	0.270813
0	H	0.142666	0.9424	0.931838
0	H	0.0749564	0.201169	0.920086
0	H	0.824878	0.875552	0.927431
0	H	0.182238	0.724273	0.611411
0	H	0.293922	0.455753	0.617418
0	H	0.566617	0.840751	0.614695
0	H	0.852939	0.314017	0.240248
0	H	0.705994	0.535394	0.250906
0	H	0.476048	0.15756	0.2427
0	H	0.85631	0.059458	0.946017
0	H	0.964089	0.796207	0.953081
0	H	0.218256	0.158188	0.947197
0	H	0.518003	0.648057	0.586419
0	H	0.377294	0.870598	0.578215
0	H	0.148398	0.499259	0.580593
0	H	0.512589	0.387573	0.28125
0	H	0.624439	0.119949	0.285423
0	H	0.897762	0.503814	0.282143
0	H	0.183566	0.984252	0.909418
0	H	0.0333839	0.200046	0.899993
0	H	0.824785	0.834723	0.910271
0	H	0.278875	0.761912	0.749135
0	H	0.257568	0.514314	0.753445
0	H	0.507243	0.744696	0.755491
0	H	0.755948	0.263322	0.074386
0	H	0.754786	0.489987	0.0721295
0	H	0.521134	0.253785	0.0766917
0	H	0.949017	0.091978	0.119129
0	H	0.932807	0.856514	0.119835
0	H	0.155964	0.0667371	0.128134
0	H	0.421819	0.598708	0.409643
0	H	0.424679	0.823689	0.398633
0	H	0.195322	0.594639	0.40411
0	H	0.609021	0.425823	0.421772
0	H	0.587438	0.177648	0.423071
0	H	0.837804	0.408081	0.421896
0	H	0.0875307	0.927474	0.737599
0	H	0.0877481	0.16006	0.72581
0	H	0.867255	0.92954	0.733704
0	H	0.255565	0.762126	0.932962
0	H	0.256621	0.49086	0.937997
0	H	0.53124	0.768443	0.938406
0	H	0.784312	0.26574	0.907034
0	H	0.752706	0.516604	0.908181
0	H	0.494615	0.225058	0.910443
0	H	0.923042	0.0890934	0.295242
0	H	0.934525	0.833421	0.298309
0	H	0.179868	0.0931949	0.302238
0	H	0.450834	0.600425	0.2469
0	H	0.423519	0.851163	0.236356
0	H	0.167738	0.565533	0.241118
0	H	0.585467	0.425818	0.604934
0	H	0.587719	0.155083	0.608527
0	H	0.861215	0.431468	0.606467
0	H	0.117398	0.93057	0.575969
0	H	0.0864045	0.187921	0.565618
0	H	0.839357	0.899951	0.572564
0	H	0.269919	0.730482	0.915536
0	H	0.28912	0.537418	0.920602
0	H	0.484371	0.753079	0.921579
0	H	0.7649	0.292949	0.9043
0	H	0.7244	0.469488	0.902913
0	H	0.542097	0.245865	0.904843
0	H	0.937026	0.0572118	0.270579
0	H	0.967466	0.879797	0.273567
0	H	0.133425	0.0794367	0.276946
0	H	0.432339	0.62841	0.238399
0	H	0.394434	0.804185	0.228196
0	H	0.215054	0.585042	0.232503
0	H	0.600176	0.394412	0.588271
0	H	0.619599	0.201759	0.587146
0	H	0.814455	0.416371	0.586492
0	H	0.095351	0.955253	0.561272
0	H	0.0599345	0.140843	0.547366
0	H	0.88675	0.921121	0.557292
