#******************************************
#
# CIF file created by Zeo++
# Zeo++ is an open source package to
# analyze microporous materials
#
#*******************************************

_cell_length_a		26.7842(0)
_cell_length_b		26.2873(0)
_cell_length_c		35.7557(0)
_cell_angle_alpha		90(0)
_cell_angle_beta		90(0)
_cell_angle_gamma		120.492(0)

_symmetry_space_group_name_H-M		'P1'
_symmetry_Int_Tables_number		1
_symmetry_cell_setting		Monoclinic

loop_
_symmetry_equiv_pos_as_xyz
'+x,+y,+z'

loop_
_atom_site_label
_atom_site_type_symbol
_atom_site_fract_x
_atom_site_fract_y
_atom_site_fract_z
0	Si	0.358397	0.311396	0.460838
0	Si	0.708604	0.0650138	0.461346
0	Si	0.95104	0.664533	0.463103
0	Si	0.657277	0.717391	0.371375
0	Si	0.305086	0.962368	0.376396
0	Si	0.0611746	0.363127	0.37575
0	Si	0.0120403	0.645384	0.811655
0	Si	0.375703	0.38987	0.808554
0	Si	0.625137	0.00307306	0.80604
0	Si	0.32173	0.0442749	0.667809
0	Si	0.982013	0.299078	0.667552
0	Si	0.718519	0.698963	0.671898
0	Si	0.693861	0.984359	0.166657
0	Si	0.0304406	0.727569	0.167109
0	Si	0.293511	0.328591	0.165701
0	Si	0.00111386	0.38494	0.0292069
0	Si	0.637626	0.634805	0.0310012
0	Si	0.388298	0.0235763	0.0288969
0	Si	0.408857	0.344201	0.512056
0	Si	0.677747	0.0837493	0.512856
0	Si	0.933227	0.61394	0.514554
0	Si	0.606836	0.684616	0.320193
0	Si	0.335551	0.943402	0.324742
0	Si	0.0793544	0.413852	0.324306
0	Si	0.0682931	0.683081	0.859941
0	Si	0.337649	0.408406	0.856444
0	Si	0.606578	0.94627	0.854498
0	Si	0.266718	0.00985208	0.618704
0	Si	0.0160273	0.279161	0.618016
0	Si	0.737862	0.752211	0.621701
0	Si	0.748505	0.0188436	0.215908
0	Si	0.996573	0.747817	0.216579
0	Si	0.274663	0.275078	0.215747
0	Si	0.944895	0.346692	0.980965
0	Si	0.675143	0.616957	0.98252
0	Si	0.407029	0.0799346	0.980149
0	Si	0.472439	0.436137	0.523728
0	Si	0.588094	0.0577326	0.524523
0	Si	0.960568	0.550254	0.525921
0	Si	0.54313	0.592667	0.3086
0	Si	0.425089	0.969144	0.312823
0	Si	0.052206	0.47766	0.312784
0	Si	0.134729	0.775218	0.867035
0	Si	0.246708	0.381577	0.862355
0	Si	0.632608	0.880667	0.861258
0	Si	0.201818	0.917928	0.609374
0	Si	0.10662	0.306506	0.608833
0	Si	0.710832	0.816037	0.610985
0	Si	0.812895	0.110791	0.225685
0	Si	0.906115	0.720859	0.22571
0	Si	0.301646	0.211065	0.225989
0	Si	0.878906	0.254284	0.974243
0	Si	0.766144	0.644547	0.975777
0	Si	0.380612	0.14519	0.972991
0	C	0.399937	0.321816	0.415663
0	C	0.699336	0.0982044	0.416442
0	C	0.919161	0.622046	0.418004
0	C	0.615603	0.706691	0.416546
0	C	0.314548	0.929291	0.421256
0	C	0.0937607	0.405947	0.420658
0	C	0.0470085	0.650612	0.764537
0	C	0.370117	0.419376	0.761211
0	C	0.595005	0.966398	0.759046
0	C	0.285845	0.034824	0.715108
0	C	0.991554	0.271924	0.714737
0	C	0.746175	0.737226	0.718727
0	C	0.729976	0.994107	0.119408
0	C	0.0213344	0.755141	0.119966
0	C	0.265704	0.290427	0.118852
0	C	0.965984	0.379244	0.0763271
0	C	0.643945	0.605228	0.0781238
0	C	0.41849	0.0604415	0.0758411
0	C	0.373782	0.279713	0.387113
0	C	0.741123	0.115014	0.388119
0	C	0.903031	0.64791	0.389709
0	C	0.641697	0.748663	0.445178
0	C	0.272827	0.91244	0.449623
0	C	0.111493	0.380993	0.448603
0	C	0.0155955	0.607528	0.737274
0	C	0.411266	0.429094	0.733527
0	C	0.584761	0.997747	0.731217
0	C	0.318762	0.0732115	0.744204
0	C	0.953642	0.265886	0.743833
0	C	0.75445	0.706076	0.747678
0	C	0.69724	0.95555	0.0903378
0	C	0.0595368	0.761678	0.0909441
0	C	0.257697	0.321789	0.0899211
0	C	0.997357	0.421852	0.103854
0	C	0.603378	0.595889	0.10615
0	C	0.429474	0.0295225	0.103584
0	H	0.331377	0.239995	0.391373
0	H	0.77967	0.111314	0.392272
0	H	0.906077	0.690626	0.394108
0	H	0.683944	0.78857	0.440919
0	H	0.234343	0.916292	0.445583
0	H	0.10901	0.338549	0.44412
0	H	0.973736	0.568721	0.744036
0	H	0.449039	0.425117	0.740078
0	H	0.58962	0.0407579	0.737341
0	H	0.361888	0.111048	0.73871
0	H	0.916914	0.272243	0.738591
0	H	0.749932	0.662925	0.74242
0	H	0.654125	0.917684	0.0958144
0	H	0.0963057	0.755402	0.0962108
0	H	0.262486	0.365049	0.0952102
0	H	0.0391859	0.460816	0.0972589
0	H	0.565635	0.600097	0.099949
0	H	0.425231	0.98679	0.0974115
0	C	0.401363	0.287382	0.352572
0	C	0.734619	0.137004	0.353935
0	C	0.882499	0.619612	0.355228
0	C	0.614212	0.740606	0.479792
0	C	0.279314	0.890201	0.483715
0	C	0.132824	0.409781	0.482863
0	C	0.0371188	0.613494	0.700881
0	C	0.404636	0.443805	0.696979
0	C	0.568528	0.974808	0.695053
0	C	0.297089	0.0635724	0.780714
0	C	0.962199	0.251933	0.780157
0	C	0.768332	0.729415	0.783882
0	C	0.719066	0.965037	0.0538713
0	C	0.0512157	0.776027	0.0546727
0	C	0.243722	0.298516	0.0537078
0	C	0.975798	0.415165	0.140284
0	C	0.610559	0.581235	0.142592
0	C	0.445644	0.0525158	0.139747
0	H	0.380398	0.254306	0.33064
0	H	0.767371	0.14964	0.33217
0	H	0.870103	0.640291	0.333539
0	H	0.635129	0.773631	0.501762
0	H	0.246598	0.877489	0.505513
0	H	0.146406	0.389783	0.504299
0	H	0.0119773	0.580069	0.67989
0	H	0.436425	0.450356	0.67563
0	H	0.561523	4.3199e-05	0.673623
0	H	0.323367	0.0930298	0.803116
0	H	0.933043	0.248423	0.802546
0	H	0.773591	0.704295	0.806178
0	H	0.69291	0.935462	0.0314849
0	H	0.0805893	0.779924	0.0323215
0	H	0.238683	0.323785	0.0314138
0	H	0.000874196	0.448219	0.161489
0	H	0.579228	0.574972	0.164213
0	H	0.453212	0.0275862	0.161108
0	C	0.455666	0.337212	0.346113
0	C	0.686167	0.14261	0.347582
0	C	0.877785	0.564976	0.34857
0	C	0.560084	0.690539	0.48625
0	C	0.327724	0.884474	0.489941
0	C	0.136648	0.463977	0.489668
0	C	0.0908172	0.662216	0.691378
0	C	0.357345	0.450131	0.687733
0	C	0.561474	0.919698	0.68629
0	C	0.241724	0.0160976	0.788534
0	C	0.00832568	0.242876	0.787786
0	C	0.775141	0.784757	0.791522
0	C	0.77443	0.0125257	0.0460806
0	C	0.00503436	0.784993	0.0470342
0	C	0.236474	0.242999	0.0460489
0	C	0.922116	0.366238	0.149581
0	C	0.657807	0.574602	0.151404
0	C	0.451835	0.107234	0.148592
0	H	0.477157	0.343133	0.319257
0	H	0.681186	0.15991	0.321053
0	H	0.86164	0.542881	0.321799
0	H	0.538645	0.684324	0.513153
0	H	0.332705	0.867007	0.516406
0	H	0.153293	0.486404	0.516294
0	H	0.107438	0.667054	0.66301
0	H	0.352138	0.461429	0.659271
0	H	0.549033	0.901957	0.658124
0	H	0.224921	0.00841036	0.816956
0	H	0.0151936	0.232197	0.81601
0	H	0.785778	0.802928	0.819693
0	H	0.791407	0.0200761	0.0177037
0	H	0.998356	0.795998	0.0188527
0	H	0.225663	0.224868	0.0178796
0	H	0.905482	0.360868	0.177981
0	H	0.663413	0.563312	0.179784
0	H	0.464236	0.125027	0.176751
0	C	0.482184	0.379499	0.374284
0	C	0.644017	0.125679	0.375422
0	C	0.894099	0.538937	0.376411
0	C	0.533635	0.648395	0.457999
0	C	0.369833	0.901502	0.462059
0	C	0.118792	0.489142	0.462167
0	C	0.122985	0.704735	0.718463
0	C	0.316728	0.441665	0.715191
0	C	0.570766	0.887711	0.713832
0	C	0.208134	0.978461	0.759655
0	C	0.0456995	0.24781	0.758955
0	C	0.767977	0.81657	0.762826
0	C	0.80783	0.0503899	0.0749382
0	C	0.967352	0.77955	0.0757888
0	C	0.243434	0.211	0.0747132
0	C	0.889983	0.324233	0.12224
0	C	0.697838	0.582712	0.123602
0	C	0.441725	0.138766	0.121141
0	H	0.52459	0.418475	0.36941
0	H	0.605955	0.129671	0.370523
0	H	0.890717	0.496398	0.371334
0	H	0.491358	0.609237	0.462866
0	H	0.407863	0.897421	0.466871
0	H	0.121529	0.53136	0.46736
0	H	0.165145	0.742501	0.711455
0	H	0.280001	0.446975	0.708372
0	H	0.565118	0.84463	0.707329
0	H	0.16479	0.941705	0.765393
0	H	0.0814781	0.240424	0.764578
0	H	0.773623	0.859904	0.76848
0	H	0.851171	0.0871736	0.0692012
0	H	0.931524	0.786861	0.070159
0	H	0.237522	0.167568	0.0690499
0	H	0.847834	0.286303	0.129071
0	H	0.734542	0.57719	0.130085
0	H	0.446654	0.181517	0.127738
0	C	0.454348	0.37181	0.408704
0	C	0.650604	0.103525	0.409499
0	C	0.914743	0.567432	0.410797
0	C	0.561372	0.656457	0.423502
0	C	0.363225	0.923814	0.428056
0	C	0.0974193	0.460192	0.427992
0	C	0.101002	0.699013	0.754719
0	C	0.323015	0.426068	0.751591
0	C	0.587689	0.911149	0.749854
0	C	0.230277	0.987672	0.723261
0	C	0.037451	0.262525	0.722763
0	C	0.753286	0.79273	0.726759
0	C	0.78551	0.0413478	0.111271
0	C	0.975366	0.764424	0.111919
0	C	0.258268	0.234801	0.110786
0	C	0.911996	0.330668	0.0859347
0	C	0.690994	0.598206	0.0872984
0	C	0.424909	0.115299	0.0851206
0	H	0.476306	0.405912	0.430029
0	H	0.616624	0.0905149	0.430546
0	H	0.92736	0.545912	0.431869
0	H	0.539495	0.622446	0.402122
0	H	0.397116	0.936803	0.406943
0	H	0.0836089	0.481037	0.407187
0	H	0.12716	0.733456	0.775096
0	H	0.289966	0.419124	0.772212
0	H	0.595233	0.885083	0.770519
0	H	0.202978	0.956828	0.70145
0	H	0.0680335	0.26661	0.701037
0	H	0.747407	0.818629	0.705102
0	H	0.812654	0.0723615	0.133066
0	H	0.944539	0.759944	0.133579
0	H	0.264001	0.208759	0.13241
0	H	0.885839	0.296608	0.065359
0	H	0.723548	0.604791	0.0663815
0	H	0.416694	0.140972	0.0645242
0	C	0.306992	0.22878	0.466573
0	C	0.789401	0.0944244	0.466509
0	C	0.921709	0.716543	0.468627
0	C	0.708561	0.800058	0.365999
0	C	0.224284	0.932977	0.371276
0	C	0.0899466	0.310636	0.370234
0	C	0.961778	0.563651	0.82114
0	C	0.455913	0.421703	0.818099
0	C	0.595674	0.0541119	0.815602
0	C	0.372007	0.126878	0.661324
0	C	0.900838	0.266439	0.661597
0	C	0.750112	0.64902	0.665684
0	C	0.643839	0.901665	0.172938
0	C	0.111485	0.759838	0.173543
0	C	0.261746	0.378327	0.172115
0	C	0.0511576	0.466667	0.0196677
0	C	0.557303	0.60277	0.0217034
0	C	0.417419	0.972197	0.0195397
0	C	0.328179	0.190944	0.474902
0	C	0.82778	0.154053	0.475085
0	C	0.863177	0.694717	0.477408
0	C	0.687291	0.837936	0.358029
0	C	0.185913	0.873364	0.362653
0	C	0.148383	0.332116	0.361343
0	C	0.985022	0.527354	0.828741
0	C	0.491708	0.482048	0.826139
0	C	0.536576	0.030642	0.823487
0	C	0.349549	0.163848	0.653688
0	C	0.864586	0.206011	0.654045
0	C	0.809334	0.673117	0.657933
0	C	0.666577	0.864827	0.180168
0	C	0.147854	0.820187	0.181292
0	C	0.202603	0.35408	0.180188
0	C	0.0277564	0.502839	0.0121389
0	C	0.521571	0.542373	0.0137949
0	C	0.476457	0.995379	0.0115787
0	H	0.374669	0.208111	0.478065
0	H	0.811982	0.184719	0.479196
0	H	0.833213	0.647359	0.481047
0	H	0.640807	0.820721	0.354799
0	H	0.201656	0.842618	0.358736
0	H	0.178515	0.379406	0.357526
0	H	0.0318649	0.545437	0.829432
0	H	0.474122	0.511593	0.827003
0	H	0.506651	0.982915	0.824038
0	H	0.302844	0.145901	0.651218
0	H	0.882366	0.176822	0.651192
0	H	0.838283	0.720861	0.655412
0	H	0.713316	0.882985	0.182624
0	H	0.130269	0.849584	0.183862
0	H	0.173824	0.30633	0.182857
0	H	0.980898	0.484672	0.0116085
0	H	0.539188	0.512851	0.0131027
0	H	0.506529	0.0430724	0.0108606
0	C	0.290404	0.130153	0.479061
0	C	0.887345	0.175928	0.478283
0	C	0.84155	0.732958	0.481461
0	C	0.725004	0.898815	0.354316
0	C	0.126412	0.851604	0.359129
0	C	0.169715	0.293604	0.357416
0	C	0.948815	0.466952	0.835436
0	C	0.550887	0.506005	0.833075
0	C	0.51437	0.0677158	0.830662
0	C	0.386389	0.224736	0.649238
0	C	0.804717	0.181533	0.650155
0	C	0.832916	0.636663	0.653395
0	C	0.62999	0.803826	0.184216
0	C	0.207591	0.844321	0.185748
0	C	0.178878	0.390383	0.184856
0	C	0.0638387	0.563221	0.00529497
0	C	0.462403	0.518314	0.00676416
0	C	0.498401	0.958043	0.00454449
0	H	0.307717	0.101494	0.485437
0	H	0.916529	0.222388	0.48484
0	H	0.795977	0.715174	0.488245
0	H	0.707657	0.927516	0.348182
0	H	0.0972438	0.805179	0.352495
0	H	0.215241	0.311145	0.3506
0	H	0.9676	0.439557	0.841468
0	H	0.577973	0.552831	0.839427
0	H	0.468476	0.0487436	0.836869
0	H	0.3683	0.252759	0.64313
0	H	0.77721	0.134613	0.644168
0	H	0.878876	0.656079	0.647155
0	H	0.648282	0.775875	0.189965
0	H	0.235164	0.891161	0.191939
0	H	0.132969	0.370864	0.191301
0	H	0.044928	0.590517	0.999315
0	H	0.435382	0.471449	0.000507591
0	H	0.544246	0.976782	0.998275
0	C	0.230725	0.106198	0.474814
0	C	0.909479	0.13846	0.472768
0	C	0.878174	0.793733	0.476622
0	C	0.784677	0.922805	0.358674
0	C	0.104304	0.889146	0.364393
0	C	0.132892	0.232912	0.362474
0	C	0.888656	0.441807	0.834324
0	C	0.575268	0.469954	0.83181
0	C	0.550948	0.128993	0.829815
0	C	0.446319	0.249671	0.652656
0	C	0.780095	0.217104	0.653952
0	C	0.797647	0.575456	0.656856
0	C	0.57003	0.778659	0.180851
0	C	0.231962	0.808476	0.182263
0	C	0.213944	0.451594	0.18126
0	C	0.12402	0.588464	0.00619822
0	C	0.437942	0.554301	0.00781041
0	C	0.461635	0.896803	0.00561086
0	H	0.201321	0.058891	0.478091
0	H	0.955833	0.155487	0.475176
0	H	0.861299	0.823462	0.479813
0	H	0.814031	0.970187	0.355741
0	H	0.0580133	0.872231	0.361677
0	H	0.149534	0.202972	0.359393
0	H	0.860477	0.39473	0.839361
0	H	0.621353	0.488621	0.837118
0	H	0.533639	0.157819	0.835309
0	H	0.47498	0.297088	0.649232
0	H	0.733487	0.198022	0.650936
0	H	0.816036	0.547088	0.653406
0	H	0.541565	0.731147	0.18395
0	H	0.278475	0.827295	0.185676
0	H	0.195449	0.47984	0.184865
0	H	0.152101	0.635522	0.00102766
0	H	0.391882	0.53557	0.00239664
0	H	0.478736	0.867769	0.000228089
0	C	0.209074	0.143265	0.46624
0	C	0.871819	0.0791063	0.463996
0	C	0.936383	0.81599	0.467539
0	C	0.806382	0.885677	0.366912
0	C	0.141932	0.948445	0.373317
0	C	0.0747627	0.211003	0.371618
0	C	0.864959	0.477342	0.826644
0	C	0.540242	0.409959	0.823582
0	C	0.609725	0.152936	0.821745
0	C	0.469182	0.213474	0.660607
0	C	0.815596	0.277181	0.661771
0	C	0.738775	0.550942	0.664881
0	C	0.546869	0.814733	0.173377
0	C	0.196357	0.748482	0.174253
0	C	0.272724	0.476252	0.172882
0	C	0.147865	0.553043	0.0138214
0	C	0.472883	0.614337	0.0159682
0	C	0.402921	0.87316	0.0137442
0	H	0.162696	0.124861	0.46272
0	H	0.888793	0.0497712	0.459483
0	H	0.965024	0.863209	0.463532
0	H	0.852749	0.904112	0.370536
0	H	0.124967	0.977821	0.377679
0	H	0.045956	0.163846	0.375772
0	H	0.818171	0.457954	0.825663
0	H	0.559043	0.381767	0.822375
0	H	0.638335	0.200583	0.820852
0	H	0.51574	0.232716	0.663594
0	H	0.796633	0.304997	0.665032
0	H	0.711189	0.503365	0.667839
0	H	0.500282	0.795319	0.170462
0	H	0.215127	0.720453	0.171256
0	H	0.300129	0.523827	0.169784
0	H	0.19467	0.572509	0.0146546
0	H	0.454015	0.642476	0.0170391
0	H	0.374162	0.825544	0.0147964
0	C	0.247003	0.204054	0.462075
0	C	0.812233	0.0573457	0.460873
0	C	0.957861	0.777582	0.463486
0	C	0.768522	0.824795	0.370628
0	C	0.201462	0.9701	0.37675
0	C	0.0535679	0.249668	0.375549
0	C	0.901345	0.537841	0.820079
0	C	0.481003	0.386105	0.816734
0	C	0.63182	0.115699	0.814658
0	C	0.432227	0.152543	0.664939
0	C	0.875504	0.301561	0.665624
0	C	0.715274	0.587536	0.669302
0	C	0.583578	0.875773	0.169423
0	C	0.13657	0.724433	0.169895
0	C	0.296344	0.439795	0.168276
0	C	0.111615	0.492566	0.0205191
0	C	0.532113	0.638295	0.0229048
0	C	0.381075	0.91065	0.0206905
0	H	0.228818	0.231881	0.455084
0	H	0.783765	0.0107903	0.453818
0	H	0.00345625	0.796151	0.45608
0	H	0.786692	0.796865	0.377375
0	H	0.229901	0.0166218	0.383903
0	H	0.00802453	0.231359	0.382991
0	H	0.881589	0.564516	0.813944
0	H	0.454695	0.339067	0.810144
0	H	0.677898	0.135721	0.808151
0	H	0.451308	0.12537	0.671392
0	H	0.902123	0.348618	0.672023
0	H	0.66915	0.567152	0.675817
0	H	0.564236	0.902817	0.163345
0	H	0.109861	0.677417	0.163418
0	H	0.342371	0.460254	0.161432
0	H	0.131469	0.465976	0.0266024
0	H	0.558322	0.685338	0.0294579
0	H	0.335031	0.890869	0.0272413
0	C	0.312672	0.34647	0.452043
0	C	0.671924	0.982677	0.452419
0	C	0.0317634	0.710528	0.454023
0	C	0.702642	0.681994	0.380371
0	C	0.341757	0.0447905	0.38491
0	C	0.980481	0.317445	0.384893
0	C	0.96674	0.681234	0.80396
0	C	0.340035	0.307145	0.801288
0	C	0.706293	0.0503511	0.79818
0	C	0.367172	0.00799873	0.673722
0	C	0.016998	0.382099	0.673276
0	C	0.63715	0.651089	0.67833
0	C	0.648064	0.0202145	0.16068
0	C	0.995224	0.644573	0.161234
0	C	0.374836	0.376237	0.159026
0	C	0.0467088	0.349415	0.036956
0	C	0.672573	0.717418	0.0385426
0	C	0.307126	0.976787	0.0368169
0	C	0.316399	0.374728	0.418003
0	C	0.642861	0.958581	0.41861
0	C	0.0554226	0.704848	0.42036
0	C	0.698589	0.653942	0.414558
0	C	0.371458	0.0695834	0.41843
0	C	0.956825	0.323222	0.418523
0	C	0.968834	0.70835	0.769697
0	C	0.311597	0.281358	0.767533
0	C	0.730855	0.0488114	0.763813
0	C	0.362243	0.975789	0.706211
0	C	0.048874	0.410348	0.705571
0	C	0.610635	0.655389	0.711089
0	C	0.652814	0.0523174	0.128178
0	C	0.964194	0.616729	0.128611
0	C	0.401025	0.371352	0.126276
0	C	0.0448779	0.322531	0.0712659
0	C	0.700427	0.743127	0.0724557
0	C	0.282668	0.978927	0.0710918
0	H	0.345241	0.376542	0.395681
0	H	0.641953	0.986922	0.396512
0	H	0.0276682	0.674846	0.398365
0	H	0.669878	0.652655	0.436798
0	H	0.372745	0.0416681	0.440683
0	H	0.984589	0.353338	0.440479
0	H	0.995884	0.708501	0.746752
0	H	0.311018	0.308547	0.744564
0	H	0.703708	0.0206555	0.740992
0	H	0.332998	0.971841	0.72888
0	H	0.0540481	0.385131	0.728027
0	H	0.636358	0.685602	0.733588
0	H	0.682151	0.0564694	0.105515
0	H	0.959938	0.64225	0.10596
0	H	0.375057	0.340975	0.103917
0	H	0.0179845	0.322507	0.0942745
0	H	0.70127	0.715958	0.0953479
0	H	0.309929	0.0072053	0.0938358
0	C	0.282986	0.401059	0.41163
0	C	0.614638	0.897657	0.412207
0	C	0.115222	0.737755	0.413976
0	C	0.731446	0.627078	0.421174
0	C	0.399813	0.130644	0.424314
0	C	0.897031	0.290237	0.424925
0	C	0.935894	0.735334	0.763958
0	C	0.283603	0.2202	0.762322
0	C	0.790625	0.0836077	0.757835
0	C	0.394964	0.948328	0.710596
0	C	0.0744078	0.471475	0.709988
0	C	0.550614	0.620682	0.715965
0	C	0.61976	0.0793947	0.123751
0	C	0.938331	0.555583	0.124094
0	C	0.46104	0.405674	0.121242
0	C	0.0778583	0.295585	0.0769724
0	C	0.727445	0.804167	0.0779393
0	C	0.222867	0.944581	0.0770786
0	H	0.286437	0.422907	0.385067
0	H	0.592303	0.879613	0.385809
0	H	0.13294	0.732705	0.387748
0	H	0.727785	0.605433	0.447844
0	H	0.42269	0.14926	0.450484
0	H	0.879282	0.295328	0.451132
0	H	0.937335	0.75551	0.737093
0	H	0.262323	0.200891	0.735853
0	H	0.808912	0.0826971	0.730834
0	H	0.391169	0.924081	0.736126
0	H	0.098357	0.49266	0.735387
0	H	0.530772	0.623923	0.741739
0	H	0.623399	0.103552	0.0981964
0	H	0.915092	0.534719	0.0984294
0	H	0.480636	0.402003	0.0954789
0	H	0.0766238	0.275595	0.103877
0	H	0.748209	0.823393	0.104552
0	H	0.204653	0.945943	0.104011
0	C	0.245081	0.399008	0.439191
0	C	0.615483	0.860179	0.439539
0	C	0.152012	0.777142	0.441126
0	C	0.769032	0.628302	0.393668
0	C	0.398409	0.167539	0.396767
0	C	0.860271	0.250702	0.397831
0	C	0.900483	0.735661	0.792532
0	C	0.28362	0.183966	0.790897
0	C	0.826717	0.12015	0.786309
0	C	0.433004	0.952504	0.682417
0	C	0.0684897	0.505197	0.682052
0	C	0.516265	0.581364	0.687989
0	C	0.581573	0.0749713	0.151894
0	C	0.943019	0.521442	0.152272
0	C	0.495704	0.445196	0.149043
0	C	0.113027	0.295047	0.0483071
0	C	0.727112	0.840356	0.0494523
0	C	0.186632	0.907922	0.0486976
0	H	0.219125	0.419595	0.434275
0	H	0.593443	0.812697	0.434635
0	H	0.198593	0.802764	0.436171
0	H	0.794402	0.607122	0.398757
0	H	0.420505	0.215122	0.401271
0	H	0.813698	0.224975	0.40281
0	H	0.875025	0.756892	0.788081
0	H	0.261429	0.136303	0.786874
0	H	0.87329	0.147036	0.781644
0	H	0.458257	0.930856	0.685756
0	H	0.0884153	0.552775	0.685522
0	H	0.469487	0.554716	0.691742
0	H	0.556073	0.0963376	0.148535
0	H	0.92273	0.473829	0.148751
0	H	0.54248	0.47154	0.145165
0	H	0.138448	0.273765	0.0527222
0	H	0.748573	0.887938	0.0536928
0	H	0.140035	0.881378	0.0533668
0	C	0.240051	0.369869	0.472935
0	C	0.645309	0.883788	0.473056
0	C	0.128828	0.784094	0.474469
0	C	0.774424	0.657244	0.359787
0	C	0.367933	0.143227	0.36355
0	C	0.883457	0.243724	0.364493
0	C	0.897535	0.708298	0.826647
0	C	0.312552	0.209126	0.824414
0	C	0.802793	0.122441	0.820562
0	C	0.438989	0.985106	0.650114
0	C	0.0364715	0.477587	0.64988
0	C	0.54216	0.576004	0.655441
0	C	0.575722	0.042413	0.184202
0	C	0.974301	0.548664	0.184754
0	C	0.470129	0.451152	0.181557
0	C	0.115751	0.322209	0.0141513
0	C	0.698826	0.81527	0.0157513
0	C	0.210437	0.905062	0.0145312
0	H	0.209476	0.366924	0.494176
0	H	0.647127	0.85473	0.494099
0	H	0.157236	0.815767	0.49539
0	H	0.804818	0.659555	0.338613
0	H	0.365691	0.17181	0.342339
0	H	0.855058	0.212011	0.34359
0	H	0.869347	0.707577	0.848864
0	H	0.313614	0.181222	0.846555
0	H	0.830592	0.151399	0.842733
0	H	0.469406	0.989483	0.628324
0	H	0.0309068	0.503538	0.628281
0	H	0.515713	0.544471	0.633877
0	H	0.545178	0.0378009	0.205954
0	H	0.978918	0.522369	0.206534
0	H	0.496832	0.482906	0.202961
0	H	0.143722	0.322725	0.99185
0	H	0.697576	0.843133	0.993655
0	H	0.182529	0.875973	0.992442
0	C	0.273577	0.343761	0.479299
0	C	0.673486	0.944625	0.479418
0	C	0.0691188	0.751019	0.480872
0	C	0.741487	0.683947	0.353197
0	C	0.339639	0.0822616	0.357699
0	C	0.943155	0.276862	0.358068
0	C	0.930326	0.681142	0.832258
0	C	0.340647	0.270307	0.829524
0	C	0.742993	0.0879692	0.826378
0	C	0.406449	0.012807	0.645934
0	C	0.0108634	0.416469	0.645584
0	C	0.602202	0.610539	0.65072
0	C	0.608568	0.0150668	0.188419
0	C	0.000299676	0.609802	0.189128
0	C	0.410095	0.416984	0.186448
0	C	0.0829368	0.349348	0.00857934
0	C	0.671631	0.754201	0.0103889
0	C	0.270282	0.939037	0.00872406
0	H	0.268286	0.320785	0.505869
0	H	0.697073	0.961885	0.505757
0	H	0.0521802	0.757666	0.507164
0	H	0.747006	0.70673	0.326521
0	H	0.31553	0.0644632	0.331586
0	H	0.9601	0.270204	0.331781
0	H	0.926585	0.659486	0.859159
0	H	0.363291	0.288749	0.856007
0	H	0.72548	0.0913278	0.85337
0	H	0.412627	0.0386755	0.620546
0	H	0.985568	0.396026	0.620228
0	H	0.621309	0.604915	0.625089
0	H	0.602488	0.989221	0.213805
0	H	0.0250768	0.629958	0.214701
0	H	0.391233	0.423042	0.212053
0	H	0.0864781	0.370813	0.981635
0	H	0.649449	0.735816	0.983771
0	H	0.287701	0.93515	0.981828
0	C	0.454331	0.307181	0.51779
0	C	0.716274	0.167691	0.518911
0	C	0.850878	0.567291	0.520911
0	C	0.561397	0.721695	0.314623
0	C	0.296846	0.859469	0.318598
0	C	0.161753	0.460467	0.318162
0	C	0.112565	0.644964	0.866459
0	C	0.375206	0.492114	0.863376
0	C	0.524399	0.899497	0.861164
0	C	0.221484	0.0471923	0.613123
0	C	0.979036	0.195381	0.61183
0	C	0.820216	0.800059	0.616058
0	C	0.794127	0.981918	0.221429
0	C	0.0336737	0.83165	0.222595
0	C	0.192375	0.227333	0.221768
0	C	0.900369	0.384494	0.974282
0	C	0.637837	0.533311	0.975309
0	C	0.489281	0.12684	0.97361
0	C	0.464657	0.292193	0.553472
0	C	0.7328	0.193131	0.55458
0	C	0.826107	0.557906	0.556675
0	C	0.551066	0.736784	0.278978
0	C	0.280251	0.834211	0.282886
0	C	0.186661	0.470117	0.282425
0	C	0.122391	0.630087	0.902314
0	C	0.390034	0.516738	0.899349
0	C	0.500421	0.889249	0.897213
0	C	0.211536	0.0627831	0.577512
0	C	0.962839	0.170058	0.576102
0	C	0.845889	0.809605	0.580577
0	C	0.804171	0.966289	0.257
0	C	0.049881	0.857194	0.258269
0	C	0.167009	0.217956	0.257339
0	C	0.890497	0.399145	0.938374
0	C	0.622816	0.509064	0.939249
0	C	0.513173	0.136962	0.937535
0	H	0.44621	0.300485	0.578446
0	H	0.724307	0.165562	0.579405
0	H	0.853265	0.577289	0.581458
0	H	0.569588	0.728661	0.253976
0	H	0.28889	0.861906	0.258107
0	H	0.159598	0.450978	0.257578
0	H	0.104975	0.639934	0.927163
0	H	0.379264	0.488553	0.924063
0	H	0.528178	0.907253	0.921866
0	H	0.230084	0.0547448	0.552501
0	H	0.970991	0.197647	0.551328
0	H	0.819418	0.789785	0.555587
0	H	0.78554	0.974145	0.28204
0	H	0.0416521	0.829732	0.283116
0	H	0.19371	0.237874	0.282229
0	H	0.90785	0.389113	0.913572
0	H	0.633482	0.53749	0.914661
0	H	0.485353	0.118994	0.912906
0	C	0.498958	0.266443	0.558073
0	C	0.760363	0.254385	0.559342
0	C	0.766054	0.52342	0.561603
0	C	0.516651	0.762422	0.274448
0	C	0.252428	0.772963	0.278009
0	C	0.246741	0.504576	0.277607
0	C	0.15498	0.60253	0.907244
0	C	0.418752	0.577956	0.904543
0	C	0.440431	0.855509	0.902568
0	C	0.177421	0.0887629	0.572972
0	C	0.936037	0.108891	0.571213
0	C	0.905977	0.844924	0.576201
0	C	0.838452	0.940481	0.261453
0	C	0.0767317	0.918392	0.263004
0	C	0.106961	0.182677	0.261931
0	C	0.857931	0.426708	0.933338
0	C	0.593996	0.4479	0.933787
0	C	0.573156	0.170528	0.932096
0	H	0.506355	0.255034	0.586014
0	H	0.772952	0.273298	0.587261
0	H	0.747659	0.51684	0.589591
0	H	0.509207	0.773855	0.246528
0	H	0.239776	0.754201	0.250057
0	H	0.265223	0.511364	0.249633
0	H	0.161817	0.591018	0.935291
0	H	0.430264	0.5962	0.932664
0	H	0.42267	0.848533	0.93074
0	H	0.170304	0.100601	0.545076
0	H	0.923541	0.0900517	0.543271
0	H	0.925082	0.851604	0.548431
0	H	0.845609	0.928563	0.289316
0	H	0.0892195	0.93741	0.290899
0	H	0.0880873	0.176097	0.289767
0	H	0.851075	0.438071	0.905254
0	H	0.582283	0.429963	0.905604
0	H	0.590806	0.177379	0.903895
0	C	0.523398	0.255147	0.52695
0	C	0.771851	0.291157	0.528392
0	C	0.729783	0.497752	0.530734
0	C	0.492161	0.773578	0.305598
0	C	0.240803	0.736015	0.308882
0	C	0.2829	0.529946	0.308565
0	C	0.178648	0.589803	0.876314
0	C	0.432543	0.615486	0.873747
0	C	0.4035	0.830925	0.871865
0	C	0.152653	0.0996038	0.604106
0	C	0.925289	0.0721272	0.602074
0	C	0.941329	0.871396	0.60735
0	C	0.863328	0.9299	0.230271
0	C	0.0875024	0.954964	0.232033
0	C	0.0713432	0.156084	0.23091
0	C	0.834323	0.439654	0.964204
0	C	0.580327	0.410031	0.964386
0	C	0.610214	0.19511	0.962744
0	H	0.549949	0.234947	0.530459
0	H	0.793431	0.338843	0.532007
0	H	0.683039	0.471068	0.53451
0	H	0.465496	0.793656	0.302131
0	H	0.219041	0.688332	0.305178
0	H	0.329667	0.556597	0.304888
0	H	0.203991	0.568343	0.880139
0	H	0.454989	0.663135	0.877738
0	H	0.356816	0.804651	0.876
0	H	0.126236	0.11997	0.600633
0	H	0.904425	0.0245326	0.59831
0	H	0.988088	0.898762	0.604
0	H	0.889854	0.909643	0.233678
0	H	0.108408	0.00258511	0.235672
0	H	0.024615	0.128728	0.234429
0	H	0.809008	0.461128	0.960298
0	H	0.557774	0.362423	0.960191
0	H	0.656897	0.221255	0.95854
0	C	0.513429	0.269804	0.491244
0	C	0.755551	0.266386	0.492708
0	C	0.753881	0.506648	0.49496
0	C	0.502212	0.758902	0.341279
0	C	0.257233	0.760614	0.344606
0	C	0.258658	0.520802	0.344306
0	C	0.169628	0.604838	0.840466
0	C	0.417208	0.591507	0.837808
0	C	0.426842	0.84015	0.835844
0	C	0.162137	0.0842495	0.639739
0	C	0.941532	0.0968158	0.637792
0	C	0.916293	0.862519	0.642829
0	C	0.853807	0.945353	0.194681
0	C	0.0712209	0.930061	0.196374
0	C	0.0960636	0.164811	0.195338
0	C	0.843363	0.424805	0.000104636
0	C	0.595934	0.433641	0.000400579
0	C	0.586973	0.186062	0.998787
0	H	0.53219	0.260993	0.466864
0	H	0.76449	0.294795	0.468469
0	H	0.725889	0.486892	0.470785
0	H	0.483445	0.76765	0.365681
0	H	0.248205	0.732054	0.368778
0	H	0.28654	0.540349	0.368552
0	H	0.188067	0.595162	0.816291
0	H	0.427617	0.620534	0.813759
0	H	0.398281	0.820944	0.811867
0	H	0.142989	0.0926257	0.664098
0	H	0.93337	0.0684333	0.661918
0	H	0.943535	0.883063	0.667192
0	H	0.873065	0.937214	0.170284
0	H	0.0793831	0.958286	0.172162
0	H	0.0686036	0.144177	0.171075
0	H	0.824958	0.434643	0.0242286
0	H	0.585652	0.404354	0.024295
0	H	0.615662	0.2053	0.0227125
0	C	0.479403	0.295834	0.486767
0	C	0.72775	0.205157	0.488066
0	C	0.813925	0.540938	0.490149
0	C	0.536292	0.732922	0.345683
0	C	0.285253	0.821835	0.349365
0	C	0.198593	0.486551	0.349006
0	C	0.136912	0.632259	0.835621
0	C	0.388685	0.530303	0.8327
0	C	0.486833	0.874172	0.830568
0	C	0.196155	0.0581739	0.644161
0	C	0.968226	0.157956	0.642598
0	C	0.856225	0.827236	0.647103
0	C	0.819592	0.971226	0.190346
0	C	0.0444882	0.868887	0.191724
0	C	0.156098	0.200055	0.190849
0	C	0.876044	0.397372	0.00505738
0	C	0.624542	0.494791	0.0057801
0	C	0.52698	0.152214	0.00414501
0	H	0.473271	0.307359	0.458384
0	H	0.714914	0.187426	0.459733
0	H	0.831159	0.546339	0.461723
0	H	0.542451	0.721335	0.374044
0	H	0.298171	0.839452	0.377719
0	H	0.181248	0.480992	0.377411
0	H	0.130962	0.643629	0.807154
0	H	0.377178	0.513067	0.804174
0	H	0.503578	0.880336	0.801976
0	H	0.202323	0.0464999	0.672487
0	H	0.980505	0.175746	0.670956
0	H	0.83818	0.82156	0.6753
0	H	0.813412	0.982984	0.162049
0	H	0.0321927	0.850942	0.163402
0	H	0.173891	0.205625	0.162583
0	H	0.882001	0.386135	0.0335598
0	H	0.636266	0.511728	0.0343543
0	H	0.510334	0.146205	0.0327549
0	C	0.351641	0.315336	0.550816
0	C	0.705292	0.0534124	0.551314
0	C	0.962564	0.672458	0.553182
0	C	0.663986	0.713391	0.2814
0	C	0.307892	0.973621	0.286271
0	C	0.0503529	0.355574	0.285536
0	C	0.0147254	0.66023	0.9007
0	C	0.359697	0.376866	0.897329
0	C	0.637073	0.00109764	0.895291
0	C	0.322971	0.0368635	0.579412
0	C	0.988927	0.309054	0.579032
0	C	0.70908	0.694274	0.582658
0	C	0.69202	0.991376	0.255072
0	C	0.0234586	0.718067	0.255797
0	C	0.304161	0.333164	0.254683
0	C	0.998326	0.369452	0.94014
0	C	0.65214	0.648174	0.941946
0	C	0.3767	0.0247766	0.939464
0	C	0.326887	0.256746	0.563165
0	C	0.763445	0.0858842	0.562704
0	C	0.92999	0.697727	0.565052
0	C	0.689269	0.77219	0.269377
0	C	0.249752	0.940976	0.274842
0	C	0.083061	0.330436	0.273705
0	C	0.98979	0.603136	0.915729
0	C	0.415987	0.408874	0.912082
0	C	0.605123	0.0253667	0.909963
0	C	0.349285	0.0957321	0.567354
0	C	0.93096	0.276335	0.567248
0	C	0.741883	0.669395	0.570505
0	C	0.666077	0.932568	0.267187
0	C	0.0812335	0.750977	0.267938
0	C	0.271778	0.358432	0.266993
0	C	0.0231725	0.426517	0.92508
0	C	0.595761	0.61565	0.927404
0	C	0.408968	0.000840696	0.924826
0	H	0.338345	0.226474	0.549966
0	H	0.793956	0.12701	0.548533
0	H	0.889139	0.686423	0.551293
0	H	0.678158	0.802577	0.282796
0	H	0.219244	0.899965	0.289121
0	H	0.123698	0.341506	0.287683
0	H	0.998006	0.570224	0.903062
0	H	0.448445	0.45062	0.899393
0	H	0.563933	0.0154954	0.897327
0	H	0.33728	0.126091	0.579748
0	H	0.901089	0.233363	0.579741
0	H	0.783481	0.681825	0.583602
0	H	0.678276	0.902368	0.25478
0	H	0.111225	0.793883	0.255416
0	H	0.229809	0.345716	0.254371
0	H	0.015024	0.45945	0.937792
0	H	0.563514	0.574131	0.940442
0	H	0.450332	0.011202	0.937394
0	C	0.286721	0.235509	0.592505
0	C	0.783745	0.0665293	0.592327
0	C	0.949035	0.738168	0.594667
0	C	0.729495	0.793474	0.240067
0	C	0.22949	0.96	0.245015
0	C	0.0644487	0.290454	0.24385
0	C	0.953607	0.586889	0.947102
0	C	0.432057	0.388058	0.943173
0	C	0.625233	0.0629751	0.941036
0	C	0.391763	0.117102	0.539429
0	C	0.90978	0.298002	0.539491
0	C	0.72208	0.627829	0.541541
0	C	0.623691	0.911053	0.295174
0	C	0.102069	0.729573	0.296083
0	C	0.29252	0.4008	0.295495
0	C	0.0591407	0.442689	0.893604
0	C	0.57935	0.635596	0.896043
0	C	0.388992	0.962937	0.893892
0	H	0.267656	0.189741	0.601592
0	H	0.829119	0.0920659	0.600659
0	H	0.923239	0.757507	0.603384
0	H	0.749005	0.839415	0.231254
0	H	0.184155	0.934255	0.236614
0	H	0.0902918	0.271137	0.235199
0	H	0.934738	0.542379	0.958478
0	H	0.476016	0.413397	0.954193
0	H	0.599951	0.0815711	0.951978
0	H	0.411929	0.163046	0.530556
0	H	0.86452	0.272109	0.530905
0	H	0.748105	0.608873	0.532575
0	H	0.603749	0.865127	0.304058
0	H	0.147184	0.755605	0.304953
0	H	0.266791	0.42001	0.304608
0	H	0.0779162	0.487158	0.882177
0	H	0.535361	0.609815	0.885135
0	H	0.414557	0.944636	0.882978
0	C	0.270806	0.272687	0.610011
0	C	0.745868	0.0143804	0.611223
0	C	0.00103754	0.753896	0.612893
0	C	0.744861	0.756106	0.222235
0	C	0.26731	0.0120333	0.226014
0	C	0.012812	0.275176	0.225282
0	C	0.941628	0.627599	0.963764
0	C	0.391812	0.334801	0.960012
0	C	0.677691	0.0767098	0.957866
0	C	0.408634	0.0798413	0.52315
0	C	0.946341	0.352934	0.523092
0	C	0.668942	0.61032	0.524317
0	C	0.606613	0.948119	0.3115
0	C	0.0653392	0.674721	0.312522
0	C	0.346219	0.418795	0.312047
0	C	0.0709969	0.401927	0.876892
0	C	0.619327	0.688536	0.878765
0	C	0.336269	0.948453	0.877158
0	H	0.240116	0.256575	0.633233
0	H	0.761107	0.999597	0.634831
0	H	0.015741	0.784725	0.636339
0	H	0.775571	0.772235	0.199013
0	H	0.252072	0.0265387	0.202265
0	H	0.998531	0.244841	0.201587
0	H	0.914152	0.615467	0.988535
0	H	0.403778	0.318787	0.9846
0	H	0.692991	0.105108	0.982458
0	H	0.441836	0.0962709	0.501455
0	H	0.930022	0.370093	0.50149
0	H	0.6534	0.578147	0.501602
0	H	0.573584	0.931595	0.333296
0	H	0.0813396	0.657834	0.334492
0	H	0.362617	0.451792	0.334295
0	H	0.09825	0.413993	0.852022
0	H	0.60714	0.703766	0.853909
0	H	0.321022	0.919762	0.852694
0	C	0.294209	0.330788	0.597468
0	C	0.688235	0.980776	0.599517
0	C	0.0345476	0.730119	0.60078
0	C	0.720916	0.697772	0.234446
0	C	0.32489	0.0458758	0.237802
0	C	0.979109	0.29874	0.237381
0	C	0.964889	0.684099	0.948443
0	C	0.336011	0.301866	0.945117
0	C	0.710746	0.0541572	0.942922
0	C	0.382767	0.0211355	0.534883
0	C	0.00408161	0.386025	0.534627
0	C	0.635511	0.634201	0.536426
0	C	0.632063	0.00675005	0.299674
0	C	0.0078275	0.641388	0.300577
0	C	0.379113	0.394347	0.299869
0	C	0.0479199	0.345488	0.892281
0	C	0.675096	0.722206	0.893598
0	C	0.302878	0.970644	0.892066
0	H	0.281336	0.359665	0.610787
0	H	0.658849	0.939625	0.613868
0	H	0.0755012	0.742918	0.614623
0	H	0.733368	0.668744	0.220855
0	H	0.354225	0.0869732	0.2234
0	H	0.938421	0.286262	0.22328
0	H	0.955088	0.715697	0.96115
0	H	0.304698	0.260132	0.95805
0	H	0.752159	0.0657038	0.955629
0	H	0.395488	0.991821	0.522084
0	H	0.0328521	0.428829	0.521841
0	H	0.594031	0.620714	0.523026
0	H	0.619168	0.0359119	0.312489
0	H	0.978963	0.598629	0.313377
0	H	0.420988	0.40813	0.312789
0	H	0.0577157	0.31389	0.879575
0	H	0.706105	0.763834	0.880419
0	H	0.261239	0.958474	0.879462
0	C	0.333978	0.351745	0.567945
0	C	0.668288	0.999851	0.569565
0	C	0.015635	0.690085	0.570988
0	C	0.681134	0.676782	0.263961
0	C	0.344831	0.0270749	0.267901
0	C	0.99752	0.338194	0.267482
0	C	0.000743515	0.700057	0.916951
0	C	0.320332	0.322438	0.91374
0	C	0.69071	0.0169738	0.911697
0	C	0.340333	0.999879	0.562823
0	C	0.0251365	0.36424	0.562376
0	C	0.655354	0.675631	0.565448
0	C	0.674297	0.0281087	0.27161
0	C	0.987127	0.66288	0.27242
0	C	0.358276	0.352007	0.271375
0	C	0.0122419	0.329598	0.923857
0	C	0.691113	0.702469	0.925223
0	C	0.322849	0.00821257	0.923119
0	H	0.350874	0.39728	0.558669
0	H	0.623078	0.971844	0.560906
0	H	0.0434092	0.672953	0.562097
0	H	0.663825	0.631063	0.272977
0	H	0.390015	0.0552045	0.276592
0	H	0.969562	0.355099	0.276386
0	H	0.0175192	0.744346	0.905344
0	H	0.276608	0.294956	0.902421
0	H	0.717909	0.000519935	0.900552
0	H	0.321159	0.953707	0.571296
0	H	0.0705188	0.391532	0.570696
0	H	0.627716	0.692979	0.574259
0	H	0.693054	0.0741742	0.263001
0	H	0.941935	0.635397	0.263754
0	H	0.38547	0.334147	0.262542
0	H	0.995579	0.285349	0.935509
0	H	0.734798	0.730481	0.936479
0	H	0.295355	0.0243999	0.934151
0	C	0.530784	0.464659	0.486366
0	C	0.560988	0.0895973	0.487436
0	C	0.930396	0.49101	0.488449
0	C	0.484913	0.564006	0.346054
0	C	0.452146	0.936978	0.34974
0	C	0.0821434	0.536867	0.350278
0	C	0.189446	0.799816	0.827415
0	C	0.222658	0.412284	0.822603
0	C	0.60229	0.824647	0.821701
0	C	0.145891	0.889941	0.648411
0	C	0.134013	0.278158	0.648074
0	C	0.737437	0.872899	0.650053
0	C	0.868963	0.1391	0.186748
0	C	0.878953	0.749382	0.186438
0	C	0.274778	0.154263	0.186874
0	C	0.824189	0.229735	0.0138515
0	C	0.790692	0.613777	0.0151896
0	C	0.409865	0.201119	0.0126345
0	C	0.565798	0.439342	0.482401
0	C	0.587423	0.15116	0.48359
0	C	0.870144	0.455139	0.483969
0	C	0.45	0.589397	0.350262
0	C	0.425596	0.875387	0.353447
0	C	0.142363	0.57256	0.355037
0	C	0.22459	0.774734	0.823112
0	C	0.247359	0.47354	0.818158
0	C	0.542137	0.787775	0.81732
0	C	0.109332	0.913291	0.653187
0	C	0.11063	0.217174	0.65309
0	C	0.79707	0.911111	0.655851
0	C	0.905915	0.116205	0.182059
0	C	0.902367	0.810373	0.181442
0	C	0.215098	0.115898	0.181393
0	C	0.789155	0.254938	0.0181968
0	C	0.766083	0.552505	0.0194798
0	C	0.469895	0.237916	0.0176915
0	H	0.561775	0.405284	0.501871
0	H	0.621831	0.180919	0.502774
0	H	0.840284	0.459128	0.503026
0	H	0.454136	0.62372	0.330985
0	H	0.391084	0.845779	0.334275
0	H	0.172359	0.568427	0.336193
0	H	0.222631	0.742552	0.843397
0	H	0.279475	0.504295	0.838159
0	H	0.51207	0.788999	0.837548
0	H	0.11196	0.947212	0.634155
0	H	0.0776119	0.185451	0.633915
0	H	0.828899	0.910297	0.637018
0	H	0.903725	0.082632	0.201225
0	H	0.935256	0.842062	0.200699
0	H	0.183457	0.11674	0.200393
0	H	0.79108	0.287069	0.997886
0	H	0.734155	0.52184	0.99936
0	H	0.500502	0.236618	0.997967
0	C	0.606404	0.456976	0.45348
0	C	0.57037	0.175774	0.455234
0	C	0.847059	0.413647	0.455073
0	C	0.409315	0.57145	0.379147
0	C	0.44268	0.850544	0.381643
0	C	0.165231	0.614081	0.383929
0	C	0.262688	0.790233	0.792842
0	C	0.231483	0.496494	0.788148
0	C	0.519417	0.748907	0.787024
0	C	0.0689079	0.893763	0.682315
0	C	0.128948	0.19574	0.682656
0	C	0.816984	0.95081	0.685817
0	C	0.946118	0.13568	0.152798
0	C	0.88426	0.831853	0.151787
0	C	0.194887	0.0760104	0.151532
0	C	0.75118	0.239581	0.0485214
0	C	0.781777	0.529433	0.0495167
0	C	0.491784	0.276813	0.0480207
0	H	0.6327	0.436476	0.450477
0	H	0.591764	0.22349	0.452291
0	H	0.800322	0.386742	0.451625
0	H	0.383064	0.591972	0.382322
0	H	0.421217	0.802811	0.38447
0	H	0.211937	0.640847	0.387606
0	H	0.289232	0.770037	0.789705
0	H	0.251293	0.544018	0.78492
0	H	0.472752	0.721072	0.783788
0	H	0.041112	0.912477	0.685793
0	H	0.110111	0.148395	0.686362
0	H	0.863281	0.979739	0.690183
0	H	0.974214	0.117308	0.149377
0	H	0.903089	0.879202	0.14811
0	H	0.148548	0.046919	0.147443
0	H	0.724725	0.259868	0.0517029
0	H	0.761976	0.481898	0.0526617
0	H	0.538358	0.304561	0.0518064
0	C	0.612867	0.500598	0.428288
0	C	0.526102	0.139055	0.430558
0	C	0.884006	0.407004	0.430533
0	C	0.402687	0.52745	0.404071
0	C	0.487065	0.887071	0.406313
0	C	0.128092	0.620935	0.408169
0	C	0.266506	0.831439	0.766537
0	C	0.190319	0.458449	0.762222
0	C	0.556598	0.746034	0.760755
0	C	0.0643208	0.850372	0.70705
0	C	0.171332	0.235054	0.707514
0	C	0.777471	0.953189	0.710275
0	C	0.950058	0.178529	0.127838
0	C	0.842113	0.792588	0.126797
0	C	0.234138	0.0736267	0.126833
0	C	0.74735	0.198363	0.0748256
0	C	0.822695	0.567388	0.0755965
0	C	0.453879	0.279842	0.0736083
0	H	0.644092	0.514161	0.405491
0	H	0.51289	0.157952	0.408227
0	H	0.866259	0.374993	0.407818
0	H	0.371389	0.513633	0.426837
0	H	0.500317	0.867993	0.428508
0	H	0.145671	0.652986	0.430872
0	H	0.295856	0.843299	0.74281
0	H	0.178105	0.476209	0.738715
0	H	0.539003	0.716201	0.736944
0	H	0.0330736	0.835287	0.729872
0	H	0.185438	0.218476	0.730699
0	H	0.792873	0.983743	0.733814
0	H	0.981073	0.193515	0.104876
0	H	0.828241	0.809206	0.103504
0	H	0.218487	0.0429138	0.103383
0	H	0.718118	0.186639	0.0986119
0	H	0.834695	0.549534	0.0991623
0	H	0.470829	0.309748	0.0974246
0	C	0.57926	0.527044	0.432487
0	C	0.498572	0.0778235	0.434655
0	C	0.943959	0.441444	0.435278
0	C	0.436202	0.500948	0.399634
0	C	0.514667	0.948334	0.402372
0	C	0.0681877	0.586679	0.403143
0	C	0.232502	0.857424	0.770833
0	C	0.164823	0.397456	0.766621
0	C	0.616497	0.781572	0.765196
0	C	0.0999608	0.826334	0.702352
0	C	0.195542	0.295782	0.7025
0	C	0.71807	0.916181	0.704419
0	C	0.914036	0.202136	0.132461
0	C	0.817837	0.731848	0.131801
0	C	0.2936	0.110833	0.132347
0	C	0.78115	0.172169	0.0704499
0	C	0.848207	0.628398	0.0712912
0	C	0.394114	0.244372	0.06849
0	H	0.584669	0.56158	0.41314
0	H	0.463537	0.0490991	0.415722
0	H	0.972873	0.435887	0.416432
0	H	0.430679	0.466131	0.418769
0	H	0.549769	0.976909	0.42131
0	H	0.0391249	0.592403	0.42175
0	H	0.235606	0.89001	0.75064
0	H	0.13233	0.367442	0.746714
0	H	0.645801	0.779153	0.745046
0	H	0.0962594	0.792127	0.72136
0	H	0.228989	0.32669	0.721591
0	H	0.687003	0.918213	0.723168
0	H	0.917214	0.235914	0.113269
0	H	0.784555	0.700948	0.11262
0	H	0.324473	0.10882	0.113405
0	H	0.778012	0.139537	0.0906177
0	H	0.880532	0.658334	0.0913135
0	H	0.364262	0.246915	0.0881051
0	C	0.538613	0.50933	0.461447
0	C	0.515821	0.0532535	0.462997
0	C	0.967016	0.483115	0.46414
0	C	0.476905	0.518951	0.370688
0	C	0.497422	0.973124	0.374172
0	C	0.0453487	0.544978	0.374292
0	C	0.194322	0.841751	0.801122
0	C	0.180868	0.374597	0.796655
0	C	0.639119	0.820498	0.795526
0	C	0.140441	0.846002	0.673192
0	C	0.176973	0.31714	0.672962
0	C	0.698231	0.876332	0.674479
0	C	0.873799	0.182547	0.161757
0	C	0.83616	0.710443	0.161448
0	C	0.313729	0.150851	0.1622
0	C	0.819208	0.187705	0.0401002
0	C	0.832336	0.651377	0.041238
0	C	0.372323	0.205364	0.0381554
0	H	0.513154	0.531101	0.464169
0	H	0.493253	0.00515828	0.46567
0	H	0.0141402	0.509269	0.467299
0	H	0.502249	0.497087	0.367756
0	H	0.520079	0.0212359	0.371596
0	H	0.998258	0.518991	0.370905
0	H	0.168438	0.863036	0.803817
0	H	0.159924	0.326623	0.799414
0	H	0.686224	0.847534	0.798316
0	H	0.167707	0.826317	0.670183
0	H	0.196776	0.364917	0.669727
0	H	0.651472	0.84795	0.67059
0	H	0.846231	0.201902	0.164704
0	H	0.816279	0.66265	0.16467
0	H	0.360523	0.179385	0.165831
0	H	0.844895	0.16621	0.0373368
0	H	0.853252	0.699361	0.0385545
0	H	0.325309	0.178335	0.0348408
0	C	0.445625	0.490618	0.526349
0	C	0.533439	0.975405	0.526875
0	C	0.0413679	0.57822	0.52849
0	C	0.569693	0.537985	0.305851
0	C	0.479837	0.0514536	0.310528
0	C	0.971406	0.449662	0.309986
0	C	0.109808	0.83117	0.867806
0	C	0.192049	0.299262	0.862637
0	C	0.713461	0.908807	0.861582
0	C	0.226518	0.861831	0.60616
0	C	0.161199	0.388728	0.605492
0	C	0.630177	0.787974	0.606721
0	C	0.787849	0.166624	0.228944
0	C	0.851264	0.638721	0.228924
0	C	0.382312	0.239029	0.22997
0	C	0.904382	0.198756	0.973904
0	C	0.82032	0.726992	0.975611
0	C	0.299723	0.116775	0.971782
0	C	0.47587	0.541005	0.548943
0	C	0.483799	0.956287	0.549103
0	C	0.0604986	0.547273	0.550638
0	C	0.539266	0.487605	0.283284
0	C	0.52956	0.070552	0.288385
0	C	0.952466	0.480817	0.287877
0	C	0.139324	0.882043	0.890011
0	C	0.141382	0.277605	0.88412
0	C	0.735388	0.880823	0.884056
0	C	0.193677	0.810522	0.584777
0	C	0.211802	0.407839	0.584272
0	C	0.611892	0.819686	0.584626
0	C	0.820332	0.217776	0.250538
0	C	0.800764	0.619738	0.250224
0	C	0.4008	0.207579	0.252153
0	C	0.875237	0.1477	0.951825
0	C	0.87094	0.749052	0.954035
0	C	0.278419	0.145216	0.949181
0	H	0.51416	0.548811	0.564727
0	H	0.476872	0.988103	0.564602
0	H	0.0295405	0.507864	0.566217
0	H	0.500935	0.479877	0.267582
0	H	0.536509	0.0387168	0.272937
0	H	0.983558	0.520308	0.272428
0	H	0.174862	0.888478	0.908266
0	H	0.134541	0.307207	0.902117
0	H	0.70671	0.844568	0.902663
0	H	0.156007	0.804105	0.568847
0	H	0.21883	0.376171	0.568682
0	H	0.643296	0.858563	0.568832
0	H	0.857827	0.22414	0.26666
0	H	0.793953	0.651444	0.265951
0	H	0.369556	0.168955	0.268206
0	H	0.839674	0.140881	0.933462
0	H	0.877963	0.719683	0.935927
0	H	0.307617	0.181921	0.931026
0	C	0.457818	0.582351	0.551838
0	C	0.442115	0.896276	0.551934
0	C	0.119488	0.565967	0.553309
0	C	0.557129	0.446113	0.280341
0	C	0.571257	0.130559	0.285572
0	C	0.893516	0.462226	0.28509
0	C	0.123986	0.925625	0.889253
0	C	0.0985254	0.217803	0.882952
0	C	0.79426	0.898534	0.883106
0	C	0.208177	0.766355	0.58347
0	C	0.254427	0.467687	0.582652
0	C	0.553219	0.802481	0.582413
0	C	0.805641	0.261806	0.251866
0	C	0.757942	0.559956	0.251739
0	C	0.459475	0.224703	0.254094
0	C	0.890965	0.10442	0.952851
0	C	0.913511	0.808954	0.95525
0	C	0.219509	0.127397	0.949417
0	H	0.481676	0.621094	0.569577
0	H	0.404014	0.882262	0.569388
0	H	0.133559	0.541576	0.570724
0	H	0.533135	0.407387	0.262608
0	H	0.609431	0.144561	0.268202
0	H	0.87959	0.486807	0.267747
0	H	0.14736	0.964898	0.906574
0	H	0.0594576	0.201713	0.89972
0	H	0.810589	0.876327	0.900618
0	H	0.181998	0.726568	0.566986
0	H	0.293629	0.481796	0.566263
0	H	0.539737	0.82779	0.565373
0	H	0.831495	0.301437	0.268556
0	H	0.718801	0.545946	0.268182
0	H	0.473113	0.199623	0.271233
0	H	0.867896	0.0650292	0.935614
0	H	0.952564	0.825347	0.938428
0	H	0.203686	0.150028	0.931862
0	C	0.40908	0.573805	0.53212
0	C	0.449504	0.854434	0.532479
0	C	0.16028	0.615997	0.533749
0	C	0.605818	0.454472	0.300037
0	C	0.563746	0.172424	0.304904
0	C	0.852546	0.412	0.304413
0	C	0.0786615	0.918706	0.866347
0	C	0.105963	0.178715	0.860388
0	C	0.83214	0.944906	0.859822
0	C	0.256116	0.773137	0.603363
0	C	0.246762	0.509391	0.602066
0	C	0.511909	0.752898	0.60208
0	C	0.757874	0.255041	0.231771
0	C	0.765272	0.518197	0.23213
0	C	0.500561	0.273862	0.233999
0	C	0.936354	0.111844	0.975891
0	C	0.90576	0.84776	0.977897
0	C	0.180941	0.0803668	0.97203
0	H	0.394853	0.60578	0.534417
0	H	0.41723	0.807746	0.534742
0	H	0.206175	0.630747	0.535879
0	H	0.619901	0.422387	0.2977
0	H	0.596022	0.21911	0.302638
0	H	0.806682	0.397342	0.302191
0	H	0.066745	0.952566	0.865688
0	H	0.0726809	0.132236	0.859423
0	H	0.877899	0.958722	0.85901
0	H	0.26735	0.738776	0.602405
0	H	0.279877	0.55591	0.600868
0	H	0.46631	0.73953	0.60043
0	H	0.746481	0.289287	0.232728
0	H	0.732022	0.471725	0.233284
0	H	0.546153	0.287137	0.235413
0	H	0.948605	0.078241	0.976731
0	H	0.938807	0.894324	0.978887
0	H	0.13515	0.0664697	0.972282
0	C	0.378803	0.524056	0.509376
0	C	0.498428	0.872881	0.510014
0	C	0.141788	0.646898	0.511386
0	C	0.636215	0.504161	0.322821
0	C	0.514688	0.154007	0.327225
0	C	0.870824	0.380794	0.326656
0	C	0.0487473	0.868101	0.844264
0	C	0.15635	0.199653	0.839039
0	C	0.810921	0.97342	0.837523
0	C	0.289342	0.82412	0.624581
0	C	0.196459	0.491002	0.623088
0	C	0.529492	0.720726	0.623962
0	C	0.724977	0.204192	0.210374
0	C	0.815418	0.536482	0.210954
0	C	0.48276	0.305726	0.211991
0	C	0.965888	0.162621	0.99787
0	C	0.855359	0.826442	0.999277
0	C	0.201522	0.0513338	0.994398
0	H	0.340777	0.517087	0.493956
0	H	0.504438	0.840546	0.49474
0	H	0.173273	0.685919	0.496061
0	H	0.674149	0.510937	0.338275
0	H	0.508528	0.186356	0.34236
0	H	0.8392	0.341571	0.341751
0	H	0.0132768	0.862297	0.826469
0	H	0.162647	0.169498	0.821511
0	H	0.840234	0.00991172	0.81959
0	H	0.32676	0.829753	0.640139
0	H	0.190109	0.523183	0.638254
0	H	0.497596	0.682018	0.63933
0	H	0.687655	0.198556	0.1947
0	H	0.821486	0.504263	0.195607
0	H	0.514476	0.344061	0.196253
0	H	0.00141346	0.168834	0.0157664
0	H	0.848789	0.856395	0.0168267
0	H	0.171689	0.0143305	0.0118095
0	C	0.397199	0.48297	0.506391
0	C	0.539913	0.933001	0.507128
0	C	0.0827154	0.627908	0.508679
0	C	0.618046	0.545426	0.325806
0	C	0.473239	0.0938819	0.330144
0	C	0.929879	0.399768	0.329548
0	C	0.064372	0.824742	0.844939
0	C	0.198939	0.259558	0.840094
0	C	0.751924	0.955181	0.838246
0	C	0.274433	0.868006	0.626054
0	C	0.154141	0.431037	0.624896
0	C	0.588278	0.738393	0.626385
0	C	0.740048	0.160425	0.208898
0	C	0.857951	0.59638	0.209261
0	C	0.42399	0.288216	0.209896
0	C	0.949827	0.205644	0.996943
0	C	0.813105	0.766422	0.998222
0	C	0.260577	0.0697683	0.994453
0	H	0.372693	0.444825	0.488036
0	H	0.57739	0.945762	0.48899
0	H	0.0698203	0.652923	0.490632
0	H	0.642664	0.583548	0.344163
0	H	0.435677	0.0811503	0.34819
0	H	0.9426	0.374559	0.347546
0	H	0.040208	0.785851	0.827105
0	H	0.237632	0.274424	0.822794
0	H	0.736746	0.978042	0.820036
0	H	0.301177	0.907087	0.643228
0	H	0.11558	0.41825	0.641949
0	H	0.600491	0.71249	0.644135
0	H	0.713524	0.121423	0.191612
0	H	0.896382	0.609099	0.192087
0	H	0.411591	0.313902	0.192079
0	H	0.973678	0.244668	0.0147153
0	H	0.774409	0.751259	0.0155645
0	H	0.275249	0.0465611	0.0127608
0	C	0.509184	0.442741	0.570482
0	C	0.581854	0.0888132	0.571242
0	C	0.930212	0.512042	0.572487
0	C	0.506008	0.586089	0.262009
0	C	0.431285	0.938325	0.265979
0	C	0.0827442	0.515941	0.266249
0	C	0.17419	0.783933	0.912926
0	C	0.236226	0.41189	0.908098
0	C	0.603117	0.839843	0.907224
0	C	0.162906	0.911603	0.563617
0	C	0.113561	0.273273	0.563291
0	C	0.744382	0.85539	0.565194
0	C	0.85128	0.116863	0.27164
0	C	0.89958	0.754324	0.271263
0	C	0.268344	0.171475	0.271758
0	C	0.839142	0.244355	0.928331
0	C	0.77643	0.614804	0.929739
0	C	0.410744	0.186127	0.927145
0	C	0.569611	0.478811	0.573425
0	C	0.546321	0.113651	0.574203
0	C	0.906119	0.450665	0.575212
0	C	0.445532	0.55014	0.259369
0	C	0.466973	0.913688	0.262817
0	C	0.106777	0.577308	0.263489
0	C	0.234935	0.817074	0.914304
0	C	0.202438	0.438806	0.908918
0	C	0.576582	0.778101	0.908283
0	C	0.10225	0.877173	0.56183
0	C	0.148318	0.247464	0.561723
0	C	0.771022	0.917048	0.562821
0	C	0.911912	0.151199	0.27377
0	C	0.865427	0.780804	0.272838
0	C	0.24202	0.109835	0.274048
0	C	0.778424	0.210465	0.927161
0	C	0.810352	0.58805	0.92847
0	C	0.437449	0.247881	0.926004
0	H	0.595917	0.50235	0.549029
0	H	0.522678	0.115965	0.549918
0	H	0.903639	0.424457	0.550747
0	H	0.419469	0.526558	0.28384
0	H	0.490543	0.911128	0.287062
0	H	0.10936	0.603543	0.287961
0	H	0.260201	0.837879	0.889077
0	H	0.1831	0.443841	0.883291
0	H	0.570685	0.752955	0.882661
0	H	0.0767488	0.854764	0.586717
0	H	0.170481	0.244845	0.586712
0	H	0.774326	0.943296	0.587431
0	H	0.937751	0.173455	0.248969
0	H	0.843216	0.783503	0.247899
0	H	0.238891	0.0837336	0.249398
0	H	0.753445	0.190387	0.952597
0	H	0.829964	0.582841	0.953911
0	H	0.443089	0.273124	0.95154
0	C	0.597777	0.486062	0.607663
0	C	0.539809	0.135682	0.608343
0	C	0.885099	0.421478	0.609354
0	C	0.41697	0.543031	0.225315
0	C	0.473737	0.892195	0.228533
0	C	0.127557	0.606443	0.229301
0	C	0.264717	0.824729	0.947942
0	C	0.19224	0.459454	0.942482
0	C	0.557442	0.747167	0.942065
0	C	0.072785	0.870154	0.528165
0	C	0.155964	0.224849	0.528172
0	C	0.793602	0.946525	0.528935
0	C	0.940901	0.158292	0.307654
0	C	0.858466	0.804031	0.306338
0	C	0.219539	0.0801959	0.3079
0	C	0.748306	0.201092	0.893475
0	C	0.820348	0.567801	0.894675
0	C	0.457064	0.27868	0.892211
0	H	0.644683	0.514579	0.609404
0	H	0.511863	0.154571	0.610113
0	H	0.86675	0.37385	0.610922
0	H	0.370017	0.514761	0.223858
0	H	0.501841	0.873514	0.226583
0	H	0.145713	0.654041	0.227668
0	H	0.311881	0.851328	0.948517
0	H	0.16503	0.479289	0.942612
0	H	0.53807	0.699321	0.942381
0	H	0.0256818	0.842781	0.527309
0	H	0.183735	0.205657	0.527453
0	H	0.813353	0.994373	0.527566
0	H	0.987985	0.18573	0.308803
0	H	0.831199	0.823804	0.307036
0	H	0.200013	0.0323701	0.309208
0	H	0.70119	0.173834	0.893083
0	H	0.847591	0.548007	0.894187
0	H	0.476656	0.326551	0.891788
0	C	0.565766	0.457033	0.63954
0	C	0.568795	0.133129	0.640148
0	C	0.887837	0.45336	0.641338
0	C	0.448611	0.571867	0.193283
0	C	0.444783	0.895016	0.196794
0	C	0.124782	0.574535	0.197326
0	C	0.233973	0.798613	0.980747
0	C	0.216523	0.454167	0.975779
0	C	0.563713	0.777682	0.975345
0	C	0.103752	0.897872	0.495704
0	C	0.128337	0.227259	0.495638
0	C	0.790463	0.914598	0.496897
0	C	0.909461	0.130546	0.339964
0	C	0.88612	0.801491	0.338826
0	C	0.22249	0.111947	0.339989
0	C	0.778661	0.226259	0.860402
0	C	0.795792	0.573385	0.86159
0	C	0.451027	0.248008	0.859034
0	H	0.587507	0.462622	0.666234
0	H	0.563796	0.150219	0.666741
0	H	0.871622	0.430785	0.667948
0	H	0.426567	0.56626	0.16671
0	H	0.449971	0.878338	0.170092
0	H	0.140819	0.597048	0.170679
0	H	0.256953	0.804303	0.00694584
0	H	0.208727	0.470203	0.0019428
0	H	0.548902	0.753775	0.00168048
0	H	0.0810593	0.892379	0.469404
0	H	0.134237	0.209868	0.469427
0	H	0.807835	0.937278	0.470441
0	H	0.931785	0.136025	0.36642
0	H	0.88077	0.819393	0.364989
0	H	0.205189	0.0891392	0.366418
0	H	0.755413	0.219161	0.834157
0	H	0.803481	0.557708	0.835239
0	H	0.466169	0.27181	0.832678
0	C	0.505585	0.421063	0.637039
0	C	0.603937	0.108131	0.63768
0	C	0.911805	0.514477	0.639033
0	C	0.508841	0.607684	0.195482
0	C	0.409406	0.919718	0.199475
0	C	0.100993	0.513449	0.199683
0	C	0.173453	0.765533	0.979837
0	C	0.250482	0.427693	0.975395
0	C	0.589489	0.839126	0.9747
0	C	0.164168	0.932304	0.497052
0	C	0.093367	0.252557	0.496814
0	C	0.764513	0.853221	0.498903
0	C	0.84907	0.0960915	0.338261
0	C	0.920375	0.775386	0.337665
0	C	0.24816	0.173299	0.338072
0	C	0.839148	0.26026	0.86113
0	C	0.761697	0.599689	0.86242
0	C	0.424968	0.186544	0.859764
0	H	0.480458	0.398435	0.66182
0	H	0.626337	0.105716	0.662425
0	H	0.913995	0.53954	0.663845
0	H	0.533681	0.630168	0.170578
0	H	0.386978	0.92229	0.174795
0	H	0.0988155	0.488371	0.174879
0	H	0.149271	0.745248	0.00532313
0	H	0.269485	0.423447	0.00125011
0	H	0.594333	0.863065	0.000539157
0	H	0.188469	0.953649	0.471725
0	H	0.0718852	0.254641	0.471471
0	H	0.761914	0.828123	0.473993
0	H	0.824396	0.0746518	0.363453
0	H	0.941833	0.773141	0.362964
0	H	0.250635	0.198246	0.363041
0	H	0.863033	0.279927	0.835454
0	H	0.74248	0.604166	0.836734
0	H	0.420238	0.162504	0.833989
0	C	0.47753	0.414243	0.602797
0	C	0.610218	0.0859908	0.6035
0	C	0.933055	0.543576	0.604871
0	C	0.537293	0.614503	0.229568
0	C	0.402913	0.941365	0.233792
0	C	0.0798612	0.484386	0.233866
0	C	0.143876	0.758668	0.946247
0	C	0.259897	0.406414	0.941855
0	C	0.609326	0.869916	0.940939
0	C	0.19349	0.938916	0.530735
0	C	0.0862842	0.275648	0.53035
0	C	0.741383	0.823861	0.532743
0	C	0.820231	0.0895394	0.304383
0	C	0.92682	0.751753	0.30417
0	C	0.271177	0.202826	0.304261
0	C	0.869076	0.26886	0.894783
0	C	0.752432	0.620517	0.896197
0	C	0.40468	0.155877	0.893526
0	H	0.430318	0.386276	0.601981
0	H	0.637642	0.0662407	0.602707
0	H	0.952057	0.591514	0.604184
0	H	0.584523	0.642415	0.230166
0	H	0.375302	0.960893	0.234741
0	H	0.0609216	0.436458	0.234565
0	H	0.0965052	0.733244	0.946805
0	H	0.286023	0.385239	0.942798
0	H	0.629953	0.918019	0.941644
0	H	0.240837	0.965787	0.530628
0	H	0.0591063	0.295727	0.530105
0	H	0.720784	0.775704	0.533095
0	H	0.772888	0.0626927	0.304229
0	H	0.953498	0.731116	0.30442
0	H	0.291571	0.25097	0.303972
0	H	0.916413	0.295023	0.894105
0	H	0.726128	0.641506	0.8956
0	H	0.383801	0.107743	0.892906
