#******************************************
#
# CIF file created by Zeo++
# Zeo++ is an open source package to
# analyze microporous materials
#
#*******************************************

_cell_length_a		37.2977(0)
_cell_length_b		14.2641(0)
_cell_length_c		22.1315(0)
_cell_angle_alpha		90(0)
_cell_angle_beta		93.5301(0)
_cell_angle_gamma		90(0)

_symmetry_space_group_name_H-M		'P1'
_symmetry_Int_Tables_number		1
_symmetry_cell_setting		Monoclinic

loop_
_symmetry_equiv_pos_as_xyz
'+x,+y,+z'

loop_
_atom_site_label
_atom_site_type_symbol
_atom_site_fract_x
_atom_site_fract_y
_atom_site_fract_z
0	N	0.065786	0.654886	0.246946
0	N	0.932788	0.654881	0.253414
0	N	0.932129	0.343814	0.753027
0	N	0.064934	0.343535	0.746413
0	N	0.565433	0.154582	0.247246
0	N	0.433203	0.155132	0.253095
0	N	0.432386	0.843727	0.752669
0	N	0.564732	0.843838	0.74671
0	N	0.019694	0.754445	0.364788
0	N	0.978966	0.754604	0.135522
0	N	0.978153	0.244267	0.635324
0	N	0.0190403	0.244022	0.864398
0	N	0.518904	0.255097	0.364556
0	N	0.47978	0.255483	0.135721
0	N	0.478957	0.743466	0.635546
0	N	0.518254	0.743387	0.864128
0	N	0.232423	0.0881252	0.220694
0	N	0.766325	0.0880277	0.279739
0	N	0.765562	0.91028	0.779297
0	N	0.231648	0.910619	0.720255
0	N	0.732142	0.587425	0.220869
0	N	0.266615	0.587366	0.279569
0	N	0.265847	0.41095	0.77912
0	N	0.731365	0.411301	0.720426
0	N	0.205903	0.813941	0.262846
0	N	0.792882	0.813935	0.237602
0	N	0.792004	0.18515	0.737488
0	N	0.205138	0.184657	0.762331
0	N	0.705776	0.314266	0.263162
0	N	0.293007	0.314252	0.237299
0	N	0.292116	0.68481	0.737146
0	N	0.705018	0.684345	0.762655
0	N	0.114099	0.770481	0.612049
0	N	0.883101	0.770066	0.88793
0	N	0.883678	0.228079	0.387736
0	N	0.114811	0.228644	0.112135
0	N	0.613607	0.27057	0.612271
0	N	0.383577	0.270161	0.887715
0	N	0.384148	0.728002	0.387528
0	N	0.614333	0.728556	0.112326
0	N	0.109282	0.861859	0.46587
0	N	0.888553	0.862305	0.033696
0	N	0.888484	0.136636	0.533968
0	N	0.109272	0.13654	0.966448
0	N	0.609041	0.362069	0.465393
0	N	0.388799	0.362519	0.034198
0	N	0.388727	0.636414	0.534464
0	N	0.609028	0.636334	0.965955
0	C	0.0557008	0.58778	0.269962
0	C	0.942825	0.587797	0.230323
0	C	0.942188	0.410822	0.729859
0	C	0.054888	0.410622	0.769524
0	C	0.555424	0.0873346	0.270179
0	C	0.443117	0.0877856	0.230145
0	C	0.442377	0.910944	0.729654
0	C	0.55472	0.911031	0.769714
0	C	0.0337517	0.812733	0.338528
0	C	0.964866	0.812925	0.161707
0	C	0.964083	0.185865	0.661479
0	C	0.0330541	0.185586	0.838192
0	C	0.533038	0.31322	0.338261
0	C	0.465603	0.313627	0.161946
0	C	0.464812	0.68524	0.661732
0	C	0.532343	0.685117	0.837908
0	C	0.225387	0.102188	0.270074
0	C	0.773274	0.102061	0.230312
0	C	0.772535	0.896255	0.729875
0	C	0.22463	0.896489	0.769648
0	C	0.725067	0.601526	0.270226
0	C	0.273602	0.601439	0.230157
0	C	0.272857	0.396889	0.729715
0	C	0.724309	0.39714	0.769788
0	C	0.191036	0.762974	0.293448
0	C	0.807671	0.763011	0.206871
0	C	0.806834	0.235867	0.706672
0	C	0.190256	0.235494	0.792998
0	C	0.690874	0.263216	0.293666
0	C	0.307833	0.263257	0.206658
0	C	0.306976	0.735597	0.706428
0	C	0.690103	0.735248	0.793225
0	C	0.101013	0.707325	0.586325
0	C	0.896307	0.706934	0.91352
0	C	0.896794	0.291205	0.413486
0	C	0.101551	0.291611	0.0864435
0	C	0.600576	0.207301	0.586598
0	C	0.396734	0.206921	0.913249
0	C	0.397215	0.791236	0.413227
0	C	0.601123	0.791645	0.0866938
0	C	0.119842	0.919323	0.499381
0	C	0.877772	0.919429	0.000143227
0	C	0.877952	0.0791538	0.500467
0	C	0.120048	0.0791876	0.999851
0	C	0.619554	0.419464	0.498997
0	C	0.378068	0.419577	0.00055292
0	C	0.378243	0.579011	0.500873
0	C	0.619753	0.579055	0.999448
0	C	0.0774538	0.195673	0.357989
0	C	0.920896	0.195845	0.141831
0	C	0.920387	0.802903	0.641874
0	C	0.0769127	0.802564	0.858035
0	C	0.57717	0.695156	0.357948
0	C	0.421194	0.695566	0.141922
0	C	0.42068	0.303244	0.64195
0	C	0.576631	0.303055	0.857985
0	C	0.047799	0.165933	0.398827
0	C	0.950474	0.166179	0.100842
0	C	0.950039	0.832646	0.601032
0	C	0.0473487	0.83229	0.899037
0	C	0.547536	0.665188	0.398781
0	C	0.450758	0.665648	0.100955
0	C	0.450319	0.333221	0.60113
0	C	0.547082	0.333007	0.898976
0	C	0.0178432	0.110946	0.384202
0	C	0.980516	0.111446	0.115398
0	C	0.979997	0.887638	0.61566
0	C	0.0173099	0.887033	0.884491
0	C	0.517649	0.609989	0.384231
0	C	0.480726	0.610696	0.115445
0	C	0.480207	0.388424	0.615694
0	C	0.517114	0.387966	0.884505
0	H	0.0138894	0.0785778	0.339757
0	H	0.984648	0.0791949	0.159885
0	H	0.983952	0.920006	0.660105
0	H	0.0131776	0.919275	0.84
0	H	0.513626	0.577721	0.339756
0	H	0.484932	0.578586	0.159978
0	H	0.484235	0.420665	0.660179
0	H	0.512911	0.420104	0.83998
0	C	0.992191	0.0985685	0.427422
0	C	0.00607757	0.0991173	0.0719962
0	C	0.00564038	0.900026	0.572429
0	C	0.991743	0.899349	0.927888
0	C	0.492086	0.597134	0.427587
0	C	0.506189	0.597808	0.0718965
0	C	0.505756	0.401345	0.572322
0	C	0.491639	0.400786	0.928041
0	H	0.968536	0.0557833	0.416308
0	H	0.0298286	0.0565641	0.0830202
0	H	0.0292919	0.942829	0.583537
0	H	0.967986	0.941878	0.916864
0	H	0.468516	0.553956	0.416534
0	H	0.52985	0.554838	0.0828651
0	H	0.52932	0.444555	0.583374
0	H	0.467967	0.44372	0.91708
0	C	0.996584	0.141951	0.483857
0	C	0.00150296	0.142208	0.0154811
0	C	0.00124915	0.856637	0.516
0	C	0.996316	0.85622	0.984391
0	C	0.496478	0.640438	0.483996
0	C	0.501611	0.640761	0.0153869
0	C	0.501365	0.358077	0.515904
0	C	0.496212	0.357747	0.984525
0	H	0.976181	0.133842	0.516686
0	H	0.0218388	0.134145	0.982465
0	H	0.0216433	0.86476	0.483156
0	H	0.975971	0.864258	0.0173952
0	H	0.47617	0.631869	0.516972
0	H	0.521845	0.632178	0.982218
0	H	0.52166	0.366698	0.48291
0	H	0.475964	0.366264	0.0176785
0	C	0.0270145	0.197036	0.49886
0	C	0.970953	0.196928	0.000561445
0	C	0.970829	0.801529	0.501013
0	C	0.0268606	0.801472	0.999305
0	C	0.526806	0.696035	0.498905
0	C	0.471165	0.696009	0.000553707
0	C	0.471049	0.302451	0.501002
0	C	0.526653	0.302468	0.999341
0	H	0.029706	0.231592	0.543218
0	H	0.968066	0.2312	0.956138
0	H	0.968141	0.76696	0.456661
0	H	0.0297359	0.76714	0.0437108
0	H	0.529454	0.730709	0.543257
0	H	0.468316	0.73035	0.956119
0	H	0.468403	0.267796	0.456644
0	H	0.529486	0.268025	0.0437457
0	C	0.052968	0.208123	0.456979
0	C	0.945096	0.208054	0.0426032
0	C	0.944871	0.790446	0.542888
0	C	0.0527189	0.790369	0.957263
0	C	0.55269	0.707395	0.456976
0	C	0.445385	0.70747	0.0426496
0	C	0.445163	0.291058	0.542926
0	C	0.55244	0.291078	0.957249
0	C	0.0870376	0.260828	0.459699
0	C	0.910993	0.260616	0.0400035
0	C	0.910808	0.737725	0.540174
0	C	0.0868141	0.737773	0.959856
0	C	0.5867	0.760352	0.459666
0	C	0.411337	0.760261	0.0400605
0	C	0.411153	0.238113	0.540222
0	C	0.586476	0.238237	0.959815
0	C	0.106585	0.301571	0.50724
0	C	0.891304	0.301203	0.992518
0	C	0.891265	0.69695	0.492647
0	C	0.106509	0.697196	0.00734298
0	C	0.606212	0.801216	0.507206
0	C	0.391678	0.800916	0.992558
0	C	0.391643	0.197266	0.492681
0	C	0.606135	0.197545	0.00730776
0	C	0.0986222	0.308548	0.574126
0	C	0.899024	0.308231	0.925502
0	C	0.899239	0.689941	0.425771
0	C	0.0987992	0.690206	0.0743649
0	C	0.598253	0.808255	0.574092
0	C	0.399396	0.807957	0.925537
0	C	0.399617	0.190229	0.425805
0	C	0.598424	0.190506	0.0743307
0	C	0.132744	0.354338	0.601999
0	C	0.864838	0.354085	0.897905
0	C	0.865122	0.644147	0.397897
0	C	0.13299	0.644358	0.10196
0	C	0.632418	0.853848	0.601953
0	C	0.365166	0.853592	0.897943
0	C	0.365459	0.144641	0.397929
0	C	0.632655	0.144863	0.10192
0	C	0.141211	0.373203	0.662595
0	C	0.856198	0.373	0.837358
0	C	0.856666	0.625269	0.337303
0	C	0.141647	0.625485	0.162509
0	C	0.640929	0.872439	0.66257
0	C	0.356485	0.872217	0.837372
0	C	0.35697	0.126029	0.337309
0	C	0.64135	0.126268	0.162493
0	H	0.122673	0.355712	0.697047
0	H	0.874628	0.355587	0.802679
0	H	0.875201	0.642761	0.30285
0	H	0.123221	0.642929	0.197189
0	H	0.622388	0.854904	0.697021
0	H	0.374923	0.854763	0.8027
0	H	0.37552	0.143547	0.30287
0	H	0.622913	0.143736	0.197163
0	C	0.174468	0.414909	0.679216
0	C	0.822876	0.414623	0.821001
0	C	0.823414	0.583571	0.320666
0	C	0.174967	0.583846	0.178856
0	C	0.674237	0.91387	0.679186
0	C	0.323111	0.913558	0.821015
0	C	0.323667	0.0846123	0.320668
0	C	0.674723	0.0849147	0.178838
0	H	0.181439	0.430327	0.726842
0	H	0.81577	0.430114	0.773405
0	H	0.816456	0.568149	0.273039
0	H	0.182083	0.568361	0.226449
0	H	0.681264	0.929069	0.726805
0	H	0.315951	0.928815	0.773421
0	H	0.316659	0.0694041	0.273044
0	H	0.681894	0.0696564	0.226429
0	C	0.198349	0.436303	0.635232
0	C	0.79908	0.435832	0.865157
0	C	0.799515	0.562202	0.364624
0	C	0.198748	0.56261	0.134682
0	C	0.698104	0.935271	0.635182
0	C	0.299326	0.934788	0.865184
0	C	0.299774	0.063239	0.364635
0	C	0.698495	0.0636721	0.13465
0	H	0.223929	0.469844	0.648193
0	H	0.7734	0.469147	0.852371
0	H	0.773939	0.528662	0.351652
0	H	0.224428	0.529287	0.14746
0	H	0.723725	0.968594	0.648138
0	H	0.273604	0.967876	0.852396
0	H	0.274157	0.029923	0.351656
0	H	0.724218	0.0305797	0.147429
0	C	0.190074	0.415321	0.573975
0	C	0.80758	0.414831	0.92637
0	C	0.807775	0.583213	0.425884
0	C	0.190235	0.583577	0.073469
0	C	0.689775	0.914594	0.573897
0	C	0.307879	0.914109	0.926429
0	C	0.30808	0.0839419	0.425927
0	C	0.689931	0.0843237	0.0734073
0	H	0.209702	0.430814	0.540805
0	H	0.788003	0.430187	0.959631
0	H	0.78813	0.567764	0.459034
0	H	0.209797	0.56818	0.0401905
0	H	0.70938	0.930085	0.540693
0	H	0.288322	0.929478	0.959721
0	H	0.288454	0.0684864	0.459103
0	H	0.709474	0.0689252	0.0400987
0	C	0.157047	0.375398	0.556751
0	C	0.840672	0.375059	0.943393
0	C	0.840803	0.623122	0.443124
0	C	0.157139	0.623341	0.0564573
0	C	0.656707	0.874901	0.556682
0	C	0.341011	0.874572	0.943451
0	C	0.341147	0.123623	0.443172
0	C	0.656795	0.123853	0.0563976
0	C	0.140838	0.345772	0.497273
0	C	0.857128	0.345492	0.00274446
0	C	0.857007	0.652766	0.502606
0	C	0.14068	0.652894	0.997108
0	C	0.640459	0.845429	0.4972
0	C	0.357504	0.845193	0.00280944
0	C	0.357385	0.153086	0.502667
0	C	0.640299	0.153239	0.997043
0	C	0.152451	0.351937	0.439704
0	C	0.845738	0.351899	0.0604619
0	C	0.845386	0.646613	0.560168
0	C	0.152067	0.646512	0.939385
0	C	0.652066	0.85165	0.439619
0	C	0.346115	0.851677	0.0605349
0	C	0.345761	0.146858	0.560233
0	C	0.651683	0.146796	0.939311
0	C	0.187487	0.391959	0.417537
0	C	0.810786	0.392102	0.0827753
0	C	0.810353	0.606571	0.582342
0	C	0.187028	0.606356	0.917083
0	C	0.687104	0.891675	0.417413
0	C	0.311157	0.891866	0.0828818
0	C	0.310727	0.106832	0.582443
0	C	0.686646	0.106636	0.916969
0	C	0.181817	0.381228	0.349015
0	C	0.816558	0.381439	0.151282
0	C	0.816031	0.617289	0.650865
0	C	0.181271	0.617049	0.848577
0	C	0.681465	0.880774	0.348891
0	C	0.316897	0.88105	0.151391
0	C	0.316371	0.11771	0.650969
0	C	0.680918	0.117495	0.848462
0	C	0.204475	0.411035	0.305608
0	C	0.793963	0.411263	0.194777
0	C	0.793381	0.587479	0.694277
0	C	0.20388	0.58729	0.805085
0	C	0.704128	0.910334	0.305421
0	C	0.294287	0.910611	0.194942
0	C	0.293708	0.0881508	0.694437
0	C	0.703533	0.0879787	0.804909
0	H	0.228118	0.453576	0.317857
0	H	0.770302	0.453836	0.182618
0	H	0.769742	0.544972	0.682032
0	H	0.227556	0.54477	0.817251
0	H	0.727752	0.952958	0.317544
0	H	0.270636	0.953266	0.182901
0	H	0.270079	0.0455522	0.682314
0	H	0.727193	0.0453558	0.81695
0	C	0.19684	0.383535	0.245251
0	C	0.801671	0.383718	0.255123
0	C	0.801029	0.614962	0.754642
0	C	0.19616	0.614785	0.744734
0	C	0.696528	0.882404	0.245136
0	C	0.301948	0.882634	0.255217
0	C	0.301314	0.116065	0.754731
0	C	0.695856	0.115907	0.744629
0	H	0.214973	0.404263	0.210838
0	H	0.783559	0.404456	0.289609
0	H	0.782891	0.594224	0.789045
0	H	0.214276	0.594099	0.710244
0	H	0.714664	0.902901	0.210688
0	H	0.283828	0.903127	0.289733
0	H	0.28317	0.0955652	0.789163
0	H	0.713973	0.0954502	0.710104
0	C	0.166867	0.328316	0.229756
0	C	0.831647	0.32846	0.27052
0	C	0.831005	0.670171	0.770145
0	C	0.166142	0.669883	0.729325
0	C	0.666588	0.827025	0.229756
0	C	0.331894	0.827217	0.270505
0	C	0.331258	0.171434	0.770122
0	C	0.665873	0.171184	0.729336
0	H	0.161719	0.305254	0.183048
0	H	0.836851	0.30536	0.317252
0	H	0.836169	0.693214	0.816853
0	H	0.160915	0.692889	0.68258
0	H	0.661498	0.803465	0.183152
0	H	0.337032	0.803603	0.317133
0	H	0.336359	0.19498	0.816728
0	H	0.660708	0.194703	0.682694
0	C	0.143332	0.300658	0.273627
0	C	0.855102	0.300782	0.226514
0	C	0.854525	0.697865	0.726252
0	C	0.142671	0.697498	0.773322
0	C	0.643009	0.799756	0.273644
0	C	0.3554	0.799954	0.226489
0	C	0.354827	0.198723	0.726219
0	C	0.642358	0.198408	0.77335
0	H	0.12003	0.257491	0.2597
0	H	0.878391	0.257498	0.240355
0	H	0.877825	0.741047	0.740171
0	H	0.119345	0.740631	0.759465
0	H	0.619707	0.756538	0.259835
0	H	0.37869	0.756621	0.240219
0	H	0.378126	0.241958	0.740028
0	H	0.619034	0.241608	0.759611
0	C	0.150387	0.32746	0.33353
0	C	0.848003	0.327588	0.166628
0	C	0.847463	0.671083	0.666352
0	C	0.149798	0.670779	0.833219
0	C	0.650036	0.826939	0.333472
0	C	0.348339	0.827159	0.166678
0	C	0.347802	0.171549	0.666394
0	C	0.649452	0.171294	0.833172
0	C	0.131504	0.309443	0.389152
0	C	0.866771	0.309471	0.110903
0	C	0.866335	0.689119	0.610721
0	C	0.131027	0.688896	0.888942
0	C	0.631138	0.809093	0.389089
0	C	0.36713	0.809234	0.110962
0	C	0.366696	0.189395	0.610775
0	C	0.630664	0.189239	0.888889
0	C	0.100596	0.261166	0.399579
0	C	0.897638	0.26112	0.100261
0	C	0.897242	0.737402	0.60029
0	C	0.100158	0.737242	0.899593
0	C	0.600252	0.760743	0.399548
0	C	0.39799	0.760855	0.100308
0	C	0.397591	0.237714	0.600331
0	C	0.599814	0.237655	0.89956
0	C	0.0602334	0.242662	0.300478
0	C	0.938168	0.242769	0.199322
0	C	0.937615	0.755892	0.69937
0	C	0.0596178	0.755653	0.800558
0	C	0.559933	0.742099	0.300426
0	C	0.438459	0.742527	0.199417
0	C	0.437903	0.256215	0.699454
0	C	0.559325	0.256188	0.800493
0	H	0.0807891	0.249307	0.266048
0	H	0.917603	0.249297	0.233745
0	H	0.917057	0.749209	0.733793
0	H	0.0801596	0.749123	0.7661
0	H	0.580475	0.748668	0.265971
0	H	0.417898	0.748957	0.23385
0	H	0.417356	0.249657	0.733897
0	H	0.579854	0.249782	0.766006
0	H	0.0397744	0.194481	0.278916
0	H	0.958619	0.194435	0.2208
0	H	0.958074	0.804066	0.720944
0	H	0.0391552	0.803976	0.779109
0	H	0.539399	0.693985	0.278984
0	H	0.458996	0.694314	0.220799
0	H	0.458455	0.304265	0.720918
0	H	0.538776	0.304425	0.779171
0	C	0.0433517	0.336363	0.311372
0	C	0.955091	0.336455	0.188619
0	C	0.954497	0.662204	0.688434
0	C	0.0426928	0.661959	0.811269
0	C	0.543113	0.835876	0.311354
0	C	0.455301	0.836328	0.18868
0	C	0.454694	0.162401	0.688492
0	C	0.542481	0.162391	0.811221
0	C	0.0113234	0.342882	0.341355
0	C	0.987157	0.342962	0.158752
0	C	0.986524	0.655725	0.658443
0	C	0.0106323	0.655497	0.84116
0	C	0.511137	0.842352	0.341499
0	C	0.487311	0.842784	0.158639
0	C	0.48667	0.155924	0.65835
0	C	0.51047	0.155915	0.841259
0	H	0.99878	0.279709	0.358316
0	H	0.999702	0.279784	0.141791
0	H	0.999063	0.718908	0.641488
0	H	0.998097	0.718686	0.858127
0	H	0.49862	0.779122	0.358435
0	H	0.499821	0.779545	0.14169
0	H	0.49919	0.219149	0.641412
0	H	0.497948	0.21914	0.858205
0	C	0.995288	0.429799	0.350277
0	C	0.00321954	0.429884	0.149962
0	C	0.00256342	0.568821	0.649494
0	C	0.994564	0.568598	0.849971
0	C	0.495142	0.929267	0.350543
0	C	0.50334	0.929697	0.149738
0	C	0.502662	0.0690036	0.649308
0	C	0.494455	0.0689905	0.850163
0	H	0.970813	0.433709	0.374713
0	H	0.0277289	0.433778	0.125639
0	H	0.0270293	0.564944	0.625032
0	H	0.970056	0.564747	0.874305
0	H	0.470725	0.933176	0.375157
0	H	0.52779	0.933582	0.125231
0	H	0.527076	0.0650963	0.624683
0	H	0.469999	0.0650958	0.874657
0	C	0.0102119	0.511405	0.327786
0	C	0.988284	0.511481	0.172433
0	C	0.987656	0.487188	0.671968
0	C	0.00947279	0.486971	0.827496
0	C	0.51004	0.0108166	0.328053
0	C	0.488437	0.0112333	0.172224
0	C	0.487764	0.987454	0.671787
0	C	0.50936	0.987448	0.827688
0	H	0.997493	0.579363	0.33404
0	H	0.00100548	0.579432	0.166227
0	H	0.000380483	0.419236	0.665713
0	H	0.996746	0.419032	0.833736
0	H	0.497339	0.0788354	0.33438
0	H	0.501151	0.0792376	0.165947
0	H	0.500469	0.91943	0.665475
0	H	0.49666	0.919435	0.833982
0	C	0.0418478	0.504869	0.296771
0	C	0.956637	0.504908	0.203416
0	C	0.956014	0.493689	0.702968
0	C	0.0410947	0.493493	0.796448
0	C	0.541621	0.00432311	0.296904
0	C	0.456847	0.00473533	0.203352
0	C	0.456169	0.993934	0.702897
0	C	0.540936	0.993984	0.796535
0	C	0.0588997	0.418246	0.28956
0	C	0.939561	0.418301	0.210532
0	C	0.938945	0.580288	0.710185
0	C	0.058182	0.580093	0.789315
0	C	0.558641	0.917785	0.289543
0	C	0.439801	0.918207	0.210609
0	C	0.439146	0.0804767	0.710242
0	C	0.557974	0.0805282	0.789272
0	H	0.0841358	0.414988	0.267168
0	H	0.914322	0.415026	0.23292
0	H	0.913692	0.583499	0.732533
0	H	0.0833993	0.583336	0.766859
0	H	0.58382	0.914444	0.266982
0	H	0.414621	0.914843	0.233173
0	H	0.413944	0.0838102	0.732743
0	H	0.583139	0.0838973	0.766666
0	C	0.101744	0.111622	0.342809
0	C	0.896729	0.111655	0.157253
0	C	0.896087	0.886939	0.657042
0	C	0.101094	0.886712	0.842583
0	C	0.601539	0.611223	0.342825
0	C	0.396958	0.61147	0.157291
0	C	0.396312	0.387185	0.65706
0	C	0.600885	0.387105	0.842596
0	H	0.124932	0.137688	0.318243
0	H	0.873591	0.137766	0.181914
0	H	0.872887	0.860874	0.681574
0	H	0.124211	0.86056	0.817888
0	H	0.62475	0.637439	0.318396
0	H	0.373799	0.63771	0.181828
0	H	0.373087	0.36099	0.681459
0	H	0.62403	0.360807	0.818044
0	H	0.114442	0.0836473	0.38604
0	H	0.883985	0.0834802	0.11412
0	H	0.883406	0.914914	0.613799
0	H	0.113864	0.914883	0.885701
0	H	0.614181	0.583217	0.386093
0	H	0.384265	0.583276	0.114121
0	H	0.383687	0.415183	0.613777
0	H	0.613595	0.415305	0.885755
0	C	0.0832336	0.0335858	0.307806
0	C	0.915332	0.0337524	0.192304
0	C	0.914596	0.964968	0.692069
0	C	0.0824877	0.964615	0.807545
0	C	0.582996	0.533372	0.307704
0	C	0.415596	0.533738	0.192437
0	C	0.414854	0.465035	0.692191
0	C	0.58225	0.464814	0.807439
0	C	0.0674854	0.960004	0.338786
0	C	0.931103	0.960167	0.161359
0	C	0.930346	0.0385701	0.661111
0	C	0.0667497	0.0382417	0.838508
0	C	0.567102	0.459876	0.338622
0	C	0.431508	0.460253	0.161533
0	C	0.430746	0.538546	0.661281
0	C	0.566367	0.538362	0.838338
0	H	0.0683045	0.960001	0.3882
0	H	0.930274	0.96012	0.11194
0	H	0.929528	0.0386155	0.611696
0	H	0.0676082	0.0383156	0.887929
0	H	0.567949	0.45975	0.388044
0	H	0.430643	0.460101	0.112106
0	H	0.429897	0.538705	0.611862
0	H	0.567253	0.538566	0.887763
0	C	0.0506811	0.886065	0.306241
0	C	0.947909	0.886247	0.193933
0	C	0.947151	0.112482	0.693693
0	C	0.0499421	0.112165	0.805944
0	C	0.550081	0.38634	0.305997
0	C	0.448533	0.386723	0.194169
0	C	0.447764	0.612063	0.693937
0	C	0.54935	0.61188	0.805685
0	C	0.0500444	0.884051	0.242716
0	C	0.948515	0.88424	0.257453
0	C	0.947775	0.114435	0.757219
0	C	0.0493071	0.114161	0.742421
0	C	0.549381	0.384586	0.242478
0	C	0.449211	0.384943	0.257684
0	C	0.448457	0.613783	0.757458
0	C	0.54865	0.613624	0.742167
0	H	0.0376906	0.82515	0.217757
0	H	0.960861	0.825343	0.282428
0	H	0.96013	0.173318	0.782208
0	H	0.0369634	0.173063	0.717451
0	H	0.536839	0.326064	0.217435
0	H	0.46175	0.326417	0.282728
0	H	0.460999	0.67229	0.782521
0	H	0.536122	0.672146	0.717114
0	C	0.0659635	0.957331	0.212205
0	C	0.932577	0.957516	0.287933
0	C	0.931854	0.0411261	0.787695
0	C	0.0652039	0.0408384	0.711927
0	C	0.5655	0.457617	0.212025
0	C	0.433071	0.457944	0.288125
0	C	0.432333	0.540734	0.787885
0	C	0.564747	0.540542	0.711736
0	H	0.0660024	0.956132	0.162897
0	H	0.932512	0.9563	0.337236
0	H	0.931807	0.0422826	0.837005
0	H	0.0652434	0.0420402	0.662622
0	H	0.565492	0.456627	0.162717
0	H	0.43305	0.456898	0.337427
0	H	0.432331	0.541704	0.837193
0	H	0.564741	0.541535	0.662435
0	C	0.0823632	0.0317163	0.244306
0	C	0.916191	0.0318904	0.25581
0	C	0.915462	0.966772	0.755569
0	C	0.0815833	0.966434	0.744035
0	C	0.582142	0.531674	0.244195
0	C	0.416442	0.532008	0.255952
0	C	0.415702	0.466694	0.755699
0	C	0.581364	0.466463	0.74392
0	H	0.0949825	0.0879021	0.219582
0	H	0.903558	0.0880618	0.280534
0	H	0.902843	0.910551	0.780259
0	H	0.0941733	0.910213	0.719296
0	H	0.594943	0.587673	0.219569
0	H	0.403625	0.587974	0.280592
0	H	0.402901	0.410667	0.7803
0	H	0.594136	0.410426	0.719279
0	C	0.219462	0.327181	0.439847
0	C	0.77882	0.327237	0.0605779
0	C	0.778364	0.671309	0.560046
0	C	0.218987	0.671224	0.939313
0	C	0.719036	0.826801	0.439814
0	C	0.279237	0.826888	0.0605982
0	C	0.278782	0.171684	0.560057
0	C	0.718564	0.171606	0.939283
0	H	0.244941	0.357745	0.425364
0	H	0.75334	0.357657	0.0751501
0	H	0.752891	0.640717	0.574532
0	H	0.24447	0.640812	0.924752
0	H	0.744557	0.857257	0.42544
0	H	0.253715	0.857186	0.0750635
0	H	0.253266	0.141208	0.574431
0	H	0.744087	0.141297	0.924827
0	H	0.221993	0.326987	0.490108
0	H	0.776237	0.327052	0.0103235
0	H	0.77583	0.671503	0.509784
0	H	0.221561	0.67142	0.989566
0	H	0.721509	0.82668	0.49008
0	H	0.276707	0.826763	0.0103411
0	H	0.276306	0.171814	0.509792
0	H	0.721085	0.171732	0.98954
0	C	0.225376	0.207847	0.357209
0	C	0.77315	0.207801	0.143214
0	C	0.772473	0.790634	0.642711
0	C	0.224701	0.790702	0.856703
0	C	0.724959	0.70734	0.357259
0	C	0.273567	0.707325	0.143162
0	C	0.272889	0.291127	0.64265
0	C	0.724285	0.291197	0.856751
0	H	0.239651	0.259857	0.331311
0	H	0.758925	0.259793	0.169204
0	H	0.758216	0.738608	0.668626
0	H	0.238963	0.738739	0.830744
0	H	0.739219	0.759349	0.331335
0	H	0.259357	0.759314	0.169179
0	H	0.258645	0.239101	0.668589
0	H	0.738529	0.239236	0.830765
0	C	0.216719	0.120481	0.331247
0	C	0.781854	0.120407	0.169103
0	C	0.781143	0.877998	0.668674
0	C	0.21599	0.878078	0.830801
0	C	0.71636	0.619895	0.331371
0	C	0.282216	0.619855	0.168981
0	C	0.281502	0.378565	0.668546
0	C	0.71563	0.378653	0.830925
0	C	0.199439	0.0514999	0.364291
0	C	0.799108	0.0515062	0.135961
0	C	0.798388	0.946996	0.635586
0	C	0.19868	0.946926	0.863911
0	C	0.699089	0.550973	0.364477
0	C	0.299463	0.551021	0.135774
0	C	0.29874	0.447502	0.635398
0	C	0.698329	0.447449	0.864092
0	H	0.193025	0.983569	0.343891
0	H	0.805574	0.983558	0.156303
0	H	0.804821	0.0149197	0.655986
0	H	0.192205	0.0148588	0.843549
0	H	0.692716	0.482891	0.344131
0	H	0.305891	0.48292	0.156064
0	H	0.305134	0.515577	0.655747
0	H	0.691895	0.515528	0.843783
0	C	0.190673	0.0714947	0.423293
0	C	0.807796	0.0716195	0.0769341
0	C	0.807096	0.92704	0.576552
0	C	0.189947	0.926784	0.922905
0	C	0.690262	0.57105	0.423437
0	C	0.30821	0.571215	0.076788
0	C	0.307508	0.427469	0.576405
0	C	0.689538	0.427225	0.923047
0	H	0.177658	0.0182538	0.449715
0	H	0.820804	0.018446	0.0504517
0	H	0.820074	0.980301	0.550088
0	H	0.176893	0.979915	0.949362
0	H	0.67724	0.517811	0.449874
0	H	0.321226	0.518042	0.0502899
0	H	0.320496	0.48073	0.549927
0	H	0.676479	0.480356	0.949518
0	C	0.197922	0.159859	0.448687
0	C	0.800483	0.159986	0.0515955
0	C	0.799849	0.83867	0.551175
0	C	0.197268	0.838421	0.948246
0	C	0.697456	0.659502	0.448741
0	C	0.300948	0.659664	0.0515372
0	C	0.300314	0.339018	0.551113
0	C	0.696806	0.338776	0.9483
0	H	0.189664	0.175425	0.494132
0	H	0.808686	0.175596	0.00611899
0	H	0.808069	0.823128	0.505703
0	H	0.189027	0.822771	0.993692
0	H	0.689141	0.675147	0.494133
0	H	0.309206	0.675354	0.00611244
0	H	0.308592	0.323399	0.505695
0	H	0.688509	0.323047	0.993694
0	C	0.214756	0.229106	0.415479
0	C	0.783646	0.229139	0.0848849
0	C	0.783054	0.769395	0.584414
0	C	0.214152	0.769317	0.914993
0	C	0.714312	0.728682	0.415501
0	C	0.284089	0.728748	0.084859
0	C	0.283496	0.269809	0.58438
0	C	0.71371	0.269734	0.915015
0	C	0.19591	0.494269	0.435925
0	C	0.802487	0.494416	0.0643127
0	C	0.801934	0.504271	0.563944
0	C	0.195325	0.504033	0.935523
0	C	0.69553	0.993999	0.435776
0	C	0.302855	0.994192	0.0644336
0	C	0.3023	0.00451828	0.564061
0	C	0.694946	0.00429772	0.935395
0	H	0.191764	0.504342	0.484932
0	H	0.806691	0.504372	0.0153245
0	H	0.806068	0.494226	0.514929
0	H	0.191109	0.494042	0.984504
0	H	0.691334	0.00396129	0.484771
0	H	0.307114	0.0040299	0.0154605
0	H	0.306485	0.994595	0.515058
0	H	0.690675	0.994433	0.984362
0	H	0.225088	0.507211	0.431674
0	H	0.773319	0.507588	0.0685014
0	H	0.772755	0.491333	0.5682
0	H	0.224494	0.490862	0.931349
0	H	0.724709	0.00680453	0.431555
0	H	0.273688	0.00723099	0.0685856
0	H	0.273119	0.991725	0.56828
0	H	0.724116	0.99127	0.931261
0	C	0.174544	0.567595	0.400654
0	C	0.823943	0.567641	0.099536
0	C	0.823294	0.430908	0.599188
0	C	0.17388	0.430823	0.900275
0	C	0.674233	0.0674384	0.400551
0	C	0.324245	0.0675197	0.0996183
0	C	0.323588	0.931041	0.599255
0	C	0.673574	0.930973	0.900194
0	C	0.192153	0.628654	0.362609
0	C	0.806409	0.628749	0.137647
0	C	0.805691	0.369936	0.637292
0	C	0.191431	0.369728	0.862183
0	C	0.691866	0.128519	0.362545
0	C	0.306692	0.128642	0.137699
0	C	0.305961	0.870052	0.637324
0	C	0.69115	0.869863	0.862137
0	H	0.220906	0.620852	0.356693
0	H	0.777666	0.62102	0.143651
0	H	0.776944	0.377785	0.643237
0	H	0.220178	0.377482	0.856212
0	H	0.720598	0.120536	0.35654
0	H	0.27797	0.120735	0.143797
0	H	0.277237	0.878091	0.643368
0	H	0.719874	0.877809	0.856068
0	C	0.172746	0.700238	0.331791
0	C	0.825882	0.700279	0.16841
0	C	0.825099	0.298379	0.668143
0	C	0.171985	0.29818	0.831401
0	C	0.672533	0.20042	0.331913
0	C	0.326094	0.200479	0.168283
0	C	0.325295	0.798171	0.667981
0	C	0.671779	0.797991	0.831546
0	C	0.13583	0.711424	0.338753
0	C	0.86279	0.711386	0.161321
0	C	0.862007	0.287112	0.661131
0	C	0.135074	0.287064	0.838427
0	C	0.635641	0.211909	0.338998
0	C	0.362977	0.211886	0.161067
0	C	0.362177	0.786575	0.660836
0	C	0.634893	0.786545	0.838705
0	H	0.120731	0.767183	0.314957
0	H	0.87793	0.767138	0.185055
0	H	0.877103	0.231368	0.684945
0	H	0.119951	0.231304	0.814674
0	H	0.620607	0.267977	0.315408
0	H	0.378052	0.267948	0.184596
0	H	0.377203	0.730511	0.684434
0	H	0.61984	0.73047	0.815164
0	C	0.118533	0.650226	0.376773
0	C	0.880011	0.650123	0.123238
0	C	0.879293	0.348191	0.623013
0	C	0.117823	0.348321	0.876475
0	C	0.618302	0.150624	0.376903
0	C	0.380238	0.150539	0.123095
0	C	0.379506	0.847744	0.622833
0	C	0.617599	0.847885	0.876643
0	H	0.089929	0.659217	0.383019
0	H	0.908608	0.659044	0.116912
0	H	0.907888	0.339123	0.616718
0	H	0.08922	0.339401	0.882757
0	H	0.589706	0.159814	0.383192
0	H	0.408826	0.15965	0.116724
0	H	0.408088	0.838468	0.616489
0	H	0.589008	0.838756	0.882974
0	C	0.137602	0.578609	0.407461
0	C	0.860878	0.578563	0.0926057
0	C	0.860223	0.419778	0.592301
0	C	0.136939	0.419888	0.907145
0	C	0.637314	0.0787444	0.407425
0	C	0.361159	0.0787249	0.0926232
0	C	0.360493	0.919608	0.592296
0	C	0.636657	0.919727	0.907139
0	H	0.123756	0.531224	0.437069
0	H	0.874677	0.531159	0.0629415
0	H	0.874057	0.467057	0.562608
0	H	0.123116	0.467274	0.936789
0	H	0.623428	0.0313967	0.436987
0	H	0.374996	0.0313577	0.0630024
0	H	0.374368	0.966855	0.562652
0	H	0.622793	0.967079	0.936735
0	C	0.0655538	0.371618	0.583096
0	C	0.932038	0.371376	0.916306
0	C	0.93231	0.626872	0.416825
0	C	0.0657825	0.627081	0.0835733
0	C	0.565237	0.871497	0.58309
0	C	0.432355	0.871277	0.916295
0	C	0.432633	0.126981	0.416823
0	C	0.565462	0.1272	0.0835671
0	H	0.0406534	0.333174	0.566869
0	H	0.956982	0.332983	0.932368
0	H	0.957204	0.665306	0.433106
0	H	0.0408371	0.665468	0.0675113
0	H	0.540311	0.833162	0.56684
0	H	0.457327	0.832993	0.932366
0	H	0.457555	0.165299	0.433119
0	H	0.540489	0.165474	0.0674906
0	H	0.0628211	0.380857	0.632541
0	H	0.934648	0.380661	0.866825
0	H	0.935064	0.617679	0.367386
0	H	0.0631728	0.61781	0.133054
0	H	0.562532	0.880672	0.632537
0	H	0.434926	0.88049	0.86681
0	H	0.435355	0.117849	0.367379
0	H	0.562885	0.117991	0.13305
0	C	0.0665429	0.465752	0.552836
0	C	0.931072	0.465498	0.946633
0	C	0.931311	0.532694	0.447043
0	C	0.0667429	0.532953	0.0532562
0	C	0.566263	0.965678	0.552918
0	C	0.431354	0.965443	0.946535
0	C	0.431593	0.0327596	0.446956
0	C	0.566463	0.0330266	0.0533332
0	C	0.0855923	0.540071	0.581154
0	C	0.911831	0.539697	0.918567
0	C	0.912244	0.458428	0.418719
0	C	0.0859742	0.458754	0.0813422
0	C	0.585285	0.039902	0.5813
0	C	0.412134	0.039545	0.918411
0	C	0.412544	0.958595	0.418578
0	C	0.585675	0.958927	0.0814758
0	H	0.101798	0.528173	0.623225
0	H	0.895395	0.527752	0.876703
0	H	0.896029	0.470377	0.376661
0	H	0.102397	0.470714	0.123222
0	H	0.601475	0.0279378	0.623368
0	H	0.395709	0.0275326	0.876555
0	H	0.396341	0.97061	0.376528
0	H	0.602089	0.97096	0.123346
0	C	0.0837636	0.629884	0.555156
0	C	0.913738	0.629579	0.944529
0	C	0.914065	0.368577	0.444669
0	C	0.0840928	0.368873	0.0553837
0	C	0.583392	0.129771	0.555404
0	C	0.414106	0.129476	0.944276
0	C	0.414428	0.868688	0.444428
0	C	0.583726	0.868991	0.0556223
0	C	0.0640749	0.645593	0.499996
0	C	0.933688	0.645369	0.999428
0	C	0.933767	0.352804	0.499805
0	C	0.0641743	0.353076	0.000461386
0	C	0.563684	0.145541	0.500262
0	C	0.434083	0.14533	0.999149
0	C	0.434157	0.85285	0.499539
0	C	0.563776	0.853131	0.000729631
0	H	0.063141	0.715377	0.479516
0	H	0.934742	0.715203	0.0198412
0	H	0.934697	0.282988	0.52025
0	H	0.0631453	0.283246	0.980042
0	H	0.562684	0.215416	0.479909
0	H	0.435202	0.21525	0.0194352
0	H	0.435153	0.782944	0.519859
0	H	0.562678	0.783208	0.980442
0	C	0.0457375	0.570778	0.471506
0	C	0.952184	0.570593	0.0277418
0	C	0.952125	0.427576	0.528319
0	C	0.0456731	0.427826	0.972133
0	C	0.545426	0.0706998	0.471685
0	C	0.452502	0.0705283	0.0275422
0	C	0.452442	0.927645	0.528131
0	C	0.545352	0.927904	0.972319
0	H	0.030283	0.582813	0.428631
0	H	0.967825	0.582651	0.0704989
0	H	0.967589	0.415487	0.571184
0	H	0.0300526	0.415758	0.929359
0	H	0.529987	0.0827699	0.428823
0	H	0.468131	0.0826142	0.0702817
0	H	0.467896	0.915522	0.57098
0	H	0.529741	0.915804	0.929564
0	C	0.0468177	0.481603	0.497593
0	C	0.95102	0.481416	0.00168584
0	C	0.951055	0.516763	0.502262
0	C	0.0468142	0.517011	0.998192
0	C	0.54656	0.981564	0.49768
0	C	0.451284	0.981391	0.00157707
0	C	0.45132	0.0167914	0.502166
0	C	0.546549	0.0170511	0.998283
0	H	0.0322695	0.423882	0.474752
0	H	0.965685	0.423759	0.0243808
0	H	0.965623	0.574451	0.525112
0	H	0.0321419	0.574636	0.975478
0	H	0.532053	0.923828	0.474778
0	H	0.465911	0.923717	0.0243271
0	H	0.465851	0.0744925	0.525069
0	H	0.531914	0.0746903	0.975515
0	C	0.0926059	0.213168	0.605302
0	C	0.904869	0.212942	0.894137
0	C	0.905255	0.785314	0.394579
0	C	0.092959	0.78551	0.105713
0	C	0.592154	0.712935	0.605309
0	C	0.40533	0.712712	0.894156
0	C	0.405719	0.285551	0.394591
0	C	0.592497	0.285755	0.10571
0	H	0.0932482	0.22491	0.655278
0	H	0.904157	0.224909	0.844163
0	H	0.904621	0.773557	0.344605
0	H	0.0936788	0.773571	0.155688
0	H	0.592752	0.724751	0.655258
0	H	0.404672	0.724728	0.844207
0	H	0.405141	0.273742	0.344641
0	H	0.593166	0.27375	0.155659
0	H	0.0647483	0.188563	0.593251
0	H	0.932711	0.188067	0.906042
0	H	0.933109	0.809946	0.406644
0	H	0.0651167	0.810384	0.0938178
0	H	0.564277	0.688425	0.593244
0	H	0.43319	0.687938	0.906093
0	H	0.433591	0.310086	0.406685
0	H	0.564635	0.310528	0.093792
0	C	0.118885	0.137276	0.591933
0	C	0.878528	0.137226	0.907528
0	C	0.87896	0.861172	0.407932
0	C	0.119306	0.861216	0.0922977
0	C	0.61843	0.637026	0.591975
0	C	0.378991	0.636982	0.907507
0	C	0.379426	0.361417	0.407904
0	C	0.61884	0.361472	0.0923344
0	C	0.10865	0.0671385	0.550049
0	C	0.888811	0.0670483	0.949348
0	C	0.889192	0.931363	0.449791
0	C	0.109027	0.931388	0.0504739
0	C	0.608235	0.567011	0.549972
0	C	0.389234	0.566932	0.949454
0	C	0.389615	0.431483	0.449886
0	C	0.608601	0.431519	0.0503861
0	H	0.0827492	0.0711941	0.524431
0	H	0.914747	0.0711535	0.974873
0	H	0.9151	0.927374	0.475389
0	H	0.0830974	0.927271	0.0249287
0	H	0.582326	0.570993	0.524338
0	H	0.415175	0.570971	0.975
0	H	0.415527	0.42757	0.475505
0	H	0.582665	0.427478	0.0248268
0	C	0.131766	0.991449	0.541068
0	C	0.865691	0.991384	0.958423
0	C	0.866049	0.00699223	0.458782
0	C	0.132136	0.00709925	0.0414522
0	C	0.631423	0.49144	0.540828
0	C	0.366042	0.491386	0.958687
0	C	0.366395	0.506989	0.459034
0	C	0.631786	0.507103	0.041199
0	C	0.165276	0.985456	0.573283
0	C	0.832129	0.985452	0.926388
0	C	0.832532	0.0129213	0.426585
0	C	0.16569	0.0130321	0.0735192
0	C	0.66495	0.485513	0.573016
0	C	0.332463	0.485514	0.926675
0	C	0.332863	0.512857	0.426863
0	C	0.66536	0.512972	0.0732343
0	H	0.182705	0.925135	0.567533
0	H	0.81469	0.925193	0.932193
0	H	0.81508	0.0731886	0.432343
0	H	0.183121	0.0733359	0.0677618
0	H	0.682466	0.425437	0.567068
0	H	0.31494	0.425501	0.932675
0	H	0.315325	0.572873	0.432815
0	H	0.682877	0.573019	0.0672742
0	C	0.175635	0.0566064	0.614134
0	C	0.821726	0.0566606	0.885591
0	C	0.822192	0.941753	0.38574
0	C	0.176104	0.941769	0.114266
0	C	0.675228	0.556526	0.614091
0	C	0.322144	0.556579	0.88565
0	C	0.322608	0.441822	0.385792
0	C	0.67569	0.441847	0.114211
0	H	0.201484	0.0520767	0.640179
0	H	0.795826	0.0521956	0.859683
0	H	0.796345	0.946245	0.359698
0	H	0.202006	0.94622	0.140179
0	H	0.701062	0.551974	0.6402
0	H	0.296261	0.552092	0.859674
0	H	0.296778	0.446335	0.359682
0	H	0.701577	0.446315	0.140184
0	C	0.15275	0.13208	0.623346
0	C	0.844612	0.132103	0.87628
0	C	0.845088	0.866292	0.376544
0	C	0.153224	0.866315	0.123549
0	C	0.652275	0.631811	0.623451
0	C	0.345097	0.631835	0.87619
0	C	0.345574	0.366554	0.37645
0	C	0.652739	0.366589	0.123648
0	H	0.161172	0.18701	0.655651
0	H	0.836124	0.187038	0.844023
0	H	0.83667	0.811334	0.344261
0	H	0.16171	0.811339	0.155776
0	H	0.660639	0.686594	0.655901
0	H	0.336671	0.686618	0.843781
0	H	0.337217	0.311745	0.344018
0	H	0.661166	0.31176	0.156023
