#******************************************
#
# CIF file created by Zeo++
# Zeo++ is an open source package to
# analyze microporous materials
#
#*******************************************

_cell_length_a		31.6367(0)
_cell_length_b		31.3491(0)
_cell_length_c		9.98193(0)
_cell_angle_alpha		90(0)
_cell_angle_beta		90(0)
_cell_angle_gamma		90(0)

_symmetry_space_group_name_H-M		'P1'
_symmetry_Int_Tables_number		1
_symmetry_cell_setting		Monoclinic

loop_
_symmetry_equiv_pos_as_xyz
'+x,+y,+z'

loop_
_atom_site_label
_atom_site_type_symbol
_atom_site_fract_x
_atom_site_fract_y
_atom_site_fract_z
0	Te	0.024999	0.068105	0.0253758
0	Te	0.471966	0.93831	0.526193
0	Te	0.684098	0.280534	0.271792
0	Te	0.811936	0.725717	0.77687
0	Te	0.970893	0.938382	0.984585
0	Te	0.525915	0.0676944	0.485698
0	Te	0.312525	0.725123	0.736254
0	Te	0.184984	0.280275	0.234471
0	Te	0.525972	0.566887	0.525922
0	Te	0.970715	0.438931	0.0265577
0	Te	0.185049	0.779542	0.776957
0	Te	0.312567	0.22594	0.275313
0	Te	0.470955	0.43906	0.484961
0	Te	0.026199	0.567102	0.983405
0	Te	0.811593	0.226493	0.233199
0	Te	0.684336	0.779761	0.735818
0	O	0.0494981	0.987336	0.326127
0	O	0.447514	0.0191047	0.827088
0	O	0.763681	0.306663	0.572613
0	O	0.732163	0.699697	0.0769044
0	O	0.946276	0.019081	0.683824
0	O	0.550172	0.987008	0.184509
0	O	0.232775	0.699216	0.436148
0	O	0.264559	0.306308	0.934073
0	O	0.550928	0.486248	0.826582
0	O	0.945807	0.519771	0.327055
0	O	0.265018	0.805609	0.0769076
0	O	0.232474	0.199966	0.574634
0	O	0.446027	0.51981	0.184646
0	O	0.0508853	0.48634	0.682802
0	O	0.731508	0.200418	0.933499
0	O	0.764383	0.805587	0.436329
0	O	0.052584	0.0215208	0.132451
0	O	0.444276	0.984634	0.633994
0	O	0.730574	0.308524	0.377415
0	O	0.765549	0.697444	0.882233
0	O	0.943071	0.984737	0.87717
0	O	0.553628	0.0214209	0.377691
0	O	0.266088	0.696982	0.63089
0	O	0.231379	0.308529	0.129135
0	O	0.553812	0.520363	0.632843
0	O	0.943045	0.485482	0.133625
0	O	0.231377	0.807651	0.882651
0	O	0.266131	0.197875	0.380467
0	O	0.443025	0.485517	0.378016
0	O	0.053884	0.520536	0.876385
0	O	0.765411	0.198209	0.127276
0	O	0.730688	0.807864	0.630406
0	C	0.00246305	0.129779	0.96092
0	C	0.494859	0.876853	0.460817
0	C	0.622792	0.257756	0.208398
0	C	0.873271	0.748478	0.713574
0	C	0.993748	0.876854	0.0494853
0	C	0.50282	0.129055	0.551407
0	C	0.373789	0.748011	0.7998
0	C	0.123625	0.257573	0.29773
0	C	0.503093	0.628325	0.460291
0	C	0.993338	0.37736	0.961411
0	C	0.123859	0.756585	0.713523
0	C	0.373679	0.249113	0.211695
0	C	0.49387	0.377615	0.550445
0	C	0.00357388	0.628652	0.048745
0	C	0.872735	0.24963	0.296514
0	C	0.623261	0.756582	0.799735
0	C	0.00647785	0.147947	0.83469
0	C	0.491063	0.858985	0.334101
0	C	0.604606	0.261723	0.0823891
0	C	0.891508	0.744579	0.587606
0	C	0.98976	0.858713	0.175761
0	C	0.506655	0.146933	0.678116
0	C	0.391972	0.74409	0.925833
0	C	0.105365	0.261534	0.423648
0	C	0.50712	0.646291	0.333763
0	C	0.98924	0.359227	0.835163
0	C	0.105566	0.760617	0.587685
0	C	0.391925	0.245161	0.0857616
0	C	0.489898	0.359629	0.676965
0	C	0.00769258	0.64677	0.175021
0	C	0.89107	0.245665	0.422321
0	C	0.605066	0.760538	0.925753
0	C	0.989006	0.188298	0.808954
0	C	0.508714	0.818747	0.307825
0	C	0.56455	0.244111	0.0575244
0	C	0.931692	0.761952	0.563243
0	C	0.00729605	0.818396	0.201622
0	C	0.488713	0.187014	0.704756
0	C	0.432	0.761767	0.950711
0	C	0.0651511	0.244235	0.447968
0	C	0.489241	0.686394	0.307161
0	C	0.00680131	0.31894	0.809089
0	C	0.0653716	0.743277	0.563361
0	C	0.431897	0.262975	0.0609619
0	C	0.507674	0.319465	0.703331
0	C	0.990077	0.687022	0.201231
0	C	0.931228	0.263112	0.446532
0	C	0.565092	0.742757	0.950707
0	C	0.96708	0.209893	0.909597
0	C	0.530451	0.796961	0.408456
0	C	0.543252	0.222236	0.158883
0	C	0.953058	0.78358	0.664993
0	C	0.0292619	0.796807	0.101068
0	C	0.466666	0.208651	0.604484
0	C	0.453283	0.783636	0.849296
0	C	0.0437765	0.222617	0.346229
0	C	0.467032	0.707931	0.407264
0	C	0.0289095	0.297403	0.909433
0	C	0.0440998	0.721455	0.664904
0	C	0.453021	0.285075	0.162236
0	C	0.529725	0.297883	0.602977
0	C	0.967912	0.708547	0.100986
0	C	0.952432	0.284943	0.344857
0	C	0.543921	0.720663	0.849531
0	C	0.962325	0.191499	0.0365199
0	C	0.534919	0.815077	0.535913
0	C	0.56165	0.21764	0.285672
0	C	0.934608	0.788177	0.791678
0	C	0.034023	0.815189	0.974118
0	C	0.462201	0.190553	0.477012
0	C	0.434895	0.788176	0.722492
0	C	0.062244	0.217956	0.219592
0	C	0.462348	0.689729	0.534501
0	C	0.0337858	0.315778	0.0363206
0	C	0.0626643	0.716616	0.791328
0	C	0.434519	0.28972	0.288827
0	C	0.534374	0.316107	0.475754
0	C	0.963047	0.690204	0.97406
0	C	0.933836	0.289697	0.21845
0	C	0.562371	0.716003	0.722869
0	C	0.979868	0.151356	0.0624882
0	C	0.517249	0.855107	0.562465
0	C	0.601486	0.235301	0.310845
0	C	0.894663	0.770693	0.816375
0	C	0.0164208	0.855299	0.948047
0	C	0.480138	0.150664	0.450131
0	C	0.395076	0.770474	0.697337
0	C	0.102225	0.235365	0.194947
0	C	0.480268	0.649839	0.561422
0	C	0.0161545	0.355855	0.062626
0	C	0.102595	0.734126	0.816041
0	C	0.394783	0.271837	0.313962
0	C	0.516561	0.356061	0.449096
0	C	0.980714	0.650153	0.947626
0	C	0.893935	0.272104	0.193886
0	C	0.602104	0.733877	0.697559
0	C	0.975911	0.128963	0.192561
0	C	0.520934	0.877258	0.693062
0	C	0.62379	0.231624	0.440888
0	C	0.872375	0.774316	0.94646
0	C	0.02037	0.877665	0.817925
0	C	0.476447	0.12855	0.319491
0	C	0.37277	0.774134	0.567306
0	C	0.124539	0.23166	0.0649268
0	C	0.476447	0.627671	0.691969
0	C	0.0202493	0.378207	0.192747
0	C	0.124988	0.730318	0.945888
0	C	0.372401	0.27552	0.443836
0	C	0.520377	0.378264	0.318604
0	C	0.976625	0.627842	0.817441
0	C	0.871518	0.275827	0.0640658
0	C	0.624403	0.730218	0.567536
0	C	0.954481	0.146124	0.302205
0	C	0.542133	0.859967	0.802944
0	C	0.606682	0.21077	0.551815
0	C	0.889514	0.795023	0.057649
0	C	0.0420493	0.860601	0.708623
0	C	0.455023	0.145773	0.209946
0	C	0.389836	0.795074	0.456466
0	C	0.107407	0.210909	0.953827
0	C	0.454855	0.644833	0.801306
0	C	0.0421406	0.361177	0.301698
0	C	0.108054	0.709175	0.0565503
0	C	0.3893	0.296786	0.554321
0	C	0.541923	0.361105	0.209172
0	C	0.954749	0.644915	0.708528
0	C	0.88839	0.296979	0.953317
0	C	0.607424	0.709	0.457109
0	C	0.951333	0.122619	0.421376
0	C	0.545118	0.883288	0.922523
0	C	0.63001	0.207983	0.671034
0	C	0.866156	0.797742	0.176839
0	C	0.0451874	0.884054	0.589348
0	C	0.452048	0.122522	0.0902415
0	C	0.366475	0.797931	0.337331
0	C	0.130786	0.20809	0.834691
0	C	0.45195	0.621603	0.921072
0	C	0.0452649	0.384575	0.421081
0	C	0.131464	0.706362	0.175615
0	C	0.365936	0.29958	0.67344
0	C	0.544877	0.384381	0.0895076
0	C	0.951629	0.621566	0.589058
0	C	0.864957	0.299737	0.834303
0	C	0.630693	0.706254	0.337788
0	C	0.96932	0.0822665	0.431348
0	C	0.527195	0.923674	0.932724
0	C	0.67023	0.225713	0.679808
0	C	0.825866	0.780198	0.185205
0	C	0.0268662	0.924244	0.578934
0	C	0.470225	0.0822626	0.0796329
0	C	0.326266	0.780184	0.328576
0	C	0.171094	0.225594	0.826329
0	C	0.470355	0.581443	0.931979
0	C	0.0267431	0.424672	0.431963
0	C	0.171612	0.724214	0.184345
0	C	0.325879	0.281505	0.682513
0	C	0.526552	0.424583	0.0788117
0	C	0.97011	0.581452	0.578095
0	C	0.824825	0.28184	0.825735
0	C	0.670754	0.724305	0.328519
0	C	0.99081	0.0646347	0.321325
0	C	0.505868	0.94142	0.822542
0	C	0.687812	0.246686	0.568564
0	C	0.808248	0.759393	0.0737224
0	C	0.00513446	0.941792	0.68863
0	C	0.491758	0.0645646	0.18951
0	C	0.308734	0.759089	0.439663
0	C	0.188711	0.246457	0.93774
0	C	0.492018	0.563772	0.822322
0	C	0.00481837	0.442208	0.322657
0	C	0.189034	0.745449	0.073329
0	C	0.308523	0.260082	0.571766
0	C	0.504916	0.442246	0.188548
0	C	0.992015	0.563866	0.687366
0	C	0.80746	0.260597	0.93681
0	C	0.688209	0.745664	0.439258
0	C	0.994515	0.0877879	0.203073
0	C	0.502307	0.918424	0.703935
0	C	0.664794	0.250037	0.450322
0	C	0.831325	0.756003	0.955627
0	C	0.00149552	0.918704	0.807025
0	C	0.4953	0.0874963	0.308246
0	C	0.331795	0.75566	0.557811
0	C	0.165611	0.24993	0.0557691
0	C	0.495423	0.586679	0.703475
0	C	0.00125603	0.419176	0.204101
0	C	0.165898	0.748936	0.955384
0	C	0.331599	0.256692	0.453629
0	C	0.50146	0.419286	0.307281
0	C	0.995601	0.586867	0.805979
0	C	0.830644	0.257131	0.0546864
0	C	0.66521	0.749034	0.557544
0	C	0.0861498	0.0942355	0.0509809
0	C	0.410846	0.912019	0.550973
0	C	0.658031	0.341975	0.300076
0	C	0.838014	0.664188	0.803208
0	C	0.90988	0.911936	0.959352
0	C	0.586927	0.0941119	0.460162
0	C	0.338669	0.663693	0.708527
0	C	0.158922	0.341796	0.207723
0	C	0.587	0.593118	0.551674
0	C	0.909602	0.412862	0.0520753
0	C	0.158884	0.841073	0.803171
0	C	0.338821	0.164499	0.30257
0	C	0.409926	0.412805	0.459389
0	C	0.0872888	0.593194	0.957584
0	C	0.837853	0.16499	0.207305
0	C	0.658094	0.841209	0.708597
0	C	0.0984294	0.110815	0.175522
0	C	0.398475	0.89532	0.675246
0	C	0.641478	0.353554	0.425198
0	C	0.854419	0.652172	0.928129
0	C	0.897682	0.895238	0.834893
0	C	0.599123	0.110825	0.335744
0	C	0.355221	0.652005	0.583505
0	C	0.142501	0.353719	0.0827408
0	C	0.59917	0.609766	0.676203
0	C	0.897372	0.396317	0.176706
0	C	0.142395	0.853347	0.927763
0	C	0.355466	0.15251	0.427229
0	C	0.397734	0.396155	0.33489
0	C	0.0994641	0.609707	0.83285
0	C	0.854211	0.152658	0.0825967
0	C	0.641479	0.853202	0.583906
0	C	0.139208	0.126883	0.193619
0	C	0.357679	0.879211	0.69292
0	C	0.62534	0.394509	0.445527
0	C	0.870607	0.611167	0.947208
0	C	0.856967	0.879016	0.816843
0	C	0.639904	0.12692	0.317566
0	C	0.371393	0.611042	0.563561
0	C	0.126327	0.394715	0.0633785
0	C	0.639995	0.625682	0.694774
0	C	0.856538	0.380455	0.195167
0	C	0.126219	0.894409	0.946108
0	C	0.371653	0.111492	0.446254
0	C	0.356874	0.380333	0.316291
0	C	0.140273	0.625606	0.814212
0	C	0.870309	0.111566	0.0642107
0	C	0.625394	0.894255	0.564759
0	C	0.16822	0.126406	0.0881191
0	C	0.328744	0.879817	0.587267
0	C	0.625855	0.424369	0.341756
0	C	0.870351	0.581714	0.842279
0	C	0.827929	0.879471	0.922266
0	C	0.668965	0.126295	0.422868
0	C	0.370954	0.581293	0.667643
0	C	0.126657	0.424268	0.168039
0	C	0.669142	0.624899	0.589753
0	C	0.827412	0.381168	0.0900495
0	C	0.126494	0.923653	0.840543
0	C	0.37124	0.082004	0.341394
0	C	0.327707	0.381207	0.421244
0	C	0.169425	0.624964	0.919278
0	C	0.870128	0.0823685	0.169894
0	C	0.625908	0.923781	0.669522
0	C	0.156241	0.110356	0.963452
0	C	0.340836	0.895976	0.4628
0	C	0.641947	0.413092	0.21649
0	C	0.854419	0.593456	0.717253
0	C	0.839838	0.895617	0.0468902
0	C	0.657043	0.110108	0.547478
0	C	0.354858	0.59268	0.792809
0	C	0.14262	0.412619	0.293123
0	C	0.65724	0.608805	0.465003
0	C	0.839365	0.397138	0.965229
0	C	0.142475	0.911646	0.715819
0	C	0.355104	0.0937086	0.216565
0	C	0.339638	0.39728	0.546006
0	C	0.157534	0.608999	0.0441687
0	C	0.854301	0.0944457	0.294751
0	C	0.642013	0.912069	0.794391
0	C	0.115276	0.0942889	0.944135
0	C	0.381809	0.912031	0.443871
0	C	0.658018	0.371942	0.194813
0	C	0.83826	0.634637	0.69681
0	C	0.88075	0.911822	0.0661957
0	C	0.6161	0.0940518	0.566907
0	C	0.33872	0.633823	0.814084
0	C	0.15872	0.371434	0.313888
0	C	0.616226	0.592961	0.445095
0	C	0.88041	0.412956	0.945428
0	C	0.158682	0.870439	0.69626
0	C	0.338852	0.134867	0.196365
0	C	0.380687	0.413023	0.565937
0	C	0.11652	0.593134	0.0641418
0	C	0.838133	0.135669	0.314337
0	C	0.658132	0.870865	0.81474
0	C	0.103482	0.0783574	0.809246
0	C	0.393744	0.927858	0.309011
0	C	0.674097	0.360646	0.0597081
0	C	0.822449	0.646317	0.561743
0	C	0.892543	0.927764	0.201101
0	C	0.604258	0.078132	0.70175
0	C	0.322604	0.645224	0.949067
0	C	0.174478	0.359794	0.449059
0	C	0.604428	0.577017	0.310224
0	C	0.892233	0.428885	0.810516
0	C	0.174471	0.858619	0.561257
0	C	0.322677	0.146394	0.0615428
0	C	0.39254	0.428901	0.700853
0	C	0.104744	0.577154	0.199035
0	C	0.822435	0.14754	0.449419
0	C	0.674237	0.859298	0.949621
0	C	0.097368	0.0345939	0.787009
0	C	0.400024	0.971555	0.28606
0	C	0.717576	0.355126	0.0376832
0	C	0.77905	0.652035	0.538876
0	C	0.898678	0.971516	0.223461
0	C	0.597979	0.034415	0.724409
0	C	0.279125	0.65083	0.970875
0	C	0.21786	0.354075	0.472225
0	C	0.598275	0.533271	0.287737
0	C	0.898345	0.472653	0.788347
0	C	0.217854	0.852997	0.537862
0	C	0.279189	0.151923	0.0396221
0	C	0.398687	0.472632	0.723621
0	C	0.098662	0.533373	0.22107
0	C	0.779075	0.153197	0.473096
0	C	0.717702	0.85371	0.971807
0	C	0.0845137	0.0203421	0.66086
0	C	0.41269	0.985585	0.159445
0	C	0.732026	0.342903	0.911191
0	C	0.764912	0.664448	0.412169
0	C	0.911633	0.98572	0.349579
0	C	0.585199	0.020303	0.850814
0	C	0.264642	0.663201	0.0971951
0	C	0.231912	0.34164	0.599015
0	C	0.585944	0.518991	0.161092
0	C	0.911002	0.48699	0.662091
0	C	0.231885	0.840773	0.410824
0	C	0.264695	0.164053	0.913073
0	C	0.411096	0.486827	0.850295
0	C	0.0859865	0.51898	0.347235
0	C	0.765125	0.165475	0.600185
0	C	0.732108	0.841508	0.0983887
0	C	0.0780287	0.0494164	0.556622
0	C	0.418862	0.956327	0.0555494
0	C	0.703456	0.336355	0.806287
0	C	0.793721	0.671	0.307957
0	C	0.918158	0.956602	0.453673
0	C	0.578962	0.0494934	0.954878
0	C	0.293181	0.669778	0.202173
0	C	0.203022	0.335084	0.702996
0	C	0.57991	0.548022	0.0565142
0	C	0.917358	0.458011	0.557581
0	C	0.202967	0.834298	0.306873
0	C	0.293228	0.170477	0.807981
0	C	0.417218	0.45771	0.954585
0	C	0.0795967	0.547918	0.45186
0	C	0.794102	0.171947	0.703975
0	C	0.7035	0.835074	0.203272
0	C	0.0853519	0.0928714	0.577521
0	C	0.411511	0.912904	0.0772761
0	C	0.66028	0.34298	0.827108
0	C	0.836842	0.664232	0.329632
0	C	0.910789	0.913161	0.43269
0	C	0.586377	0.0929225	0.933516
0	C	0.33635	0.663039	0.181616
0	C	0.159914	0.341865	0.681041
0	C	0.587044	0.591498	0.0778092
0	C	0.91011	0.414546	0.578444
0	C	0.15985	0.840904	0.32915
0	C	0.336408	0.163875	0.828726
0	C	0.410086	0.414247	0.933021
0	C	0.0868438	0.59139	0.431172
0	C	0.837197	0.165293	0.681468
0	C	0.660343	0.841746	0.182309
0	C	0.0984183	0.107341	0.703285
0	C	0.39864	0.89868	0.203498
0	C	0.645601	0.355362	0.95331
0	C	0.851183	0.651628	0.455972
0	C	0.897654	0.898742	0.306944
0	C	0.599316	0.107231	0.807445
0	C	0.351059	0.650532	0.055565
0	C	0.145665	0.354473	0.55461
0	C	0.599523	0.60597	0.204142
0	C	0.897298	0.399989	0.704359
0	C	0.145615	0.853291	0.455814
0	C	0.351135	0.151642	0.955012
0	C	0.397523	0.399864	0.806672
0	C	0.099656	0.606001	0.30531
0	C	0.85134	0.152878	0.554729
0	C	0.645716	0.85404	0.0559665
0	C	0.0679563	0.995591	0.220512
0	C	0.428977	0.010715	0.721733
0	C	0.755984	0.324568	0.465392
0	C	0.739946	0.681623	0.969952
0	C	0.927663	0.010598	0.788967
0	C	0.568793	0.995319	0.289798
0	C	0.240582	0.681099	0.542923
0	C	0.256858	0.324385	0.0410881
0	C	0.569223	0.494349	0.720572
0	C	0.927426	0.51134	0.221459
0	C	0.257113	0.823549	0.96986
0	C	0.240299	0.182053	0.467568
0	C	0.42751	0.511373	0.289969
0	C	0.069307	0.494589	0.78849
0	C	0.739731	0.182272	0.0399661
0	C	0.756414	0.823687	0.542978
0	C	0.109895	0.975817	0.185434
0	C	0.38707	0.0304974	0.686416
0	C	0.775895	0.366496	0.427791
0	C	0.719903	0.63968	0.933071
0	C	0.885494	0.0300017	0.823377
0	C	0.610645	0.97537	0.32485
0	C	0.220709	0.639101	0.579908
0	C	0.276877	0.366368	0.077786
0	C	0.610899	0.474334	0.684229
0	C	0.885357	0.530691	0.185747
0	C	0.277063	0.865426	0.931766
0	C	0.220152	0.140338	0.428825
0	C	0.385426	0.53073	0.325137
0	C	0.111204	0.474858	0.824194
0	C	0.720264	0.140083	0.0771705
0	C	0.776242	0.865636	0.580849
0	H	0.0229466	0.131248	0.753961
0	H	0.474716	0.875871	0.253457
0	H	0.621125	0.278191	0.00123472
0	H	0.874947	0.728361	0.506069
0	H	0.973239	0.875398	0.256414
0	H	0.523241	0.13015	0.758484
0	H	0.375467	0.727606	0.00697585
0	H	0.121938	0.27775	0.505171
0	H	0.523793	0.629537	0.253548
0	H	0.972638	0.375925	0.754699
0	H	0.122095	0.776917	0.506235
0	H	0.375517	0.228553	0.00466263
0	H	0.47332	0.376411	0.757339
0	H	0.0243344	0.630068	0.255395
0	H	0.874596	0.22933	0.503816
0	H	0.621526	0.777133	0.00679295
0	H	0.992325	0.202456	0.710085
0	H	0.505599	0.804767	0.208569
0	H	0.55033	0.247383	0.958819
0	H	0.945973	0.758682	0.464666
0	H	0.00397893	0.804251	0.300512
0	H	0.491841	0.200983	0.804023
0	H	0.446217	0.758537	0.049431
0	H	0.0508483	0.24756	0.546486
0	H	0.492537	0.700449	0.208123
0	H	0.00339549	0.304799	0.710289
0	H	0.0510077	0.746731	0.464968
0	H	0.4462	0.259667	0.962395
0	H	0.504408	0.305388	0.802344
0	H	0.993487	0.701148	0.300059
0	H	0.945624	0.259719	0.544904
0	H	0.55082	0.746091	0.0493108
0	H	0.953382	0.241221	0.889629
0	H	0.544288	0.765706	0.388209
0	H	0.512172	0.208395	0.139728
0	H	0.984243	0.797231	0.646159
0	H	0.0429778	0.76549	0.121082
0	H	0.45258	0.239772	0.625026
0	H	0.484346	0.797514	0.868451
0	H	0.0125614	0.209027	0.365016
0	H	0.452996	0.739049	0.386732
0	H	0.0426648	0.266138	0.889237
0	H	0.012895	0.707844	0.646134
0	H	0.484044	0.299049	0.143145
0	H	0.543654	0.266697	0.623285
0	H	0.954095	0.739775	0.121308
0	H	0.983614	0.298628	0.363524
0	H	0.512896	0.706711	0.868725
0	H	0.944725	0.208482	0.114093
0	H	0.552398	0.797912	0.613367
0	H	0.544833	0.200133	0.363767
0	H	0.951444	0.805528	0.870071
0	H	0.0516468	0.798201	0.896608
0	H	0.4445	0.207603	0.399814
0	H	0.451699	0.805672	0.644344
0	H	0.0453945	0.20062	0.141205
0	H	0.444549	0.706689	0.611646
0	H	0.0514619	0.298846	0.113784
0	H	0.0459274	0.699079	0.869532
0	H	0.451166	0.307423	0.366866
0	H	0.552043	0.299102	0.398413
0	H	0.945331	0.707125	0.896664
0	H	0.95053	0.307227	0.140124
0	H	0.545688	0.698307	0.644899
0	H	0.939485	0.177417	0.295195
0	H	0.557109	0.828686	0.795856
0	H	0.575516	0.195956	0.545791
0	H	0.92072	0.809799	0.0519089
0	H	0.0572389	0.82941	0.71598
0	H	0.439856	0.176954	0.217408
0	H	0.42099	0.809917	0.462542
0	H	0.0761864	0.196175	0.959571
0	H	0.43954	0.675947	0.79357
0	H	0.0574735	0.33006	0.293899
0	H	0.0769799	0.694131	0.0504696
0	H	0.420311	0.311924	0.547909
0	H	0.557165	0.329951	0.216759
0	H	0.939411	0.67603	0.716432
0	H	0.919437	0.312085	0.959329
0	H	0.576415	0.693866	0.463693
0	H	0.933755	0.13603	0.506142
0	H	0.562485	0.869744	0.00740479
0	H	0.616588	0.190887	0.756803
0	H	0.879651	0.81463	0.262891
0	H	0.0629809	0.870734	0.504914
0	H	0.434498	0.135997	0.00564513
0	H	0.37987	0.815097	0.251653
0	H	0.117295	0.191165	0.748716
0	H	0.434255	0.635011	0.00554371
0	H	0.0632239	0.371302	0.505301
0	H	0.118115	0.689157	0.261321
0	H	0.379219	0.316953	0.758927
0	H	0.562528	0.370971	0.00495658
0	H	0.933693	0.634874	0.504846
0	H	0.878263	0.31693	0.748515
0	H	0.617337	0.68893	0.252322
0	H	0.966562	0.0636609	0.524555
0	H	0.529895	0.942184	0.0261385
0	H	0.688729	0.223145	0.772945
0	H	0.807334	0.78279	0.278209
0	H	0.0295492	0.942797	0.485595
0	H	0.467574	0.0638108	0.986099
0	H	0.307726	0.782834	0.235528
0	H	0.189637	0.222938	0.733364
0	H	0.46773	0.563017	0.0256031
0	H	0.0294835	0.443195	0.525391
0	H	0.190168	0.721529	0.277296
0	H	0.307332	0.284167	0.775557
0	H	0.529219	0.443051	0.985266
0	H	0.967358	0.562961	0.484621
0	H	0.806247	0.284483	0.732821
0	H	0.689233	0.721677	0.235333
0	H	0.00433367	0.0321784	0.331161
0	H	0.49231	0.973874	0.832547
0	H	0.72007	0.260247	0.577493
0	H	0.775913	0.746025	0.0823324
0	H	0.99139	0.97414	0.678442
0	H	0.505473	0.0321886	0.179169
0	H	0.276483	0.745519	0.430743
0	H	0.221055	0.259809	0.929095
0	H	0.505946	0.531483	0.832784
0	H	0.990875	0.474465	0.333119
0	H	0.221257	0.759058	0.0821724
0	H	0.276397	0.246238	0.580938
0	H	0.491057	0.47457	0.178236
0	H	0.00592649	0.531595	0.676824
0	H	0.775238	0.246976	0.928117
0	H	0.720348	0.759469	0.429934
0	H	0.0765303	0.111616	0.260414
0	H	0.420306	0.894473	0.760382
0	H	0.640791	0.331029	0.509007
0	H	0.854952	0.674389	0.0128024
0	H	0.919587	0.894468	0.75001
0	H	0.57718	0.111688	0.250919
0	H	0.355872	0.674437	0.499448
0	H	0.141936	0.331432	0.99825
0	H	0.577189	0.610713	0.760893
0	H	0.919308	0.395414	0.261486
0	H	0.141768	0.83124	0.0126928
0	H	0.356186	0.174793	0.511656
0	H	0.419713	0.39514	0.250201
0	H	0.0774999	0.610548	0.748145
0	H	0.854779	0.174724	0.997557
0	H	0.640688	0.830896	0.49955
0	H	0.148587	0.139963	0.291045
0	H	0.348256	0.866029	0.790167
0	H	0.612226	0.403311	0.543425
0	H	0.883532	0.601989	0.0450689
0	H	0.847652	0.86585	0.719473
0	H	0.649217	0.140078	0.220172
0	H	0.384453	0.602132	0.465689
0	H	0.113358	0.403806	0.965502
0	H	0.649262	0.63885	0.792267
0	H	0.847228	0.367355	0.2927
0	H	0.113269	0.903812	0.0436774
0	H	0.384735	0.102317	0.543819
0	H	0.347587	0.367179	0.2188
0	H	0.149553	0.638659	0.716581
0	H	0.88309	0.102091	0.966483
0	H	0.612335	0.90343	0.467168
0	H	0.200233	0.13879	0.10329
0	H	0.296708	0.867476	0.601998
0	H	0.613476	0.45657	0.358815
0	H	0.882763	0.549477	0.858275
0	H	0.795943	0.867	0.907056
0	H	0.700993	0.138636	0.407688
0	H	0.383373	0.549084	0.650913
0	H	0.114269	0.456495	0.151779
0	H	0.701212	0.637088	0.605369
0	H	0.795319	0.369011	0.105723
0	H	0.114034	0.955893	0.855624
0	H	0.383718	0.0497824	0.357068
0	H	0.295603	0.369116	0.405597
0	H	0.201498	0.637156	0.903437
0	H	0.882519	0.0501007	0.154767
0	H	0.613533	0.956033	0.653701
0	H	0.178552	0.110218	0.880083
0	H	0.31857	0.896188	0.379374
0	H	0.642061	0.436192	0.134771
0	H	0.854485	0.570675	0.634695
0	H	0.817503	0.89573	0.130191
0	H	0.679424	0.109874	0.630602
0	H	0.354779	0.569653	0.874729
0	H	0.142609	0.435478	0.375471
0	H	0.679741	0.608546	0.382241
0	H	0.816913	0.397344	0.882271
0	H	0.142379	0.934231	0.632747
0	H	0.355099	0.0709227	0.133996
0	H	0.317122	0.397603	0.628722
0	H	0.180016	0.608835	0.127058
0	H	0.854474	0.0718871	0.377894
0	H	0.642082	0.934883	0.876891
0	H	0.102626	0.0115482	0.867694
0	H	0.395001	0.994788	0.366427
0	H	0.740262	0.360322	0.118927
0	H	0.756153	0.646802	0.619468
0	H	0.893363	0.994595	0.142896
0	H	0.603054	0.0112344	0.643923
0	H	0.256457	0.645584	0.889605
0	H	0.240806	0.359303	0.391769
0	H	0.603147	0.510155	0.368627
0	H	0.893208	0.495699	0.869219
0	H	0.240808	0.858161	0.618275
0	H	0.256543	0.146781	0.120954
0	H	0.393759	0.495799	0.642894
0	H	0.103821	0.510362	0.140114
0	H	0.756043	0.14801	0.39289
0	H	0.740414	0.858858	0.890627
0	H	0.0789623	0.986464	0.643496
0	H	0.418306	0.0194133	0.141345
0	H	0.765732	0.337901	0.893792
0	H	0.731266	0.669555	0.394087
0	H	0.91724	0.0195856	0.367033
0	H	0.579528	0.986468	0.868616
0	H	0.230938	0.668293	0.114402
0	H	0.265542	0.336512	0.617327
0	H	0.580528	0.485088	0.143366
0	H	0.916444	0.520912	0.644707
0	H	0.265523	0.835781	0.392191
0	H	0.230985	0.169037	0.895641
0	H	0.416505	0.520722	0.868241
0	H	0.08055	0.485051	0.364466
0	H	0.731503	0.170507	0.618979
0	H	0.765801	0.836467	0.116008
0	H	0.0669388	0.0376922	0.459326
0	H	0.429737	0.967863	0.957739
0	H	0.71531	0.32576	0.708547
0	H	0.782112	0.681673	0.209982
0	H	0.929315	0.968291	0.550933
0	H	0.567981	0.0378921	0.0524999
0	H	0.281295	0.680478	0.299765
0	H	0.214562	0.324384	0.801035
0	H	0.569352	0.53634	0.958496
0	H	0.928243	0.469744	0.46005
0	H	0.214489	0.823813	0.208594
0	H	0.281333	0.180935	0.710138
0	H	0.427849	0.469322	0.0525965
0	H	0.0686833	0.536141	0.549312
0	H	0.782634	0.182462	0.802276
0	H	0.715324	0.824543	0.301122
0	H	0.0806598	0.115512	0.496134
0	H	0.415998	0.890139	0.996037
0	H	0.638045	0.33832	0.745202
0	H	0.859294	0.668948	0.248297
0	H	0.915509	0.890483	0.513958
0	H	0.581863	0.115635	0.0148809
0	H	0.35856	0.667713	0.263591
0	H	0.137403	0.337144	0.762194
0	H	0.582733	0.614108	0.996074
0	H	0.914615	0.391985	0.496767
0	H	0.137315	0.83627	0.248024
0	H	0.358606	0.168386	0.746662
0	H	0.414467	0.391573	0.0145422
0	H	0.0823259	0.613923	0.512921
0	H	0.859793	0.169907	0.762447
0	H	0.638081	0.837236	0.264196
0	H	0.104718	0.141291	0.719443
0	H	0.392336	0.864764	0.220402
0	H	0.611802	0.360917	0.969358
0	H	0.884926	0.645889	0.472512
0	H	0.891356	0.864799	0.290719
0	H	0.605616	0.141163	0.79077
0	H	0.384853	0.644896	0.039738
0	H	0.111931	0.360196	0.537811
0	H	0.605485	0.639979	0.22048
0	H	0.891231	0.365984	0.720237
0	H	0.111872	0.85886	0.47292
0	H	0.384943	0.14614	0.971042
0	H	0.391559	0.365867	0.790132
0	H	0.1057	0.640017	0.289552
0	H	0.885075	0.147284	0.537487
0	H	0.61192	0.859578	0.0397974
0	H	0.105204	0.945198	0.133089
0	H	0.391845	0.0610691	0.633892
0	H	0.806344	0.361101	0.376681
0	H	0.689619	0.645042	0.880865
0	H	0.889839	0.0604805	0.87682
0	H	0.605793	0.94461	0.3762
0	H	0.190239	0.644374	0.631072
0	H	0.307022	0.361048	0.13083
0	H	0.605799	0.443712	0.632155
0	H	0.889878	0.561103	0.131991
0	H	0.307121	0.860019	0.878339
0	H	0.189864	0.145976	0.377017
0	H	0.389899	0.561409	0.377442
0	H	0.106421	0.444483	0.877936
0	H	0.690038	0.145015	0.130105
0	H	0.806441	0.860331	0.633522
0	H	0.128498	0.996674	0.119904
0	H	0.368507	0.00962961	0.620881
0	H	0.75561	0.384868	0.360095
0	H	0.74027	0.620908	0.866615
0	H	0.866832	0.00882848	0.887716
0	H	0.629175	0.995985	0.39128
0	H	0.240996	0.620623	0.647333
0	H	0.256357	0.38524	0.143481
0	H	0.629386	0.494964	0.617665
0	H	0.866875	0.509502	0.120948
0	H	0.256414	0.884098	0.865817
0	H	0.240487	0.121922	0.3613
0	H	0.367058	0.509793	0.39106
0	H	0.129876	0.495877	0.889003
0	H	0.741035	0.121577	0.143197
0	H	0.75565	0.884136	0.647354
0	H	0.128484	0.969172	0.275919
0	H	0.368428	0.0372127	0.776698
0	H	0.782398	0.385862	0.516915
0	H	0.713045	0.620645	0.0227063
0	H	0.86713	0.036808	0.732545
0	H	0.629356	0.968959	0.234491
0	H	0.214225	0.619864	0.490488
0	H	0.283964	0.385252	0.988031
0	H	0.629746	0.467607	0.773972
0	H	0.866784	0.537644	0.275911
0	H	0.284221	0.884594	0.0208847
0	H	0.213356	0.120849	0.517479
0	H	0.366757	0.537195	0.234842
0	H	0.129706	0.467752	0.733994
0	H	0.713501	0.120953	0.987663
0	H	0.783133	0.884876	0.49173
