#******************************************
#
# CIF file created by Zeo++
# Zeo++ is an open source package to
# analyze microporous materials
#
#*******************************************

_cell_length_a		22.9216(0)
_cell_length_b		21.2072(0)
_cell_length_c		39.7311(0)
_cell_angle_alpha		90(0)
_cell_angle_beta		86.3463(0)
_cell_angle_gamma		90(0)

_symmetry_space_group_name_H-M		'P1'
_symmetry_Int_Tables_number		1
_symmetry_cell_setting		Monoclinic

loop_
_symmetry_equiv_pos_as_xyz
'+x,+y,+z'

loop_
_atom_site_label
_atom_site_type_symbol
_atom_site_fract_x
_atom_site_fract_y
_atom_site_fract_z
0	S	0.376295	0.117663	0.202592
0	S	0.00208277	0.62487	0.287422
0	S	0.421427	0.847766	0.784599
0	S	0.794419	0.341176	0.693627
0	S	0.404372	0.375214	0.16688
0	S	0.977955	0.863312	0.317687
0	S	0.38715	0.598346	0.804931
0	S	0.82085	0.105477	0.6632
0	S	0.440321	0.305079	0.382741
0	S	0.91519	0.79369	0.113498
0	S	0.354795	0.665895	0.601966
0	S	0.883173	0.175142	0.866659
0	S	0.300118	0.187641	0.314713
0	S	0.0827343	0.666992	0.150668
0	S	0.494654	0.78996	0.660879
0	S	0.715281	0.300685	0.833909
0	S	0.190553	0.298038	0.257456
0	S	0.170797	0.814237	0.221966
0	S	0.604987	0.672085	0.725478
0	S	0.627908	0.148218	0.758377
0	S	0.557826	0.158286	0.283595
0	S	0.827556	0.643402	0.206481
0	S	0.239343	0.812096	0.695987
0	S	0.968794	0.324509	0.774895
0	N	0.54606	0.233087	0.192939
0	N	0.8315	0.735261	0.298826
0	N	0.248636	0.734982	0.788571
0	N	0.965769	0.232036	0.682089
0	N	0.532176	0.38008	0.198919
0	N	0.848007	0.876749	0.287973
0	N	0.262458	0.587549	0.781362
0	N	0.949871	0.0918673	0.69351
0	N	0.127738	0.39823	0.17148
0	N	0.246288	0.889083	0.313412
0	N	0.666972	0.569968	0.810378
0	N	0.548272	0.0779334	0.666873
0	N	0.211648	0.426197	0.108794
0	N	0.159702	0.90907	0.377713
0	N	0.586229	0.536753	0.874727
0	N	0.635277	0.0592686	0.603237
0	N	0.270174	0.375164	0.354155
0	N	0.0958118	0.870319	0.121741
0	N	0.52691	0.59372	0.627508
0	N	0.701459	0.0955858	0.862442
0	N	0.376664	0.444674	0.375671
0	N	0.98011	0.936834	0.118884
0	N	0.4217	0.524707	0.606825
0	N	0.816993	0.0298793	0.864657
0	N	0.575737	0.114083	0.437457
0	N	0.774717	0.620354	0.0546854
0	N	0.221512	0.854217	0.544552
0	N	0.0249686	0.348742	0.926201
0	N	0.621631	0.0543299	0.373174
0	N	0.744247	0.54911	0.121018
0	N	0.173462	0.913855	0.607806
0	N	0.0531264	0.418372	0.860404
0	F	0.0471509	0.294737	0.131082
0	F	0.324925	0.777658	0.353805
0	F	0.749736	0.672581	0.849977
0	F	0.470807	0.190453	0.626231
0	F	0.935522	0.267694	0.11534
0	F	0.428771	0.742462	0.376609
0	F	0.86165	0.698917	0.865184
0	F	0.367346	0.226506	0.60331
0	F	0.877814	0.348546	0.0752898
0	F	0.479183	0.814154	0.424395
0	F	0.919343	0.618094	0.905312
0	F	0.316337	0.154892	0.555668
0	F	0.932057	0.456648	0.0522991
0	F	0.424824	0.921344	0.448331
0	F	0.864207	0.511299	0.929401
0	F	0.370227	0.0475074	0.531652
0	F	0.0435273	0.481726	0.067316
0	F	0.321994	0.957648	0.42371
0	F	0.752332	0.487005	0.915133
0	F	0.472406	0.0100005	0.556709
0	F	0.671995	0.321485	0.267024
0	F	0.7067	0.824915	0.222264
0	F	0.124078	0.646761	0.713425
0	F	0.0918918	0.143014	0.758639
0	F	0.788619	0.328536	0.27464
0	F	0.590398	0.835625	0.214393
0	F	0.00764494	0.639728	0.705213
0	F	0.208291	0.131901	0.766016
0	F	0.865879	0.323768	0.219342
0	F	0.512536	0.831401	0.269399
0	F	0.929599	0.644393	0.760164
0	F	0.285514	0.135899	0.710723
0	F	0.825098	0.310209	0.156591
0	F	0.552472	0.818598	0.33234
0	F	0.969426	0.658085	0.823165
0	F	0.244894	0.149464	0.648021
0	F	0.284341	0.572502	0.307072
0	F	0.0837845	0.0583953	0.18568
0	F	0.512479	0.394231	0.673665
0	F	0.714258	0.909108	0.797425
0	F	0.225152	0.683272	0.305039
0	F	0.139619	0.171072	0.189367
0	F	0.571457	0.283263	0.674951
0	F	0.659127	0.796217	0.792781
0	F	0.156541	0.721997	0.359803
0	F	0.201749	0.218002	0.134134
0	F	0.64144	0.246684	0.62038
0	F	0.596452	0.747835	0.847447
0	F	0.143766	0.646145	0.415635
0	F	0.206314	0.151582	0.074821
0	F	0.656858	0.325342	0.565741
0	F	0.591054	0.812897	0.907252
0	F	0.204732	0.537197	0.417845
0	F	0.145187	0.0422995	0.0705139
0	F	0.596209	0.434634	0.564257
0	F	0.65145	0.922447	0.912435
0	F	0.584359	0.897238	0.393987
0	F	0.779699	0.398245	0.0922302
0	F	0.213284	0.0706191	0.58655
0	F	0.0179114	0.569263	0.888964
0	F	0.609507	0.777671	0.412657
0	F	0.767181	0.282734	0.0671
0	F	0.187098	0.190215	0.568248
0	F	0.0294255	0.685204	0.914127
0	F	0.665296	0.756734	0.470193
0	F	0.715719	0.265871	0.0067803
0	F	0.129901	0.211026	0.511217
0	F	0.0817186	0.702889	0.973792
0	F	0.693135	0.857022	0.509926
0	F	0.674108	0.36816	0.9742
0	F	0.101802	0.110831	0.471529
0	F	0.124166	0.600919	0.00666729
0	F	0.669579	0.976433	0.490579
0	F	0.680131	0.483973	0.0019585
0	F	0.126832	0.991337	0.490415
0	F	0.119003	0.48499	0.979018
0	F	0.708295	0.306128	0.149153
0	F	0.669395	0.811971	0.340109
0	F	0.0860247	0.66233	0.831166
0	F	0.12785	0.156829	0.640716
0	C	0.534201	0.138158	0.458322
0	C	0.801292	0.649844	0.0285479
0	C	0.263714	0.82993	0.524241
0	C	0.998149	0.318537	0.952087
0	C	0.318799	0.234015	0.196086
0	C	0.060222	0.73893	0.290247
0	C	0.475251	0.730169	0.783524
0	C	0.736063	0.22753	0.689753
0	C	0.224842	0.267206	0.358537
0	C	0.145603	0.766059	0.114598
0	C	0.570463	0.702142	0.62241
0	C	0.652019	0.200025	0.868784
0	C	0.285201	0.269789	0.213465
0	C	0.0827729	0.77925	0.272145
0	C	0.505527	0.693782	0.767979
0	C	0.713496	0.185905	0.707411
0	C	0.439592	0.154342	0.181952
0	C	0.939843	0.658891	0.311085
0	C	0.354587	0.810352	0.800137
0	C	0.856443	0.307659	0.669507
0	C	0.600735	0.249519	0.197511
0	C	0.777064	0.75057	0.292962
0	C	0.194228	0.718831	0.78318
0	C	0.0203913	0.217526	0.687995
0	C	0.522314	0.440999	0.204415
0	C	0.85928	0.937912	0.284259
0	C	0.271537	0.526458	0.775708
0	C	0.938589	0.0306872	0.69702
0	C	0.221845	0.330911	0.356468
0	C	0.146358	0.829617	0.117406
0	C	0.574632	0.638664	0.625415
0	C	0.650819	0.136462	0.866614
0	C	0.42412	0.4471	0.184698
0	C	0.960426	0.936355	0.30063
0	C	0.369522	0.521721	0.793762
0	C	0.837655	0.0323783	0.680412
0	C	0.276991	0.229027	0.352939
0	C	0.0941766	0.726867	0.118679
0	C	0.517449	0.739389	0.62601
0	C	0.703763	0.239061	0.864812
0	C	0.40558	0.204046	0.475944
0	C	0.92019	0.716902	0.99877
0	C	0.392385	0.763696	0.507302
0	C	0.877913	0.247479	0.978851
0	C	0.247345	0.432096	0.359759
0	C	0.115633	0.929065	0.122535
0	C	0.550633	0.537089	0.622315
0	C	0.682022	0.0369209	0.861379
0	C	0.262432	0.316667	0.233173
0	C	0.105954	0.830633	0.252794
0	C	0.531096	0.648766	0.745989
0	C	0.690729	0.133706	0.725877
0	H	0.293849	0.334839	0.252132
0	H	0.0714181	0.855859	0.239218
0	H	0.501925	0.633186	0.725638
0	H	0.725673	0.106633	0.738111
0	C	0.229687	0.370483	0.21737
0	C	0.146605	0.874035	0.27079
0	C	0.562904	0.593286	0.761229
0	C	0.648482	0.0924155	0.707826
0	H	0.24722	0.400933	0.197358
0	H	0.136291	0.897669	0.294534
0	H	0.543441	0.559907	0.779177
0	H	0.656903	0.0705827	0.683375
0	C	0.618827	0.430634	0.21485
0	C	0.760868	0.932335	0.277879
0	C	0.175094	0.537801	0.765901
0	C	0.03714	0.0359781	0.703024
0	H	0.663873	0.436568	0.220408
0	H	0.714949	0.939882	0.274273
0	H	0.129914	0.532198	0.760624
0	H	0.0831458	0.0282619	0.706416
0	C	0.592962	0.368463	0.205147
0	C	0.786007	0.868295	0.28424
0	C	0.201722	0.59976	0.775466
0	C	0.0119751	0.10007	0.696967
0	C	0.575921	0.474061	0.215254
0	C	0.804977	0.974426	0.277694
0	C	0.217567	0.493918	0.765256
0	C	0.992937	0.994009	0.70325
0	H	0.576623	0.523467	0.221578
0	H	0.804656	0.0253823	0.273947
0	H	0.216803	0.444484	0.759071
0	H	0.993173	0.943032	0.706891
0	C	0.62263	0.313189	0.20338
0	C	0.755298	0.813895	0.286057
0	C	0.172352	0.65522	0.777243
0	C	0.0426084	0.154496	0.69502
0	C	0.504049	0.0632261	0.171509
0	C	0.875518	0.566857	0.321467
0	C	0.29352	0.904408	0.809031
0	C	0.920778	0.399768	0.659176
0	C	0.347063	0.187194	0.178073
0	C	0.0329184	0.692698	0.311661
0	C	0.444562	0.771649	0.8053
0	C	0.763239	0.274254	0.6689
0	H	0.32317	0.16662	0.156464
0	H	0.0620284	0.675263	0.331206
0	H	0.46662	0.783349	0.829109
0	H	0.734184	0.292581	0.649598
0	C	0.496677	0.014394	0.195423
0	C	0.881497	0.519536	0.296618
0	C	0.302357	0.952149	0.784617
0	C	0.91549	0.446991	0.684121
0	C	0.439157	0.535408	0.252036
0	C	0.944831	0.0372865	0.238336
0	C	0.35648	0.432316	0.728146
0	C	0.853229	0.930742	0.742702
0	C	0.498821	0.130474	0.181434
0	C	0.880383	0.634547	0.312205
0	C	0.296657	0.836792	0.799821
0	C	0.915938	0.332069	0.668439
0	C	0.531348	0.247128	0.436275
0	C	0.81376	0.752216	0.0552453
0	C	0.266205	0.72138	0.546884
0	C	0.985273	0.217297	0.925213
0	C	0.0443927	0.40098	0.280394
0	C	0.330741	0.897745	0.204963
0	C	0.750452	0.567534	0.70178
0	C	0.465792	0.0672053	0.775311
0	C	0.507089	0.9367	0.149833
0	C	0.868031	0.43907	0.34008
0	C	0.291853	0.0316346	0.829381
0	C	0.929059	0.527444	0.6407
0	C	0.333907	0.456497	0.116972
0	C	0.0426509	0.943371	0.369529
0	C	0.464021	0.518444	0.862624
0	C	0.753039	0.0269708	0.611985
0	C	0.46231	0.18168	0.330112
0	C	0.915843	0.674676	0.153868
0	C	0.331575	0.78619	0.647674
0	C	0.885421	0.289834	0.827803
0	C	0.512187	0.202642	0.457797
0	C	0.822073	0.715751	0.0280689
0	C	0.285701	0.765457	0.525302
0	C	0.976856	0.252535	0.952283
0	C	0.498613	0.950936	0.184251
0	C	0.878249	0.455848	0.306181
0	C	0.300743	0.0160161	0.795148
0	C	0.918949	0.510659	0.674604
0	H	0.491733	0.913091	0.202564
0	H	0.884008	0.41956	0.286908
0	H	0.308199	0.0531224	0.776464
0	H	0.913514	0.546938	0.693886
0	C	0.166687	0.368565	0.360812
0	C	0.199555	0.870357	0.116406
0	C	0.630382	0.601835	0.621947
0	C	0.597623	0.095438	0.86761
0	H	0.123978	0.347428	0.361555
0	H	0.243131	0.851341	0.114035
0	H	0.672785	0.623618	0.621578
0	H	0.553964	0.114122	0.870092
0	C	0.481108	0.435011	0.387781
0	C	0.873002	0.924041	0.11247
0	C	0.317163	0.534842	0.594961
0	C	0.924308	0.0443262	0.86933
0	C	0.520668	0.31568	0.386918
0	C	0.83447	0.804046	0.11083
0	C	0.275169	0.652867	0.596542
0	C	0.963689	0.163653	0.869881
0	H	0.548714	0.305686	0.363868
0	H	0.809258	0.79098	0.13467
0	H	0.245849	0.660904	0.619318
0	H	0.989653	0.175377	0.846082
0	C	0.483291	0.372418	0.386918
0	C	0.871453	0.861158	0.112469
0	C	0.314182	0.597353	0.596325
0	C	0.925979	0.107159	0.868681
0	C	0.176227	0.366692	0.233391
0	C	0.196346	0.871066	0.250902
0	C	0.617725	0.600259	0.747686
0	C	0.599932	0.0940678	0.728774
0	C	0.336364	0.496197	0.371072
0	C	0.0200652	0.989094	0.12435
0	C	0.462081	0.472967	0.610728
0	C	0.777682	0.977348	0.85877
0	C	0.411052	0.172053	0.338134
0	C	0.9628	0.669153	0.137698
0	C	0.382829	0.795297	0.63816
0	C	0.835127	0.298613	0.842635
0	C	0.369083	0.556541	0.376157
0	C	0.982825	0.048367	0.127442
0	C	0.429405	0.412894	0.605014
0	C	0.81463	0.918871	0.854922
0	H	0.349513	0.602338	0.374403
0	H	0.0017327	0.0942178	0.131671
0	H	0.449001	0.367023	0.606242
0	H	0.79704	0.871778	0.851849
0	C	0.521981	0.197045	0.322634
0	C	0.855604	0.687026	0.166859
0	C	0.272499	0.771342	0.656961
0	C	0.941632	0.278745	0.813426
0	H	0.52849	0.249327	0.320956
0	H	0.850793	0.738692	0.173221
0	H	0.266314	0.719293	0.659702
0	H	0.946565	0.227479	0.807207
0	C	0.546321	0.16547	0.187443
0	C	0.831983	0.668165	0.305761
0	C	0.248642	0.802719	0.793668
0	C	0.964582	0.298997	0.674945
0	C	0.5417	0.0363222	0.477227
0	C	0.795214	0.548254	0.00969259
0	C	0.256546	0.931341	0.504673
0	C	0.00399036	0.419874	0.971578
0	H	0.538173	0.99132	0.489593
0	H	0.800327	0.503635	0.997521
0	H	0.260365	0.976126	0.492109
0	H	0.999521	0.464085	0.98429
0	C	0.512874	0.0492247	0.136754
0	C	0.866599	0.549928	0.355787
0	C	0.285357	0.919707	0.843668
0	C	0.929573	0.416678	0.624851
0	C	0.363667	0.451348	0.174217
0	C	0.0206351	0.939391	0.311531
0	C	0.430919	0.519465	0.80217
0	C	0.777364	0.0299045	0.669614
0	H	0.327589	0.451106	0.193982
0	H	0.0583278	0.937678	0.292652
0	H	0.465027	0.514401	0.781497
0	H	0.739951	0.0318775	0.688605
0	C	0.582472	0.0481688	0.446864
0	C	0.766601	0.554957	0.0447507
0	C	0.214922	0.919905	0.534695
0	C	0.0325447	0.413962	0.936505
0	C	0.316886	0.422735	0.0912589
0	C	0.055201	0.909756	0.395741
0	C	0.48174	0.544057	0.892164
0	C	0.740031	0.0592685	0.585598
0	C	0.547227	0.295503	0.418097
0	C	0.801635	0.78959	0.080742
0	C	0.249457	0.67334	0.565175
0	C	0.99627	0.178112	0.899862
0	H	0.583817	0.325554	0.425065
0	H	0.760491	0.817699	0.0813589
0	H	0.212648	0.643753	0.558056
0	H	0.0368085	0.149365	0.899991
0	C	0.35059	0.486156	0.143218
0	C	0.0322417	0.97603	0.342483
0	C	0.447776	0.505726	0.834578
0	C	0.764883	0.993963	0.63858
0	H	0.355384	0.53752	0.14433
0	H	0.0307997	0.0261319	0.340315
0	H	0.44322	0.398584	0.84076
0	H	0.76713	0.94354	0.640501
0	C	0.652509	0.0956625	0.317264
0	C	0.721944	0.590925	0.178182
0	C	0.141928	0.872298	0.663387
0	C	0.0744927	0.375923	0.803243
0	C	0.627062	0.940661	0.441292
0	C	0.729739	0.44595	0.048523
0	C	0.16965	0.027269	0.53956
0	C	0.0689492	0.522677	0.932516
0	C	0.254631	0.412885	0.0861173
0	C	0.116867	0.895971	0.400679
0	C	0.541712	0.552649	0.897188
0	C	0.678355	0.0728281	0.580497
0	C	0.351188	0.160269	0.347316
0	C	0.0209624	0.659227	0.121982
0	C	0.441977	0.806373	0.627249
0	C	0.781228	0.304218	0.860366
0	H	0.342805	0.109764	0.354222
0	H	0.0212126	0.613788	0.108255
0	H	0.448845	0.854646	0.616558
0	H	0.778931	0.348239	0.876047
0	C	0.457595	0.536109	0.217269
0	C	0.926361	0.0320758	0.272895
0	C	0.336377	0.430838	0.762681
0	C	0.871427	0.936587	0.708164
0	C	0.467002	0.474083	0.200487
0	C	0.91691	0.968161	0.286985
0	C	0.326334	0.492756	0.779179
0	C	0.880913	0.000587837	0.69425
0	C	0.427365	0.470061	0.382481
0	C	0.926544	0.96015	0.11834
0	C	0.370987	0.499672	0.599801
0	C	0.870968	0.00775768	0.864103
0	C	0.171077	0.232252	0.370535
0	C	0.201412	0.732187	0.106386
0	C	0.623949	0.737597	0.610529
0	C	0.596442	0.234567	0.876855
0	C	0.686603	0.31526	0.20783
0	C	0.691455	0.817805	0.281451
0	C	0.108494	0.65325	0.772564
0	C	0.106473	0.150656	0.699423
0	C	0.123167	0.403786	0.233155
0	C	0.251735	0.903369	0.251973
0	C	0.671036	0.56399	0.74855
0	C	0.544287	0.0620897	0.728105
0	C	0.693756	0.10032	0.287162
0	C	0.68421	0.599355	0.209539
0	C	0.101129	0.867741	0.693677
0	C	0.112077	0.36737	0.77183
0	C	0.279562	0.491044	0.36395
0	C	0.0791785	0.986215	0.125157
0	C	0.518923	0.477968	0.617816
0	C	0.71818	0.979693	0.858418
0	C	0.533754	0.473947	0.392129
0	C	0.821658	0.962503	0.104062
0	C	0.26453	0.495816	0.590701
0	C	0.975879	0.00626785	0.877641
0	C	0.611529	0.888063	0.422049
0	C	0.752014	0.392206	0.0640705
0	C	0.185459	0.0798595	0.558727
0	C	0.0459009	0.575935	0.916949
0	C	0.688245	0.0608521	0.259053
0	C	0.691931	0.564013	0.238934
0	C	0.107685	0.90693	0.721802
0	C	0.104187	0.402834	0.742495
0	C	0.463391	0.221674	0.482098
0	C	0.862933	0.73149	0.998143
0	C	0.334526	0.74653	0.501014
0	C	0.935372	0.235309	0.981057
0	C	0.617562	0.00648061	0.429516
0	C	0.737579	0.509541	0.0631845
0	C	0.179056	0.961566	0.551496
0	C	0.0612668	0.459207	0.917877
0	C	0.473655	0.263034	0.508861
0	C	0.848202	0.768245	0.966291
0	C	0.323959	0.706617	0.473708
0	C	0.949325	0.203405	0.0142933
0	C	0.774664	0.109089	0.230843
0	C	0.604138	0.611326	0.266212
0	C	0.0215594	0.859302	0.750629
0	C	0.191852	0.355625	0.715042
0	C	0.663803	0.0600178	0.344537
0	C	0.705894	0.556376	0.151407
0	C	0.130691	0.908079	0.636146
0	C	0.0908763	0.410729	0.829826
0	C	0.600087	0.133633	0.317813
0	C	0.776089	0.626304	0.17548
0	C	0.194419	0.834297	0.662506
0	C	0.0204036	0.34049	0.80601
0	C	0.157602	0.405646	0.0948175
0	C	0.213934	0.887418	0.390695
0	C	0.638748	0.560506	0.887439
0	C	0.581152	0.0806978	0.589992
0	C	0.231653	0.384266	0.0548586
0	C	0.140722	0.865499	0.431316
0	C	0.56542	0.585335	0.927268
0	C	0.654846	0.103364	0.549794
0	H	0.259534	0.370327	0.0333832
0	H	0.113725	0.851459	0.453133
0	H	0.537276	0.60164	0.948103
0	H	0.682087	0.117616	0.528119
0	C	0.245465	0.550535	0.362168
0	C	0.112192	0.0469977	0.127996
0	C	0.553223	0.418601	0.61923
0	C	0.68555	0.919035	0.855138
0	C	0.0959532	0.427297	0.265356
0	C	0.28084	0.927157	0.220323
0	C	0.698945	0.540548	0.716471
0	C	0.515883	0.0381903	0.759913
0	C	0.511656	0.0901064	0.483825
0	C	0.814157	0.605488	0.999798
0	C	0.286826	0.877519	0.49862
0	C	0.984474	0.362543	0.980999
0	H	0.477641	0.100641	0.502835
0	H	0.84083	0.620088	0.976164
0	H	0.321243	0.866741	0.479892
0	H	0.956244	0.348075	0.0040913
0	C	0.607391	0.142483	0.189627
0	C	0.770847	0.644713	0.303657
0	C	0.187988	0.826032	0.790563
0	C	0.0255434	0.323288	0.676929
0	H	0.619488	0.093748	0.186785
0	H	0.758434	0.596322	0.307649
0	H	0.175984	0.874831	0.793154
0	H	0.0373901	0.371774	0.672711
0	C	0.514453	0.986305	0.12623
0	C	0.863971	0.486232	0.364909
0	C	0.284333	0.983027	0.853544
0	C	0.932699	0.480384	0.615816
0	H	0.5207	0.975211	0.099446
0	H	0.858563	0.473044	0.391357
0	H	0.27832	0.995141	0.88021
0	H	0.938266	0.493667	0.589409
0	C	0.640586	0.192989	0.196289
0	C	0.73746	0.694062	0.295278
0	C	0.154795	0.775664	0.783574
0	C	0.0594276	0.274436	0.685451
0	H	0.686267	0.194215	0.200727
0	H	0.691777	0.695094	0.290471
0	H	0.109392	0.774639	0.778439
0	H	0.105106	0.273949	0.690237
0	C	0.105222	0.407192	0.112223
0	C	0.266518	0.890064	0.373437
0	C	0.691225	0.560476	0.869563
0	C	0.528293	0.0775705	0.606921
0	C	0.463217	0.593911	0.200078
0	C	0.919741	0.0865794	0.292847
0	C	0.330337	0.372988	0.779672
0	C	0.877851	0.882503	0.687855
0	C	0.358613	0.232228	0.494556
0	C	0.953247	0.790501	0.929583
0	C	0.439201	0.736159	0.488253
0	C	0.842553	0.179974	0.0456018
0	H	0.313976	0.220428	0.489121
0	H	0.952348	0.724438	0.977146
0	H	0.483907	0.747655	0.493679
0	H	0.841608	0.235848	0.996711
0	C	0.41069	0.200896	0.167406
0	C	0.970141	0.704849	0.325424
0	C	0.379254	0.758502	0.8123
0	C	0.825861	0.262374	0.654886
0	H	0.426218	0.241288	0.152882
0	H	0.956593	0.742635	0.342136
0	H	0.360323	0.715963	0.823208
0	H	0.839197	0.22506	0.637776
0	C	0.708836	0.319755	0.239882
0	C	0.669642	0.823617	0.249323
0	C	0.0868086	0.648627	0.740379
0	C	0.128631	0.144456	0.731439
0	C	0.65439	0.928214	0.471411
0	C	0.702647	0.435718	0.0179979
0	C	0.141899	0.0396141	0.509584
0	C	0.0961077	0.533049	0.96297
0	C	0.64727	0.022067	0.396639
0	C	0.714222	0.5198	0.0982985
0	C	0.148394	0.94608	0.584122
0	C	0.0837329	0.448208	0.882689
0	C	0.0204112	0.425622	0.311001
0	C	0.358346	0.924533	0.175873
0	C	0.775534	0.542719	0.671454
0	C	0.439317	0.0411768	0.804905
0	H	0.981177	0.404331	0.322981
0	H	0.397501	0.902678	0.164221
0	H	0.814986	0.564153	0.659866
0	H	0.400228	0.0629548	0.816681
0	C	0.567474	0.163472	0.342369
0	C	0.804394	0.658662	0.150143
0	C	0.225755	0.803502	0.63776
0	C	0.992488	0.307093	0.830974
0	H	0.57012	0.164527	0.369476
0	H	0.796406	0.663355	0.123675
0	H	0.221477	0.801192	0.610816
0	H	0.000565927	0.301699	0.857382
0	C	0.219606	0.647251	0.332379
0	C	0.142087	0.139105	0.16058
0	C	0.577943	0.320513	0.648117
0	C	0.656105	0.827541	0.82177
0	C	0.172943	0.380891	0.0601027
0	C	0.199261	0.861071	0.425234
0	C	0.623983	0.588547	0.921701
0	C	0.59624	0.107444	0.555592
0	H	0.14075	0.363337	0.0439822
0	H	0.231782	0.842301	0.440826
0	H	0.656363	0.607919	0.937065
0	H	0.563898	0.126193	0.539885
0	C	0.426166	0.289459	0.527841
0	C	0.79848	0.781248	0.951957
0	C	0.37128	0.680681	0.45438
0	C	0.999284	0.186769	0.0275547
0	H	0.433843	0.321529	0.54844
0	H	0.799428	0.801157	0.926189
0	H	0.36341	0.649577	0.433403
0	H	0.995938	0.165755	0.0530233
0	C	0.48593	0.0289298	0.232118
0	C	0.889883	0.53566	0.260119
0	C	0.314591	0.936076	0.748186
0	C	0.907974	0.430506	0.720604
0	H	0.488363	0.0798677	0.237648
0	H	0.875272	0.583825	0.254547
0	H	0.316073	0.884667	0.743753
0	H	0.925015	0.383226	0.725966
0	H	0.517719	0.00586174	0.247656
0	H	0.865553	0.50424	0.244087
0	H	0.281196	0.954914	0.732229
0	H	0.930781	0.463244	0.736692
0	H	0.441884	0.0131919	0.241347
0	H	0.936694	0.532958	0.251145
0	H	0.357414	0.955052	0.73884
0	H	0.861128	0.43061	0.729662
0	C	0.18188	0.429864	0.362895
0	C	0.181301	0.930684	0.119978
0	C	0.616061	0.540275	0.619875
0	C	0.616074	0.0352931	0.863759
0	H	0.154047	0.470425	0.365354
0	H	0.207157	0.972601	0.121453
0	H	0.644438	0.500078	0.617844
0	H	0.590415	0.993287	0.861925
0	C	0.739316	0.145359	0.28657
0	C	0.639797	0.645931	0.210269
0	C	0.0551452	0.823202	0.694553
0	C	0.15659	0.320914	0.771039
0	C	0.249771	0.589644	0.333552
0	C	0.112625	0.0812192	0.15833
0	C	0.547902	0.378223	0.647335
0	C	0.685339	0.885462	0.824555
0	C	0.0457743	0.477721	0.326
0	C	0.336419	0.979519	0.161701
0	C	0.750901	0.490423	0.656257
0	C	0.461929	0.986747	0.819294
0	C	0.640408	0.0131476	0.25784
0	C	0.741555	0.519255	0.242385
0	C	0.156017	0.954125	0.722617
0	C	0.0548465	0.448081	0.739399
0	H	0.658605	0.963944	0.257566
0	H	0.726417	0.470018	0.242691
0	H	0.138146	0.00349937	0.722469
0	H	0.0705068	0.497187	0.739155
0	H	0.615944	0.0189717	0.235062
0	H	0.761989	0.527367	0.266476
0	H	0.180715	0.94839	0.745311
0	H	0.0339014	0.440434	0.715445
0	H	0.60787	0.0160971	0.279318
0	H	0.776406	0.523855	0.222236
0	H	0.188418	0.950337	0.701122
0	H	0.0203691	0.443795	0.759772
0	C	0.534512	0.281402	0.516262
0	C	0.738354	0.778168	0.967546
0	C	0.262905	0.689698	0.465993
0	C	0.0597902	0.188979	0.0124499
0	H	0.566303	0.243524	0.510449
0	H	0.727362	0.737064	0.983188
0	H	0.231399	0.727284	0.473038
0	H	0.0718189	0.231729	0.997956
0	H	0.538257	0.294619	0.542725
0	H	0.707616	0.780965	0.947547
0	H	0.258884	0.679454	0.439184
0	H	0.0875528	0.18657	0.0340347
0	H	0.548769	0.322496	0.500852
0	H	0.73115	0.819905	0.983923
0	H	0.248467	0.647221	0.480186
0	H	0.0678683	0.147469	0.995776
0	C	0.399417	0.417433	0.0456313
0	C	0.97089	0.922113	0.439656
0	C	0.395468	0.550808	0.935641
0	C	0.824103	0.0463518	0.541685
0	C	0.139253	0.193297	0.349623
0	C	0.231228	0.700682	0.13132
0	C	0.655126	0.777337	0.631321
0	C	0.564061	0.262638	0.851675
0	C	0.424133	0.540998	0.382897
0	C	0.926603	0.0312231	0.123816
0	C	0.374322	0.42874	0.598502
0	C	0.87263	0.937451	0.858044
0	H	0.460726	0.570558	0.387825
0	H	0.886775	0.0590638	0.124461
0	H	0.337791	0.399383	0.593205
0	H	0.911731	0.908904	0.857661
0	C	0.716859	0.0243821	0.35281
0	C	0.649965	0.524405	0.144812
0	C	0.0778825	0.943707	0.627462
0	C	0.147003	0.442809	0.83587
0	H	0.754739	0.0194808	0.335605
0	H	0.61329	0.522078	0.163084
0	H	0.0396433	0.948678	0.644376
0	H	0.183244	0.444855	0.817311
0	C	0.769162	0.322784	0.244
0	C	0.609473	0.828616	0.245048
0	C	0.0266081	0.645535	0.735968
0	C	0.188851	0.139153	0.735466
0	C	0.0180295	0.429057	0.0788092
0	C	0.34738	0.904641	0.412605
0	C	0.778105	0.539159	0.903069
0	C	0.447459	0.063354	0.56765
0	C	0.652285	0.815116	0.461359
0	C	0.72074	0.32307	0.0198557
0	C	0.143502	0.152683	0.519825
0	C	0.0771902	0.645478	0.960967
0	C	0.319	0.206107	0.371522
0	C	0.0455846	0.71542	0.102579
0	C	0.474195	0.755569	0.60646
0	C	0.754065	0.247936	0.879754
0	H	0.330495	0.215735	0.396808
0	H	0.0265858	0.736628	0.0813323
0	H	0.462509	0.738851	0.582258
0	H	0.772765	0.224648	0.900702
0	C	0.358915	0.387721	0.0685859
0	C	0.00878269	0.882877	0.419234
0	C	0.437708	0.579285	0.913308
0	C	0.78652	0.0860279	0.562
0	C	0.102034	0.420889	0.203458
0	C	0.27321	0.915147	0.282412
0	C	0.692279	0.547522	0.778245
0	C	0.521933	0.0510443	0.697818
0	C	0.368766	0.276902	0.519523
0	C	0.899597	0.786913	0.945409
0	C	0.428765	0.692603	0.462785
0	C	0.897195	0.184375	0.0346051
0	C	0.57279	0.485334	0.363828
0	C	0.777591	0.980293	0.128761
0	C	0.22585	0.484559	0.619184
0	C	0.0194978	0.987945	0.852873
0	C	0.422382	0.591501	0.268413
0	C	0.959342	0.0964284	0.224682
0	C	0.373949	0.376481	0.711762
0	C	0.838582	0.871362	0.755997
0	H	0.406822	0.590792	0.294855
0	H	0.973548	0.100651	0.19812
0	H	0.390404	0.377613	0.685485
0	H	0.824429	0.866547	0.782533
0	C	0.518201	0.101583	0.111512
0	C	0.858782	0.59977	0.382308
0	C	0.280358	0.868286	0.869468
0	C	0.936894	0.366795	0.598329
0	H	0.552638	0.135262	0.117468
0	H	0.82206	0.631107	0.377065
0	H	0.245975	0.834192	0.864021
0	H	0.973079	0.334777	0.603649
0	H	0.477247	0.128941	0.111794
0	H	0.898548	0.629361	0.383028
0	H	0.321388	0.841026	0.869262
0	H	0.896704	0.337911	0.597567
0	H	0.528149	0.0849585	0.0856452
0	H	0.849228	0.580509	0.407695
0	H	0.270699	0.885729	0.895204
0	H	0.946877	0.385932	0.572953
0	C	0.097284	0.424368	0.148051
0	C	0.276608	0.91047	0.338207
0	C	0.698045	0.544294	0.833687
0	C	0.517969	0.0566613	0.64205
0	C	0.425669	0.649065	0.250924
0	C	0.955671	0.150551	0.245035
0	C	0.36999	0.318713	0.729043
0	C	0.842031	0.817693	0.735303
0	C	0.0194051	0.503888	0.358426
0	C	0.367505	0.00751788	0.131021
0	C	0.777759	0.464849	0.623798
0	C	0.431573	0.959382	0.850361
0	H	0.984835	0.473068	0.369808
0	H	0.390678	0.971888	0.115241
0	H	0.813751	0.494773	0.613275
0	H	0.404795	0.994219	0.864711
0	H	0.998475	0.549749	0.35378
0	H	0.401068	0.0420171	0.138782
0	H	0.79685	0.417903	0.627954
0	H	0.401164	0.920925	0.843212
0	H	0.0525181	0.510934	0.37689
0	H	0.338394	0.0333977	0.115113
0	H	0.745174	0.460411	0.604804
0	H	0.461714	0.93796	0.867376
0	C	0.447163	0.649998	0.217171
0	C	0.935868	0.145444	0.27899
0	C	0.347199	0.317156	0.762546
0	C	0.861706	0.823418	0.701349
0	H	0.451166	0.694681	0.203894
0	H	0.933031	0.187365	0.294861
0	H	0.342633	0.272303	0.775566
0	H	0.864354	0.78184	0.685226
0	C	0.667051	0.866363	0.481453
0	C	0.698688	0.375603	0.00340601
0	C	0.128654	0.101448	0.499744
0	C	0.0997014	0.593261	0.977476
0	C	0.707505	0.00197823	0.384673
0	C	0.654612	0.50191	0.112778
0	C	0.0879241	0.966066	0.595621
0	C	0.143028	0.465869	0.867779
0	H	0.735826	0.975107	0.399635
0	H	0.623208	0.476178	0.0993371
0	H	0.0599486	0.992844	0.580408
0	H	0.174684	0.491995	0.880807
0	C	0.121628	0.480276	0.280247
0	C	0.257985	0.982088	0.205598
0	C	0.674077	0.487255	0.701427
0	C	0.539518	0.98384	0.774849
0	C	0.43913	0.474867	0.271211
0	C	0.947311	0.980093	0.216364
0	C	0.357442	0.493256	0.709281
0	C	0.850959	0.9875	0.765011
0	H	0.409602	0.439747	0.260878
0	H	0.979932	0.944474	0.224776
0	H	0.387079	0.527899	0.719962
0	H	0.817968	0.0230927	0.757019
0	H	0.425451	0.480038	0.298069
0	H	0.959774	0.990285	0.189758
0	H	0.371517	0.488529	0.682459
0	H	0.839117	0.976667	0.791621
0	H	0.482942	0.453226	0.269332
0	H	0.904551	0.95504	0.217206
0	H	0.313859	0.515479	0.711047
0	H	0.893626	0.0127967	0.76398
0	C	0.0878344	0.163676	0.362754
0	C	0.283664	0.668626	0.122393
0	C	0.706349	0.807244	0.61804
0	C	0.511314	0.292332	0.860764
0	H	0.0641484	0.132978	0.346445
0	H	0.305334	0.643522	0.141949
0	H	0.729582	0.838705	0.63417
0	H	0.487097	0.318139	0.842054
0	C	0.0960837	0.505437	0.310168
0	C	0.286019	0.00893854	0.176579
0	C	0.700478	0.462231	0.67168
0	C	0.512171	0.957367	0.80417
0	H	0.114649	0.547373	0.320899
0	H	0.26875	0.0515379	0.165718
0	H	0.682498	0.420179	0.660744
0	H	0.529786	0.914894	0.815042
0	C	0.394004	0.156347	0.449548
0	C	0.949695	0.68418	0.0258091
0	C	0.403978	0.810406	0.534188
0	C	0.847928	0.283239	0.953285
0	H	0.417056	0.167976	0.425142
0	H	0.972275	0.720445	0.0403052
0	H	0.381597	0.797379	0.558582
0	H	0.827514	0.250012	0.936199
0	H	0.347321	0.151692	0.445401
0	H	0.981106	0.651421	0.0133892
0	H	0.450705	0.815498	0.538093
0	H	0.814741	0.313193	0.966589
0	H	0.409721	0.10938	0.456519
0	H	0.92015	0.658286	0.043868
0	H	0.387523	0.857463	0.527951
0	H	0.877593	0.31284	0.93777
0	C	0.485777	0.597959	0.163976
0	C	0.894702	0.0840979	0.328436
0	C	0.306605	0.368892	0.81555
0	C	0.902478	0.885977	0.652216
0	H	0.449504	0.602719	0.147266
0	H	0.928698	0.0903925	0.34649
0	H	0.342543	0.367161	0.832669
0	H	0.868193	0.881559	0.634228
0	H	0.510977	0.55585	0.155922
0	H	0.871672	0.0392384	0.334292
0	H	0.279363	0.410025	0.822852
0	H	0.926301	0.930488	0.646821
0	H	0.514585	0.639143	0.159636
0	H	0.861229	0.121299	0.333012
0	H	0.279661	0.326371	0.819901
0	H	0.935283	0.848323	0.646945
0	C	0.507795	0.869815	0.137565
0	C	0.858382	0.37158	0.349871
0	C	0.291076	0.0990733	0.840862
0	C	0.939164	0.594872	0.63095
0	H	0.55269	0.855137	0.129729
0	H	0.811838	0.364427	0.357879
0	H	0.246014	0.114355	0.847829
0	H	0.985703	0.601632	0.622826
0	H	0.481536	0.864394	0.115503
0	H	0.884463	0.35751	0.37087
0	H	0.316335	0.105306	0.863251
0	H	0.913005	0.609303	0.610054
0	H	0.490759	0.836203	0.156749
0	H	0.86922	0.338904	0.328981
0	H	0.309048	0.131726	0.821454
0	H	0.928786	0.627556	0.651901
0	C	0.729426	0.0646263	0.231445
0	C	0.651494	0.569871	0.266867
0	C	0.0671507	0.903387	0.749717
0	C	0.144385	0.396949	0.714463
0	H	0.726775	0.0315723	0.210394
0	H	0.656703	0.541134	0.289156
0	H	0.0705916	0.936255	0.770773
0	H	0.139076	0.425729	0.692215
0	C	0.0667684	0.174041	0.396064
0	C	0.307547	0.669297	0.0891192
0	C	0.727753	0.796163	0.584854
0	C	0.490297	0.293852	0.895358
0	C	0.358037	0.321079	0.0708418
0	C	0.999161	0.81705	0.420028
0	C	0.437619	0.6459	0.909501
0	C	0.796501	0.151757	0.561166
0	C	0.0494822	0.465935	0.162654
0	C	0.325664	0.952214	0.325465
0	C	0.746054	0.502917	0.818699
0	C	0.469231	0.0144711	0.654731
0	H	0.0200677	0.49184	0.147948
0	H	0.355258	0.975079	0.3413
0	H	0.775748	0.477313	0.833366
0	H	0.439669	0.991583	0.638885
0	C	0.727325	0.311836	0.179843
0	C	0.650444	0.816711	0.309351
0	C	0.0674416	0.65665	0.800372
0	C	0.14716	0.151777	0.671373
0	C	0.0486606	0.388585	0.0992592
0	C	0.320672	0.868664	0.388203
0	C	0.747613	0.579215	0.882271
0	C	0.474352	0.0992138	0.592023
0	C	0.0523367	0.463028	0.196553
0	C	0.323632	0.954224	0.291424
0	C	0.742579	0.505688	0.784901
0	C	0.471541	0.0119608	0.688753
0	H	0.025818	0.486112	0.216132
0	H	0.351073	0.980288	0.273032
0	H	0.768787	0.482722	0.76515
0	H	0.444345	0.985402	0.70706
0	C	0.778572	0.1504	0.258244
0	C	0.600216	0.651561	0.238387
0	C	0.0166068	0.818289	0.723216
0	C	0.196033	0.315427	0.742861
0	H	0.813444	0.185366	0.257697
0	H	0.565059	0.686054	0.238505
0	H	0.981436	0.783653	0.724
0	H	0.231421	0.281216	0.742702
0	C	0.150741	0.240859	0.4047
0	C	0.225317	0.733024	0.0726968
0	C	0.644438	0.728385	0.576436
0	C	0.577051	0.238597	0.911508
0	C	0.319058	0.313163	0.536069
0	C	0.911657	0.838028	0.917642
0	C	0.478284	0.656746	0.445765
0	C	0.881388	0.137188	0.0630845
0	H	0.318496	0.3123	0.5637
0	H	0.90159	0.828143	0.891495
0	H	0.478273	0.658036	0.418159
0	H	0.883755	0.146153	0.0899267
0	H	0.276201	0.296127	0.529165
0	H	0.997003	0.78139	0.925254
0	H	0.521261	0.673781	0.452473
0	H	0.799027	0.188602	0.0491768
0	H	0.3223	0.363439	0.528244
0	H	0.916204	0.888402	0.923241
0	H	0.475302	0.606354	0.453415
0	H	0.88044	0.0871003	0.0587
0	C	0.0139108	0.347287	0.264623
0	C	0.354256	0.837399	0.218024
0	C	0.779698	0.62218	0.717481
0	C	0.440721	0.126316	0.761702
0	H	0.0237733	0.344233	0.237207
0	H	0.340624	0.828808	0.24469
0	H	0.766562	0.627714	0.744457
0	H	0.453136	0.133613	0.734766
0	H	0.966151	0.35173	0.268628
0	H	0.402277	0.836316	0.215457
0	H	0.827542	0.616761	0.715517
0	H	0.392703	0.126283	0.764788
0	H	0.0270683	0.302188	0.275674
0	H	0.33832	0.797431	0.203343
0	H	0.768545	0.666366	0.704753
0	H	0.456535	0.167485	0.775437
0	C	0.54365	0.501888	0.423412
0	C	0.818453	0.9835	0.0703671
0	C	0.254356	0.467725	0.559518
0	C	0.979653	0.986021	0.911415
0	C	0.175519	0.508851	0.263423
0	C	0.204134	0.013015	0.221489
0	C	0.619944	0.458353	0.717802
0	C	0.593459	0.953263	0.758861
0	H	0.171124	0.515835	0.236174
0	H	0.210021	0.0259819	0.247941
0	H	0.623825	0.451377	0.745105
0	H	0.587624	0.940933	0.73231
0	H	0.213226	0.477226	0.26594
0	H	0.166944	0.979776	0.221669
0	H	0.582273	0.490019	0.715163
0	H	0.630576	0.986566	0.75897
0	H	0.186095	0.555042	0.273782
0	H	0.192039	0.0563066	0.208499
0	H	0.609705	0.412217	0.707291
0	H	0.605477	0.909543	0.771527
0	C	0.619845	0.526602	0.366662
0	C	0.733684	0.0231817	0.120581
0	C	0.178921	0.443042	0.616642
0	C	0.0631561	0.944827	0.861043
0	H	0.649377	0.536297	0.344752
0	H	0.700411	0.0380278	0.139932
0	H	0.149607	0.433476	0.638681
0	H	0.0960808	0.929376	0.841645
0	C	0.624019	0.826036	0.431662
0	C	0.747056	0.331452	0.0504336
0	C	0.172494	0.141843	0.549279
0	C	0.0504968	0.636691	0.930544
0	C	0.156716	0.183189	0.313295
0	C	0.210117	0.702194	0.167588
0	C	0.637092	0.788057	0.667546
0	C	0.584353	0.258734	0.81549
0	H	0.118788	0.18121	0.29771
0	H	0.244693	0.71841	0.183524
0	H	0.674758	0.789081	0.683363
0	H	0.549972	0.240799	0.799956
0	H	0.180571	0.138444	0.30927
0	H	0.196822	0.655062	0.176872
0	H	0.61436	0.833566	0.671207
0	H	0.59811	0.304937	0.805017
0	H	0.185266	0.220927	0.302765
0	H	0.172799	0.734239	0.172847
0	H	0.607526	0.751216	0.678157
0	H	0.621773	0.226511	0.811114
0	C	0.808851	0.320129	0.2157
0	C	0.569457	0.826776	0.273221
0	C	0.986526	0.648186	0.764094
0	C	0.228552	0.140951	0.707149
0	C	0.184019	0.280805	0.427909
0	C	0.19516	0.768614	0.046248
0	C	0.611438	0.687418	0.553574
0	C	0.607549	0.204977	0.938208
0	H	0.184756	0.33068	0.420068
0	H	0.195868	0.819778	0.0512563
0	H	0.612323	0.637582	0.561455
0	H	0.601386	0.153674	0.935696
0	H	0.229938	0.265767	0.428192
0	H	0.148783	0.755189	0.0456381
0	H	0.56506	0.701011	0.553781
0	H	0.654715	0.214606	0.936326
0	H	0.165356	0.279906	0.453997
0	H	0.215241	0.761364	0.0207605
0	H	0.62919	0.68888	0.527322
0	H	0.590512	0.218533	0.963667
0	C	0.019659	0.333531	0.111228
0	C	0.349031	0.813144	0.376695
0	C	0.777054	0.633805	0.869942
0	C	0.446448	0.155095	0.603383
0	C	0.09846	0.212698	0.41699
0	C	0.278133	0.701783	0.0645314
0	C	0.696551	0.756697	0.564065
0	C	0.527007	0.272015	0.920665
0	H	0.0821757	0.221343	0.44285
0	H	0.296714	0.703111	0.0385768
0	H	0.713101	0.747512	0.538308
0	H	0.511743	0.277595	0.947106
0	C	0.209226	0.571563	0.389847
0	C	0.144465	0.0729232	0.0998501
0	C	0.590543	0.398878	0.591725
0	C	0.652855	0.892296	0.882934
0	C	0.183906	0.667019	0.360359
0	C	0.173926	0.163505	0.132253
0	C	0.614486	0.301925	0.620247
0	C	0.624024	0.80232	0.849819
0	C	0.429611	0.313909	0.0230392
0	C	0.916518	0.830126	0.461724
0	C	0.364162	0.654663	0.956317
0	C	0.878527	0.137924	0.519174
0	C	0.960351	0.415967	0.0707703
0	C	0.400606	0.886313	0.425237
0	C	0.836029	0.551846	0.910766
0	C	0.3945	0.0822069	0.554868
0	C	0.746369	0.186635	0.316509
0	C	0.635346	0.690125	0.181248
0	C	0.0466478	0.782285	0.664645
0	C	0.161431	0.276858	0.800092
0	H	0.709211	0.219333	0.320379
0	H	0.67382	0.721405	0.179101
0	H	0.0829631	0.748594	0.66055
0	H	0.123226	0.245221	0.802257
0	H	0.786551	0.214826	0.314119
0	H	0.596297	0.720048	0.183972
0	H	0.00586491	0.755081	0.667267
0	H	0.20074	0.247322	0.797375
0	H	0.747599	0.158755	0.339844
0	H	0.634155	0.665095	0.157061
0	H	0.0455661	0.810282	0.641346
0	H	0.162425	0.302017	0.824254
0	C	0.93217	0.360911	0.0828966
0	C	0.428421	0.831153	0.413059
0	C	0.864627	0.606258	0.898112
0	C	0.36703	0.137604	0.566987
0	C	0.393031	0.284997	0.0479962
0	C	0.954131	0.791196	0.441493
0	C	0.401522	0.682801	0.9313
0	C	0.841397	0.177217	0.539475
0	H	0.39135	0.234051	0.0501792
0	H	0.948014	0.740482	0.441933
0	H	0.403465	0.733699	0.928218
0	H	0.847762	0.22789	0.538934
0	C	0.59175	0.54216	0.425964
0	C	0.773632	0.0252093	0.0623851
0	C	0.20647	0.427045	0.557276
0	C	0.0240774	0.943814	0.919422
0	H	0.59977	0.563433	0.450133
0	H	0.771085	0.0410458	0.0362787
0	H	0.198265	0.405495	0.533209
0	H	0.026438	0.927761	0.945489
0	C	0.409728	0.48709	0.0463289
0	C	0.97791	0.992618	0.437829
0	C	0.384356	0.481193	0.93505
0	C	0.816789	0.975931	0.54386
0	H	0.421914	0.500918	0.0717526
0	H	0.967335	0.00983107	0.412688
0	H	0.35203	0.471649	0.916145
0	H	0.826366	0.959149	0.569264
0	H	0.370393	0.513938	0.0406031
0	H	0.0231132	0.00770517	0.441558
0	H	0.423952	0.453254	0.928279
0	H	0.77171	0.960946	0.539698
0	H	0.445905	0.501401	0.0283229
0	H	0.949315	0.0176548	0.456604
0	H	0.365018	0.46469	0.959503
0	H	0.845899	0.950429	0.525555
0	C	0.629112	0.555656	0.397586
0	C	0.732481	0.0466198	0.0875706
0	C	0.169591	0.413513	0.585853
0	C	0.064598	0.921728	0.894132
0	C	0.432631	0.379789	0.0223559
0	C	0.925483	0.895517	0.460793
0	C	0.360314	0.588897	0.9578
0	C	0.86939	0.0725653	0.520331
0	H	0.461616	0.402677	0.00377965
0	H	0.896543	0.925954	0.476375
0	H	0.329563	0.56661	0.976078
0	H	0.898046	0.041875	0.504752
0	C	0.962282	0.319496	0.103238
0	C	0.402606	0.794408	0.388681
0	C	0.834663	0.647482	0.877634
0	C	0.393062	0.174254	0.591329
0	C	0.406408	0.708439	0.268581
0	C	0.97142	0.213323	0.230001
0	C	0.389985	0.259571	0.7114
0	C	0.825967	0.754725	0.749915
0	H	0.427309	0.714601	0.292526
0	H	0.95322	0.21957	0.205308
0	H	0.369495	0.253379	0.687324
0	H	0.842988	0.748244	0.774908
0	H	0.358796	0.708039	0.274664
0	H	0.0195589	0.218742	0.226021
0	H	0.437652	0.26043	0.70558
0	H	0.777755	0.749115	0.753194
0	H	0.415992	0.75085	0.253396
0	H	0.954881	0.252475	0.245942
0	H	0.380423	0.217066	0.726496
0	H	0.843327	0.715832	0.734054
0	C	0.677782	0.601902	0.400228
0	C	0.689569	0.0962112	0.0789631
0	C	0.12129	0.366703	0.583627
0	C	0.107275	0.871882	0.902617
0	H	0.703374	0.608967	0.376194
0	H	0.660629	0.11067	0.100715
0	H	0.0971421	0.358388	0.608009
0	H	0.135862	0.857248	0.880758
0	H	0.708446	0.586863	0.418812
0	H	0.662123	0.0797734	0.0590635
0	H	0.0893175	0.382024	0.565862
0	H	0.135076	0.888208	0.922373
0	H	0.660787	0.648488	0.408141
0	H	0.713266	0.138579	0.0695465
0	H	0.138393	0.320666	0.574886
0	H	0.0837192	0.829577	0.912164
0	C	0.563457	0.453798	0.33099
0	C	0.77753	0.955162	0.163962
0	C	0.235574	0.516417	0.651876
0	C	0.0193663	0.0130857	0.817695
0	H	0.571681	0.402794	0.332584
0	H	0.764728	0.905096	0.164604
0	H	0.227758	0.567482	0.650193
0	H	0.0325246	0.0630433	0.816963
0	H	0.592013	0.471871	0.309944
0	H	0.746264	0.980596	0.181517
0	H	0.207057	0.498843	0.673048
0	H	0.0502637	0.987489	0.800042
0	H	0.517988	0.459174	0.323936
0	H	0.821027	0.958393	0.1742
0	H	0.281081	0.510709	0.658843
0	H	0.975744	0.0101494	0.807619
0	C	0.00989886	0.145317	0.408587
0	C	0.364847	0.637492	0.0803616
0	C	0.784703	0.824581	0.572218
0	C	0.434863	0.311936	0.904695
0	H	0.00185336	0.149442	0.436048
0	H	0.372893	0.631363	0.0529633
0	H	0.791542	0.82236	0.54462
0	H	0.420296	0.329572	0.928303
0	H	0.00840594	0.0948329	0.402242
0	H	0.365891	0.590624	0.0921853
0	H	0.787455	0.874463	0.579612
0	H	0.439045	0.388535	0.859429
0	H	0.973411	0.16869	0.396842
0	H	0.400495	0.666293	0.0895712
0	H	0.821158	0.799223	0.582931
0	H	0.398293	0.315413	0.889995
0	C	0.320248	0.287853	0.0973305
0	C	0.0361749	0.774262	0.397658
0	C	0.474795	0.67777	0.88216
0	C	0.759998	0.194684	0.58371
0	H	0.314724	0.31514	0.120993
0	H	0.0472402	0.795596	0.372687
0	H	0.477738	0.650141	0.858498
0	H	0.749771	0.173576	0.608827
0	H	0.337934	0.241485	0.103697
0	H	0.0149934	0.72901	0.393055
0	H	0.458115	0.724682	0.875998
0	H	0.781153	0.240108	0.587937
0	H	0.275858	0.281489	0.0888323
0	H	0.0779078	0.763759	0.408673
0	H	0.520187	0.682208	0.889327
0	H	0.717887	0.204773	0.573047
0	C	0.178205	0.628542	0.389106
0	C	0.175668	0.129699	0.101852
0	C	0.621406	0.341754	0.592077
0	C	0.621862	0.835427	0.880462
0	C	0.787827	0.3139	0.18349
0	C	0.590074	0.820557	0.305535
0	C	0.00703457	0.654465	0.796423
0	C	0.20757	0.147531	0.674947
0	C	0.502921	0.491888	0.453819
0	C	0.862977	0.964824	0.0428387
0	C	0.294573	0.478145	0.528936
0	C	0.93582	0.00613808	0.938962
0	H	0.526341	0.479417	0.476156
0	H	0.84239	0.935554	0.0239627
0	H	0.270737	0.491826	0.506957
0	H	0.957109	0.0343064	0.958032
0	H	0.470528	0.45456	0.450505
0	H	0.899735	0.937823	0.0521816
0	H	0.327514	0.514873	0.532388
0	H	0.899916	0.0348313	0.929957
0	H	0.47821	0.535838	0.460076
0	H	0.880998	0.00815345	0.0299491
0	H	0.318614	0.434076	0.522053
0	H	0.915883	0.963628	0.95178
0	C	0.819825	0.109963	0.202116
0	C	0.556849	0.609643	0.293749
0	C	0.977144	0.858527	0.779744
0	C	0.239072	0.357446	0.687487
0	H	0.853766	0.0741895	0.206264
0	H	0.522319	0.576489	0.286665
0	H	0.943737	0.895195	0.776242
0	H	0.274053	0.389777	0.694865
0	H	0.842654	0.155359	0.19927
0	H	0.535437	0.655358	0.298393
0	H	0.953531	0.81356	0.782425
0	H	0.259856	0.311551	0.682426
0	H	0.801922	0.0985396	0.177851
0	H	0.571696	0.592643	0.317904
0	H	0.996002	0.868638	0.803901
0	H	0.224525	0.375539	0.663491
0	C	0.468079	0.273784	0.000243518
0	C	0.866809	0.803266	0.483486
0	C	0.325833	0.695139	0.97899
0	C	0.927938	0.164382	0.497034
0	H	0.454084	0.270098	0.972869
0	H	0.862278	0.826023	0.508428
0	H	0.339346	0.697587	0.00662298
0	H	0.931373	0.141916	0.471999
0	H	0.469965	0.225468	0.00959193
0	H	0.871049	0.752396	0.487797
0	H	0.324685	0.74362	0.969896
0	H	0.924164	0.215363	0.49292
0	H	0.512203	0.292484	0.99644
0	H	0.824824	0.810013	0.471888
0	H	0.281584	0.676731	0.982397
0	H	0.970242	0.156868	0.508158
