#******************************************
#
# CIF file created by Zeo++
# Zeo++ is an open source package to
# analyze microporous materials
#
#*******************************************

_cell_length_a		27.8828(0)
_cell_length_b		28.1541(0)
_cell_length_c		14.7221(0)
_cell_angle_alpha		90(0)
_cell_angle_beta		90(0)
_cell_angle_gamma		90(0)

_symmetry_space_group_name_H-M		'P1'
_symmetry_Int_Tables_number		1
_symmetry_cell_setting		Monoclinic

loop_
_symmetry_equiv_pos_as_xyz
'+x,+y,+z'

loop_
_atom_site_label
_atom_site_type_symbol
_atom_site_fract_x
_atom_site_fract_y
_atom_site_fract_z
0	N	0.552158	0.142616	0.926467
0	N	0.990374	0.389359	0.920307
0	N	0.397387	0.544821	0.927896
0	N	0.145916	0.98947	0.917117
0	N	0.490916	0.643979	0.585752
0	N	0.053367	0.891746	0.575751
0	N	0.646439	0.0456329	0.577636
0	N	0.899361	0.489035	0.57315
0	N	0.490721	0.890379	0.0786356
0	N	0.0540356	0.643925	0.0817803
0	N	0.64717	0.489331	0.0808482
0	N	0.899184	0.0444487	0.0758476
0	N	0.553975	0.390685	0.42392
0	N	0.991071	0.142603	0.423423
0	N	0.398685	0.988587	0.426496
0	N	0.14532	0.544993	0.431019
0	H	0.544672	0.176649	0.945155
0	H	0.998054	0.355184	0.937729
0	H	0.36298	0.537729	0.946907
0	H	0.180281	0.996889	0.935707
0	H	0.498565	0.678175	0.568522
0	H	0.0457166	0.857744	0.557008
0	H	0.680646	0.0380438	0.5581
0	H	0.865431	0.495995	0.551105
0	H	0.498304	0.856276	0.060522
0	H	0.0463265	0.678077	0.0642923
0	H	0.681595	0.496454	0.0619896
0	H	0.864972	0.0372176	0.0559369
0	H	0.54633	0.356548	0.441627
0	H	0.998719	0.176623	0.441922
0	H	0.364568	0.995964	0.446926
0	H	0.179096	0.537948	0.453766
0	N	0.542836	0.0654356	0.884684
0	N	0.999212	0.467412	0.884415
0	N	0.475104	0.53494	0.885223
0	N	0.0678108	0.99884	0.876519
0	N	0.499907	0.565835	0.620616
0	N	0.0444865	0.969164	0.616106
0	N	0.568745	0.0368059	0.621426
0	N	0.97637	0.498936	0.620066
0	N	0.499741	0.968013	0.117486
0	N	0.0452178	0.566005	0.118604
0	N	0.569339	0.499202	0.122811
0	N	0.976547	0.0348067	0.12111
0	N	0.545032	0.468663	0.387634
0	N	5.92106e-05	0.0651872	0.382981
0	N	0.476113	0.99779	0.381325
0	N	0.0683437	0.535286	0.383763
0	N	0.316097	0.13216	0.889851
0	N	0.226556	0.403488	0.893953
0	N	0.408198	0.310452	0.892796
0	N	0.13457	0.22365	0.8905
0	N	0.727102	0.631211	0.613859
0	N	0.817075	0.904584	0.611614
0	N	0.632639	0.811402	0.610455
0	N	0.910051	0.723479	0.610365
0	N	0.726975	0.903172	0.111821
0	N	0.818017	0.630876	0.111034
0	N	0.636179	0.723742	0.113213
0	N	0.910227	0.810183	0.109738
0	N	0.317877	0.403197	0.39216
0	N	0.227304	0.13012	0.389536
0	N	0.410872	0.222904	0.392869
0	N	0.134417	0.310661	0.391806
0	O	0.249274	0.160629	0.0758747
0	O	0.293471	0.373496	0.0797634
0	O	0.376687	0.245759	0.081345
0	O	0.164477	0.288687	0.077686
0	O	0.793347	0.662696	0.427947
0	O	0.749764	0.872338	0.42688
0	O	0.666464	0.74507	0.425227
0	O	0.879146	0.789237	0.424936
0	O	0.793956	0.873978	0.92651
0	O	0.750676	0.660786	0.925671
0	O	0.666567	0.788146	0.923884
0	O	0.878875	0.744893	0.923149
0	O	0.251242	0.371522	0.576523
0	O	0.294415	0.161812	0.574544
0	O	0.378796	0.288731	0.578316
0	O	0.166662	0.244726	0.577347
0	O	0.213012	0.0638752	0.176739
0	O	0.329594	0.47026	0.181575
0	O	0.477028	0.214037	0.181472
0	O	0.0658804	0.322115	0.180822
0	O	0.829975	0.56749	0.323473
0	O	0.714198	0.969478	0.323632
0	O	0.566648	0.711607	0.324183
0	O	0.977561	0.822719	0.320451
0	O	0.829079	0.970508	0.822696
0	O	0.713951	0.563819	0.825236
0	O	0.566851	0.820642	0.823263
0	O	0.978226	0.711839	0.82149
0	O	0.213424	0.465913	0.682014
0	O	0.331137	0.0655728	0.679456
0	O	0.477195	0.322447	0.682682
0	O	0.0666648	0.212816	0.679672
0	O	0.218134	0.954982	0.101674
0	O	0.324036	0.58057	0.105376
0	O	0.589411	0.221731	0.110652
0	O	0.954307	0.313806	0.109137
0	O	0.828392	0.457637	0.403036
0	O	0.719896	0.0800449	0.394152
0	O	0.453623	0.71975	0.3887
0	O	0.0897312	0.81527	0.391871
0	O	0.823314	0.080875	0.897729
0	O	0.718719	0.454731	0.900187
0	O	0.455367	0.813636	0.897046
0	O	0.0902837	0.720172	0.889274
0	O	0.214921	0.576151	0.603457
0	O	0.326385	0.955296	0.603492
0	O	0.589822	0.314582	0.612091
0	O	0.953779	0.221628	0.612588
0	O	0.251506	0.0189815	0.940476
0	O	0.29145	0.516436	0.945317
0	O	0.522457	0.247408	0.948422
0	O	0.0199424	0.28536	0.946893
0	O	0.793437	0.51951	0.560378
0	O	0.752132	0.016985	0.556798
0	O	0.518901	0.747857	0.553713
0	O	0.0235787	0.787195	0.553133
0	O	0.792841	0.0153887	0.0581476
0	O	0.753125	0.517807	0.0611127
0	O	0.521302	0.785683	0.0583518
0	O	0.0247031	0.748099	0.0529806
0	O	0.251045	0.514369	0.4472
0	O	0.292768	0.018049	0.443777
0	O	0.524554	0.286521	0.449406
0	O	0.0206985	0.247201	0.449077
0	C	0.598263	0.123738	0.913862
0	C	0.944197	0.407952	0.907096
0	C	0.416977	0.5903	0.916385
0	C	0.126639	0.943865	0.905759
0	C	0.444738	0.625194	0.597985
0	C	0.0995838	0.910358	0.588287
0	C	0.627648	0.0913516	0.590204
0	C	0.918733	0.443555	0.585857
0	C	0.44455	0.90909	0.0913045
0	C	0.100233	0.625368	0.0949578
0	C	0.627503	0.443853	0.0918695
0	C	0.918484	0.0899777	0.0882017
0	C	0.600144	0.409343	0.41105
0	C	0.944902	0.124014	0.410124
0	C	0.417646	0.942959	0.413783
0	C	0.126142	0.59051	0.417867
0	C	0.591721	0.0760073	0.887917
0	C	0.950454	0.456226	0.884739
0	C	0.465009	0.583438	0.88986
0	C	0.0784074	0.950422	0.880117
0	C	0.451094	0.576858	0.619715
0	C	0.0933115	0.958262	0.613312
0	C	0.579637	0.08514	0.617571
0	C	0.966336	0.45044	0.615005
0	C	0.450927	0.957124	0.115403
0	C	0.0939944	0.577181	0.117902
0	C	0.579424	0.450707	0.11816
0	C	0.966278	0.0832493	0.116376
0	C	0.593826	0.457582	0.388562
0	C	0.951237	0.0761167	0.385095
0	C	0.465502	0.949405	0.385599
0	C	0.0785445	0.583753	0.388567
0	C	0.51907	0.106056	0.906757
0	C	0.0232095	0.426686	0.90482
0	C	0.433847	0.511738	0.907064
0	C	0.108964	0.0223087	0.898063
0	C	0.523852	0.606709	0.601066
0	C	0.0204476	0.928606	0.594651
0	C	0.609523	0.0130301	0.598481
0	C	0.93548	0.522152	0.59583
0	C	0.523676	0.927317	0.0965009
0	C	0.0211996	0.606669	0.0979029
0	C	0.610641	0.522406	0.101212
0	C	0.935584	0.0114804	0.0977453
0	C	0.521061	0.427885	0.40779
0	C	0.024024	0.105728	0.40484
0	C	0.43531	0.0213739	0.404852
0	C	0.109127	0.511965	0.408304
0	C	0.642154	0.151403	0.92613
0	C	0.900452	0.37974	0.915965
0	C	0.389814	0.634156	0.930008
0	C	0.153887	0.900153	0.920557
0	C	0.40097	0.653366	0.589069
0	C	0.143373	0.882441	0.576605
0	C	0.655057	0.135064	0.576503
0	C	0.891728	0.399713	0.570814
0	C	0.400749	0.881076	0.0810254
0	C	0.14383	0.65374	0.0852273
0	C	0.654552	0.40003	0.0771371
0	C	0.891652	0.133885	0.0729915
0	C	0.643914	0.381123	0.419397
0	C	0.901028	0.151886	0.421072
0	C	0.390489	0.899121	0.427937
0	C	0.15335	0.634305	0.432052
0	C	0.671772	0.143287	0.00168165
0	C	0.86859	0.388534	0.987913
0	C	0.395539	0.660713	0.00997562
0	C	0.148295	0.874599	0.00179027
0	C	0.368633	0.644007	0.518151
0	C	0.173428	0.890775	0.501743
0	C	0.65048	0.160873	0.495379
0	C	0.896885	0.374292	0.489373
0	C	0.36914	0.890358	0.00891529
0	C	0.174924	0.645671	0.0118003
0	C	0.648361	0.373942	0.996715
0	C	0.897835	0.159561	0.992084
0	C	0.676226	0.389915	0.490606
0	C	0.871344	0.144537	0.496824
0	C	0.39405	0.874256	0.510313
0	C	0.147783	0.660621	0.512334
0	H	0.660954	0.117468	0.0528273
0	H	0.877688	0.415173	0.0387253
0	H	0.418872	0.647505	0.0636689
0	H	0.125116	0.888581	0.0550078
0	H	0.377206	0.616687	0.468333
0	H	0.162871	0.916749	0.450681
0	H	0.628333	0.146898	0.440607
0	H	0.919861	0.388259	0.435832
0	H	0.378385	0.917346	0.958878
0	H	0.165461	0.619331	0.960656
0	H	0.624631	0.387422	0.943898
0	H	0.921044	0.145466	0.939032
0	H	0.667615	0.416785	0.541274
0	H	0.882289	0.119452	0.549207
0	H	0.415119	0.889109	0.565766
0	H	0.124377	0.647345	0.56585
0	C	0.714588	0.168625	0.0109653
0	C	0.825851	0.362847	0.994123
0	C	0.370917	0.703605	0.0203881
0	C	0.172791	0.831779	0.0140332
0	C	0.326081	0.669999	0.511693
0	C	0.216264	0.865431	0.492979
0	C	0.674655	0.204039	0.485295
0	C	0.872177	0.331556	0.477347
0	C	0.326417	0.86471	0.00155245
0	C	0.21738	0.671756	0.0045048
0	C	0.673016	0.331185	0.984719
0	C	0.873924	0.202722	0.980057
0	C	0.718819	0.363931	0.496208
0	C	0.828316	0.169649	0.504669
0	C	0.370261	0.830904	0.520758
0	C	0.172615	0.703374	0.523204
0	H	0.737722	0.162484	0.0694936
0	H	0.800894	0.369649	0.0496387
0	H	0.375251	0.724353	0.0823276
0	H	0.168625	0.811915	0.07705
0	H	0.300803	0.662819	0.456885
0	H	0.239697	0.871715	0.43495
0	H	0.671154	0.224209	0.422482
0	H	0.875984	0.311776	0.414165
0	H	0.301695	0.8718	0.945789
0	H	0.241738	0.665514	0.94781
0	H	0.668348	0.310836	0.922402
0	H	0.878461	0.22268	0.917229
0	H	0.744104	0.370677	0.551211
0	H	0.805123	0.16406	0.563302
0	H	0.372995	0.811475	0.584543
0	H	0.168428	0.723903	0.585428
0	C	0.727913	0.202002	0.945293
0	C	0.814841	0.328301	0.929115
0	C	0.340592	0.720016	0.951547
0	C	0.202805	0.814331	0.945622
0	C	0.315709	0.705402	0.575388
0	C	0.229223	0.831817	0.558471
0	C	0.703377	0.221509	0.555646
0	C	0.842423	0.314091	0.546127
0	C	0.315153	0.829775	0.0656329
0	C	0.22882	0.705986	0.0698572
0	C	0.703835	0.314442	0.0524775
0	C	0.844052	0.220421	0.0484503
0	C	0.729266	0.329154	0.431319
0	C	0.81481	0.202057	0.437372
0	C	0.342913	0.8123	0.449525
0	C	0.202924	0.719918	0.454462
0	H	0.761874	0.220824	0.951881
0	H	0.780998	0.30911	0.933336
0	H	0.32234	0.754009	0.959116
0	H	0.220819	0.780306	0.954535
0	H	0.282095	0.724969	0.570814
0	H	0.263245	0.813054	0.552402
0	H	0.721123	0.25579	0.548402
0	H	0.824101	0.280224	0.537278
0	H	0.2813	0.81065	0.060574
0	H	0.262442	0.725501	0.0647384
0	H	0.722166	0.280581	0.0436638
0	H	0.826681	0.254803	0.0398556
0	H	0.762922	0.309614	0.435209
0	H	0.780623	0.220582	0.442731
0	H	0.325559	0.777838	0.457031
0	H	0.221377	0.753775	0.46239
0	C	0.697989	0.210777	0.870943
0	C	0.846969	0.318877	0.85845
0	C	0.334158	0.693114	0.872641
0	C	0.209179	0.840256	0.865518
0	C	0.348228	0.715257	0.645203
0	C	0.198795	0.822715	0.631935
0	C	0.708833	0.195261	0.635621
0	C	0.836648	0.339799	0.62666
0	C	0.347029	0.819864	0.136462
0	C	0.19742	0.714698	0.142028
0	C	0.710664	0.340841	0.13189
0	C	0.837009	0.19431	0.128134
0	C	0.69679	0.319898	0.361143
0	C	0.844867	0.210188	0.362945
0	C	0.338351	0.837648	0.368305
0	C	0.209104	0.693321	0.375104
0	H	0.708082	0.237161	0.820303
0	H	0.838655	0.291655	0.808294
0	H	0.310159	0.705594	0.81938
0	H	0.232976	0.827006	0.812625
0	H	0.340417	0.743083	0.694448
0	H	0.208547	0.796063	0.682286
0	H	0.731619	0.208552	0.690081
0	H	0.813136	0.326478	0.67996
0	H	0.338516	0.792342	0.185937
0	H	0.206038	0.741722	0.192394
0	H	0.735009	0.328058	0.184313
0	H	0.813242	0.207743	0.180922
0	H	0.7047	0.292597	0.310899
0	H	0.834653	0.23585	0.311058
0	H	0.316573	0.823512	0.31315
0	H	0.23303	0.705944	0.321843
0	C	0.655228	0.185494	0.861032
0	C	0.889658	0.344579	0.851481
0	C	0.358787	0.650336	0.861579
0	C	0.184767	0.883042	0.852773
0	C	0.390683	0.689214	0.652492
0	C	0.155976	0.847983	0.641333
0	C	0.684757	0.152139	0.646234
0	C	0.861284	0.382456	0.639227
0	C	0.389695	0.845496	0.144546
0	C	0.155066	0.688565	0.150126
0	C	0.686005	0.383488	0.144527
0	C	0.860716	0.151119	0.140596
0	C	0.654267	0.345889	0.354767
0	C	0.887882	0.185157	0.354506
0	C	0.36205	0.880948	0.357349
0	C	0.184322	0.65067	0.363664
0	H	0.632064	0.191517	0.802152
0	H	0.914441	0.338008	0.795324
0	H	0.354659	0.629479	0.799171
0	H	0.189035	0.903218	0.789573
0	H	0.415698	0.696024	0.708192
0	H	0.13245	0.841632	0.699523
0	H	0.68831	0.131631	0.709165
0	H	0.857554	0.402462	0.702764
0	H	0.414282	0.838566	0.200885
0	H	0.130831	0.694548	0.207399
0	H	0.690479	0.403968	0.207292
0	H	0.85592	0.130723	0.20337
0	H	0.62925	0.339561	0.298839
0	H	0.911158	0.190755	0.295655
0	H	0.35914	0.900772	0.293445
0	H	0.188312	0.630005	0.300976
0	C	0.628198	0.0408536	0.863439
0	C	0.914031	0.491551	0.860944
0	C	0.500949	0.61935	0.866834
0	C	0.0428844	0.914075	0.857192
0	C	0.414555	0.541401	0.642099
0	C	0.129916	0.993398	0.637223
0	C	0.544646	0.121785	0.641878
0	C	0.00203939	0.414482	0.63906
0	C	0.414307	0.992228	0.139375
0	C	0.130381	0.541905	0.142183
0	C	0.543452	0.414754	0.14087
0	C	0.00169172	0.119506	0.140422
0	C	0.630419	0.492807	0.365241
0	C	0.91463	0.0410532	0.360741
0	C	0.500604	0.912872	0.361292
0	C	0.0431124	0.619868	0.363933
0	C	0.664367	0.0527573	0.801056
0	C	0.878591	0.480534	0.796553
0	C	0.489315	0.656396	0.806905
0	C	0.0548068	0.877627	0.796082
0	C	0.37826	0.552261	0.704881
0	C	0.166291	0.981672	0.699257
0	C	0.556993	0.157387	0.704474
0	C	0.990099	0.377335	0.69853
0	C	0.378653	0.980595	0.202998
0	C	0.165625	0.553058	0.206884
0	C	0.554826	0.377958	0.20155
0	C	0.989576	0.155651	0.202025
0	C	0.666517	0.481448	0.30237
0	C	0.879047	0.0525871	0.296938
0	C	0.488262	0.876988	0.299308
0	C	0.0555548	0.656915	0.304584
0	H	0.665366	0.0883942	0.771427
0	H	0.878021	0.445328	0.764957
0	H	0.453286	0.658518	0.777998
0	H	0.0905874	0.876564	0.765886
0	H	0.377073	0.587474	0.736395
0	H	0.16755	0.945989	0.728733
0	H	0.592748	0.157663	0.734929
0	H	0.953991	0.375274	0.727043
0	H	0.37824	0.945213	0.233864
0	H	0.166137	0.588342	0.238161
0	H	0.59066	0.376107	0.231418
0	H	0.953697	0.156592	0.231849
0	H	0.667521	0.446056	0.271618
0	H	0.878562	0.0879438	0.266032
0	H	0.452474	0.876525	0.26912
0	H	0.0917991	0.658754	0.276584
0	C	0.698261	0.0188373	0.775049
0	C	0.84498	0.514814	0.771004
0	C	0.524132	0.68972	0.78249
0	C	0.0206046	0.843598	0.772191
0	C	0.344498	0.517823	0.728911
0	C	0.20001	0.0157817	0.725225
0	C	0.523282	0.191693	0.729474
0	C	0.0247314	0.343809	0.722949
0	C	0.344567	0.0144058	0.228554
0	C	0.199108	0.518811	0.233199
0	C	0.520012	0.344533	0.225461
0	C	0.0237153	0.189571	0.226842
0	C	0.700319	0.515648	0.277302
0	C	0.845103	0.0186607	0.271155
0	C	0.522016	0.842661	0.274623
0	C	0.0212595	0.69066	0.279608
0	H	0.725388	0.0275989	0.724287
0	H	0.818507	0.506886	0.718491
0	H	0.515553	0.717659	0.733834
0	H	0.0293519	0.816207	0.722445
0	H	0.317331	0.525665	0.78016
0	H	0.227132	0.00724685	0.776172
0	H	0.53229	0.218388	0.780441
0	H	0.0159272	0.315811	0.771385
0	H	0.317863	0.00588998	0.280288
0	H	0.225428	0.526855	0.285913
0	H	0.528373	0.316831	0.274775
0	H	0.0148145	0.216787	0.276819
0	H	0.727347	0.507442	0.226006
0	H	0.818531	0.0270544	0.219087
0	H	0.512973	0.815722	0.224134
0	H	0.0304583	0.718593	0.231315
0	C	0.696981	0.973413	0.813199
0	C	0.845838	0.559664	0.811565
0	C	0.570159	0.686893	0.819589
0	C	0.97492	0.845073	0.811087
0	C	0.346007	0.472993	0.688328
0	C	0.198539	0.0611466	0.686884
0	C	0.47774	0.191467	0.689939
0	C	0.0708473	0.346459	0.686154
0	C	0.34516	0.0594467	0.188717
0	C	0.198358	0.47387	0.19303
0	C	0.474249	0.346963	0.187084
0	C	0.0695133	0.188234	0.188445
0	C	0.699034	0.56071	0.316952
0	C	0.845631	0.973651	0.31112
0	C	0.567643	0.843193	0.313804
0	C	0.974966	0.688308	0.315653
0	H	0.724103	0.94717	0.793845
0	H	0.818972	0.586206	0.79245
0	H	0.597105	0.713413	0.800823
0	H	0.948477	0.817932	0.793073
0	H	0.319012	0.446335	0.706257
0	H	0.225547	0.0875364	0.706124
0	H	0.451762	0.218992	0.708387
0	H	0.0975578	0.319629	0.704457
0	H	0.317876	0.0856091	0.20766
0	H	0.225132	0.447348	0.212754
0	H	0.447339	0.320298	0.205235
0	H	0.0959378	0.215235	0.207336
0	H	0.726052	0.587187	0.298154
0	H	0.818403	0.947437	0.292148
0	H	0.59365	0.815655	0.295626
0	H	0.948494	0.715284	0.296863
0	C	0.661331	0.961579	0.876081
0	C	0.88077	0.570623	0.876438
0	C	0.581642	0.650413	0.880281
0	C	0.963116	0.880982	0.872788
0	C	0.381727	0.462231	0.624896
0	C	0.162824	0.0727503	0.623966
0	C	0.465501	0.156379	0.626841
0	C	0.0826866	0.38316	0.626201
0	C	0.380301	0.0710224	0.124636
0	C	0.163686	0.462806	0.127736
0	C	0.463005	0.383241	0.125792
0	C	0.0814683	0.152661	0.126143
0	C	0.663532	0.571948	0.380521
0	C	0.880688	0.962193	0.375451
0	C	0.579918	0.878639	0.376163
0	C	0.962616	0.651712	0.375464
0	H	0.660422	0.926159	0.906018
0	H	0.881351	0.605648	0.90809
0	H	0.617474	0.648211	0.909782
0	H	0.927564	0.882048	0.903642
0	H	0.382785	0.427296	0.592957
0	H	0.161857	0.108089	0.593659
0	H	0.430036	0.15637	0.595524
0	H	0.118652	0.385377	0.59709
0	H	0.380648	0.106171	0.0934804
0	H	0.163269	0.427721	0.0962796
0	H	0.427369	0.385206	0.095448
0	H	0.117115	0.151753	0.095553
0	H	0.662718	0.607074	0.41174
0	H	0.880992	0.927095	0.406841
0	H	0.615459	0.878965	0.407144
0	H	0.926528	0.649791	0.404028
0	C	0.626647	0.994931	0.900729
0	C	0.915151	0.53692	0.900727
0	C	0.547391	0.616382	0.903465
0	C	0.996715	0.91579	0.895292
0	C	0.416285	0.496073	0.602246
0	C	0.128194	0.0392774	0.599747
0	C	0.49853	0.121208	0.603442
0	C	0.048657	0.417438	0.603226
0	C	0.415166	0.0377767	0.100382
0	C	0.12939	0.496453	0.102738
0	C	0.497243	0.417393	0.103124
0	C	0.0479358	0.11799	0.102629
0	C	0.628927	0.538354	0.404204
0	C	0.915492	0.995494	0.399706
0	C	0.546814	0.913783	0.399305
0	C	0.996317	0.617215	0.399022
0	H	0.598058	0.985621	0.948311
0	H	0.943256	0.545551	0.949796
0	H	0.556313	0.587237	0.949541
0	H	0.98748	0.944529	0.942027
0	H	0.444973	0.487621	0.554272
0	H	0.0994687	0.0484417	0.552362
0	H	0.488906	0.0930537	0.555714
0	H	0.0578271	0.446766	0.557783
0	H	0.443362	0.0468966	0.0518304
0	H	0.101463	0.487717	0.0533812
0	H	0.488481	0.44637	0.0565554
0	H	0.0572538	0.0895338	0.0553271
0	H	0.600389	0.547164	0.452256
0	H	0.943677	0.986415	0.4483
0	H	0.556443	0.942166	0.446535
0	H	0.986741	0.587965	0.444336
0	C	0.467089	0.112513	0.90703
0	C	0.0752597	0.421034	0.907026
0	C	0.427105	0.460281	0.906909
0	C	0.115386	0.0738011	0.899959
0	C	0.575892	0.612699	0.599331
0	C	0.968377	0.922631	0.594321
0	C	0.615522	0.961464	0.597563
0	C	0.928856	0.573644	0.595593
0	C	0.575719	0.921273	0.0959325
0	C	0.96916	0.612469	0.0959801
0	C	0.617351	0.57387	0.100831
0	C	0.928994	0.960012	0.0970473
0	C	0.46902	0.421873	0.408883
0	C	0.076075	0.111745	0.405808
0	C	0.429036	0.0729143	0.405608
0	C	0.115703	0.460466	0.408263
0	C	0.445852	0.154565	0.938179
0	C	0.0968336	0.379067	0.937712
0	C	0.384231	0.439251	0.935925
0	C	0.158288	0.0945677	0.929677
0	C	0.597217	0.655238	0.570899
0	C	0.946763	0.880051	0.566865
0	C	0.658795	0.940048	0.571703
0	C	0.885681	0.59472	0.568317
0	C	0.597301	0.879271	0.0654076
0	C	0.947713	0.654565	0.0655624
0	C	0.660215	0.594836	0.0715455
0	C	0.885591	0.939102	0.0705151
0	C	0.447638	0.379271	0.436774
0	C	0.0975279	0.154367	0.433464
0	C	0.385625	0.0940722	0.431427
0	C	0.158851	0.439285	0.435403
0	H	0.468291	0.183343	0.964834
0	H	0.0745776	0.349832	0.963018
0	H	0.354693	0.461514	0.960474
0	H	0.187843	0.0720634	0.95323
0	H	0.574803	0.684724	0.547397
0	H	0.968964	0.850382	0.543356
0	H	0.689213	0.962081	0.550708
0	H	0.855859	0.572404	0.545061
0	H	0.575055	0.850169	0.039377
0	H	0.970043	0.683715	0.0401691
0	H	0.689754	0.572511	0.047306
0	H	0.855511	0.961453	0.0490128
0	H	0.470008	0.349798	0.460594
0	H	0.0752155	0.184006	0.456662
0	H	0.355369	0.0718246	0.452583
0	H	0.188661	0.461519	0.459067
0	C	0.396263	0.16069	0.936033
0	C	0.146504	0.373676	0.937005
0	C	0.378287	0.390106	0.934589
0	C	0.164267	0.143694	0.930164
0	C	0.646858	0.66092	0.571825
0	C	0.897106	0.874479	0.568825
0	C	0.664097	0.890827	0.572168
0	C	0.879744	0.643864	0.569584
0	C	0.64695	0.873617	0.067218
0	C	0.898077	0.660205	0.0667889
0	C	0.666137	0.643988	0.0722996
0	C	0.879735	0.88995	0.0709609
0	C	0.398016	0.37348	0.434973
0	C	0.147181	0.160005	0.431986
0	C	0.379992	0.143247	0.430914
0	C	0.164792	0.390144	0.433545
0	H	0.381485	0.194347	0.961077
0	H	0.16156	0.340045	0.961449
0	H	0.344014	0.375495	0.958187
0	H	0.198545	0.158125	0.954125
0	H	0.661713	0.694919	0.548736
0	H	0.882063	0.840434	0.546491
0	H	0.698638	0.875878	0.550873
0	H	0.845237	0.658501	0.547402
0	H	0.661979	0.839958	0.0427708
0	H	0.883109	0.693906	0.0424632
0	H	0.700381	0.658574	0.0485127
0	H	0.845131	0.875371	0.0491328
0	H	0.383146	0.339405	0.457521
0	H	0.162159	0.194039	0.454601
0	H	0.34533	0.15798	0.452097
0	H	0.199281	0.375446	0.455638
0	C	0.366367	0.124488	0.90172
0	C	0.176181	0.410606	0.904851
0	C	0.415486	0.360391	0.903218
0	C	0.12703	0.173704	0.899969
0	C	0.676811	0.623813	0.602296
0	C	0.867394	0.911737	0.599508
0	C	0.625873	0.861363	0.599923
0	C	0.917326	0.673593	0.599305
0	C	0.676617	0.910297	0.100453
0	C	0.8683	0.623436	0.0992943
0	C	0.6289	0.67376	0.10331
0	C	0.917496	0.860115	0.0994571
0	C	0.368139	0.410582	0.404231
0	C	0.177006	0.122799	0.401516
0	C	0.418017	0.172969	0.403192
0	C	0.127214	0.360534	0.403387
0	C	0.387886	0.0818967	0.870511
0	C	0.154338	0.453205	0.874534
0	C	0.458793	0.381712	0.873576
0	C	0.0835519	0.152704	0.870396
0	C	0.655223	0.580634	0.63022
0	C	0.889261	0.954862	0.626941
0	C	0.582139	0.883037	0.62618
0	C	0.961027	0.652277	0.626868
0	C	0.654751	0.952825	0.131132
0	C	0.889998	0.580659	0.129068
0	C	0.585576	0.652513	0.133026
0	C	0.96133	0.881295	0.126576
0	C	0.389774	0.453795	0.376643
0	C	0.155296	0.079596	0.374069
0	C	0.461875	0.151571	0.376888
0	C	0.0835327	0.381945	0.376006
0	H	0.36563	0.0536858	0.841877
0	H	0.176384	0.482057	0.847929
0	H	0.48782	0.359644	0.847168
0	H	0.0543714	0.175037	0.845518
0	H	0.677433	0.551481	0.655087
0	H	0.867292	0.984097	0.65215
0	H	0.55216	0.861222	0.64912
0	H	0.990482	0.67432	0.651486
0	H	0.6768	0.981435	0.15876
0	H	0.867877	0.55183	0.155534
0	H	0.556479	0.674637	0.158992
0	H	0.990848	0.859147	0.150568
0	H	0.367617	0.482896	0.351398
0	H	0.177372	0.0503656	0.34918
0	H	0.491685	0.173578	0.353835
0	H	0.054074	0.360005	0.35109
0	C	0.437322	0.0761337	0.872949
0	C	0.104793	0.458183	0.875355
0	C	0.464359	0.430708	0.8752
0	C	0.0779758	0.103681	0.870159
0	C	0.605707	0.575319	0.628987
0	C	0.93879	0.960068	0.624581
0	C	0.577183	0.932124	0.625116
0	C	0.966548	0.603267	0.625241
0	C	0.605246	0.958077	0.129129
0	C	0.939521	0.575414	0.127665
0	C	0.580031	0.603508	0.131991
0	C	0.966869	0.930304	0.125418
0	C	0.439275	0.459196	0.378697
0	C	0.105777	0.0743075	0.375977
0	C	0.467156	0.102505	0.377955
0	C	0.0780178	0.430949	0.378215
0	H	0.45374	0.0432445	0.848077
0	H	0.088078	0.49106	0.851077
0	H	0.497848	0.446939	0.851641
0	H	0.0443754	0.0876957	0.846641
0	H	0.58924	0.541949	0.651335
0	H	0.955441	0.993419	0.646508
0	H	0.543285	0.948599	0.645868
0	H	0.000359801	0.587055	0.647097
0	H	0.588566	0.990911	0.153646
0	H	0.956123	0.542388	0.151503
0	H	0.546508	0.587334	0.155532
0	H	0.000809843	0.946423	0.146791
0	H	0.455786	0.492583	0.356548
0	H	0.0892339	0.0409043	0.354052
0	H	0.501143	0.0862456	0.357132
0	H	0.0442091	0.447226	0.356514
0	C	0.293425	0.171551	0.941706
0	C	0.249325	0.364034	0.945355
0	C	0.368297	0.288194	0.944615
0	C	0.174656	0.245588	0.942326
0	C	0.749868	0.671111	0.563595
0	C	0.793981	0.864661	0.561961
0	C	0.672962	0.78869	0.560652
0	C	0.869676	0.746014	0.560345
0	C	0.74989	0.863582	0.0609366
0	C	0.795226	0.670352	0.0596976
0	C	0.675833	0.745947	0.0606017
0	C	0.870013	0.787956	0.0587925
0	C	0.295103	0.362969	0.441412
0	C	0.250284	0.170007	0.439514
0	C	0.370509	0.245255	0.443188
0	C	0.174827	0.287994	0.441505
0	H	0.254093	0.172455	0.924362
0	H	0.288694	0.363396	0.928251
0	H	0.367777	0.249065	0.928761
0	H	0.175663	0.284613	0.925734
0	H	0.789292	0.671436	0.580156
0	H	0.754616	0.864516	0.579196
0	H	0.673083	0.749648	0.577474
0	H	0.869343	0.785026	0.577235
0	H	0.789231	0.863081	0.0782464
0	H	0.755916	0.671151	0.0772309
0	H	0.676356	0.785101	0.0761918
0	H	0.869414	0.748889	0.0752572
0	H	0.255757	0.362556	0.424281
0	H	0.289652	0.170282	0.422314
0	H	0.369969	0.284276	0.42634
0	H	0.175041	0.248976	0.424619
0	H	0.309001	0.205483	0.916226
0	H	0.233958	0.330103	0.919457
0	H	0.334072	0.303032	0.917842
0	H	0.20875	0.23011	0.916195
0	H	0.734826	0.704827	0.591025
0	H	0.809049	0.83095	0.589371
0	H	0.707008	0.80351	0.588185
0	H	0.835688	0.73094	0.587686
0	H	0.734549	0.829721	0.0872641
0	H	0.810786	0.70426	0.0852846
0	H	0.710187	0.731188	0.0869341
0	H	0.835962	0.803095	0.0857346
0	H	0.310449	0.329447	0.41366
0	H	0.235129	0.203727	0.412306
0	H	0.336505	0.230074	0.416134
0	H	0.208789	0.302958	0.413833
0	C	0.297978	0.169169	0.0456239
0	C	0.244626	0.366073	0.0492701
0	C	0.37011	0.293826	0.0483749
0	C	0.172618	0.240572	0.0461898
0	C	0.744706	0.670027	0.459755
0	C	0.79861	0.865526	0.45798
0	C	0.672115	0.793525	0.456721
0	C	0.870565	0.741205	0.456418
0	C	0.745324	0.865205	0.956961
0	C	0.799612	0.668115	0.955767
0	C	0.673588	0.740141	0.956909
0	C	0.87141	0.793067	0.954898
0	C	0.29989	0.363598	0.545338
0	C	0.245616	0.168963	0.543469
0	C	0.371743	0.240408	0.5471
0	C	0.17417	0.292848	0.545434
0	H	0.322109	0.140523	0.0688901
0	H	0.221053	0.395118	0.0728089
0	H	0.399696	0.316936	0.0712208
0	H	0.143643	0.216782	0.0693179
0	H	0.720953	0.641234	0.435769
0	H	0.822044	0.894394	0.43326
0	H	0.642498	0.816126	0.432146
0	H	0.898912	0.71703	0.432086
0	H	0.720931	0.893451	0.932994
0	H	0.823014	0.638956	0.93217
0	H	0.644007	0.71687	0.934686
0	H	0.900418	0.816639	0.93112
0	H	0.323953	0.391964	0.570062
0	H	0.222017	0.140179	0.567931
0	H	0.400928	0.217108	0.571241
0	H	0.145447	0.316518	0.569969
0	H	0.310166	0.203313	0.0752657
0	H	0.231692	0.332074	0.0783101
0	H	0.335868	0.307405	0.0765831
0	H	0.207122	0.2281	0.0750333
0	H	0.731768	0.704328	0.4319
0	H	0.811679	0.831263	0.430295
0	H	0.706475	0.807246	0.429281
0	H	0.835552	0.729415	0.42875
0	H	0.733457	0.830747	0.928224
0	H	0.81256	0.702021	0.926317
0	H	0.707755	0.726662	0.928228
0	H	0.836824	0.805814	0.926892
0	H	0.312234	0.329022	0.572857
0	H	0.232727	0.203252	0.5714
0	H	0.337194	0.227471	0.575028
0	H	0.209049	0.305278	0.572759
0	C	0.244929	0.141757	0.167182
0	C	0.298244	0.392111	0.171156
0	C	0.397088	0.241966	0.171697
0	C	0.145347	0.292678	0.169012
0	C	0.797196	0.645049	0.3357
0	C	0.745129	0.891304	0.335694
0	C	0.646401	0.73991	0.334904
0	C	0.898329	0.792977	0.333597
0	C	0.798165	0.892273	0.834742
0	C	0.745837	0.641697	0.834656
0	C	0.646554	0.79172	0.833187
0	C	0.898584	0.740669	0.832321
0	C	0.247276	0.388784	0.669035
0	C	0.298911	0.14327	0.666074
0	C	0.397717	0.293399	0.669639
0	C	0.146546	0.240737	0.66791
0	H	0.243452	0.172271	0.214089
0	H	0.300306	0.361411	0.217522
0	H	0.366759	0.238879	0.219434
0	H	0.17622	0.295095	0.215623
0	H	0.797884	0.676149	0.29018
0	H	0.742993	0.860726	0.289016
0	H	0.67692	0.736267	0.287709
0	H	0.867543	0.795098	0.286757
0	H	0.800149	0.861453	0.788672
0	H	0.744115	0.672137	0.787597
0	H	0.677038	0.794222	0.785684
0	H	0.867958	0.737818	0.785214
0	H	0.24698	0.357553	0.714231
0	H	0.300324	0.173983	0.712527
0	H	0.366701	0.296387	0.715801
0	H	0.17696	0.2375	0.715424
0	H	0.276138	0.118782	0.184473
0	H	0.26695	0.414727	0.189542
0	H	0.418939	0.273839	0.188895
0	H	0.123148	0.261147	0.186794
0	H	0.766117	0.62191	0.318317
0	H	0.776537	0.913829	0.317653
0	H	0.624515	0.771438	0.315787
0	H	0.920727	0.761487	0.316393
0	H	0.766665	0.914684	0.816685
0	H	0.776958	0.618692	0.816947
0	H	0.624391	0.76001	0.816358
0	H	0.92065	0.772274	0.814408
0	H	0.2781	0.41224	0.68653
0	H	0.267759	0.120317	0.683771
0	H	0.419743	0.261937	0.688614
0	H	0.124811	0.27261	0.685552
0	C	0.198507	0.113098	0.166386
0	C	0.34439	0.421205	0.169869
0	C	0.428156	0.197359	0.169394
0	C	0.115051	0.337821	0.168292
0	C	0.843908	0.616911	0.333568
0	C	0.699095	0.920596	0.337019
0	C	0.61544	0.695259	0.338957
0	C	0.928428	0.838251	0.334299
0	C	0.844189	0.921585	0.835017
0	C	0.699452	0.613014	0.836352
0	C	0.616009	0.836684	0.834332
0	C	0.929202	0.695745	0.834323
0	C	0.200218	0.416346	0.671354
0	C	0.345392	0.114679	0.665705
0	C	0.428267	0.338366	0.667811
0	C	0.115388	0.196194	0.665242
0	H	0.174932	0.121675	0.224609
0	H	0.368385	0.412637	0.227452
0	H	0.42034	0.17282	0.226163
0	H	0.123577	0.361742	0.225683
0	H	0.866342	0.625798	0.273921
0	H	0.674751	0.911596	0.28018
0	H	0.623918	0.66979	0.284038
0	H	0.9195	0.862412	0.277504
0	H	0.868018	0.912843	0.777263
0	H	0.67546	0.621701	0.77884
0	H	0.623948	0.860575	0.776608
0	H	0.920862	0.671292	0.77767
0	H	0.177864	0.407036	0.730876
0	H	0.369353	0.12419	0.722826
0	H	0.419353	0.363103	0.723703
0	H	0.123785	0.171111	0.720853
0	H	0.178605	0.118424	0.102042
0	H	0.363999	0.416263	0.105157
0	H	0.424138	0.178366	0.104128
0	H	0.119234	0.357255	0.103537
0	H	0.864943	0.622501	0.39656
0	H	0.679914	0.91646	0.402399
0	H	0.618801	0.677375	0.405513
0	H	0.924589	0.857325	0.399585
0	H	0.863939	0.917094	0.899709
0	H	0.679934	0.618165	0.901153
0	H	0.620517	0.856227	0.898912
0	H	0.925226	0.676816	0.899672
0	H	0.179251	0.410597	0.608275
0	H	0.364784	0.119027	0.600608
0	H	0.424875	0.356986	0.601999
0	H	0.118699	0.177842	0.599123
0	C	0.179025	0.0307056	0.137087
0	C	0.361653	0.50382	0.137687
0	C	0.512536	0.182598	0.141537
0	C	0.0309184	0.353673	0.139431
0	C	0.8633	0.534954	0.366739
0	C	0.681135	0.00360189	0.363107
0	C	0.530798	0.680106	0.362976
0	C	0.0126228	0.854142	0.36187
0	C	0.861469	0.00446254	0.864563
0	C	0.680014	0.530565	0.864761
0	C	0.532079	0.852534	0.864245
0	C	0.0135699	0.680032	0.860986
0	C	0.180586	0.498067	0.636437
0	C	0.363761	0.0320208	0.637027
0	C	0.512743	0.353537	0.641785
0	C	0.0306915	0.181722	0.640195
0	H	0.18218	0.0331859	0.0622153
0	H	0.355628	0.501364	0.0633177
0	H	0.510935	0.186969	0.0666836
0	H	0.0327942	0.348772	0.0647497
0	H	0.857928	0.537729	0.441321
0	H	0.685228	0.00208947	0.437929
0	H	0.531243	0.684901	0.437714
0	H	0.0109474	0.848989	0.436505
0	H	0.856605	0.00224173	0.939201
0	H	0.683309	0.532957	0.93963
0	H	0.534251	0.848071	0.939044
0	H	0.012396	0.684485	0.93579
0	H	0.187579	0.495482	0.562282
0	H	0.358653	0.0343619	0.562449
0	H	0.511267	0.348547	0.5671
0	H	0.0316398	0.186456	0.565435
0	H	0.142247	0.0399999	0.158551
0	H	0.399231	0.494859	0.153996
0	H	0.504533	0.145459	0.160175
0	H	0.0392968	0.390842	0.157303
0	H	0.90047	0.544794	0.348857
0	H	0.643994	0.994463	0.343691
0	H	0.539364	0.642931	0.345482
0	H	0.00418839	0.891361	0.344444
0	H	0.898862	0.995794	0.846251
0	H	0.643211	0.539934	0.843583
0	H	0.54047	0.889578	0.845481
0	H	0.00506081	0.642968	0.842583
0	H	0.143205	0.487706	0.651444
0	H	0.401106	0.041139	0.655065
0	H	0.504623	0.390808	0.659321
0	H	0.0387167	0.144471	0.657984
0	C	0.19457	0.981917	0.171669
0	C	0.346976	0.552453	0.17439
0	C	0.560545	0.199592	0.179623
0	C	0.982495	0.337612	0.177089
0	C	0.849737	0.485633	0.331963
0	C	0.696728	0.0517937	0.325611
0	C	0.483183	0.696458	0.322193
0	C	0.0609519	0.838167	0.323635
0	C	0.845717	0.0527966	0.828021
0	C	0.695368	0.481737	0.830047
0	C	0.483479	0.836354	0.82763
0	C	0.0616175	0.696378	0.822041
0	C	0.192722	0.547483	0.672561
0	C	0.348927	0.983322	0.673149
0	C	0.560787	0.337021	0.68048
0	C	0.983047	0.198665	0.679979
0	H	0.217998	0.985113	0.231941
0	H	0.323404	0.548999	0.234415
0	H	0.555276	0.224144	0.237423
0	H	0.98708	0.314499	0.237176
0	H	0.825556	0.487756	0.272607
0	H	0.720394	0.0476473	0.2659
0	H	0.488988	0.720068	0.263171
0	H	0.0562014	0.814465	0.264423
0	H	0.821434	0.048809	0.769138
0	H	0.71885	0.48478	0.769835
0	H	0.487772	0.812477	0.768554
0	H	0.0564405	0.7196	0.762271
0	H	0.215838	0.54553	0.733431
0	H	0.325126	0.986611	0.732847
0	H	0.555615	0.312839	0.738852
0	H	0.988846	0.222651	0.73846
0	H	0.163456	0.958887	0.18724
0	H	0.378455	0.574788	0.191044
0	H	0.583814	0.1696	0.20018
0	H	0.95905	0.368098	0.194005
0	H	0.881761	0.464113	0.315083
0	H	0.665618	0.0744624	0.308136
0	H	0.460143	0.666124	0.302607
0	H	0.0840115	0.868679	0.305108
0	H	0.876657	0.0754663	0.809558
0	H	0.664124	0.458862	0.814481
0	H	0.460204	0.866776	0.809516
0	H	0.0850324	0.666018	0.804178
0	H	0.160053	0.56844	0.687557
0	H	0.380373	0.961012	0.690159
0	H	0.583869	0.367276	0.700371
0	H	0.959734	0.168627	0.700115
0	C	0.266009	0.971043	0.0791457
0	C	0.275965	0.565679	0.0816319
0	C	0.573026	0.268015	0.0813188
0	C	0.971374	0.267118	0.0837202
0	C	0.779301	0.469963	0.42473
0	C	0.767737	0.0646518	0.418524
0	C	0.470286	0.766178	0.416695
0	C	0.0734829	0.768493	0.418561
0	C	0.775701	0.0655852	0.923739
0	C	0.766896	0.470194	0.921965
0	C	0.471777	0.766843	0.923315
0	C	0.0731052	0.766632	0.915909
0	C	0.264199	0.563997	0.583027
0	C	0.277946	0.969426	0.580646
0	C	0.573927	0.267782	0.584781
0	C	0.970788	0.267634	0.582948
0	H	0.290267	0.943107	0.105608
0	H	0.252371	0.594594	0.106364
0	H	0.602056	0.292655	0.102026
0	H	0.943169	0.242396	0.107797
0	H	0.757442	0.439903	0.399408
0	H	0.791872	0.0928115	0.392523
0	H	0.441985	0.790963	0.393212
0	H	0.102321	0.744128	0.395883
0	H	0.751664	0.0945814	0.900913
0	H	0.790736	0.442093	0.894822
0	H	0.443085	0.742395	0.900331
0	H	0.101189	0.791556	0.892059
0	H	0.285711	0.594202	0.608781
0	H	0.254765	0.940458	0.606458
0	H	0.602789	0.243509	0.60772
0	H	0.942332	0.292761	0.604331
0	H	0.274288	0.00525417	0.112583
0	H	0.266283	0.532074	0.115868
0	H	0.539244	0.278104	0.115501
0	H	0.00574716	0.258664	0.117425
0	H	0.768328	0.503055	0.390035
0	H	0.776768	0.0304356	0.385835
0	H	0.50474	0.775252	0.383871
0	H	0.0394627	0.75909	0.384495
0	H	0.765665	0.0321433	0.889297
0	H	0.775351	0.50441	0.888706
0	H	0.505875	0.757673	0.889286
0	H	0.0386315	0.775175	0.882649
0	H	0.275135	0.530995	0.61805
0	H	0.268179	0.00320084	0.61422
0	H	0.539839	0.258113	0.618331
0	H	0.00495742	0.2771	0.616414
0	C	0.268813	0.974325	0.975695
0	C	0.274086	0.561555	0.978206
0	C	0.567846	0.266562	0.978031
0	C	0.975352	0.266078	0.980234
0	C	0.776221	0.474283	0.527999
0	C	0.769655	0.0616683	0.522074
0	C	0.473864	0.766102	0.520232
0	C	0.0687518	0.768244	0.521951
0	C	0.775142	0.0607323	0.0271169
0	C	0.770063	0.473121	0.025411
0	C	0.476322	0.766487	0.0267258
0	C	0.0693768	0.767126	0.0194474
0	C	0.267972	0.559651	0.479829
0	C	0.275358	0.973084	0.477235
0	C	0.56966	0.267737	0.481344
0	C	0.975409	0.266226	0.479568
0	H	0.305776	0.968472	0.951189
0	H	0.237442	0.567513	0.952185
0	H	0.572767	0.302147	0.947887
0	H	0.970932	0.229644	0.953686
0	H	0.739283	0.468479	0.552633
0	H	0.806373	0.0676776	0.547755
0	H	0.468154	0.802026	0.548379
0	H	0.0735594	0.732143	0.549854
0	H	0.738827	0.0665482	0.0548727
0	H	0.807048	0.466949	0.0494987
0	H	0.471691	0.730316	0.0543995
0	H	0.074251	0.803356	0.0467116
0	H	0.305021	0.565565	0.455939
0	H	0.238485	0.967276	0.452206
0	H	0.574753	0.231727	0.453196
0	H	0.970283	0.301819	0.449553
0	H	0.24394	0.948659	0.943006
0	H	0.299479	0.586745	0.945586
0	H	0.593596	0.241047	0.94747
0	H	0.948699	0.290223	0.948422
0	H	0.801209	0.449205	0.562015
0	H	0.744404	0.0873054	0.553772
0	H	0.447861	0.740726	0.550465
0	H	0.094751	0.793105	0.553683
0	H	0.800967	0.0856705	0.0592066
0	H	0.745114	0.447523	0.0581012
0	H	0.450074	0.791104	0.058409
0	H	0.095869	0.74253	0.050502
0	H	0.243101	0.584641	0.445263
0	H	0.300389	0.947701	0.444223
0	H	0.595699	0.292787	0.450254
0	H	0.949559	0.24067	0.44946
0	C	0.279156	0.0604572	0.967127
0	C	0.262697	0.475574	0.97119
0	C	0.48064	0.275434	0.972692
0	C	0.0625454	0.258602	0.971385
0	C	0.764415	0.560216	0.534742
0	C	0.78038	0.975649	0.531745
0	C	0.560997	0.775437	0.529387
0	C	0.981574	0.759408	0.529074
0	C	0.763772	0.974604	0.0331286
0	C	0.781092	0.559051	0.0343276
0	C	0.563496	0.758339	0.0335471
0	C	0.98215	0.774977	0.0286364
0	C	0.280371	0.473801	0.472418
0	C	0.264122	0.0590594	0.469127
0	C	0.482475	0.258943	0.473844
0	C	0.062637	0.275137	0.472943
0	H	0.313983	0.0503078	0.997017
0	H	0.227674	0.486439	0.99928
0	H	0.490799	0.310358	0.000774834
0	H	0.0533321	0.223569	0.000158627
0	H	0.72978	0.549283	0.505158
0	H	0.815258	0.985917	0.502182
0	H	0.551139	0.809986	0.499308
0	H	0.991448	0.724788	0.499289
0	H	0.729033	0.985444	0.00381101
0	H	0.81595	0.5486	0.00493303
0	H	0.55377	0.723288	0.00545421
0	H	0.991427	0.80986	0.99929
0	H	0.314913	0.484914	0.502153
0	H	0.229312	0.0484752	0.498555
0	H	0.492338	0.224338	0.503664
0	H	0.0526773	0.309871	0.502133
0	H	0.257341	0.0792004	0.0189858
0	H	0.28348	0.4567	0.024344
0	H	0.46161	0.254726	0.0256802
0	H	0.0812745	0.28002	0.0237393
0	H	0.785477	0.579734	0.482794
0	H	0.759052	0.956362	0.479918
0	H	0.580453	0.754002	0.478034
0	H	0.962019	0.780661	0.477544
0	H	0.784759	0.95511	0.981046
0	H	0.759547	0.577751	0.982033
0	H	0.582161	0.779345	0.980516
0	H	0.963206	0.75347	0.976711
0	H	0.259457	0.453946	0.524104
0	H	0.285244	0.0784521	0.521117
0	H	0.463112	0.28032	0.525435
0	H	0.0820714	0.254122	0.524964
0	C	0.285178	0.0894016	0.879375
0	C	0.257302	0.446343	0.883647
0	C	0.451622	0.280017	0.884381
0	C	0.0913214	0.254345	0.882739
0	C	0.758134	0.588509	0.623161
0	C	0.786205	0.947452	0.620419
0	C	0.58916	0.781066	0.618479
0	C	0.953419	0.754005	0.618201
0	C	0.757655	0.946146	0.121461
0	C	0.787057	0.588202	0.121825
0	C	0.592699	0.754094	0.121693
0	C	0.953608	0.779666	0.117499
0	C	0.286812	0.445908	0.383573
0	C	0.258219	0.0873087	0.380546
0	C	0.454137	0.253539	0.384933
0	C	0.0909776	0.280226	0.383957
0	H	0.300581	0.0664244	0.824289
0	H	0.242194	0.468958	0.827778
0	H	0.474822	0.294631	0.828683
0	H	0.067962	0.240138	0.826923
0	H	0.742921	0.565101	0.677735
0	H	0.801341	0.970837	0.675076
0	H	0.565429	0.796123	0.67286
0	H	0.97719	0.739119	0.672719
0	H	0.742134	0.969325	0.176075
0	H	0.802262	0.565437	0.177392
0	H	0.569626	0.739556	0.177665
0	H	0.977096	0.794248	0.172763
0	H	0.30205	0.469591	0.329461
0	H	0.243066	0.0639247	0.325929
0	H	0.47781	0.238854	0.330088
0	H	0.0673569	0.295058	0.329144
0	H	0.249447	0.100854	0.853609
0	H	0.293258	0.434987	0.858863
0	H	0.440414	0.244186	0.860352
0	H	0.102717	0.290209	0.859209
0	H	0.793898	0.599918	0.648987
0	H	0.750344	0.936213	0.646007
0	H	0.60022	0.745527	0.644336
0	H	0.942269	0.789623	0.643541
0	H	0.793431	0.934995	0.147578
0	H	0.751298	0.59978	0.147243
0	H	0.603869	0.790016	0.145296
0	H	0.942403	0.743904	0.141899
0	H	0.251088	0.434612	0.357401
0	H	0.294073	0.09859	0.354967
0	H	0.442805	0.28914	0.359814
0	H	0.102062	0.244527	0.358981
