#******************************************
#
# CIF file created by Zeo++
# Zeo++ is an open source package to
# analyze microporous materials
#
#*******************************************

_cell_length_a		27.3249(0)
_cell_length_b		27.3836(0)
_cell_length_c		19.2384(0)
_cell_angle_alpha		90(0)
_cell_angle_beta		90(0)
_cell_angle_gamma		120.43(0)

_symmetry_space_group_name_H-M		'P1'
_symmetry_Int_Tables_number		1
_symmetry_cell_setting		Monoclinic

loop_
_symmetry_equiv_pos_as_xyz
'+x,+y,+z'

loop_
_atom_site_label
_atom_site_type_symbol
_atom_site_fract_x
_atom_site_fract_y
_atom_site_fract_z
0	Cl	0.342255	0.00514827	0.232198
0	Cl	0.0228051	0.349488	0.218342
0	Cl	0.705889	0.695381	0.257914
0	Cl	0.00671969	0.333613	0.522967
0	Cl	0.684444	0.67706	0.598754
0	Cl	0.285736	0.991531	0.438351
0	Cl	0.673307	0.651662	0.853728
0	Cl	0.344405	0.992334	0.90415
0	Cl	0.0288006	0.362202	0.886366
0	Cl	0.231721	0.0456832	0.182688
0	Cl	0.980362	0.196963	0.169917
0	Cl	0.848367	0.804594	0.189716
0	Cl	0.900237	0.387635	0.488674
0	Cl	0.658619	0.535114	0.547879
0	Cl	0.491274	0.11157	0.480764
0	Cl	0.563401	0.72023	0.833411
0	Cl	0.310489	0.850361	0.847019
0	Cl	0.176914	0.470787	0.834486
0	N	0.499193	0.16668	0.0820971
0	N	0.856735	0.339163	0.0744899
0	N	0.691531	0.531213	0.105839
0	N	0.169681	0.512836	0.404927
0	N	0.531781	0.672779	0.433024
0	N	0.362268	0.858192	0.390833
0	N	0.828859	0.840728	0.745396
0	N	0.189618	0.00230608	0.757494
0	N	0.0280419	0.199004	0.74714
0	N	0.519614	0.161691	0.955891
0	N	0.858182	0.362957	0.948282
0	N	0.663629	0.508207	0.9801
0	N	0.19836	0.514802	0.281527
0	N	0.540839	0.699087	0.30663
0	N	0.349441	0.838765	0.264768
0	N	0.854165	0.84891	0.619858
0	N	0.194741	0.0304725	0.632421
0	N	0.000434564	0.173715	0.622313
0	N	0.110458	0.842115	0.0803635
0	N	0.185309	0.285407	0.0698708
0	N	0.758577	0.916872	0.0831983
0	N	0.786715	0.178759	0.39911
0	N	0.855564	0.614325	0.426997
0	N	0.410817	0.2409	0.403668
0	N	0.442347	0.510356	0.746518
0	N	0.514295	0.945389	0.740599
0	N	0.0823798	0.580304	0.733197
0	N	0.097855	0.815035	0.956017
0	N	0.211254	0.300271	0.945437
0	N	0.736363	0.922747	0.959362
0	N	0.774554	0.150701	0.275078
0	N	0.876468	0.624627	0.301027
0	N	0.39627	0.257343	0.280421
0	N	0.435384	0.480915	0.623663
0	N	0.542549	0.962562	0.616277
0	N	0.0675965	0.591792	0.608465
0	O	0.423179	0.208953	0.989741
0	O	0.81302	0.219431	0.983345
0	O	0.809291	0.602891	0.00931275
0	O	0.0986089	0.560044	0.311172
0	O	0.493986	0.555287	0.33948
0	O	0.49113	0.937704	0.318473
0	O	0.752757	0.888614	0.661875
0	O	0.140199	0.884463	0.663591
0	O	0.146229	0.270673	0.651471
0	H	0.428718	0.227599	0.0371104
0	H	0.796084	0.206225	0.0316993
0	H	0.822424	0.597085	0.056695
0	H	0.101409	0.575147	0.360551
0	H	0.472678	0.541252	0.385319
0	H	0.498836	0.931751	0.368958
0	H	0.756194	0.90238	0.712135
0	H	0.122879	0.872658	0.712011
0	H	0.160076	0.268423	0.700365
0	O	0.502644	0.0822028	0.819375
0	O	0.934255	0.424097	0.808669
0	O	0.600369	0.524964	0.842458
0	O	0.184952	0.433482	0.148697
0	O	0.618603	0.761552	0.168957
0	O	0.292856	0.865302	0.128502
0	O	0.8417	0.77917	0.47586
0	O	0.259574	0.0840277	0.48258
0	O	0.934567	0.188214	0.486456
0	H	0.530971	0.0842865	0.855301
0	H	0.933252	0.451205	0.844039
0	H	0.573215	0.498329	0.879292
0	H	0.212104	0.435505	0.186362
0	H	0.618893	0.787792	0.206689
0	H	0.265562	0.841927	0.167228
0	H	0.86726	0.777281	0.512993
0	H	0.267906	0.113846	0.519671
0	H	0.908453	0.161056	0.52348
0	O	0.5851	0.244365	0.116061
0	O	0.779621	0.34533	0.114755
0	O	0.686664	0.448286	0.145193
0	O	0.246845	0.591935	0.455062
0	O	0.453792	0.681702	0.460069
0	O	0.357687	0.779832	0.4449
0	O	0.908409	0.917523	0.795808
0	O	0.113159	0.0095845	0.797943
0	O	0.0226177	0.116763	0.790176
0	O	0.532827	0.171838	0.192086
0	O	0.857295	0.371269	0.183832
0	O	0.669714	0.503862	0.21891
0	O	0.192479	0.511249	0.51841
0	O	0.523045	0.70217	0.540984
0	O	0.329931	0.835546	0.501577
0	O	0.852357	0.836356	0.857652
0	O	0.188193	0.028884	0.869314
0	O	0.000677386	0.171426	0.858855
0	O	0.570094	0.116462	0.930246
0	O	0.902869	0.458895	0.921305
0	O	0.567524	0.456982	0.953464
0	O	0.249023	0.468548	0.262121
0	O	0.58853	0.795484	0.282382
0	O	0.252845	0.798536	0.240085
0	O	0.904451	0.803977	0.591093
0	O	0.24496	0.125623	0.603654
0	O	0.903249	0.125323	0.601036
0	O	0.603169	0.186846	0.0112249
0	O	0.835719	0.421474	0.00667153
0	O	0.605178	0.4253	0.0357631
0	O	0.277111	0.536302	0.345972
0	O	0.515268	0.757365	0.359863
0	O	0.282542	0.760454	0.323739
0	O	0.932739	0.865848	0.68198
0	O	0.178128	0.0931168	0.690135
0	O	0.940191	0.0945527	0.684856
0	O	0.209652	0.809299	0.0286426
0	O	0.216536	0.417543	0.0213473
0	O	0.624057	0.811553	0.0441988
0	O	0.891822	0.154281	0.353035
0	O	0.887268	0.745066	0.370256
0	O	0.276696	0.144555	0.357903
0	O	0.543535	0.47695	0.71682
0	O	0.535994	0.0744626	0.688546
0	O	0.952681	0.473412	0.68011
0	H	0.243071	0.82793	0.0623285
0	H	0.207173	0.425932	0.0700522
0	H	0.616915	0.791526	0.0913677
0	H	0.90735	0.165204	0.402618
0	H	0.871478	0.761898	0.404435
0	H	0.268804	0.120775	0.401875
0	H	0.565018	0.494125	0.762298
0	H	0.527016	0.0818571	0.737898
0	H	0.943583	0.454128	0.727649
0	O	0.100594	0.861219	0.799567
0	O	0.165387	0.25853	0.788825
0	O	0.770319	0.914753	0.799882
0	O	0.775132	0.194065	0.118599
0	O	0.828973	0.582598	0.144128
0	O	0.436419	0.254419	0.122714
0	O	0.446892	0.52661	0.467455
0	O	0.500651	0.919454	0.457776
0	O	0.110645	0.592011	0.450363
0	H	0.0600365	0.838239	0.818258
0	H	0.185977	0.239013	0.808426
0	H	0.79115	0.955109	0.819255
0	H	0.734404	0.170665	0.13763
0	H	0.850907	0.56425	0.162785
0	H	0.45664	0.295365	0.1413
0	H	0.405308	0.505474	0.482832
0	H	0.522699	0.901819	0.479327
0	H	0.129339	0.63147	0.47196
0	O	0.0270694	0.764612	0.121781
0	O	0.262621	0.281017	0.113772
0	O	0.764217	0.000249099	0.122365
0	O	0.712745	0.0971166	0.448521
0	O	0.932367	0.604036	0.457799
0	O	0.415202	0.319954	0.45539
0	O	0.359589	0.434219	0.791827
0	O	0.598164	0.95757	0.788087
0	O	0.0774521	0.656508	0.779145
0	O	0.0680967	0.849476	0.178822
0	O	0.177158	0.238048	0.170198
0	O	0.802371	0.956835	0.18569
0	O	0.748355	0.182603	0.503311
0	O	0.854014	0.570248	0.52782
0	O	0.455444	0.273808	0.507884
0	O	0.405905	0.519306	0.848815
0	O	0.514083	0.906747	0.84615
0	O	0.121784	0.617495	0.838707
0	O	0.0197868	0.789117	0.884236
0	O	0.233028	0.244968	0.87463
0	O	0.788619	0.998131	0.883843
0	O	0.695277	0.122766	0.20469
0	O	0.901604	0.57414	0.226154
0	O	0.450696	0.335951	0.21042
0	O	0.360923	0.458398	0.546861
0	O	0.566982	0.907279	0.549246
0	O	0.121938	0.671301	0.539821
0	O	0.0142485	0.736149	0.979129
0	O	0.289002	0.293758	0.967156
0	O	0.741677	0.00701839	0.976635
0	O	0.691759	0.0719479	0.300874
0	O	0.960777	0.628264	0.313571
0	O	0.406076	0.341766	0.308141
0	O	0.349864	0.403193	0.641554
0	O	0.619289	0.956165	0.644302
0	O	0.070156	0.674056	0.631739
0	C	0.442464	0.125155	0.0999526
0	C	0.899167	0.325387	0.0903809
0	C	0.709572	0.588696	0.121797
0	C	0.11218	0.469164	0.414843
0	C	0.572443	0.658002	0.45451
0	C	0.36812	0.912817	0.397779
0	C	0.772101	0.795696	0.75645
0	C	0.229223	0.984473	0.772313
0	C	0.0446998	0.256385	0.761177
0	C	0.42346	0.0904221	0.158443
0	C	0.935445	0.342653	0.147553
0	C	0.698515	0.610495	0.181318
0	C	0.090968	0.428955	0.467756
0	C	0.603784	0.672361	0.515872
0	C	0.330307	0.924891	0.430884
0	C	0.754064	0.752733	0.805754
0	C	0.263176	0.996075	0.831089
0	C	0.0306292	0.277877	0.818557
0	H	0.452622	0.0954492	0.200517
0	H	0.931601	0.367513	0.189516
0	H	0.676015	0.583052	0.22555
0	H	0.118313	0.429512	0.509691
0	H	0.595551	0.694348	0.557739
0	H	0.293737	0.892552	0.459565
0	H	0.783524	0.751726	0.843387
0	H	0.25922	0.0189713	0.875396
0	H	0.00689114	0.250602	0.862394
0	C	0.365976	0.0486024	0.160131
0	C	0.977413	0.327827	0.147898
0	C	0.716591	0.66835	0.18166
0	C	0.0337999	0.387432	0.462763
0	C	0.646654	0.658679	0.521264
0	C	0.340687	0.979863	0.421716
0	C	0.697034	0.710772	0.802598
0	C	0.303034	0.978335	0.830371
0	C	0.0470592	0.33516	0.81645
0	C	0.328072	0.0403713	0.10622
0	C	0.984421	0.29767	0.0937846
0	C	0.742643	0.703402	0.12413
0	C	0.997732	0.385727	0.409655
0	C	0.659024	0.632454	0.467185
0	C	0.391355	0.023976	0.393372
0	C	0.657953	0.712035	0.756361
0	C	0.310319	0.951032	0.773144
0	C	0.076138	0.370513	0.760147
0	C	0.347768	0.0785955	0.0496186
0	C	0.944836	0.277637	0.0385705
0	C	0.75755	0.681161	0.0667369
0	C	0.019857	0.428191	0.358122
0	C	0.623034	0.61385	0.407886
0	C	0.427982	0.00985242	0.358613
0	C	0.677198	0.756351	0.707557
0	C	0.272012	0.935532	0.716607
0	C	0.0935397	0.34867	0.704992
0	H	0.318492	0.0737307	0.00798921
0	H	0.948766	0.25274	0.99696
0	H	0.780515	0.708751	0.0230212
0	H	0.992426	0.427859	0.316577
0	H	0.630716	0.590966	0.366841
0	H	0.46564	0.0427522	0.331976
0	H	0.64751	0.757397	0.670401
0	H	0.275415	0.911722	0.673258
0	H	0.117972	0.376166	0.661914
0	C	0.404147	0.120971	0.0468615
0	C	0.902201	0.290771	0.0372168
0	C	0.742418	0.624824	0.0661261
0	C	0.0768994	0.469252	0.36041
0	C	0.5797	0.625561	0.401687
0	C	0.41394	0.95359	0.356554
0	C	0.734328	0.79739	0.706874
0	C	0.231331	0.951299	0.716368
0	C	0.0783915	0.292253	0.705766
0	C	0.435774	0.165043	0.991021
0	C	0.856537	0.276678	0.983143
0	C	0.752822	0.591231	0.0113522
0	C	0.112204	0.516844	0.309738
0	C	0.537506	0.612454	0.343078
0	C	0.434471	0.923264	0.308919
0	C	0.767157	0.846111	0.656717
0	C	0.186191	0.940726	0.662751
0	C	0.0895751	0.258213	0.65246
0	C	0.501073	0.18825	0.00947635
0	C	0.833292	0.318167	0.00279488
0	C	0.709473	0.527018	0.0327987
0	C	0.176175	0.538726	0.334127
0	C	0.512999	0.653338	0.359481
0	C	0.39041	0.857344	0.324334
0	C	0.832173	0.869162	0.677248
0	C	0.166716	0.984721	0.684845
0	C	0.0466633	0.194001	0.675049
0	H	0.529503	0.235385	0.00766164
0	H	0.785985	0.29837	0.0027953
0	H	0.727189	0.497937	0.0318537
0	H	0.204791	0.586231	0.336579
0	H	0.465771	0.633401	0.35514
0	H	0.409111	0.829398	0.327785
0	H	0.859433	0.916291	0.681985
0	H	0.119773	0.967764	0.684284
0	H	0.0649267	0.165264	0.67564
0	C	0.47127	0.122647	0.908625
0	C	0.895658	0.353657	0.898825
0	C	0.673476	0.555084	0.930432
0	C	0.152291	0.477234	0.230718
0	C	0.58003	0.690383	0.259596
0	C	0.36274	0.88873	0.218523
0	C	0.807874	0.813251	0.568333
0	C	0.224905	0.017112	0.576622
0	C	0.00956662	0.220552	0.572801
0	H	0.453255	0.07762	0.926314
0	H	0.941389	0.381888	0.914012
0	H	0.647527	0.574098	0.948167
0	H	0.131484	0.431939	0.248563
0	H	0.625151	0.719221	0.276428
0	H	0.336756	0.907939	0.235854
0	H	0.790219	0.767013	0.580161
0	H	0.272186	0.0437886	0.584126
0	H	0.9841	0.239884	0.591134
0	C	0.427595	0.141882	0.916861
0	C	0.877653	0.291066	0.908058
0	C	0.737346	0.597857	0.936838
0	C	0.110036	0.498679	0.233994
0	C	0.562096	0.62787	0.269484
0	C	0.426092	0.930676	0.231404
0	C	0.762163	0.829375	0.579916
0	C	0.205364	0.954269	0.586755
0	C	0.073606	0.26315	0.577611
0	H	0.434905	0.175881	0.879525
0	H	0.842833	0.262851	0.872174
0	H	0.76283	0.588733	0.899669
0	H	0.122443	0.53558	0.19936
0	H	0.528741	0.599842	0.231748
0	H	0.454055	0.921125	0.199598
0	H	0.769045	0.86567	0.547129
0	H	0.169158	0.926393	0.552301
0	H	0.09852	0.25262	0.541243
0	H	0.383866	0.10702	0.907258
0	H	0.912941	0.283483	0.897258
0	H	0.748294	0.641788	0.925886
0	H	0.0669914	0.465955	0.217681
0	H	0.597349	0.619836	0.261593
0	H	0.437535	0.974513	0.218639
0	H	0.719426	0.793959	0.566796
0	H	0.239322	0.945142	0.574027
0	H	0.0843998	0.306692	0.564418
0	C	0.491129	0.127011	0.832733
0	C	0.888441	0.368063	0.823442
0	C	0.655268	0.531935	0.855902
0	C	0.176141	0.480606	0.157276
0	C	0.574061	0.704761	0.183682
0	C	0.347125	0.870563	0.14221
0	C	0.83131	0.824044	0.493497
0	C	0.210355	0.0324663	0.50518
0	C	0.990855	0.198378	0.498152
0	H	0.456903	0.118463	0.795367
0	H	0.894304	0.341423	0.785028
0	H	0.682765	0.562139	0.81556
0	H	0.144933	0.473855	0.116284
0	H	0.581705	0.678842	0.145994
0	H	0.375981	0.90373	0.105461
0	H	0.799691	0.820066	0.454684
0	H	0.201755	0.00139144	0.46382
0	H	0.016523	0.231097	0.458992
0	H	0.529352	0.168173	0.820877
0	H	0.847521	0.366031	0.814431
0	H	0.653399	0.491018	0.84804
0	H	0.216348	0.520542	0.147675
0	H	0.532578	0.701161	0.17314
0	H	0.344642	0.829931	0.130169
0	H	0.870918	0.865249	0.487466
0	H	0.173703	0.0391871	0.507779
0	H	0.991724	0.159148	0.487714
0	C	0.543861	0.199036	0.129924
0	C	0.826252	0.351799	0.124497
0	C	0.68275	0.489597	0.156624
0	C	0.207447	0.543819	0.460132
0	C	0.498267	0.685663	0.47751
0	C	0.350379	0.819915	0.446455
0	C	0.867852	0.870064	0.800134
0	C	0.158825	0.0136428	0.80845
0	C	0.0173697	0.157633	0.799013
0	C	0.572683	0.199193	0.252888
0	C	0.832211	0.380945	0.24884
0	C	0.660945	0.467851	0.282395
0	C	0.223546	0.536347	0.585841
0	C	0.492024	0.71203	0.599528
0	C	0.320975	0.805996	0.570627
0	C	0.882671	0.8593	0.925781
0	C	0.159833	0.0318452	0.935402
0	C	0.995629	0.139814	0.925329
0	C	0.626797	0.198786	0.237193
0	C	0.828344	0.433612	0.237595
0	C	0.607762	0.410925	0.270646
0	C	0.284985	0.552609	0.575899
0	C	0.489991	0.765037	0.582928
0	C	0.273792	0.745042	0.561784
0	C	0.941859	0.868043	0.918791
0	C	0.146899	0.0792868	0.927809
0	C	0.946245	0.0797823	0.91772
0	H	0.659426	0.221749	0.27669
0	H	0.806535	0.440909	0.2806
0	H	0.600738	0.380979	0.312533
0	H	0.30907	0.567111	0.624434
0	H	0.46494	0.772683	0.621226
0	H	0.262401	0.721875	0.611083
0	H	0.968948	0.891683	0.962814
0	H	0.125201	0.0828801	0.97372
0	H	0.944475	0.0526315	0.960617
0	H	0.645223	0.2194	0.186568
0	H	0.804323	0.430185	0.189541
0	H	0.609998	0.391037	0.221367
0	H	0.30649	0.58702	0.537296
0	H	0.470358	0.761884	0.531328
0	H	0.286382	0.722082	0.525484
0	H	0.963221	0.892346	0.871059
0	H	0.119153	0.0723031	0.882594
0	H	0.949421	0.0598483	0.868925
0	H	0.620388	0.15563	0.234313
0	H	0.87014	0.472445	0.232287
0	H	0.56924	0.414365	0.266914
0	H	0.289027	0.517064	0.55645
0	H	0.53255	0.803559	0.581345
0	H	0.234849	0.741652	0.540347
0	H	0.941704	0.827744	0.91525
0	H	0.18563	0.120755	0.919774
0	H	0.904817	0.0776983	0.915956
0	C	0.581771	0.258203	0.263468
0	C	0.775333	0.328074	0.263031
0	C	0.714386	0.464744	0.292986
0	C	0.215013	0.585502	0.603862
0	C	0.43382	0.659305	0.607039
0	C	0.377279	0.812384	0.592902
0	C	0.881196	0.912739	0.942485
0	C	0.10791	0.973658	0.946398
0	C	0.052479	0.143971	0.938184
0	H	0.607869	0.28732	0.221519
0	H	0.742942	0.323183	0.224942
0	H	0.718523	0.438162	0.253046
0	H	0.24044	0.622334	0.57005
0	H	0.405858	0.654859	0.563132
0	H	0.388525	0.786273	0.560559
0	H	0.910186	0.948313	0.90878
0	H	0.073668	0.965504	0.909633
0	H	0.059628	0.117018	0.901939
0	H	0.603401	0.276637	0.31269
0	H	0.759334	0.329281	0.314833
0	H	0.714674	0.446974	0.343899
0	H	0.22689	0.599326	0.657782
0	H	0.412648	0.660425	0.654864
0	H	0.3762	0.799579	0.647101
0	H	0.893156	0.926012	0.996531
0	H	0.0907378	0.968825	0.999076
0	H	0.0554285	0.130935	0.991159
0	H	0.54155	0.258081	0.263882
0	H	0.777954	0.289445	0.260061
0	H	0.752878	0.506869	0.289751
0	H	0.170255	0.574095	0.597349
0	H	0.436322	0.620539	0.608424
0	H	0.412511	0.856621	0.587991
0	H	0.838308	0.906491	0.934629
0	H	0.117837	0.939588	0.938731
0	H	0.0881318	0.187529	0.931119
0	C	0.53678	0.157917	0.309927
0	C	0.878059	0.389307	0.300549
0	C	0.653595	0.503787	0.337347
0	C	0.190655	0.485263	0.63316
0	C	0.532152	0.719552	0.658802
0	C	0.303988	0.841579	0.614207
0	C	0.844135	0.809839	0.973111
0	C	0.207489	0.0452353	0.986712
0	C	0.983692	0.175501	0.975709
0	H	0.559758	0.169058	0.359553
0	H	0.870196	0.401783	0.351708
0	H	0.643011	0.482326	0.387973
0	H	0.209043	0.493916	0.685597
0	H	0.521322	0.734473	0.706062
0	H	0.292247	0.824558	0.667103
0	H	0.861702	0.816742	0.025906
0	H	0.197785	0.055154	0.0383713
0	H	0.972163	0.155628	0.0272711
0	H	0.525077	0.114163	0.297416
0	H	0.920358	0.422526	0.283386
0	H	0.619295	0.511798	0.323524
0	H	0.191291	0.448065	0.613048
0	H	0.576506	0.750438	0.645716
0	H	0.267575	0.842249	0.591105
0	H	0.839273	0.769925	0.953604
0	H	0.247651	0.0819362	0.969502
0	H	0.948393	0.18045	0.957297
0	H	0.497078	0.1582	0.318011
0	H	0.879642	0.350293	0.307516
0	H	0.692535	0.544988	0.344338
0	H	0.146079	0.47394	0.638179
0	H	0.530279	0.679453	0.671157
0	H	0.338893	0.885651	0.618204
0	H	0.801532	0.804384	0.976911
0	H	0.214539	0.00935352	0.992849
0	H	0.0208358	0.218095	0.982171
0	C	0.565062	0.151659	0.96456
0	C	0.869024	0.418755	0.95736
0	C	0.607803	0.462598	0.988421
0	C	0.242229	0.503033	0.295507
0	C	0.551611	0.754821	0.315204
0	C	0.290761	0.798802	0.274879
0	C	0.897876	0.836164	0.629488
0	C	0.209513	0.0874135	0.640765
0	C	0.943862	0.13051	0.63493
0	C	0.658568	0.18731	0.0229993
0	C	0.837741	0.47671	0.0240556
0	C	0.549596	0.370517	0.0485312
0	C	0.329659	0.533888	0.367308
0	C	0.514597	0.8123	0.369054
0	C	0.222832	0.713565	0.343162
0	C	0.984986	0.861607	0.698497
0	C	0.18031	0.149293	0.701785
0	C	0.882953	0.0424033	0.701566
0	C	0.64253	0.133073	0.0622294
0	C	0.892787	0.51212	0.0637473
0	C	0.509248	0.387551	0.0793036
0	C	0.308167	0.477876	0.404996
0	C	0.567027	0.850764	0.411734
0	C	0.194847	0.742702	0.378877
0	C	0.963061	0.803172	0.72988
0	C	0.235482	0.185857	0.740533
0	C	0.847604	0.0644455	0.73537
0	H	0.624783	0.096132	0.0276227
0	H	0.929698	0.531703	0.0289775
0	H	0.495192	0.407197	0.0403658
0	H	0.288883	0.441829	0.368941
0	H	0.605803	0.8696	0.380161
0	H	0.185922	0.767839	0.341982
0	H	0.945718	0.769905	0.689965
0	H	0.272541	0.201813	0.706205
0	H	0.833337	0.0843867	0.697098
0	H	0.610577	0.124494	0.102401
0	H	0.900067	0.486224	0.101314
0	H	0.529015	0.417876	0.122143
0	H	0.275891	0.470898	0.443962
0	H	0.572754	0.827508	0.454525
0	H	0.222017	0.771454	0.420026
0	H	0.928983	0.792931	0.76759
0	H	0.24113	0.161745	0.782332
0	H	0.871968	0.0963002	0.775363
0	H	0.679241	0.135538	0.0896143
0	H	0.892192	0.546015	0.0937692
0	H	0.470909	0.350847	0.1013
0	H	0.342571	0.476306	0.433062
0	H	0.563879	0.885517	0.436349
0	H	0.154573	0.712118	0.403557
0	H	0.996592	0.800337	0.758035
0	H	0.236338	0.222394	0.765823
0	H	0.810011	0.0304804	0.761557
0	C	0.686833	0.192605	0.953417
0	C	0.832844	0.503833	0.957795
0	C	0.529353	0.338845	0.980174
0	C	0.364628	0.540067	0.303196
0	C	0.512905	0.835559	0.29817
0	C	0.19352	0.682249	0.277186
0	C	0.0191943	0.872187	0.632444
0	C	0.176118	0.172575	0.632021
0	C	0.858008	0.00974106	0.63482
0	H	0.729818	0.199127	0.959519
0	H	0.828748	0.541064	0.968962
0	H	0.491236	0.296874	0.987139
0	H	0.405124	0.542957	0.316925
0	H	0.508249	0.87312	0.30233
0	H	0.153418	0.642785	0.287903
0	H	0.0593868	0.873201	0.642255
0	H	0.170164	0.209223	0.637769
0	H	0.818395	0.969497	0.644446
0	H	0.690747	0.228321	0.923148
0	H	0.795662	0.474293	0.92717
0	H	0.562002	0.332588	0.955705
0	H	0.374397	0.577925	0.273039
0	H	0.477611	0.804164	0.266478
0	H	0.220253	0.670825	0.246877
0	H	0.0293794	0.912367	0.60786
0	H	0.140274	0.140716	0.601382
0	H	0.887373	0.999795	0.608237
0	H	0.662788	0.15431	0.921357
0	H	0.870249	0.518273	0.92408
0	H	0.51809	0.361866	0.942516
0	H	0.342141	0.503544	0.267972
0	H	0.552107	0.848866	0.268395
0	H	0.18333	0.708122	0.242941
0	H	0.995915	0.838633	0.593568
0	H	0.214513	0.186671	0.600242
0	H	0.847309	0.0335407	0.597709
0	C	0.689281	0.240038	0.0674981
0	C	0.785277	0.453433	0.0694117
0	C	0.570089	0.342897	0.100116
0	C	0.356462	0.584872	0.415055
0	C	0.459734	0.789523	0.409366
0	C	0.238178	0.680333	0.392558
0	C	0.013061	0.909078	0.751294
0	C	0.12754	0.127976	0.746253
0	C	0.902249	0.0131281	0.752117
0	H	0.662674	0.239337	0.111558
0	H	0.787399	0.429354	0.114553
0	H	0.5942	0.37187	0.143387
0	H	0.323906	0.590271	0.442667
0	H	0.457704	0.76255	0.453672
0	H	0.281554	0.706983	0.414091
0	H	0.983834	0.904152	0.794176
0	H	0.111193	0.0834464	0.762867
0	H	0.933823	0.0433161	0.789769
0	H	0.699973	0.279195	0.0392515
0	H	0.746411	0.42267	0.0418965
0	H	0.59974	0.331304	0.0768097
0	H	0.382285	0.625291	0.387423
0	H	0.421837	0.761623	0.378238
0	H	0.23977	0.644905	0.367383
0	H	0.0261341	0.950978	0.728885
0	H	0.0916749	0.126972	0.718632
0	H	0.924	0.993258	0.726665
0	H	0.728762	0.245339	0.0893267
0	H	0.778546	0.487018	0.0898011
0	H	0.534854	0.304016	0.122257
0	H	0.383754	0.581943	0.454549
0	H	0.454039	0.823523	0.430559
0	H	0.209229	0.662848	0.436978
0	H	0.05096	0.911549	0.77441
0	H	0.134803	0.152788	0.793776
0	H	0.866795	0.980079	0.782269
0	C	0.16164	0.894172	0.0948586
0	C	0.132378	0.282557	0.0830896
0	C	0.761235	0.867213	0.0998129
0	C	0.835762	0.23368	0.408786
0	C	0.804988	0.614267	0.446373
0	C	0.41197	0.189431	0.410491
0	C	0.492907	0.563969	0.75772
0	C	0.460075	0.939655	0.754641
0	C	0.0876852	0.531676	0.746317
0	C	0.168971	0.939614	0.135277
0	C	0.0867456	0.242836	0.122513
0	C	0.801713	0.86313	0.139461
0	C	0.840978	0.279485	0.446525
0	C	0.761951	0.577503	0.491254
0	C	0.450224	0.178935	0.445875
0	C	0.499603	0.61164	0.792469
0	C	0.416288	0.899544	0.795938
0	C	0.127986	0.527897	0.786678
0	H	0.133438	0.937725	0.16388
0	H	0.0889569	0.209313	0.150745
0	H	0.836373	0.900404	0.164772
0	H	0.80566	0.275771	0.477419
0	H	0.765161	0.544721	0.519951
0	H	0.483567	0.211395	0.478548
0	H	0.464249	0.610728	0.820256
0	H	0.421	0.867516	0.8242
0	H	0.160166	0.564437	0.81578
0	C	0.223605	0.987375	0.137697
0	C	0.0383782	0.248079	0.124648
0	C	0.79561	0.809348	0.146107
0	C	0.893683	0.329877	0.443969
0	C	0.714596	0.584205	0.497885
0	C	0.443467	0.124859	0.438168
0	C	0.553816	0.660264	0.790995
0	C	0.366574	0.902444	0.800101
0	C	0.124813	0.475219	0.788941
0	C	0.270473	0.990292	0.104322
0	C	0.034838	0.291401	0.0909132
0	C	0.75017	0.760441	0.117558
0	C	0.940281	0.335394	0.406949
0	C	0.710033	0.626998	0.46427
0	C	0.400798	0.0818208	0.397803
0	C	0.600064	0.662416	0.757083
0	C	0.360472	0.94449	0.766987
0	C	0.0824764	0.427096	0.755076
0	C	0.262239	0.943019	0.0649874
0	C	0.0818756	0.33145	0.0514784
0	C	0.709557	0.765654	0.0775311
0	C	0.934067	0.288135	0.369513
0	C	0.755134	0.664841	0.420416
0	C	0.361879	0.093291	0.363682
0	C	0.592943	0.612532	0.725619
0	C	0.405388	0.984424	0.724645
0	C	0.0421526	0.431997	0.714203
0	H	0.298472	0.943562	0.0399864
0	H	0.0800433	0.365709	0.0248306
0	H	0.673497	0.727982	0.0550964
0	H	0.970066	0.291159	0.340944
0	H	0.753168	0.699418	0.394694
0	H	0.327551	0.0610523	0.331909
0	H	0.629342	0.611767	0.703429
0	H	0.401389	0.0175004	0.698243
0	H	0.00869715	0.394946	0.687321
0	C	0.20825	0.896519	0.0586607
0	C	0.129544	0.32637	0.0467696
0	C	0.716005	0.818544	0.0673153
0	C	0.882421	0.23837	0.370188
0	C	0.800994	0.657401	0.409917
0	C	0.367413	0.145931	0.370543
0	C	0.539827	0.564707	0.72459
0	C	0.45391	0.981171	0.717572
0	C	0.045641	0.483932	0.708917
0	C	0.18826	0.84517	0.0127668
0	C	0.182151	0.360356	0.00311455
0	C	0.68079	0.834779	0.0230874
0	C	0.865649	0.184436	0.330933
0	C	0.849515	0.686843	0.359041
0	C	0.332769	0.167036	0.334365
0	C	0.522018	0.509453	0.688087
0	C	0.505161	0.0164709	0.672403
0	C	0.0108014	0.500087	0.664089
0	C	0.121055	0.810059	0.0236084
0	C	0.217177	0.328424	0.013221
0	C	0.712417	0.902336	0.0295053
0	C	0.798573	0.147297	0.34286
0	C	0.884877	0.655284	0.367577
0	C	0.368066	0.233735	0.34813
0	C	0.454284	0.476057	0.694331
0	C	0.544343	0.989235	0.683913
0	C	0.039391	0.566964	0.675598
0	H	0.103158	0.764777	0.039107
0	H	0.262708	0.356108	0.0281474
0	H	0.684812	0.919517	0.0460415
0	H	0.78216	0.102391	0.359015
0	H	0.930929	0.68374	0.379668
0	H	0.3428	0.253155	0.366058
0	H	0.434277	0.431025	0.711628
0	H	0.589207	0.0197147	0.699436
0	H	0.00931041	0.581534	0.690567
0	C	0.143223	0.857273	0.90845
0	C	0.170233	0.305056	0.897783
0	C	0.730701	0.875913	0.913094
0	C	0.819659	0.191549	0.226021
0	C	0.833562	0.627487	0.254951
0	C	0.387321	0.211656	0.229726
0	C	0.484449	0.519362	0.57756
0	C	0.499174	0.962004	0.56778
0	C	0.065992	0.548044	0.559637
0	H	0.144394	0.898924	0.914803
0	H	0.1277	0.265161	0.903287
0	H	0.772101	0.875909	0.915519
0	H	0.822304	0.233676	0.23152
0	H	0.792214	0.586429	0.261191
0	H	0.424646	0.205111	0.234312
0	H	0.490606	0.56316	0.58142
0	H	0.458834	0.919276	0.572236
0	H	0.107921	0.549263	0.564513
0	C	0.197987	0.86085	0.93518
0	C	0.168932	0.357132	0.925193
0	C	0.681389	0.822027	0.945411
0	C	0.873974	0.193764	0.25221
0	C	0.82963	0.677984	0.282945
0	C	0.332417	0.159469	0.255322
0	C	0.534978	0.517375	0.609812
0	C	0.491209	0.0105736	0.594527
0	C	0.0163435	0.491617	0.5862
0	H	0.235333	0.903273	0.926526
0	H	0.127943	0.354629	0.914962
0	H	0.685719	0.784585	0.936603
0	H	0.912716	0.234092	0.238869
0	H	0.786126	0.670357	0.278033
0	H	0.331044	0.119701	0.241065
0	H	0.575736	0.556352	0.598567
0	H	0.448075	0.00279814	0.584256
0	H	0.0231209	0.455763	0.575905
0	H	0.207593	0.830886	0.908059
0	H	0.201434	0.396902	0.899859
0	H	0.639728	0.811067	0.922461
0	H	0.879363	0.15968	0.229056
0	H	0.857066	0.717626	0.253654
0	H	0.29365	0.156732	0.233105
0	H	0.539276	0.481775	0.589758
0	H	0.520642	0.051337	0.568564
0	H	0.975678	0.480335	0.560158
0	C	0.133778	0.840166	0.831395
0	C	0.188068	0.31303	0.821063
0	C	0.71793	0.88226	0.836871
0	C	0.808989	0.173439	0.14951
0	C	0.85021	0.636446	0.17765
0	C	0.381119	0.224065	0.153477
0	C	0.475989	0.501648	0.500879
0	C	0.518135	0.972548	0.491275
0	C	0.0565927	0.557504	0.483227
0	H	0.174348	0.861659	0.802183
0	H	0.168041	0.333184	0.791657
0	H	0.69713	0.840788	0.809794
0	H	0.849093	0.194776	0.119277
0	H	0.828595	0.655714	0.149729
0	H	0.359184	0.184308	0.122803
0	H	0.517156	0.520494	0.472966
0	H	0.495308	0.989932	0.461918
0	H	0.0375446	0.517338	0.453315
0	H	0.11298	0.793867	0.823478
0	H	0.234671	0.337837	0.813753
0	H	0.691813	0.902398	0.831042
0	H	0.788183	0.126997	0.142375
0	H	0.896585	0.662614	0.169343
0	H	0.35896	0.248135	0.146846
0	H	0.4523	0.455226	0.493025
0	H	0.564559	0.000715352	0.485138
0	H	0.0300743	0.577223	0.47702
0	C	0.064509	0.813701	0.127576
0	C	0.213554	0.269274	0.118542
0	C	0.774114	0.962174	0.130881
0	C	0.745743	0.147807	0.45134
0	C	0.885624	0.596725	0.47076
0	C	0.426269	0.28226	0.456655
0	C	0.398382	0.48285	0.7965
0	C	0.547317	0.9383	0.792473
0	C	0.0924287	0.621824	0.784442
0	C	0.0305792	0.827095	0.242667
0	C	0.198266	0.223037	0.234839
0	C	0.813079	0.991948	0.250857
0	C	0.713384	0.157419	0.568671
0	C	0.879985	0.556267	0.588669
0	C	0.46592	0.304448	0.57665
0	C	0.372304	0.49774	0.915591
0	C	0.541572	0.900564	0.911355
0	C	0.12835	0.649552	0.905656
0	C	0.041024	0.783114	0.276537
0	C	0.244295	0.277647	0.26732
0	C	0.75611	0.981228	0.277243
0	C	0.729767	0.116776	0.599877
0	C	0.930391	0.611394	0.613803
0	C	0.408684	0.290012	0.606434
0	C	0.383621	0.453002	0.94527
0	C	0.582355	0.95946	0.939009
0	C	0.0693601	0.633186	0.930986
0	H	0.0243665	0.744352	0.244959
0	H	0.282897	0.298281	0.235064
0	H	0.737534	0.99971	0.242804
0	H	0.716667	0.0794673	0.566446
0	H	0.966266	0.628379	0.577077
0	H	0.388217	0.308577	0.575484
0	H	0.364471	0.414284	0.913295
0	H	0.619651	0.982885	0.905088
0	H	0.0486859	0.649567	0.896682
0	H	0.0200244	0.770141	0.327413
0	H	0.257124	0.270075	0.318393
0	H	0.759865	1.81886e-05	0.32877
0	H	0.709246	0.100566	0.650412
0	H	0.946875	0.606106	0.663529
0	H	0.412701	0.306284	0.65948
0	H	0.365712	0.440043	0.997617
0	H	0.598518	0.957648	0.990551
0	H	0.070619	0.65028	0.982979
0	H	0.0863633	0.799008	0.28477
0	H	0.230323	0.308464	0.274621
0	H	0.725015	0.935824	0.281615
0	H	0.775748	0.136709	0.607569
0	H	0.91927	0.644325	0.621248
0	H	0.378998	0.244148	0.608182
0	H	0.429198	0.468195	0.948842
0	H	0.562168	0.985264	0.943495
0	H	0.0412959	0.587067	0.933651
0	C	0.0549429	0.88209	0.283865
0	C	0.14323	0.194765	0.276433
0	C	0.838981	0.965272	0.296336
0	C	0.734384	0.211544	0.610763
0	C	0.829737	0.53242	0.638506
0	C	0.494114	0.27668	0.615434
0	C	0.400176	0.552706	0.957108
0	C	0.488939	0.867883	0.956521
0	C	0.15683	0.62503	0.950219
0	H	0.100335	0.899942	0.294678
0	H	0.126729	0.22355	0.284192
0	H	0.810327	0.919353	0.301547
0	H	0.780648	0.23386	0.617553
0	H	0.815313	0.562741	0.647519
0	H	0.466767	0.230377	0.61634
0	H	0.446395	0.571188	0.960096
0	H	0.465525	0.890536	0.961537
0	H	0.131386	0.578608	0.952318
0	H	0.0329108	0.874924	0.333813
0	H	0.149807	0.18164	0.32778
0	H	0.847916	0.983781	0.348631
0	H	0.714881	0.202128	0.662546
0	H	0.841287	0.522487	0.688958
0	H	0.503389	0.29156	0.669343
0	H	0.383567	0.545323	0.010341
0	H	0.500691	0.861523	0.00882361
0	H	0.16266	0.641102	0.00363567
0	H	0.0506691	0.91454	0.25559
0	H	0.109834	0.157051	0.250014
0	H	0.878887	0.971563	0.27461
0	H	0.724278	0.241195	0.58525
0	H	0.79329	0.493504	0.618424
0	H	0.534146	0.286011	0.590789
0	H	0.392565	0.58474	0.933552
0	H	0.459408	0.826067	0.93471
0	H	0.198688	0.636048	0.929921
0	C	0.969384	0.803894	0.220679
0	C	0.218466	0.182806	0.213664
0	C	0.854211	0.0533044	0.232698
0	C	0.651117	0.129306	0.548968
0	C	0.894919	0.512825	0.564299
0	C	0.505103	0.367331	0.564004
0	C	0.310395	0.475799	0.899018
0	C	0.569622	0.866583	0.892641
0	C	0.166082	0.712246	0.890763
0	H	0.96346	0.835751	0.193637
0	H	0.185209	0.145056	0.187293
0	H	0.893075	0.0590071	0.208485
0	H	0.641701	0.158018	0.519983
0	H	0.858867	0.47624	0.539595
0	H	0.544596	0.376326	0.538347
0	H	0.30398	0.507292	0.871883
0	H	0.539871	0.82664	0.866869
0	H	0.206124	0.721683	0.866141
0	H	0.940979	0.789417	0.266396
0	H	0.232074	0.168277	0.259407
0	H	0.867051	0.080417	0.27954
0	H	0.623741	0.115151	0.595374
0	H	0.908616	0.496645	0.60832
0	H	0.516561	0.391136	0.613185
0	H	0.284626	0.463905	0.947037
0	H	0.585724	0.856066	0.939308
0	H	0.176935	0.737444	0.93904
0	H	0.955019	0.767569	0.185371
0	H	0.254826	0.203589	0.177926
0	H	0.835052	0.0697346	0.196124
0	H	0.638374	0.0918093	0.516175
0	H	0.929695	0.531103	0.526219
0	H	0.484663	0.384524	0.53065
0	H	0.292915	0.437922	0.865802
0	H	0.60567	0.890317	0.857149
0	H	0.14505	0.727673	0.855752
0	C	0.0413153	0.78041	0.935446
0	C	0.243945	0.276701	0.924893
0	C	0.758525	0.978394	0.935824
0	C	0.717897	0.115349	0.255827
0	C	0.912702	0.606329	0.276029
0	C	0.420601	0.314378	0.261889
0	C	0.379657	0.448061	0.599526
0	C	0.57583	0.938748	0.599366
0	C	0.0897371	0.648548	0.589421
0	C	0.950172	0.699349	0.980032
0	C	0.323216	0.264149	0.968053
0	C	0.768886	0.0708145	0.971751
0	C	0.628104	0.0320837	0.299761
0	C	0.999831	0.60402	0.308868
0	C	0.430389	0.405209	0.30632
0	C	0.285749	0.368853	0.640524
0	C	0.656705	0.930138	0.645816
0	C	0.0982989	0.738031	0.636954
0	C	0.926941	0.737155	0.00137926
0	C	0.283538	0.204474	0.994549
0	C	0.829734	0.09543	0.996349
0	C	0.600879	0.0668642	0.318641
0	C	0.965842	0.543078	0.333823
0	C	0.49285	0.432972	0.324998
0	C	0.265568	0.407188	0.669893
0	C	0.619755	0.8693	0.670061
0	C	0.15645	0.758522	0.668721
0	H	0.934713	0.769136	0.961393
0	H	0.249344	0.179073	0.95719
0	H	0.855137	0.0863384	0.959574
0	H	0.608631	0.0987128	0.27829
0	H	0.931195	0.516551	0.297602
0	H	0.516995	0.424462	0.285554
0	H	0.27595	0.442955	0.635153
0	H	0.586863	0.843628	0.631168
0	H	0.183779	0.751097	0.633774
0	H	0.947067	0.759951	0.0496882
0	H	0.263288	0.20571	0.0434124
0	H	0.830903	0.0771525	0.046856
0	H	0.61785	0.0897423	0.367703
0	H	0.946317	0.540749	0.384714
0	H	0.498834	0.417322	0.374937
0	H	0.286084	0.425017	0.72029
0	H	0.59791	0.866782	0.718897
0	H	0.152568	0.73595	0.717602
0	H	0.880969	0.711782	0.0101611
0	H	0.306755	0.182169	0.00418988
0	H	0.850616	0.141517	0.00212172
0	H	0.554709	0.039033	0.324127
0	H	0.993065	0.524485	0.338585
0	H	0.511891	0.479242	0.328739
0	H	0.219474	0.38365	0.677636
0	H	0.645954	0.849835	0.678045
0	H	0.178068	0.803986	0.680106
0	C	0.944454	0.657742	0.0362918
0	C	0.368123	0.301964	0.0205453
0	C	0.730951	0.0780607	0.023509
0	C	0.623949	0.991906	0.357079
0	C	0.0449723	0.643572	0.360075
0	C	0.394142	0.409055	0.363708
0	C	0.277731	0.322088	0.690118
0	C	0.699526	0.968709	0.699855
0	C	0.0568048	0.741525	0.686523
0	H	0.968923	0.680439	0.0830083
0	H	0.348135	0.304762	0.0690899
0	H	0.729879	0.0577453	0.0734881
0	H	0.647976	0.0158438	0.403518
0	H	0.0254167	0.644705	0.409846
0	H	0.393821	0.384833	0.409896
0	H	0.301106	0.340129	0.739032
0	H	0.677801	0.973042	0.745842
0	H	0.0494534	0.714748	0.732745
0	H	0.961089	0.630722	0.0192856
0	H	0.394223	0.345441	0.00124496
0	H	0.686951	0.0580084	0.00512364
0	H	0.642083	0.965915	0.341124
0	H	0.0684208	0.687216	0.340641
0	H	0.34974	0.390822	0.347757
0	H	0.293881	0.29602	0.668032
0	H	0.727107	0.0115798	0.679598
0	H	0.0152704	0.726667	0.662366
0	H	0.899798	0.630149	0.051281
0	H	0.396699	0.285892	0.0326422
0	H	0.746001	0.123139	0.0324413
0	H	0.579522	0.963155	0.372073
0	H	0.0757713	0.629829	0.370316
0	H	0.410058	0.453165	0.379178
0	H	0.232442	0.293887	0.702184
0	H	0.726591	0.951945	0.716661
0	H	0.0729628	0.785288	0.703921
0	C	0.929619	0.671905	0.909427
0	C	0.347006	0.266395	0.896233
0	C	0.763699	0.0878173	0.898374
0	C	0.610616	0.00452124	0.228743
0	C	0.0215021	0.609911	0.235031
0	C	0.419903	0.422104	0.23528
0	C	0.264512	0.347851	0.567657
0	C	0.682619	0.934386	0.574873
0	C	0.100451	0.762924	0.565918
0	H	0.883709	0.641432	0.910976
0	H	0.376214	0.249843	0.897307
0	H	0.778538	0.133368	0.896103
0	H	0.565308	0.971869	0.229009
0	H	0.0532694	0.596536	0.231986
0	H	0.432323	0.467051	0.234768
0	H	0.218319	0.318142	0.568427
0	H	0.714102	0.920583	0.578385
0	H	0.115701	0.808506	0.570309
0	H	0.950757	0.648907	0.892764
0	H	0.370599	0.309762	0.875914
0	H	0.719774	0.0649877	0.879497
0	H	0.63464	0.984157	0.213247
0	H	0.0415438	0.65365	0.216141
0	H	0.375148	0.397487	0.219971
0	H	0.284587	0.325607	0.544862
0	H	0.704354	0.977632	0.554254
0	H	0.058627	0.742972	0.54101
0	H	0.937594	0.703362	0.868826
0	H	0.313282	0.241267	0.858332
0	H	0.788949	0.079172	0.861085
0	H	0.617313	0.0355544	0.187968
0	H	0.987167	0.5837	0.198328
0	H	0.444371	0.415678	0.194491
0	H	0.2731	0.382718	0.531951
0	H	0.650482	0.907503	0.536213
0	H	0.128812	0.757579	0.530155
