#******************************************
#
# CIF file created by Zeo++
# Zeo++ is an open source package to
# analyze microporous materials
#
#*******************************************

_cell_length_a		14.9714(0)
_cell_length_b		17.4256(0)
_cell_length_c		38.2074(0)
_cell_angle_alpha		90(0)
_cell_angle_beta		90(0)
_cell_angle_gamma		90(0)

_symmetry_space_group_name_H-M		'P1'
_symmetry_Int_Tables_number		1
_symmetry_cell_setting		Monoclinic

loop_
_symmetry_equiv_pos_as_xyz
'+x,+y,+z'

loop_
_atom_site_label
_atom_site_type_symbol
_atom_site_fract_x
_atom_site_fract_y
_atom_site_fract_z
0	C	0.0944314	0.286038	0.176095
0	C	0.437798	0.726658	0.683102
0	C	0.938548	0.784077	0.346237
0	C	0.596257	0.223607	0.853328
0	C	0.182411	0.328306	0.185014
0	C	0.349601	0.684235	0.691517
0	C	0.850623	0.826911	0.337758
0	C	0.683918	0.180869	0.844443
0	C	0.162407	0.409346	0.197417
0	C	0.369171	0.602584	0.703188
0	C	0.870628	0.908456	0.326046
0	C	0.663321	0.100022	0.83192
0	H	0.223637	0.440526	0.204132
0	H	0.307754	0.571503	0.709728
0	H	0.809356	0.939809	0.319546
0	H	0.724335	0.0685107	0.825244
0	H	0.118622	0.409365	0.220655
0	H	0.41307	0.601387	0.726391
0	H	0.914379	0.909439	0.302799
0	H	0.619713	0.100426	0.80863
0	H	0.126256	0.442804	0.177474
0	H	0.405	0.569733	0.682949
0	H	0.90677	0.941218	0.346235
0	H	0.6267	0.0666532	0.851763
0	C	0.930364	0.29016	0.186314
0	C	0.601999	0.721045	0.692983
0	C	0.102893	0.789102	0.336454
0	C	0.432103	0.219604	0.843058
0	C	0.926863	0.203742	0.196686
0	C	0.605969	0.8069	0.704397
0	C	0.106708	0.703185	0.325156
0	C	0.428843	0.306012	0.832669
0	H	0.973183	0.170373	0.179359
0	H	0.559981	0.841438	0.687423
0	H	0.0606184	0.668824	0.34215
0	H	0.475107	0.339308	0.850054
0	C	0.939667	0.185418	0.235899
0	C	0.593003	0.823306	0.743813
0	C	0.0938783	0.686742	0.285742
0	C	0.44198	0.324268	0.793463
0	H	0.936335	0.237728	0.252884
0	H	0.595583	0.770174	0.760274
0	H	0.0969185	0.739878	0.269297
0	H	0.438987	0.271935	0.776489
0	C	0.0231789	0.137198	0.246129
0	C	0.509965	0.871735	0.754452
0	C	0.0105994	0.638676	0.275076
0	C	0.525501	0.372622	0.783399
0	C	0.0253943	0.113702	0.284535
0	C	0.507508	0.893619	0.79306
0	C	0.00817659	0.616605	0.23649
0	C	0.528365	0.396168	0.745012
0	C	0.103606	0.078673	0.297131
0	C	0.430307	0.930338	0.805646
0	C	0.931135	0.579611	0.223952
0	C	0.606379	0.432093	0.732745
0	H	0.158733	0.0674085	0.279126
0	H	0.376395	0.944385	0.787486
0	H	0.877167	0.565592	0.242093
0	H	0.660808	0.443981	0.750988
0	C	0.110888	0.0576803	0.332253
0	C	0.422599	0.949601	0.840955
0	C	0.923606	0.559926	0.188679
0	C	0.614284	0.453212	0.697666
0	H	0.171965	0.0305575	0.341663
0	H	0.362207	0.977829	0.850385
0	H	0.86335	0.531408	0.179299
0	H	0.675158	0.481121	0.688528
0	C	0.0397062	0.0709708	0.355206
0	C	0.492419	0.93309	0.864127
0	C	0.993461	0.576282	0.165517
0	C	0.54397	0.439052	0.674407
0	H	0.0454261	0.0550431	0.382666
0	H	0.486304	0.947697	0.89173
0	H	0.98755	0.56125	0.137957
0	H	0.550263	0.454957	0.646965
0	C	0.961436	0.104994	0.34277
0	C	0.569798	0.897632	0.851691
0	C	0.0706411	0.612211	0.177894
0	C	0.465852	0.404265	0.686532
0	H	0.905846	0.115638	0.360483
0	H	0.624366	0.88457	0.869555
0	H	0.125205	0.625206	0.160014
0	H	0.410886	0.393061	0.668608
0	C	0.954209	0.126427	0.307589
0	C	0.577391	0.877791	0.816318
0	C	0.0780333	0.63249	0.213213
0	C	0.457964	0.382761	0.721687
0	H	0.892154	0.152981	0.298444
0	H	0.638713	0.850037	0.807186
0	H	0.139175	0.660566	0.222335
0	H	0.396043	0.355629	0.730586
0	C	0.797234	0.13763	0.217675
0	C	0.735866	0.871164	0.726307
0	C	0.236226	0.638059	0.303419
0	C	0.299273	0.371754	0.811407
0	C	0.716455	0.182747	0.229794
0	C	0.816158	0.824901	0.738019
0	C	0.31735	0.68336	0.291806
0	C	0.21906	0.325986	0.799232
0	H	0.673429	0.198706	0.20768
0	H	0.857172	0.807237	0.71557
0	H	0.357862	0.701179	0.314378
0	H	0.176283	0.309474	0.821334
0	H	0.736861	0.236513	0.242683
0	H	0.795094	0.771984	0.751465
0	H	0.297288	0.736108	0.277996
0	H	0.240144	0.272485	0.786284
0	H	0.676483	0.150138	0.248696
0	H	0.858214	0.857268	0.756285
0	H	0.359566	0.650164	0.273903
0	H	0.178716	0.358312	0.78036
0	C	0.277073	0.349626	0.0894955
0	C	0.257866	0.6678	0.595145
0	C	0.759227	0.844137	0.434139
0	C	0.778081	0.158372	0.939936
0	C	0.225274	0.383252	0.121103
0	C	0.308443	0.632877	0.626846
0	C	0.80965	0.878801	0.402344
0	C	0.726384	0.12498	0.908257
0	C	0.241066	0.32574	0.151412
0	C	0.291417	0.688671	0.657771
0	C	0.792351	0.82284	0.371492
0	C	0.74239	0.182851	0.8781
0	H	0.31253	0.330982	0.159256
0	H	0.21989	0.682521	0.665328
0	H	0.720839	0.829106	0.363941
0	H	0.81388	0.177538	0.870292
0	H	0.235225	0.266397	0.140452
0	H	0.296863	0.7486	0.647532
0	H	0.797503	0.762947	0.381801
0	H	0.736753	0.242063	0.889225
0	C	0.413319	0.26952	0.0788197
0	C	0.118416	0.744358	0.584286
0	C	0.619587	0.767841	0.445097
0	C	0.914524	0.238248	0.95054
0	C	0.494922	0.254418	0.101453
0	C	0.0388297	0.759307	0.608066
0	C	0.540027	0.753106	0.421274
0	C	0.995975	0.253401	0.927832
0	C	0.519743	0.305035	0.128234
0	C	0.016274	0.707695	0.634783
0	C	0.517724	0.804919	0.394599
0	C	0.0201306	0.203416	0.90072
0	H	0.479838	0.356593	0.133195
0	H	0.0565642	0.655939	0.638821
0	H	0.558162	0.856611	0.390616
0	H	0.979976	0.152069	0.895625
0	C	0.596211	0.290178	0.148073
0	C	0.941637	0.721726	0.655778
0	C	0.443242	0.791085	0.373504
0	C	0.0962808	0.218593	0.880738
0	H	0.615078	0.329683	0.168898
0	H	0.924513	0.681344	0.676482
0	H	0.426315	0.831587	0.352822
0	H	0.114541	0.179635	0.859617
0	C	0.648934	0.225782	0.140974
0	C	0.888749	0.786651	0.650042
0	C	0.39026	0.726163	0.379104
0	C	0.149383	0.282647	0.888054
0	H	0.710453	0.215492	0.155805
0	H	0.828887	0.796645	0.665925
0	H	0.330512	0.716339	0.363116
0	H	0.210603	0.293248	0.873084
0	C	0.623703	0.174942	0.114466
0	C	0.911897	0.838722	0.623728
0	C	0.413112	0.673906	0.405374
0	C	0.124873	0.332787	0.914944
0	H	0.665185	0.124978	0.108588
0	H	0.870983	0.889475	0.619366
0	H	0.372105	0.623165	0.409602
0	H	0.166667	0.382465	0.921027
0	C	0.546458	0.188676	0.0949395
0	C	0.986996	0.825431	0.602883
0	C	0.488094	0.686997	0.426321
0	C	0.0479331	0.318773	0.934597
0	H	0.526614	0.149043	0.0742096
0	H	0.00508494	0.865976	0.582284
0	H	0.506079	0.646224	0.446839
0	H	0.0286091	0.357827	0.955633
0	C	0.569169	0.287731	0.0106661
0	C	0.958271	0.725078	0.518234
0	C	0.459582	0.787527	0.511128
0	C	0.0704951	0.220018	0.0187517
0	C	0.641123	0.234761	0.0243352
0	C	0.888556	0.779674	0.532538
0	C	0.389698	0.733098	0.496816
0	C	0.142875	0.27291	0.00536542
0	H	0.70294	0.239326	0.00876906
0	H	0.828419	0.780953	0.5159
0	H	0.329544	0.731922	0.513442
0	H	0.204794	0.267211	0.0207865
0	H	0.619744	0.174628	0.0228174
0	H	0.914737	0.838441	0.533515
0	H	0.415565	0.674234	0.495809
0	H	0.122312	0.333168	0.0074316
0	H	0.658491	0.247912	0.0516142
0	H	0.867796	0.763277	0.559094
0	H	0.369034	0.749538	0.470253
0	H	0.159804	0.260669	0.977962
0	C	0.436349	0.312339	0.044089
0	C	0.0928087	0.699439	0.55045
0	C	0.59423	0.812852	0.478944
0	C	0.937824	0.195451	0.985237
0	H	0.372939	0.327119	0.0300999
0	H	0.155384	0.683079	0.536258
0	H	0.656902	0.82903	0.49313
0	H	0.874534	0.18058	0.999275
0	C	0.500333	0.381612	0.0478637
0	C	0.0279243	0.631196	0.555182
0	C	0.529628	0.881328	0.474232
0	C	0.00189703	0.126251	0.98143
0	H	0.524385	0.39023	0.0753699
0	H	0.00557671	0.62303	0.582916
0	H	0.507355	0.889688	0.446501
0	H	0.0260206	0.11786	0.953922
0	C	0.465999	0.460085	0.0336274
0	C	0.0610011	0.552548	0.540703
0	C	0.563106	0.959866	0.488712
0	C	0.967701	0.0476579	0.995606
0	C	0.532136	0.52588	0.0377375
0	C	0.995351	0.486851	0.545955
0	C	0.497871	0.0258531	0.483514
0	C	0.0339106	0.982	0.991315
0	C	0.62278	0.514343	0.0449252
0	C	0.904498	0.498818	0.552629
0	C	0.406841	0.0143336	0.477036
0	C	0.124448	0.993689	0.983948
0	H	0.649572	0.456181	0.0479291
0	H	0.877471	0.55713	0.554458
0	H	0.379398	0.956175	0.475305
0	H	0.151141	0.0518806	0.980992
0	C	0.680402	0.577209	0.0481595
0	C	0.847009	0.436182	0.556907
0	C	0.349806	0.0772815	0.472785
0	C	0.182148	0.930922	0.980461
0	H	0.750764	0.567658	0.0538831
0	H	0.776478	0.446056	0.562191
0	H	0.27916	0.0677935	0.467639
0	H	0.252392	0.940534	0.974553
0	C	0.647924	0.651835	0.0442746
0	C	0.879827	0.361334	0.554606
0	C	0.38321	0.15196	0.47493
0	C	0.149816	0.856236	0.984281
0	H	0.692787	0.700652	0.0469323
0	H	0.835078	0.31269	0.5581
0	H	0.338779	0.200787	0.471441
0	H	0.19468	0.807509	0.981418
0	C	0.55733	0.66371	0.0369833
0	C	0.970574	0.349029	0.547809
0	C	0.474134	0.163803	0.48155
0	C	0.0593519	0.844169	0.991747
0	H	0.531828	0.721786	0.0338702
0	H	0.996334	0.290775	0.545919
0	H	0.500372	0.221913	0.483314
0	H	0.0339864	0.786026	0.994775
0	C	0.499798	0.601161	0.0337019
0	C	0.0279688	0.411379	0.543408
0	C	0.531104	0.10116	0.485898
0	C	0.00178962	0.906636	0.995299
0	H	0.429222	0.610157	0.0279151
0	H	0.0986367	0.402019	0.537911
0	H	0.601904	0.110184	0.491216
0	H	0.931321	0.897478	0.00122526
0	C	0.117811	0.253265	0.257819
0	C	0.41506	0.755526	0.764961
0	C	0.916425	0.755332	0.264451
0	C	0.620011	0.256668	0.771786
0	C	0.215378	0.279482	0.251138
0	C	0.317404	0.72979	0.758226
0	C	0.818769	0.781296	0.271051
0	C	0.717436	0.230087	0.778423
0	C	0.272905	0.220181	0.271836
0	C	0.26097	0.78861	0.77968
0	C	0.762423	0.722546	0.249514
0	C	0.775173	0.289387	0.757816
0	H	0.266421	0.234783	0.300082
0	H	0.268662	0.773294	0.807806
0	H	0.770503	0.737816	0.221398
0	H	0.768693	0.275051	0.72954
0	H	0.240765	0.162616	0.268999
0	H	0.293019	0.846235	0.776943
0	H	0.794414	0.664891	0.252249
0	H	0.743222	0.347011	0.760724
0	C	0.374422	0.209822	0.264141
0	C	0.159225	0.799292	0.772753
0	C	0.660576	0.712071	0.256323
0	C	0.876726	0.29949	0.765527
0	C	0.392605	0.158145	0.232419
0	C	0.139916	0.850722	0.741068
0	C	0.64085	0.660895	0.288061
0	C	0.895027	0.350998	0.797287
0	C	0.478556	0.155527	0.217674
0	C	0.0532234	0.853753	0.727041
0	C	0.554223	0.658345	0.302168
0	C	0.981179	0.353836	0.811848
0	H	0.531076	0.192731	0.22787
0	H	0.000961294	0.817077	0.737808
0	H	0.502142	0.695287	0.291456
0	H	0.0337563	0.316955	0.801464
0	C	0.49794	0.105509	0.190159
0	C	0.0329081	0.903548	0.699547
0	C	0.533696	0.608636	0.329677
0	C	0.000656018	0.403695	0.839418
0	H	0.564434	0.1056	0.178502
0	H	0.96564	0.904158	0.688608
0	H	0.466486	0.608344	0.34068
0	H	0.0673418	0.403818	0.850907
0	C	0.43231	0.0557484	0.177392
0	C	0.0985426	0.952164	0.685885
0	C	0.599016	0.559666	0.343297
0	C	0.934868	0.452992	0.852442
0	H	0.447294	0.0169307	0.155865
0	H	0.0828295	0.990572	0.664292
0	H	0.58311	0.521328	0.364896
0	H	0.949904	0.491629	0.874032
0	C	0.347313	0.0564918	0.192462
0	C	0.184409	0.950867	0.700172
0	C	0.684812	0.56052	0.328938
0	C	0.849648	0.452012	0.837568
0	H	0.295968	0.0170813	0.183179
0	H	0.235916	0.989179	0.690107
0	H	0.736098	0.52195	0.338964
0	H	0.798148	0.491023	0.84708
0	C	0.327584	0.107383	0.219656
0	C	0.204799	0.900728	0.727579
0	C	0.705415	0.610515	0.301505
0	C	0.829874	0.401352	0.810292
0	H	0.26041	0.106941	0.231005
0	H	0.272459	0.901049	0.738498
0	H	0.773005	0.609828	0.290532
0	H	0.762551	0.401618	0.799074
0	C	0.387239	0.491648	0.0897044
0	C	0.14576	0.522723	0.595656
0	C	0.647545	0.989253	0.433678
0	C	0.888453	0.0168435	0.939544
0	C	0.294307	0.519285	0.102192
0	C	0.240513	0.496968	0.6068
0	C	0.742146	0.0149055	0.422306
0	C	0.795646	0.988994	0.927017
0	C	0.261756	0.463449	0.130942
0	C	0.272181	0.552154	0.635926
0	C	0.773447	0.959521	0.393205
0	C	0.762911	0.0448505	0.89831
0	H	0.208244	0.493389	0.145907
0	H	0.325614	0.52205	0.650889
0	H	0.82678	0.989475	0.378127
0	H	0.709436	0.0148982	0.883348
0	H	0.31759	0.455846	0.149923
0	H	0.215932	0.558845	0.654808
0	H	0.71702	0.952718	0.374415
0	H	0.818669	0.0526939	0.879318
0	C	0.847287	0.419163	0.260795
0	C	0.68561	0.591716	0.767279
0	C	0.186293	0.919241	0.262402
0	C	0.3485	0.0911695	0.768445
0	H	0.872811	0.445604	0.284673
0	H	0.660228	0.565443	0.791229
0	H	0.160723	0.946194	0.238643
0	H	0.37383	0.0649873	0.744478
0	C	0.904554	0.375214	0.239917
0	C	0.628013	0.634997	0.746252
0	C	0.128711	0.875767	0.283354
0	C	0.405937	0.134904	0.789351
0	H	0.974601	0.367965	0.247518
0	H	0.557839	0.641689	0.75379
0	H	0.0584037	0.869526	0.275944
0	H	0.475922	0.142201	0.781678
0	C	0.872069	0.34035	0.20948
0	C	0.6603	0.670048	0.715812
0	C	0.161237	0.839912	0.313556
0	C	0.373692	0.169476	0.819896
0	C	0.782341	0.350924	0.199872
0	C	0.750115	0.659849	0.706235
0	C	0.251305	0.849274	0.322935
0	C	0.284054	0.158684	0.829599
0	H	0.757345	0.324186	0.175929
0	H	0.775062	0.686614	0.682289
0	H	0.276333	0.821715	0.346681
0	H	0.259199	0.185084	0.853646
0	C	0.72557	0.394921	0.220738
0	C	0.807169	0.616321	0.727204
0	C	0.308363	0.892924	0.302029
0	C	0.227134	0.114898	0.808705
0	H	0.655867	0.402668	0.213309
0	H	0.876977	0.609013	0.719831
0	H	0.378353	0.899612	0.309261
0	H	0.157484	0.107048	0.816203
0	C	0.757943	0.429102	0.251341
0	C	0.77508	0.582286	0.757884
0	C	0.275993	0.92791	0.271616
0	C	0.259231	0.0810947	0.777975
0	H	0.713411	0.463217	0.267709
0	H	0.819926	0.548761	0.774378
0	H	0.320802	0.961611	0.255181
0	H	0.214551	0.0471951	0.761576
0	C	0.234101	0.277134	0.211623
0	C	0.297897	0.733772	0.718767
0	C	0.79875	0.777579	0.310479
0	C	0.736176	0.231865	0.817934
0	H	0.227358	0.216306	0.202778
0	H	0.304254	0.794995	0.710486
0	H	0.804433	0.716354	0.318822
0	H	0.730065	0.292645	0.826897
0	H	0.30648	0.290348	0.208211
0	H	0.225553	0.720289	0.71546
0	H	0.726495	0.791559	0.313645
0	H	0.80836	0.217921	0.821297
0	C	0.0383633	0.0693765	0.221793
0	C	0.496241	0.940708	0.73068
0	C	0.996253	0.569794	0.298867
0	C	0.539738	0.440635	0.80771
0	C	0.0969139	0.0745796	0.193258
0	C	0.438297	0.937592	0.701906
0	C	0.938242	0.573301	0.327612
0	C	0.597827	0.436192	0.836405
0	H	0.132272	0.128392	0.187954
0	H	0.401433	0.884758	0.696195
0	H	0.901809	0.626352	0.33333
0	H	0.633665	0.382734	0.84192
0	C	0.109171	0.0116433	0.171124
0	C	0.428815	0.00130946	0.680021
0	C	0.92804	0.509647	0.349509
0	C	0.608876	0.499475	0.858459
0	H	0.154464	0.0165674	0.148832
0	H	0.384444	0.99817	0.657478
0	H	0.883634	0.513211	0.372033
0	H	0.65381	0.495225	0.880864
0	C	0.0631491	0.943189	0.177326
0	C	0.476675	0.0685575	0.68683
0	C	0.975236	0.442063	0.342726
0	C	0.562093	0.56744	0.851998
0	H	0.0729079	0.893977	0.160192
0	H	0.469028	0.118388	0.669906
0	H	0.967069	0.392234	0.359625
0	H	0.570923	0.616938	0.86905
0	C	0.00460278	0.937873	0.20575
0	C	0.53435	0.0718508	0.715579
0	C	0.0328433	0.438298	0.313962
0	C	0.503866	0.571929	0.823443
0	H	0.97	0.88375	0.211064
0	H	0.570284	0.125119	0.721312
0	H	0.0681397	0.384685	0.308258
0	H	0.468586	0.625653	0.817965
0	C	0.991942	0.000750923	0.227899
0	C	0.544399	0.00815172	0.737431
0	C	0.0436446	0.501911	0.292119
0	C	0.492418	0.508746	0.801388
0	H	0.945858	0.996933	0.249991
0	H	0.589876	0.0102652	0.759761
0	H	0.0890652	0.499398	0.269785
0	H	0.446608	0.511855	0.779193
0	C	0.368129	0.104478	0.311007
0	C	0.168241	0.904505	0.819583
0	C	0.669644	0.60656	0.209608
0	C	0.870622	0.405514	0.719016
0	H	0.299621	0.091773	0.303267
0	H	0.236626	0.916626	0.811491
0	H	0.738025	0.59446	0.217716
0	H	0.802507	0.418725	0.727112
0	C	0.416605	0.162746	0.294207
0	C	0.118574	0.846636	0.803045
0	C	0.620026	0.664571	0.22606
0	C	0.918863	0.346589	0.735456
0	C	0.505986	0.174614	0.303948
0	C	0.0294212	0.835336	0.813251
0	C	0.530914	0.675878	0.215787
0	C	0.00779538	0.334046	0.725314
0	H	0.546058	0.218172	0.290771
0	H	0.988558	0.791985	0.800315
0	H	0.49005	0.719334	0.228652
0	H	0.0477278	0.289989	0.738209
0	C	0.544758	0.131116	0.330663
0	C	0.992023	0.879083	0.840165
0	C	0.493521	0.631962	0.188928
0	C	0.0463087	0.377423	0.698496
0	H	0.613909	0.141683	0.338075
0	H	0.922994	0.86913	0.848062
0	H	0.424554	0.641978	0.181003
0	H	0.115115	0.366297	0.690764
0	C	0.495306	0.0745115	0.347878
0	C	0.0426315	0.935397	0.857062
0	C	0.544066	0.575483	0.17212
0	C	0.997052	0.434636	0.681624
0	H	0.525022	0.0411294	0.369197
0	H	0.0138549	0.969062	0.878498
0	H	0.515283	0.541679	0.150733
0	H	0.0264966	0.46796	0.660233
0	C	0.406991	0.0611254	0.337768
0	C	0.130708	0.948173	0.846526
0	C	0.63212	0.562734	0.182715
0	C	0.909208	0.448743	0.69216
0	H	0.367988	0.0167324	0.350841
0	H	0.170529	0.992306	0.859406
0	H	0.671919	0.518466	0.169931
0	H	0.870371	0.493578	0.679323
0	C	0.427893	0.332326	0.292924
0	C	0.106747	0.677413	0.80228
0	C	0.608615	0.833741	0.226485
0	C	0.929046	0.176763	0.736653
0	H	0.407866	0.307633	0.317946
0	H	0.127619	0.702591	0.8271
0	H	0.629666	0.808255	0.201754
0	H	0.908822	0.201555	0.711675
0	C	0.417023	0.289525	0.261951
0	C	0.116497	0.719611	0.771068
0	C	0.618003	0.791851	0.2578
0	C	0.919031	0.219667	0.767649
0	C	0.443006	0.32304	0.230172
0	C	0.0895611	0.685524	0.739555
0	C	0.590897	0.826364	0.289199
0	C	0.945388	0.186062	0.799357
0	H	0.434616	0.29203	0.205513
0	H	0.0971986	0.716116	0.714758
0	H	0.59836	0.796069	0.314079
0	H	0.937893	0.217191	0.824028
0	C	0.478988	0.397105	0.229243
0	C	0.0535827	0.611417	0.739137
0	C	0.554966	0.900498	0.289396
0	C	0.980648	0.111725	0.800203
0	H	0.49803	0.42243	0.204209
0	H	0.0337656	0.585518	0.714323
0	H	0.534938	0.926723	0.314115
0	H	0.999858	0.0862487	0.825188
0	C	0.490243	0.438746	0.26014
0	C	0.0433601	0.570383	0.770254
0	C	0.545027	0.941171	0.258166
0	C	0.990948	0.0699618	0.769295
0	H	0.518909	0.496273	0.259463
0	H	0.014689	0.512832	0.769966
0	H	0.516351	0.998726	0.258267
0	H	0.0190437	0.0122144	0.769918
0	C	0.464477	0.405979	0.292013
0	C	0.0701898	0.603752	0.801868
0	C	0.572136	0.907435	0.226674
0	C	0.964959	0.102871	0.737477
0	H	0.473264	0.438184	0.316218
0	H	0.0622466	0.571995	0.826242
0	H	0.564469	0.938918	0.202215
0	H	0.973042	0.0705717	0.713261
0	C	0.918323	0.381822	0.136023
0	C	0.616067	0.631559	0.641854
0	C	0.117444	0.878865	0.387449
0	C	0.42008	0.128007	0.893349
0	H	0.934123	0.427082	0.154759
0	H	0.600567	0.585342	0.660144
0	H	0.102108	0.92499	0.369092
0	H	0.436635	0.0828532	0.874658
0	C	0.911997	0.30557	0.147797
0	C	0.620457	0.707423	0.654297
0	C	0.121466	0.802901	0.375117
0	C	0.413402	0.204216	0.881551
0	C	0.889471	0.247507	0.124098
0	C	0.641696	0.766606	0.630977
0	C	0.142477	0.743802	0.398513
0	C	0.389857	0.262147	0.905162
0	H	0.882623	0.187994	0.132757
0	H	0.646665	0.825919	0.64007
0	H	0.147146	0.684401	0.389517
0	H	0.382731	0.321617	0.896477
0	C	0.875746	0.265224	0.0888071
0	C	0.656963	0.750296	0.595616
0	C	0.157972	0.760327	0.433841
0	C	0.375349	0.24432	0.940393
0	H	0.858995	0.219638	0.0703237
0	H	0.673005	0.796859	0.577567
0	H	0.173848	0.713828	0.451948
0	H	0.357719	0.28978	0.958817
0	C	0.884736	0.340688	0.0770924
0	C	0.651334	0.675025	0.583309
0	C	0.152773	0.835708	0.446038
0	C	0.384656	0.168912	0.952138
0	H	0.87672	0.353269	0.0492015
0	H	0.662167	0.663059	0.555571
0	H	0.163802	0.847843	0.473749
0	H	0.376001	0.156296	0.980005
0	C	0.904955	0.399335	0.10079
0	C	0.631375	0.61543	0.606593
0	C	0.132968	0.895194	0.422675
0	C	0.405993	0.110397	0.928526
0	H	0.910352	0.458294	0.0917274
0	H	0.627917	0.556604	0.597191
0	H	0.129802	0.954098	0.431989
0	H	0.411668	0.0514668	0.937599
0	C	0.12702	0.385258	0.110393
0	C	0.407196	0.631109	0.616849
0	C	0.908478	0.880515	0.412227
0	C	0.628075	0.122776	0.918845
0	H	0.115828	0.418811	0.0864805
0	H	0.418936	0.602469	0.591676
0	H	0.920498	0.909443	0.437311
0	H	0.616729	0.0887831	0.942614
0	H	0.085071	0.409986	0.131078
0	H	0.447285	0.601224	0.636685
0	H	0.948443	0.910098	0.392252
0	H	0.586457	0.0983068	0.897988
0	H	0.100614	0.327138	0.104818
0	H	0.435373	0.689323	0.614246
0	H	0.936504	0.822266	0.41494
0	H	0.601567	0.180774	0.924566
0	C	0.357534	0.196917	0.0751697
0	C	0.172347	0.817165	0.578183
0	C	0.673251	0.694854	0.451136
0	C	0.858562	0.31073	0.95428
0	C	0.327442	0.161304	0.106093
0	C	0.199724	0.858992	0.607825
0	C	0.700617	0.653114	0.42147
0	C	0.829564	0.347242	0.923421
0	H	0.346178	0.185337	0.131453
0	H	0.181039	0.838993	0.63391
0	H	0.682182	0.673286	0.395383
0	H	0.849388	0.324113	0.898014
0	C	0.274721	0.095462	0.104491
0	C	0.249669	0.92602	0.604047
0	C	0.750278	0.58591	0.4252
0	C	0.776496	0.412878	0.925152
0	H	0.250532	0.0688899	0.12856
0	H	0.270508	0.95789	0.627151
0	H	0.771126	0.554105	0.402074
0	H	0.753302	0.440151	0.901121
0	C	0.25221	0.0636363	0.0720169
0	C	0.273059	0.95212	0.570622
0	C	0.773414	0.559537	0.458604
0	C	0.752453	0.443525	0.957693
0	H	0.211105	0.012191	0.0706887
0	H	0.312027	0.00444664	0.567613
0	H	0.812185	0.507091	0.461582
0	H	0.711065	0.494786	0.959119
0	C	0.282731	0.0982084	0.041324
0	C	0.246057	0.910862	0.541148
0	C	0.746372	0.600696	0.488107
0	C	0.781808	0.40799	0.988332
0	H	0.26471	0.0740378	0.0159662
0	H	0.264912	0.930578	0.515093
0	H	0.765018	0.580769	0.514152
0	H	0.762492	0.43117	0.0137394
0	C	0.33532	0.164572	0.0428939
0	C	0.195594	0.843687	0.544844
0	C	0.696191	0.668031	0.484457
0	C	0.834828	0.341905	0.986635
0	H	0.359828	0.190146	0.0183923
0	H	0.173975	0.812921	0.521298
0	H	0.674547	0.698726	0.508017
0	H	0.858515	0.315626	0.011089
0	C	0.228867	0.527896	0.0718103
0	C	0.30455	0.49164	0.575832
0	C	0.806444	0.0204435	0.453185
0	C	0.730183	0.980049	0.95737
0	H	0.163554	0.548166	0.0807751
0	H	0.371308	0.473654	0.584201
0	H	0.872975	0.0388591	0.444751
0	H	0.664908	0.959902	0.948317
0	H	0.218605	0.473328	0.0577577
0	H	0.311478	0.546752	0.561929
0	H	0.813918	0.965316	0.467021
0	H	0.719917	0.0343997	0.971582
0	H	0.253611	0.568642	0.0521359
0	H	0.280892	0.450411	0.556161
0	H	0.782522	0.0614275	0.472914
0	H	0.754926	0.939044	0.976931
0	C	0.311757	0.598448	0.118853
0	C	0.226772	0.416476	0.622683
0	C	0.728242	0.0953074	0.406343
0	C	0.813391	0.909882	0.910347
0	H	0.249836	0.624033	0.128739
0	H	0.29002	0.392083	0.631876
0	H	0.791444	0.1197	0.397095
0	H	0.751494	0.883931	0.90066
0	H	0.339899	0.639003	0.0998358
0	H	0.199369	0.376188	0.603388
0	H	0.700807	0.13572	0.425581
0	H	0.842215	0.869484	0.929282
0	H	0.359092	0.595046	0.14081
0	H	0.180242	0.417498	0.644917
0	H	0.681609	0.094116	0.384148
0	H	0.860336	0.913438	0.888262
0	C	0.568788	0.299453	0.97149
0	C	0.955408	0.712674	0.479108
0	C	0.456689	0.799912	0.550256
0	C	0.0694451	0.208027	0.057915
0	H	0.626984	0.333328	0.963132
0	H	0.9054	0.66898	0.472185
0	H	0.405743	0.842766	0.557212
0	H	0.12728	0.173744	0.0663038
0	H	0.508812	0.330125	0.962611
0	H	0.0201123	0.693303	0.468803
0	H	0.520995	0.820346	0.560514
0	H	0.00912135	0.177638	0.066622
0	H	0.570682	0.244502	0.957205
0	H	0.937238	0.765606	0.465142
0	H	0.43992	0.746669	0.564236
0	H	0.0715689	0.262838	0.0723051
0	C	0.226253	0.359206	0.267384
0	C	0.306665	0.649479	0.773898
0	C	0.808432	0.861558	0.255295
0	C	0.727811	0.150471	0.762017
0	H	0.285913	0.38826	0.257142
0	H	0.246867	0.620769	0.763593
0	H	0.748509	0.890373	0.265423
0	H	0.787304	0.121035	0.772169
0	H	0.233423	0.356739	0.295939
0	H	0.29983	0.65097	0.802486
0	H	0.802122	0.859945	0.226694
0	H	0.734866	0.153183	0.733463
0	H	0.168354	0.396396	0.262036
0	H	0.364547	0.612513	0.768217
0	H	0.866279	0.898495	0.261113
0	H	0.669654	0.113564	0.767346
0	C	0.428208	0.456934	0.996702
0	C	0.0953667	0.55517	0.503247
0	C	0.597472	0.956948	0.52615
0	C	0.930105	0.0507465	0.0325795
0	C	0.483417	0.47372	0.968035
0	C	0.0369673	0.54056	0.475336
0	C	0.53907	0.971661	0.554051
0	C	0.985321	0.0335611	0.0611996
0	H	0.553766	0.487227	0.972278
0	H	0.966473	0.529311	0.480506
0	H	0.46869	0.983366	0.548857
0	H	0.0555617	0.0195888	0.0569166
0	C	0.44858	0.47247	0.934107
0	C	0.0689096	0.541053	0.440955
0	C	0.570886	0.970603	0.588445
0	C	0.950715	0.0351551	0.0951759
0	H	0.491767	0.485105	0.911847
0	H	0.0233271	0.530272	0.419262
0	H	0.525296	0.981466	0.61013
0	H	0.994051	0.0222449	0.117359
0	C	0.358585	0.454758	0.928585
0	C	0.159169	0.555535	0.434273
0	C	0.660967	0.955317	0.595148
0	C	0.860918	0.0535778	0.100759
0	H	0.331642	0.453982	0.902068
0	H	0.183907	0.555292	0.407455
0	H	0.685564	0.954994	0.621982
0	H	0.833566	0.0548191	0.127217
0	C	0.303632	0.437562	0.957114
0	C	0.217393	0.570654	0.462057
0	C	0.719149	0.940131	0.567362
0	C	0.805947	0.0710736	0.0722644
0	H	0.233508	0.422814	0.95276
0	H	0.287621	0.582557	0.456999
0	H	0.789235	0.927607	0.572438
0	H	0.736057	0.0863153	0.076748
0	C	0.338106	0.438527	0.991078
0	C	0.185644	0.570841	0.496433
0	C	0.687594	0.940633	0.53296
0	C	0.840189	0.069782	0.038272
0	H	0.294767	0.425134	0.0134143
0	H	0.231401	0.582892	0.518161
0	H	0.733294	0.928487	0.511227
0	H	0.796799	0.0834443	0.0159706
0	C	0.779827	0.0548377	0.20751
0	C	0.753854	0.954374	0.717071
0	C	0.253053	0.55471	0.31274
0	C	0.281108	0.454519	0.821405
0	H	0.726288	0.0502303	0.188081
0	H	0.809492	0.960033	0.698642
0	H	0.30882	0.548595	0.331082
0	H	0.226304	0.459124	0.840279
0	H	0.761012	0.0203578	0.230397
0	H	0.769612	0.988092	0.740533
0	H	0.26812	0.520739	0.289278
0	H	0.263839	0.488961	0.798326
0	H	0.840111	0.0286201	0.196148
0	H	0.694728	0.980611	0.704805
0	H	0.193703	0.529129	0.325118
0	H	0.340613	0.480733	0.833389
0	O	0.838431	0.176165	0.188157
0	O	0.694667	0.834398	0.696309
0	O	0.195306	0.675504	0.333303
0	O	0.340455	0.333799	0.841084
0	O	0.863439	0.138976	0.245289
0	O	0.669555	0.868628	0.75385
0	O	0.170274	0.641182	0.275761
0	O	0.365785	0.370572	0.783907
0	O	0.0226513	0.317352	0.193346
0	O	0.509633	0.693741	0.69973
0	O	0.0106524	0.816638	0.329653
0	O	0.524361	0.192334	0.836092
0	O	0.0873764	0.230614	0.157194
0	O	0.445198	0.783241	0.664948
0	O	0.945512	0.72746	0.364393
0	O	0.589317	0.279066	0.872208
0	O	0.103426	0.185115	0.240342
0	O	0.429478	0.824492	0.748153
0	O	0.930369	0.686326	0.281279
0	O	0.605695	0.324762	0.78935
0	O	0.0610312	0.283601	0.275424
0	O	0.471703	0.724292	0.782312
0	O	0.973293	0.786298	0.247113
0	O	0.563258	0.226572	0.754079
0	O	0.578549	0.361455	0.0281615
0	O	0.948715	0.651923	0.536229
0	O	0.450313	0.860748	0.493154
0	O	0.080059	0.146416	0.00116793
0	O	0.481842	0.259242	0.0215106
0	O	0.0471563	0.752105	0.52768
0	O	0.548383	0.760291	0.501705
0	O	0.983411	0.248707	0.00772279
0	O	0.385791	0.480648	0.0543045
0	O	0.143386	0.533029	0.560238
0	O	0.645496	0.979112	0.469113
0	O	0.887341	0.0270808	0.974994
0	O	0.452761	0.480815	0.107572
0	O	0.081818	0.532472	0.614517
0	O	0.583417	0.979416	0.414927
0	O	0.953748	0.0283256	0.921628
0	O	0.358579	0.322339	0.100476
0	O	0.175558	0.693442	0.605932
0	O	0.676851	0.818614	0.423432
0	O	0.85972	0.185378	0.928964
0	O	0.253023	0.34601	0.0593608
0	O	0.282954	0.673313	0.565191
0	O	0.78453	0.838689	0.464062
0	O	0.753948	0.162087	0.970051
