#******************************************
#
# CIF file created by Zeo++
# Zeo++ is an open source package to
# analyze microporous materials
#
#*******************************************

_cell_length_a		30.0771(0)
_cell_length_b		30.098(0)
_cell_length_c		25.3641(0)
_cell_angle_alpha		90(0)
_cell_angle_beta		90(0)
_cell_angle_gamma		120.155(0)

_symmetry_space_group_name_H-M		'P1'
_symmetry_Int_Tables_number		1
_symmetry_cell_setting		Monoclinic

loop_
_symmetry_equiv_pos_as_xyz
'+x,+y,+z'

loop_
_atom_site_label
_atom_site_type_symbol
_atom_site_fract_x
_atom_site_fract_y
_atom_site_fract_z
0	O	0.22236	0.0960905	0.257316
0	O	0.904388	0.129248	0.268604
0	O	0.87299	0.775481	0.260706
0	O	0.889866	0.431375	0.578874
0	O	0.570682	0.462602	0.605992
0	O	0.536529	0.108438	0.601984
0	O	0.558668	0.760104	0.935505
0	O	0.23925	0.793803	0.929743
0	O	0.20533	0.441893	0.929686
0	O	0.0690752	0.860328	0.596496
0	O	0.137785	0.205503	0.596794
0	O	0.794485	0.931636	0.597246
0	O	0.734254	0.195179	0.929819
0	O	0.804923	0.53843	0.929554
0	O	0.460116	0.264485	0.929632
0	O	0.401926	0.527577	0.265352
0	O	0.473092	0.871759	0.265335
0	O	0.12796	0.597468	0.265106
0	N	0.222554	0.915222	0.611403
0	N	0.084098	0.30499	0.612657
0	N	0.695696	0.777793	0.612258
0	N	0.88788	0.249755	0.943401
0	N	0.751399	0.638243	0.946227
0	N	0.360372	0.11078	0.945597
0	N	0.555634	0.582062	0.280765
0	N	0.41834	0.970677	0.280134
0	N	0.0278489	0.443912	0.279352
0	N	0.3441	0.10321	0.337415
0	N	0.894912	0.243314	0.341397
0	N	0.758416	0.653214	0.338891
0	N	0.00933873	0.436114	0.665609
0	N	0.561892	0.577542	0.6756
0	N	0.422683	0.983812	0.674153
0	N	0.682337	0.769798	0.0083211
0	N	0.231085	0.908242	0.00577427
0	N	0.0905213	0.319318	0.00602684
0	N	0.95828	0.709954	0.613995
0	N	0.288202	0.245168	0.61358
0	N	0.7533	0.0411955	0.614907
0	N	0.623851	0.04429	0.947613
0	N	0.95557	0.578399	0.944837
0	N	0.420101	0.374961	0.947887
0	N	0.290795	0.377	0.282016
0	N	0.623842	0.912686	0.282845
0	N	0.0884426	0.708286	0.281809
0	N	0.18828	0.0504019	0.106844
0	N	0.946855	0.135458	0.114271
0	N	0.862739	0.809666	0.108878
0	N	0.85681	0.382456	0.43217
0	N	0.61412	0.467608	0.45034
0	N	0.530136	0.144118	0.446952
0	N	0.522988	0.718516	0.780275
0	N	0.282231	0.802282	0.776343
0	N	0.196604	0.47673	0.77658
0	C	0.377043	0.121501	0.560866
0	C	0.877731	0.255021	0.565355
0	C	0.745116	0.621898	0.562545
0	C	0.0436287	0.454556	0.889055
0	C	0.545064	0.589077	0.899732
0	C	0.409998	0.954441	0.898105
0	C	0.712513	0.788254	0.232186
0	C	0.212831	0.921466	0.229478
0	C	0.0774615	0.288	0.229745
0	H	0.416499	0.134775	0.57495
0	H	0.864924	0.281158	0.580471
0	H	0.718609	0.582649	0.576984
0	H	0.0831682	0.467557	0.902714
0	H	0.532359	0.615232	0.915032
0	H	0.383718	0.915349	0.913091
0	H	0.751646	0.80111	0.247003
0	H	0.199989	0.947779	0.243973
0	H	0.0510522	0.248743	0.244225
0	C	0.283006	0.0897615	0.526824
0	C	0.908474	0.192802	0.52911
0	C	0.808119	0.715482	0.527679
0	C	0.949526	0.423418	0.85581
0	C	0.575607	0.526846	0.863031
0	C	0.472411	0.0477273	0.862067
0	C	0.619171	0.757388	0.196531
0	C	0.243577	0.858854	0.194524
0	C	0.140271	0.381573	0.194812
0	H	0.243536	0.0764324	0.512778
0	H	0.921312	0.166674	0.514036
0	H	0.834587	0.754743	0.513265
0	H	0.909993	0.410323	0.842122
0	H	0.588378	0.500729	0.847763
0	H	0.498638	0.0868356	0.847099
0	H	0.580034	0.744494	0.181718
0	H	0.25644	0.832569	0.180002
0	H	0.166637	0.420822	0.180308
0	C	0.28753	0.0498596	0.56006
0	C	0.948862	0.236655	0.562662
0	C	0.764069	0.711614	0.561146
0	C	0.953866	0.383502	0.889274
0	C	0.616031	0.570507	0.896702
0	C	0.428515	0.0440346	0.89557
0	C	0.62268	0.717109	0.230097
0	C	0.283795	0.902863	0.228116
0	C	0.0961292	0.377612	0.228205
0	C	0.33829	0.0671587	0.578666
0	C	0.932204	0.270196	0.582264
0	C	0.730216	0.661098	0.580147
0	C	0.00466714	0.40052	0.907542
0	C	0.599514	0.604064	0.916569
0	C	0.394964	0.993709	0.915178
0	C	0.673095	0.733889	0.249439
0	C	0.26711	0.936593	0.247091
0	C	0.0623074	0.327075	0.247181
0	C	0.349012	0.0351934	0.608715
0	C	0.965036	0.312826	0.612129
0	C	0.687676	0.650938	0.610296
0	C	0.0150681	0.368787	0.9384
0	C	0.632523	0.646552	0.946523
0	C	0.352505	0.983841	0.945298
0	C	0.682927	0.70129	0.279477
0	C	0.299593	0.979052	0.277359
0	C	0.0196577	0.316892	0.277166
0	H	0.387734	0.0479871	0.623145
0	H	0.952931	0.339032	0.627117
0	H	0.661356	0.612401	0.62497
0	H	0.0537992	0.381379	0.952705
0	H	0.620567	0.672786	0.961799
0	H	0.326399	0.945458	0.960508
0	H	0.721378	0.713507	0.294357
0	H	0.287481	0.00538686	0.291962
0	H	0.993274	0.278355	0.291797
0	C	0.309471	0.985124	0.619913
0	C	0.015095	0.322935	0.622397
0	C	0.677793	0.69084	0.621269
0	C	0.975145	0.31919	0.950737
0	C	0.682592	0.656524	0.956534
0	C	0.342405	0.0237287	0.955589
0	C	0.642839	0.651294	0.290096
0	C	0.349396	0.988854	0.288601
0	C	0.0096822	0.356756	0.288064
0	H	0.317819	0.959389	0.642898
0	H	0.0414333	0.35698	0.645196
0	H	0.643839	0.6829	0.644352
0	H	0.983238	0.293734	0.974525
0	H	0.709045	0.690522	0.979367
0	H	0.308411	0.0158513	0.978557
0	H	0.650647	0.625189	0.313065
0	H	0.375422	0.0227	0.311798
0	H	0.975578	0.348702	0.310941
0	C	0.2595	0.967882	0.601242
0	C	0.0315172	0.289855	0.603059
0	C	0.710956	0.740611	0.60225
0	C	0.925135	0.302113	0.932241
0	C	0.698848	0.623398	0.936923
0	C	0.375412	0.0733313	0.936092
0	C	0.593136	0.63464	0.270896
0	C	0.365934	0.955703	0.26974
0	C	0.0429297	0.406587	0.269233
0	C	0.248134	0.000633448	0.571113
0	C	0.997996	0.245957	0.57289
0	C	0.754871	0.751355	0.571949
0	C	0.914151	0.334694	0.901298
0	C	0.665132	0.579632	0.906701
0	C	0.419247	0.0838107	0.905793
0	C	0.582749	0.667994	0.240597
0	C	0.332713	0.911958	0.239198
0	C	0.086893	0.41733	0.239016
0	H	0.209474	0.986982	0.556487
0	H	0.0109597	0.220708	0.557557
0	H	0.780259	0.789814	0.556982
0	H	0.875459	0.321289	0.886889
0	H	0.677924	0.554326	0.891122
0	H	0.444501	0.122103	0.890358
0	H	0.544391	0.654919	0.225375
0	H	0.345733	0.886599	0.224295
0	H	0.11231	0.455804	0.224105
0	C	0.321893	0.102824	0.482325
0	C	0.895561	0.219618	0.485636
0	C	0.781527	0.67634	0.483547
0	C	0.987947	0.436046	0.810913
0	C	0.5628	0.55392	0.819769
0	C	0.445607	0.00799287	0.818497
0	C	0.658684	0.770073	0.152767
0	C	0.230965	0.88536	0.150466
0	C	0.113736	0.342354	0.150713
0	C	0.372692	0.120195	0.500847
0	C	0.878577	0.252901	0.505256
0	C	0.747802	0.62576	0.502496
0	C	0.0387712	0.453045	0.829068
0	C	0.545891	0.587192	0.839602
0	C	0.412342	0.957544	0.838004
0	C	0.70916	0.787158	0.172106
0	C	0.214066	0.918919	0.169422
0	C	0.0801316	0.291767	0.169689
0	C	0.4125	0.133309	0.465443
0	C	0.865517	0.280212	0.470762
0	C	0.720518	0.585752	0.467462
0	C	0.0782374	0.465764	0.793294
0	C	0.532821	0.614576	0.805228
0	C	0.385395	0.917066	0.803401
0	C	0.749393	0.799992	0.137366
0	C	0.201478	0.946198	0.134343
0	C	0.0529178	0.251728	0.134655
0	H	0.451564	0.146548	0.479077
0	H	0.852397	0.305747	0.48526
0	H	0.694547	0.546849	0.481449
0	H	0.117367	0.478658	0.806581
0	H	0.519682	0.640045	0.819901
0	H	0.359993	0.878222	0.817833
0	H	0.78822	0.813221	0.151675
0	H	0.188569	0.97212	0.148259
0	H	0.0270831	0.2128	0.148655
0	C	0.402122	0.128599	0.41118
0	C	0.870087	0.275521	0.416255
0	C	0.725809	0.595711	0.413108
0	C	0.0674729	0.461103	0.739113
0	C	0.537302	0.609992	0.750672
0	C	0.39035	0.926419	0.7489
0	C	0.739784	0.79507	0.0829285
0	C	0.206262	0.940995	0.079989
0	C	0.058079	0.261674	0.0802933
0	H	0.433224	0.138163	0.383166
0	H	0.860727	0.297756	0.38896
0	H	0.703854	0.564452	0.385361
0	H	0.0983678	0.470385	0.710893
0	H	0.527811	0.632165	0.723499
0	H	0.368533	0.89472	0.721532
0	H	0.771267	0.804313	0.0554802
0	H	0.197115	0.963034	0.0522628
0	H	0.0360822	0.230376	0.0525921
0	C	0.351963	0.111188	0.392966
0	C	0.887186	0.242996	0.397045
0	C	0.758762	0.645664	0.394484
0	C	0.017277	0.444139	0.721169
0	C	0.554337	0.577485	0.731282
0	C	0.422733	0.976273	0.729809
0	C	0.689932	0.777811	0.0639534
0	C	0.223181	0.908093	0.0613736
0	C	0.0908768	0.311646	0.0616314
0	C	0.311173	0.0983927	0.428886
0	C	0.899859	0.214288	0.432041
0	C	0.78737	0.686664	0.430037
0	C	0.976872	0.431676	0.757497
0	C	0.567079	0.548741	0.766159
0	C	0.451074	0.0177542	0.764927
0	C	0.648711	0.765372	0.099205
0	C	0.235505	0.87957	0.0969659
0	C	0.119478	0.352643	0.0971906
0	H	0.272405	0.0847723	0.41467
0	H	0.913267	0.189318	0.41696
0	H	0.812663	0.725284	0.415478
0	H	0.938061	0.418349	0.743616
0	H	0.580501	0.523821	0.750946
0	H	0.475929	0.0563173	0.749941
0	H	0.610148	0.751809	0.0843626
0	H	0.248851	0.85437	0.0824519
0	H	0.144672	0.391275	0.0826091
0	C	0.304909	0.138367	0.560455
0	C	0.860045	0.165748	0.562947
0	C	0.834645	0.693502	0.561319
0	C	0.971946	0.472086	0.889459
0	C	0.527152	0.49974	0.896794
0	C	0.499351	0.0263276	0.895875
0	C	0.640916	0.805903	0.23026
0	C	0.195036	0.832124	0.228266
0	C	0.166956	0.359846	0.228604
0	C	0.355448	0.155047	0.579381
0	C	0.843741	0.199467	0.582886
0	C	0.800449	0.6432	0.580648
0	C	0.0225464	0.488449	0.907959
0	C	0.510932	0.533441	0.916984
0	C	0.46556	0.976128	0.91567
0	C	0.69112	0.8222	0.249947
0	C	0.178808	0.8661	0.247615
0	C	0.132834	0.309515	0.247925
0	C	0.380722	0.198499	0.610781
0	C	0.800075	0.180724	0.614058
0	C	0.818471	0.617882	0.612052
0	C	0.0480314	0.531571	0.939766
0	C	0.467184	0.514546	0.948048
0	C	0.484227	0.951135	0.946676
0	C	0.716221	0.865657	0.281375
0	C	0.135505	0.847809	0.279275
0	C	0.151026	0.284436	0.279459
0	H	0.419111	0.211146	0.62585
0	H	0.787473	0.206263	0.629618
0	H	0.792471	0.579628	0.627323
0	H	0.0864551	0.543917	0.954573
0	H	0.454579	0.540011	0.963796
0	H	0.458592	0.912841	0.962084
0	H	0.754439	0.878164	0.296871
0	H	0.123078	0.873563	0.2946
0	H	0.125144	0.246142	0.29471
0	C	0.35646	0.226696	0.622611
0	C	0.771605	0.127963	0.62503
0	C	0.87111	0.641936	0.623609
0	C	0.0239412	0.55976	0.952472
0	C	0.438591	0.461716	0.958662
0	C	0.537014	0.975538	0.957633
0	C	0.692031	0.894037	0.292714
0	C	0.107168	0.795223	0.291107
0	C	0.203655	0.308734	0.29122
0	H	0.376001	0.261352	0.646675
0	H	0.736811	0.112444	0.648929
0	H	0.886127	0.622405	0.6477
0	H	0.0437332	0.594116	0.976943
0	H	0.403735	0.446119	0.982474
0	H	0.552471	0.956182	0.981372
0	H	0.711479	0.928647	0.316858
0	H	0.0726761	0.780091	0.315443
0	H	0.218666	0.289282	0.315451
0	C	0.307062	0.210992	0.602976
0	C	0.787259	0.0945373	0.604787
0	C	0.905099	0.691136	0.603645
0	C	0.974466	0.544383	0.93329
0	C	0.45419	0.428338	0.938161
0	C	0.570505	0.0248137	0.937554
0	C	0.642866	0.878566	0.272537
0	C	0.12255	0.761476	0.271171
0	C	0.237597	0.357992	0.27134
0	C	0.280599	0.165937	0.571891
0	C	0.832288	0.113621	0.573588
0	C	0.886694	0.717601	0.57247
0	C	0.947835	0.499679	0.901713
0	C	0.499292	0.447551	0.907071
0	C	0.551501	0.0508331	0.906541
0	C	0.616676	0.833639	0.241221
0	C	0.167347	0.78014	0.239662
0	C	0.219001	0.384176	0.239957
0	H	0.242351	0.153796	0.55687
0	H	0.844238	0.0876863	0.557843
0	H	0.913067	0.755672	0.557151
0	H	0.909523	0.487764	0.887035
0	H	0.51122	0.421675	0.891115
0	H	0.577505	0.0888849	0.890939
0	H	0.578666	0.82171	0.225638
0	H	0.179214	0.754001	0.224326
0	H	0.245253	0.422274	0.224636
0	C	0.0516006	0.0150774	0.0852075
0	C	0.983312	0.0358443	0.0873755
0	C	0.962423	0.946802	0.0857677
0	C	0.719766	0.34799	0.415759
0	C	0.651673	0.369183	0.421039
0	C	0.630393	0.280288	0.419949
0	C	0.386612	0.681456	0.753764
0	C	0.31861	0.702325	0.75262
0	C	0.297382	0.613232	0.752703
0	C	0.0509009	0.0156468	0.0290955
0	C	0.982618	0.036281	0.0312727
0	C	0.962066	0.947356	0.0296443
0	C	0.717008	0.347753	0.359731
0	C	0.649271	0.369066	0.364991
0	C	0.628084	0.279864	0.363876
0	C	0.387288	0.681661	0.697648
0	C	0.319089	0.702361	0.696499
0	C	0.298041	0.613377	0.696583
0	C	0.0951086	0.0287386	0.000484167
0	C	0.968887	0.067787	0.00451949
0	C	0.930887	0.90279	0.00152893
0	C	0.760056	0.360152	0.329354
0	C	0.634976	0.400547	0.339081
0	C	0.595737	0.234791	0.33707
0	C	0.432439	0.695159	0.670654
0	C	0.306013	0.733748	0.668534
0	C	0.266609	0.568741	0.668683
0	H	0.0948402	0.029184	0.957549
0	H	0.968216	0.0683603	0.961598
0	H	0.9306	0.902828	0.958592
0	H	0.758215	0.360039	0.286465
0	H	0.633413	0.401106	0.296192
0	H	0.59407	0.233917	0.294158
0	H	0.433429	0.695426	0.62772
0	H	0.306146	0.734002	0.62559
0	H	0.26676	0.568437	0.625741
0	C	0.14057	0.0411644	0.0275334
0	C	0.956055	0.0994914	0.0333997
0	C	0.899128	0.857203	0.0290705
0	C	0.806434	0.372621	0.354487
0	C	0.622638	0.4322	0.368747
0	C	0.56457	0.189885	0.365899
0	C	0.477279	0.70831	0.699314
0	C	0.292773	0.76579	0.69622
0	C	0.23399	0.523526	0.696412
0	H	0.175628	0.0510552	0.00572969
0	H	0.945644	0.124888	0.0129676
0	H	0.873961	0.82184	0.00767047
0	H	0.840585	0.381992	0.331244
0	H	0.61179	0.457524	0.348856
0	H	0.538596	0.154182	0.345415
0	H	0.513003	0.718538	0.678652
0	H	0.282856	0.791093	0.674845
0	H	0.208666	0.488179	0.675066
0	C	0.141277	0.0407601	0.0828522
0	C	0.956681	0.0989863	0.0887648
0	C	0.899278	0.856765	0.0844089
0	C	0.809168	0.372893	0.409709
0	C	0.624169	0.431626	0.424104
0	C	0.566317	0.190574	0.421247
0	C	0.47654	0.708257	0.754683
0	C	0.292407	0.765733	0.75157
0	C	0.233554	0.523443	0.751757
0	C	0.0963472	0.0277353	0.11235
0	C	0.970319	0.0666582	0.116351
0	C	0.931401	0.902018	0.113395
0	C	0.765405	0.360601	0.44099
0	C	0.638891	0.39971	0.45081
0	C	0.599799	0.23629	0.448854
0	C	0.430643	0.694717	0.782512
0	C	0.305379	0.733534	0.780397
0	C	0.265719	0.568816	0.780529
0	H	0.0971514	0.0271773	0.155145
0	H	0.971012	0.0666783	0.159143
0	H	0.93107	0.901371	0.156198
0	H	0.767698	0.360548	0.48372
0	H	0.640558	0.399739	0.493558
0	H	0.600938	0.236714	0.491637
0	H	0.430109	0.694293	0.82531
0	H	0.30542	0.733895	0.823201
0	H	0.264969	0.568662	0.823328
0	C	0.312163	0.111858	0.311335
0	C	0.886203	0.20225	0.31617
0	C	0.799146	0.6853	0.31289
0	C	0.978146	0.445122	0.638589
0	C	0.55284	0.536105	0.650874
0	C	0.463807	0.0165767	0.649139
0	C	0.649931	0.778302	0.982938
0	C	0.222304	0.867366	0.980115
0	C	0.131414	0.351399	0.980233
0	H	0.288435	0.1273	0.327259
0	H	0.870915	0.163351	0.333032
0	H	0.838373	0.709172	0.32897
0	H	0.95468	0.461181	0.653622
0	H	0.537304	0.497376	0.668288
0	H	0.502619	0.0405241	0.666202
0	H	0.626274	0.793495	0.999775
0	H	0.206862	0.828318	0.996599
0	H	0.170559	0.375063	0.996619
0	C	0.305623	0.101042	0.254145
0	C	0.897101	0.205202	0.259132
0	C	0.795115	0.692083	0.255738
0	C	0.972647	0.434191	0.581297
0	C	0.563825	0.538231	0.593928
0	C	0.461067	0.0246167	0.592084
0	C	0.641922	0.767372	0.925866
0	C	0.233122	0.870843	0.922955
0	C	0.127885	0.358631	0.923068
0	C	0.260304	0.0924331	0.228983
0	C	0.906731	0.168206	0.236362
0	C	0.832062	0.73779	0.231203
0	C	0.928603	0.426425	0.55406
0	C	0.573489	0.500824	0.572202
0	C	0.497885	0.0715979	0.569475
0	C	0.595258	0.757889	0.90308
0	C	0.242112	0.833864	0.899094
0	C	0.165009	0.404674	0.899152
0	C	0.18654	0.0488103	0.28407
0	C	0.953983	0.141429	0.28998
0	C	0.861098	0.811615	0.285781
0	C	0.854773	0.386769	0.609777
0	C	0.620587	0.473434	0.625192
0	C	0.524191	0.14594	0.622566
0	C	0.520493	0.710252	0.955833
0	C	0.288187	0.805781	0.952804
0	C	0.19374	0.47895	0.952983
0	H	0.164222	0.0189183	0.254996
0	H	0.980831	0.147198	0.258059
0	H	0.854241	0.833587	0.255746
0	H	0.831323	0.354736	0.583229
0	H	0.645976	0.477865	0.592258
0	H	0.51881	0.166859	0.590253
0	H	0.4996	0.684001	0.923407
0	H	0.316017	0.812198	0.921721
0	H	0.187519	0.500555	0.922021
0	H	0.162271	0.0600819	0.30583
0	H	0.944402	0.106912	0.312965
0	H	0.896255	0.836107	0.308184
0	H	0.831455	0.400127	0.630065
0	H	0.610846	0.439014	0.648411
0	H	0.55851	0.171187	0.645776
0	H	0.495378	0.719609	0.97874
0	H	0.278044	0.770858	0.975304
0	H	0.22877	0.503622	0.975498
0	H	0.20699	0.0367865	0.310916
0	H	0.968843	0.17532	0.315386
0	H	0.827957	0.791431	0.312011
0	H	0.875699	0.376508	0.637906
0	H	0.637272	0.507791	0.650072
0	H	0.489991	0.126878	0.647612
0	H	0.538992	0.694795	0.981129
0	H	0.302216	0.839216	0.978751
0	H	0.160267	0.459507	0.978927
0	C	0.252693	0.0826307	0.174601
0	C	0.916166	0.168414	0.182113
0	C	0.830483	0.745813	0.176855
0	C	0.922255	0.416138	0.499621
0	C	0.58338	0.50041	0.518133
0	C	0.497698	0.0808686	0.515226
0	C	0.586012	0.748674	0.848794
0	C	0.251488	0.834769	0.84474
0	C	0.164011	0.413166	0.84482
0	C	0.204484	0.0750209	0.151039
0	C	0.923674	0.127475	0.159308
0	C	0.87121	0.794149	0.153443
0	C	0.874324	0.408583	0.475384
0	C	0.591257	0.459557	0.495591
0	C	0.53835	0.129566	0.492261
0	C	0.537625	0.741162	0.825673
0	C	0.258937	0.794041	0.821376
0	C	0.204849	0.461482	0.821457
0	H	0.185576	0.0919744	0.17438
0	H	0.907729	0.0921856	0.183452
0	H	0.906912	0.813564	0.177096
0	H	0.856111	0.426871	0.497841
0	H	0.575719	0.424385	0.519817
0	H	0.573618	0.149615	0.516401
0	H	0.517804	0.756524	0.849809
0	H	0.243051	0.758561	0.845259
0	H	0.240478	0.48098	0.845192
0	C	0.29142	0.0811822	0.145023
0	C	0.917182	0.207499	0.15076
0	C	0.790413	0.707244	0.146816
0	C	0.961421	0.41408	0.471691
0	C	0.584578	0.5392	0.486038
0	C	0.458817	0.0425082	0.48376
0	C	0.624057	0.747627	0.817407
0	C	0.252766	0.87434	0.814132
0	C	0.124332	0.374738	0.814255
0	H	0.284827	0.0731097	0.102726
0	H	0.925258	0.207691	0.108591
0	H	0.7893	0.714211	0.104552
0	H	0.955929	0.405827	0.429376
0	H	0.592855	0.53891	0.443971
0	H	0.458616	0.0504588	0.4416
0	H	0.616167	0.739719	0.775189
0	H	0.260702	0.874991	0.771859
0	H	0.123695	0.381985	0.771979
0	C	0.336876	0.0893454	0.168956
0	C	0.908644	0.245323	0.172462
0	C	0.752763	0.661544	0.170159
0	C	0.00599306	0.421908	0.497522
0	C	0.576	0.577346	0.506717
0	C	0.42126	0.99578	0.505306
0	C	0.670382	0.755882	0.839095
0	C	0.244652	0.912084	0.836803
0	C	0.0864936	0.328768	0.836965
0	C	0.343581	0.0995393	0.22334
0	C	0.898004	0.243317	0.226673
0	C	0.755845	0.654295	0.224506
0	C	0.0110554	0.431925	0.551963
0	C	0.564989	0.575998	0.560747
0	C	0.423254	0.98709	0.559479
0	C	0.679083	0.766388	0.893314
0	C	0.234355	0.909548	0.891126
0	C	0.0890456	0.321036	0.891293
0	H	0.378971	0.106089	0.242702
0	H	0.890788	0.272278	0.244519
0	H	0.726824	0.61868	0.243453
0	H	0.0456615	0.437845	0.572595
0	H	0.55775	0.60521	0.577877
0	H	0.394494	0.950601	0.577189
0	H	0.715264	0.773414	0.911097
0	H	0.22762	0.938578	0.909582
0	H	0.0599409	0.285197	0.909779
0	C	0.379701	0.0873491	0.138005
0	C	0.910892	0.289159	0.139479
0	C	0.708032	0.619148	0.138601
0	C	0.049742	0.419925	0.468517
0	C	0.57874	0.62091	0.472834
0	C	0.377681	0.953862	0.472168
0	C	0.711695	0.753452	0.805764
0	C	0.246769	0.956159	0.804382
0	C	0.0422082	0.286724	0.804626
0	C	0.365155	0.0727322	0.0798812
0	C	0.92543	0.287447	0.0816661
0	C	0.708557	0.634291	0.0805949
0	C	0.0368382	0.405274	0.410164
0	C	0.593481	0.618312	0.415328
0	C	0.379515	0.970242	0.4144
0	C	0.694827	0.738743	0.748094
0	C	0.261983	0.955216	0.746655
0	C	0.0435771	0.302561	0.746717
0	H	0.395932	0.0708561	0.0586386
0	H	0.927706	0.319664	0.0592056
0	H	0.675953	0.603777	0.0589232
0	H	0.0682109	0.403585	0.390044
0	H	0.596024	0.6503	0.392184
0	H	0.347547	0.940053	0.391737
0	H	0.724548	0.73642	0.725241
0	H	0.264169	0.987472	0.724363
0	H	0.0112492	0.272342	0.724463
0	H	0.358411	0.100649	0.0589368
0	H	0.897209	0.252245	0.061536
0	H	0.743454	0.641224	0.0598963
0	H	0.030421	0.433084	0.388542
0	H	0.565236	0.582902	0.395521
0	H	0.414957	0.977826	0.394426
0	H	0.687703	0.766844	0.728097
0	H	0.234203	0.920069	0.726111
0	H	0.0787307	0.309668	0.72645
0	H	0.330528	0.0348109	0.0758284
0	H	0.963172	0.290378	0.0782149
0	H	0.705468	0.668958	0.0768031
0	H	0.00243717	0.367277	0.405548
0	H	0.631147	0.620997	0.412402
0	H	0.37619	0.00478153	0.41099
0	H	0.6598	0.701009	0.744942
0	H	0.299905	0.958492	0.74351
0	H	0.0406256	0.337311	0.743116
0	C	0.389846	0.0468856	0.163627
0	C	0.951658	0.340624	0.163762
0	C	0.657114	0.60881	0.163833
0	C	0.059312	0.379585	0.495392
0	C	0.6197	0.672544	0.496645
0	C	0.326013	0.942563	0.496277
0	C	0.722333	0.712692	0.829792
0	C	0.286863	0.00756204	0.829247
0	C	0.99096	0.276163	0.829141
0	H	0.404789	0.0572187	0.203904
0	H	0.941719	0.346193	0.203858
0	H	0.652193	0.593773	0.204086
0	H	0.0735114	0.390177	0.535883
0	H	0.6099	0.678584	0.536617
0	H	0.320365	0.926945	0.536331
0	H	0.738027	0.722539	0.869835
0	H	0.27642	0.0126496	0.869292
0	H	0.985471	0.260772	0.869281
0	H	0.418033	0.0418155	0.141081
0	H	0.956513	0.373302	0.140299
0	H	0.623925	0.580665	0.141046
0	H	0.0878774	0.374299	0.473888
0	H	0.624683	0.705042	0.472772
0	H	0.293434	0.91458	0.472694
0	H	0.750051	0.707878	0.8061
0	H	0.291553	0.0402792	0.805966
0	H	0.958063	0.248232	0.805865
0	H	0.354556	0.00929065	0.165898
0	H	0.989292	0.343173	0.166129
0	H	0.654861	0.644028	0.166071
0	H	0.0239644	0.342038	0.497458
0	H	0.657264	0.674942	0.499112
0	H	0.323261	0.977499	0.498682
0	H	0.687081	0.67507	0.832133
0	H	0.324694	0.0105674	0.831851
0	H	0.988659	0.311361	0.831373
0	C	0.428479	0.140901	0.140505
0	C	0.857526	0.284698	0.140963
0	C	0.712506	0.570326	0.140704
0	C	0.0983517	0.473575	0.471907
0	C	0.525569	0.616908	0.473507
0	C	0.382618	0.905284	0.473631
0	C	0.760837	0.806786	0.806835
0	C	0.193028	0.950819	0.805581
0	C	0.0466258	0.237872	0.806412
0	H	0.442626	0.151986	0.180871
0	H	0.846187	0.288379	0.181002
0	H	0.709272	0.555917	0.180962
0	H	0.111702	0.484396	0.512537
0	H	0.513973	0.621011	0.513272
0	H	0.379127	0.890294	0.513657
0	H	0.776181	0.818313	0.846752
0	H	0.181311	0.954068	0.845584
0	H	0.0431611	0.223131	0.846547
0	H	0.421331	0.170571	0.124581
0	H	0.827709	0.247678	0.125306
0	H	0.749408	0.57754	0.124793
0	H	0.0913657	0.503274	0.455758
0	H	0.495689	0.579883	0.457925
0	H	0.419752	0.912991	0.457917
0	H	0.753595	0.836472	0.791135
0	H	0.16372	0.913655	0.78971
0	H	0.0835944	0.24519	0.790587
0	H	0.459667	0.141726	0.117418
0	H	0.857242	0.314911	0.117138
0	H	0.682037	0.539341	0.117425
0	H	0.130064	0.474758	0.449523
0	H	0.525744	0.647055	0.449154
0	H	0.352547	0.874485	0.449828
0	H	0.791188	0.807002	0.782779
0	H	0.192315	0.980813	0.781775
0	H	0.0162762	0.207082	0.782839
0	C	0.173891	0.899444	0.615739
0	C	0.0993482	0.271726	0.616211
0	C	0.728754	0.826474	0.616187
0	C	0.839303	0.234269	0.948023
0	C	0.766439	0.604786	0.949474
0	C	0.393716	0.159436	0.949076
0	C	0.50696	0.566503	0.284442
0	C	0.433683	0.937491	0.283865
0	C	0.0611284	0.492521	0.283539
0	H	0.155839	0.923647	0.61367
0	H	0.0747817	0.229446	0.613636
0	H	0.77109	0.84463	0.613771
0	H	0.821417	0.258601	0.945611
0	H	0.741683	0.562541	0.946816
0	H	0.436016	0.177271	0.946484
0	H	0.48911	0.590852	0.281825
0	H	0.409276	0.895218	0.281054
0	H	0.103461	0.510347	0.281285
0	C	0.136832	0.844506	0.624696
0	C	0.15424	0.289313	0.624995
0	C	0.710773	0.863341	0.625213
0	C	0.802138	0.17945	0.957747
0	C	0.821329	0.622168	0.958033
0	C	0.376229	0.196732	0.957827
0	C	0.469585	0.51159	0.293412
0	C	0.488575	0.955329	0.293199
0	C	0.0436986	0.529829	0.292607
0	C	0.0844148	0.826074	0.614467
0	C	0.17235	0.255195	0.614659
0	C	0.744643	0.91583	0.615022
0	C	0.749667	0.160958	0.947676
0	C	0.83948	0.588115	0.947447
0	C	0.410412	0.249132	0.947526
0	C	0.417154	0.493196	0.283161
0	C	0.507222	0.921606	0.283147
0	C	0.0781615	0.582245	0.282629
0	C	0.0695834	0.86425	0.5394
0	C	0.133951	0.201853	0.539709
0	C	0.79822	0.93126	0.54018
0	C	0.733989	0.198721	0.87273
0	C	0.800911	0.534815	0.872482
0	C	0.463754	0.264291	0.872544
0	C	0.402043	0.531381	0.208266
0	C	0.469344	0.867951	0.208247
0	C	0.131929	0.597372	0.208044
0	H	0.0425463	0.826907	0.522151
0	H	0.171312	0.212199	0.522542
0	H	0.78797	0.95822	0.522858
0	H	0.706764	0.161263	0.855831
0	H	0.838221	0.545133	0.855194
0	H	0.453513	0.291317	0.855386
0	H	0.374913	0.494006	0.19114
0	H	0.506764	0.878337	0.191195
0	H	0.121798	0.624443	0.190786
0	H	0.108542	0.878488	0.524345
0	H	0.119768	0.226466	0.524457
0	H	0.773536	0.892355	0.524978
0	H	0.772768	0.212932	0.85717
0	H	0.78673	0.559474	0.857376
0	H	0.439027	0.225396	0.857318
0	H	0.440918	0.545631	0.192967
0	H	0.455089	0.892442	0.192825
0	H	0.107286	0.5585	0.192722
0	H	0.0569379	0.892214	0.533159
0	H	0.105919	0.161112	0.533607
0	H	0.838971	0.944016	0.534185
0	H	0.721198	0.226598	0.86667
0	H	0.772803	0.494095	0.866358
0	H	0.504499	0.277106	0.866402
0	H	0.389337	0.559321	0.202183
0	H	0.441382	0.827172	0.202206
0	H	0.172702	0.610168	0.202162
0	C	0.0468077	0.774787	0.624446
0	C	0.22363	0.268835	0.624493
0	C	0.730598	0.953061	0.624942
0	C	0.712127	0.109669	0.957782
0	C	0.890818	0.601781	0.957059
0	C	0.396812	0.286684	0.957504
0	C	0.379416	0.441867	0.292944
0	C	0.558653	0.935799	0.293162
0	C	0.0647384	0.619959	0.292382
0	C	0.992309	0.758518	0.61498
0	C	0.239655	0.230537	0.614734
0	C	0.76842	0.00772506	0.615451
0	C	0.657503	0.092977	0.948328
0	C	0.907017	0.563687	0.946594
0	C	0.434983	0.341305	0.948194
0	C	0.324889	0.425538	0.283115
0	C	0.575229	0.897857	0.283681
0	C	0.103109	0.674475	0.282783
0	H	0.984966	0.790773	0.609689
0	H	0.20724	0.190883	0.609411
0	H	0.808231	0.0156658	0.609789
0	H	0.649805	0.124968	0.942869
0	H	0.874621	0.52401	0.941271
0	H	0.47471	0.349018	0.942529
0	H	0.317641	0.457835	0.277687
0	H	0.543025	0.858094	0.278259
0	H	0.142788	0.681947	0.277398
0	C	0.062709	0.74117	0.643718
0	C	0.25752	0.318396	0.643859
0	C	0.680911	0.936735	0.64426
0	C	0.728087	0.0761683	0.977264
0	C	0.924648	0.651232	0.976752
0	C	0.347228	0.270765	0.976902
0	C	0.395236	0.408208	0.3123
0	C	0.592088	0.985515	0.312441
0	C	0.0150885	0.60423	0.311447
0	H	0.0330548	0.701172	0.651029
0	H	0.297484	0.328679	0.651124
0	H	0.670332	0.966127	0.651548
0	H	0.698437	0.0361692	0.984614
0	H	0.964603	0.661502	0.983971
0	H	0.336981	0.300396	0.984213
0	H	0.365534	0.368211	0.319544
0	H	0.632163	0.996256	0.319773
0	H	0.00496864	0.633958	0.318699
0	C	0.114676	0.758034	0.652974
0	C	0.240967	0.353619	0.653264
0	C	0.645952	0.884739	0.653577
0	C	0.780034	0.0931015	0.986675
0	C	0.908064	0.686377	0.986494
0	C	0.31197	0.218872	0.986315
0	C	0.447175	0.425003	0.321708
0	C	0.57496	0.0203192	0.321711
0	C	0.979574	0.552356	0.320582
0	C	0.151288	0.809918	0.643798
0	C	0.189129	0.338409	0.644153
0	C	0.661542	0.848502	0.644364
0	C	0.816593	0.144952	0.977202
0	C	0.856238	0.671195	0.977341
0	C	0.327127	0.182322	0.97705
0	C	0.483859	0.476875	0.312589
0	C	0.523025	0.00453013	0.312443
0	C	0.994541	0.515615	0.31149
0	H	0.192124	0.824086	0.651393
0	H	0.175196	0.365172	0.651839
0	H	0.634965	0.807632	0.651965
0	H	0.857429	0.159173	0.984802
0	H	0.842316	0.697957	0.985142
0	H	0.300309	0.141519	0.984705
0	H	0.524664	0.49095	0.320272
0	H	0.508674	0.0309729	0.320015
0	H	0.967479	0.474832	0.318998
0	C	0.133243	0.721959	0.672764
0	C	0.277291	0.408348	0.673105
0	C	0.591139	0.865823	0.673408
0	C	0.798496	0.0570284	0.00682327
0	C	0.944259	0.741023	0.00669942
0	C	0.257324	0.200378	0.00642942
0	C	0.465708	0.38888	0.341474
0	C	0.610696	0.0752393	0.341481
0	C	0.924838	0.534113	0.340262
0	C	0.160974	0.742539	0.725855
0	C	0.256798	0.415511	0.726208
0	C	0.584082	0.838126	0.726463
0	C	0.826094	0.0776861	0.0599729
0	C	0.923421	0.747889	0.0597367
0	C	0.250386	0.172776	0.0595404
0	C	0.493522	0.409365	0.394556
0	C	0.589839	0.0822494	0.39444
0	C	0.917648	0.506688	0.393514
0	H	0.194995	0.780897	0.722112
0	H	0.218481	0.411131	0.722485
0	H	0.588474	0.804246	0.72269
0	H	0.860101	0.116051	0.05634
0	H	0.885068	0.743396	0.0558247
0	H	0.254903	0.138968	0.0557664
0	H	0.527636	0.447655	0.390907
0	H	0.551522	0.0778299	0.390509
0	H	0.922486	0.473065	0.389866
0	H	0.174036	0.717319	0.742069
0	H	0.282175	0.453882	0.742404
0	H	0.545699	0.824881	0.742729
0	H	0.839091	0.0524695	0.0763776
0	H	0.94862	0.786198	0.0761631
0	H	0.212053	0.159561	0.0759166
0	H	0.506465	0.384011	0.410695
0	H	0.615037	0.120624	0.410732
0	H	0.879155	0.493302	0.409527
0	H	0.135591	0.745154	0.755109
0	H	0.254065	0.387473	0.755468
0	H	0.612195	0.863573	0.75568
0	H	0.800603	0.0802992	0.0890941
0	H	0.920582	0.719745	0.0889152
0	H	0.278522	0.198297	0.0886988
0	H	0.468216	0.412056	0.423853
0	H	0.586996	0.0542122	0.423753
0	H	0.945515	0.532292	0.422827
0	C	0.0887186	0.666605	0.680856
0	C	0.332583	0.41918	0.681188
0	C	0.580043	0.910022	0.68159
0	C	0.753933	0.00169023	0.0150547
0	C	0.999526	0.751894	0.0150973
0	C	0.246707	0.244879	0.0147225
0	C	0.421191	0.333523	0.349581
0	C	0.666202	0.0867887	0.349758
0	C	0.914213	0.578658	0.348119
0	H	0.0612234	0.664606	0.710419
0	H	0.334437	0.39361	0.710723
0	H	0.6055	0.937547	0.711214
0	H	0.726239	0.999779	0.0443079
0	H	0.00125964	0.726233	0.0446032
0	H	0.272464	0.272388	0.0441869
0	H	0.393692	0.3315	0.37915
0	H	0.668368	0.0614649	0.379382
0	H	0.939768	0.606203	0.377672
0	H	0.103103	0.641643	0.694745
0	H	0.357694	0.458605	0.695102
0	H	0.54055	0.895347	0.695443
0	H	0.768266	0.976796	0.0293206
0	H	0.0245821	0.791284	0.029143
0	H	0.207318	0.230525	0.0287526
0	H	0.435613	0.308584	0.363466
0	H	0.690935	0.126295	0.363644
0	H	0.874751	0.564284	0.361939
0	H	0.0676451	0.649745	0.644204
0	H	0.349393	0.41498	0.644527
0	H	0.584208	0.931116	0.644992
0	H	0.733009	0.984646	0.978394
0	H	0.0165456	0.747814	0.978552
0	H	0.250936	0.26599	0.978133
0	H	0.4001	0.316631	0.312946
0	H	0.683291	0.0828375	0.313182
0	H	0.918543	0.599654	0.31142
0	C	0.170623	0.721191	0.631636
0	C	0.278285	0.446617	0.632017
0	C	0.552984	0.828375	0.632237
0	C	0.835857	0.0560795	0.965792
0	C	0.945306	0.779374	0.965682
0	C	0.218844	0.163015	0.965426
0	C	0.50302	0.388073	0.300275
0	C	0.611188	0.113146	0.300223
0	C	0.886432	0.496598	0.299297
0	H	0.151636	0.706992	0.593484
0	H	0.292469	0.44188	0.593861
0	H	0.55784	0.847361	0.594088
0	H	0.816873	0.0419006	0.927632
0	H	0.959424	0.774639	0.927493
0	H	0.223633	0.181955	0.927269
0	H	0.483963	0.373859	0.262153
0	H	0.62538	0.108436	0.262064
0	H	0.89119	0.515409	0.261069
0	H	0.18526	0.696119	0.644324
0	H	0.303501	0.48639	0.644774
0	H	0.51314	0.813547	0.644864
0	H	0.850372	0.0309046	0.978491
0	H	0.97052	0.819156	0.978404
0	H	0.179077	0.148444	0.978181
0	H	0.517647	0.362984	0.312944
0	H	0.636134	0.153035	0.31278
0	H	0.84664	0.481945	0.312032
0	H	0.203973	0.759442	0.625112
0	H	0.240082	0.441691	0.625468
0	H	0.55799	0.795192	0.625721
0	H	0.869219	0.0942926	0.959176
0	H	0.907086	0.774414	0.959133
0	H	0.223614	0.129699	0.958812
0	H	0.536359	0.426307	0.293671
0	H	0.572834	0.107852	0.293719
0	H	0.891198	0.463248	0.292897
0	C	0.998218	0.000101785	0.00614573
0	C	0.66357	0.332205	0.339047
0	C	0.335131	0.66586	0.673026
0	H	0.997751	0.000628737	0.962564
0	H	0.661316	0.331998	0.295545
0	H	0.335687	0.665995	0.629449
0	C	0.999406	0.999049	0.11003
0	C	0.668673	0.332785	0.442792
0	C	0.333902	0.665566	0.776962
0	H	1.15393e-05	0.998623	0.15354
0	H	0.67099	0.333069	0.48624
0	H	0.333359	0.665423	0.82049
