#******************************************
#
# CIF file created by Zeo++
# Zeo++ is an open source package to
# analyze microporous materials
#
#*******************************************

_cell_length_a		21.8999(0)
_cell_length_b		23.4869(0)
_cell_length_c		18.0801(0)
_cell_angle_alpha		90(0)
_cell_angle_beta		107.375(0)
_cell_angle_gamma		90(0)

_symmetry_space_group_name_H-M		'P1'
_symmetry_Int_Tables_number		1
_symmetry_cell_setting		Monoclinic

loop_
_symmetry_equiv_pos_as_xyz
'+x,+y,+z'

loop_
_atom_site_label
_atom_site_type_symbol
_atom_site_fract_x
_atom_site_fract_y
_atom_site_fract_z
0	Cl	0.505759	0.629896	0.651416
0	Cl	0.491075	0.130804	0.867763
0	Cl	0.490577	0.366316	0.368259
0	Cl	0.506031	0.866627	0.14962
0	Cl	0.297091	0.0542806	0.518909
0	Cl	0.700904	0.553842	0.00165886
0	Cl	0.69963	0.942262	0.499485
0	Cl	0.295893	0.443054	0.0167505
0	Cl	0.864337	0.539866	0.760297
0	Cl	0.130966	0.0380848	0.758159
0	Cl	0.132588	0.456925	0.258495
0	Cl	0.866194	0.958878	0.26066
0	Cl	0.904953	0.932942	0.061033
0	Cl	0.0913846	0.433285	0.458038
0	Cl	0.0914948	0.0638298	0.957516
0	Cl	0.905314	0.563513	0.56066
0	C	0.38362	0.809705	0.610589
0	C	0.613523	0.310437	0.909704
0	C	0.613274	0.18686	0.408363
0	C	0.383423	0.686511	0.10896
0	C	0.418392	0.803117	0.558751
0	C	0.578396	0.303698	0.961122
0	C	0.578554	0.193358	0.460275
0	C	0.418495	0.693249	0.0574798
0	C	0.419644	0.752534	0.507216
0	C	0.577154	0.253059	0.012549
0	C	0.577338	0.243872	0.511942
0	C	0.419655	0.743847	0.00594443
0	C	0.3537	0.73505	0.447231
0	C	0.643153	0.235523	0.0723521
0	C	0.643311	0.261415	0.571837
0	C	0.353558	0.761229	0.946206
0	C	0.357808	0.680847	0.473302
0	C	0.638917	0.181304	0.0463005
0	C	0.639131	0.315614	0.545727
0	C	0.357675	0.815465	0.972192
0	C	0.340412	0.622058	0.479789
0	C	0.656234	0.12251	0.0396664
0	C	0.656394	0.374435	0.539149
0	C	0.340257	0.87425	0.97867
0	C	0.289581	0.588531	0.439094
0	C	0.707009	0.0888696	0.0802744
0	C	0.707236	0.408026	0.579678
0	C	0.289301	0.907735	0.938163
0	C	0.287938	0.531365	0.462143
0	C	0.708564	0.0317272	0.0571028
0	C	0.708764	0.465178	0.556524
0	C	0.287695	0.964926	0.961129
0	C	0.335953	0.509144	0.524436
0	C	0.660513	0.00962282	0.994747
0	C	0.660626	0.487329	0.494305
0	C	0.335886	0.987234	0.0231722
0	C	0.388195	0.542761	0.566316
0	C	0.608372	0.0433442	0.952927
0	C	0.608351	0.453671	0.452646
0	C	0.388208	0.95366	0.0648865
0	C	0.390812	0.598774	0.544149
0	C	0.605845	0.0993406	0.975225
0	C	0.605841	0.397666	0.474906
0	C	0.390781	0.897622	0.0427951
0	C	0.439747	0.643691	0.576302
0	C	0.556986	0.144328	0.943145
0	C	0.556923	0.35271	0.442978
0	C	0.439812	0.85276	0.0748187
0	C	0.420942	0.691543	0.535609
0	C	0.575808	0.192097	0.984025
0	C	0.575939	0.30486	0.48358
0	C	0.420931	0.804853	0.0342951
0	C	0.46941	0.768773	0.468425
0	C	0.527194	0.269171	0.0511159
0	C	0.527558	0.227601	0.550681
0	C	0.469581	0.727716	0.967341
0	C	0.491377	0.73677	0.417369
0	C	0.505035	0.237066	0.101908
0	C	0.50551	0.259595	0.601681
0	C	0.491706	0.75979	0.916486
0	C	0.535467	0.761741	0.38425
0	C	0.460362	0.261775	0.134342
0	C	0.461325	0.234628	0.63465
0	C	0.536324	0.735042	0.884001
0	C	0.555709	0.817622	0.402269
0	C	0.439709	0.317496	0.115887
0	C	0.441103	0.178751	0.616578
0	C	0.556967	0.679318	0.90247
0	C	0.533459	0.849855	0.454559
0	C	0.462169	0.349847	0.0638855
0	C	0.463403	0.146542	0.564312
0	C	0.534552	0.647001	0.954534
0	C	0.490941	0.825646	0.488987
0	C	0.505317	0.325914	0.0301999
0	C	0.505986	0.170758	0.529982
0	C	0.491458	0.670973	0.988273
0	C	0.460027	0.847427	0.545656
0	C	0.536515	0.347886	0.973913
0	C	0.536894	0.149037	0.473273
0	C	0.460325	0.649038	0.0446353
0	C	0.464922	0.897617	0.586678
0	C	0.531767	0.398136	0.933039
0	C	0.531961	0.0989003	0.43213
0	C	0.465095	0.598786	0.0855126
0	C	0.508293	0.947179	0.597478
0	C	0.488426	0.44772	0.922092
0	C	0.48858	0.0493446	0.421254
0	C	0.508426	0.549199	0.0964369
0	C	0.561596	0.95864	0.573471
0	C	0.434965	0.459171	0.945723
0	C	0.435304	0.0378418	0.445298
0	C	0.561896	0.537762	0.0728204
0	C	0.595422	0.00981567	0.595997
0	C	0.401389	0.510525	0.923411
0	C	0.401483	0.986676	0.422741
0	C	0.59543	0.486377	0.0950551
0	C	0.576779	0.0489545	0.642938
0	C	0.420337	0.549733	0.87686
0	C	0.420073	0.947587	0.375695
0	C	0.576419	0.44712	0.141486
0	C	0.523439	0.0378061	0.668774
0	C	0.473841	0.538562	0.851271
0	C	0.473343	0.9588	0.349756
0	C	0.5229	0.458281	0.167055
0	C	0.490041	0.987613	0.645919
0	C	0.507062	0.488306	0.874078
0	C	0.506754	0.00898716	0.372661
0	C	0.489734	0.508574	0.144355
0	C	0.432662	0.966204	0.667647
0	C	0.564528	0.466862	0.852611
0	C	0.564102	0.030444	0.350896
0	C	0.432278	0.530024	0.16585
0	C	0.437019	0.974276	0.755487
0	C	0.560307	0.474915	0.764769
0	C	0.559733	0.022456	0.263036
0	C	0.436503	0.521921	0.253684
0	C	0.388087	0.0121138	0.73938
0	C	0.609368	0.512607	0.78103
0	C	0.608588	0.984542	0.27907
0	C	0.387449	0.484231	0.237399
0	C	0.341045	0.0517049	0.750873
0	C	0.656687	0.551957	0.769695
0	C	0.655556	0.944897	0.267506
0	C	0.340163	0.44484	0.24872
0	C	0.326895	0.0720142	0.815676
0	C	0.670883	0.572285	0.70494
0	C	0.6696	0.924559	0.202656
0	C	0.325992	0.424448	0.313461
0	C	0.27562	0.110542	0.804906
0	C	0.722414	0.610553	0.715848
0	C	0.720783	0.885936	0.213346
0	C	0.274493	0.386153	0.302539
0	C	0.239781	0.127971	0.731056
0	C	0.75846	0.627665	0.789771
0	C	0.756662	0.868472	0.287161
0	C	0.238452	0.369064	0.228607
0	C	0.253752	0.107954	0.664388
0	C	0.744416	0.60762	0.85638
0	C	0.742811	0.888544	0.353879
0	C	0.252457	0.389167	0.162002
0	C	0.303868	0.0701538	0.673916
0	C	0.694025	0.570118	0.84672
0	C	0.692753	0.926397	0.344433
0	C	0.302823	0.426708	0.171687
0	C	0.328767	0.0417651	0.615061
0	C	0.668917	0.541829	0.905447
0	C	0.667928	0.954802	0.403341
0	C	0.327893	0.455052	0.112963
0	C	0.377126	0.00773167	0.652559
0	C	0.620226	0.508185	0.867824
0	C	0.619585	0.988865	0.365896
0	C	0.376573	0.488709	0.150605
0	C	0.421992	0.906906	0.633026
0	C	0.575072	0.407577	0.887237
0	C	0.574824	0.0896907	0.385681
0	C	0.421773	0.589332	0.131286
0	C	0.381458	0.864941	0.644292
0	C	0.615949	0.36576	0.876438
0	C	0.615362	0.131681	0.374479
0	C	0.380918	0.631158	0.142113
0	C	0.353468	0.759541	0.637804
0	C	0.643623	0.260357	0.882279
0	C	0.643392	0.237068	0.381187
0	C	0.353411	0.736608	0.136468
0	C	0.403037	0.734749	0.710109
0	C	0.593852	0.235756	0.809996
0	C	0.593801	0.261872	0.308909
0	C	0.403382	0.761362	0.208468
0	C	0.381451	0.678417	0.735692
0	C	0.614949	0.17913	0.784671
0	C	0.615381	0.318198	0.283292
0	C	0.382235	0.817929	0.233906
0	C	0.334503	0.87519	0.688942
0	C	0.663652	0.376327	0.832966
0	C	0.662211	0.1215	0.329666
0	C	0.333106	0.620557	0.185421
0	C	0.269311	0.893802	0.634033
0	C	0.728334	0.395005	0.889052
0	C	0.727439	0.102787	0.384396
0	C	0.268464	0.601999	0.129141
0	C	0.221653	0.907473	0.67821
0	C	0.776544	0.409501	0.845987
0	C	0.774916	0.089021	0.340004
0	C	0.220075	0.587533	0.171963
0	C	0.308998	0.767344	0.387061
0	C	0.688298	0.26787	0.132021
0	C	0.688092	0.229114	0.631915
0	C	0.308444	0.728821	0.886597
0	C	0.265963	0.738437	0.324746
0	C	0.731633	0.238999	0.194107
0	C	0.731237	0.258013	0.694155
0	C	0.265075	0.757642	0.824481
0	C	0.222335	0.76909	0.266181
0	C	0.775903	0.26964	0.252036
0	C	0.774925	0.227338	0.75263
0	C	0.220841	0.726963	0.766579
0	C	0.221128	0.828542	0.269381
0	C	0.777474	0.329067	0.248466
0	C	0.776076	0.167884	0.749433
0	C	0.21933	0.667535	0.770205
0	C	0.263726	0.857471	0.331237
0	C	0.73455	0.357959	0.186862
0	C	0.73339	0.138977	0.687645
0	C	0.26228	0.638684	0.831827
0	C	0.307632	0.827176	0.389894
0	C	0.690017	0.327677	0.128827
0	C	0.689427	0.169282	0.629059
0	C	0.30679	0.669016	0.889841
0	C	0.479413	0.947454	0.82316
0	C	0.517986	0.448078	0.697061
0	C	0.517381	0.0493507	0.195391
0	C	0.478815	0.548705	0.32146
0	C	0.52965	0.912191	0.81683
0	C	0.467525	0.413095	0.703386
0	C	0.467102	0.084543	0.201766
0	C	0.529408	0.58358	0.315292
0	C	0.569748	0.885731	0.882554
0	C	0.427565	0.386415	0.637774
0	C	0.427007	0.111055	0.136088
0	C	0.569343	0.610191	0.380992
0	C	0.560176	0.894028	0.954948
0	C	0.437516	0.394195	0.565493
0	C	0.436631	0.102918	0.0636938
0	C	0.559208	0.602459	0.453182
0	C	0.510631	0.929249	0.961662
0	C	0.487231	0.429197	0.558754
0	C	0.486223	0.0677779	0.0569292
0	C	0.509341	0.567585	0.459757
0	C	0.470177	0.955808	0.896195
0	C	0.527514	0.456036	0.624105
0	C	0.526646	0.0411258	0.122343
0	C	0.469105	0.540801	0.39433
0	C	0.914872	0.738668	0.856076
0	C	0.0819354	0.238432	0.663557
0	C	0.0819453	0.258072	0.162652
0	C	0.914816	0.758367	0.355047
0	C	0.923331	0.693703	0.907516
0	C	0.0734412	0.193435	0.612153
0	C	0.0735624	0.303058	0.111253
0	C	0.923345	0.80334	0.4065
0	C	0.968401	0.643439	0.917936
0	C	0.028207	0.143276	0.601736
0	C	0.0285368	0.353353	0.100852
0	C	0.968671	0.853448	0.417036
0	C	0.963869	0.603124	0.851087
0	C	0.0323984	0.102951	0.668488
0	C	0.0330621	0.393663	0.167703
0	C	0.964582	0.893806	0.350339
0	C	0.93957	0.565635	0.794122
0	C	0.056249	0.0650557	0.725058
0	C	0.0573593	0.431158	0.224667
0	C	0.940819	0.931707	0.29375
0	C	0.992221	0.548306	0.762337
0	C	0.00357956	0.0483234	0.757125
0	C	0.00469816	0.44849	0.256433
0	C	0.993526	0.948318	0.261679
0	C	0.992437	0.509788	0.704646
0	C	0.00308514	0.00981503	0.814733
0	C	0.00447022	0.487027	0.314104
0	C	0.99408	0.986735	0.203989
0	C	0.0499681	0.501146	0.686261
0	C	0.945592	0.00181678	0.833435
0	C	0.946937	0.495658	0.33249
0	C	0.0515968	0.994625	0.185307
0	C	0.105885	0.529646	0.726066
0	C	0.890027	0.0309795	0.79407
0	C	0.891037	0.467131	0.292718
0	C	0.107108	0.965403	0.224725
0	C	0.106786	0.568286	0.786011
0	C	0.889426	0.0696513	0.734262
0	C	0.890147	0.42848	0.232792
0	C	0.107627	0.926765	0.284538
0	C	0.0504868	0.578314	0.803543
0	C	0.945687	0.078999	0.716354
0	C	0.946442	0.418471	0.215242
0	C	0.0513514	0.917562	0.302473
0	C	0.0339149	0.614255	0.859706
0	C	0.962531	0.114727	0.660168
0	C	0.963015	0.382535	0.159075
0	C	0.0344243	0.881904	0.358662
0	C	0.039329	0.653049	0.91679
0	C	0.957362	0.153357	0.602963
0	C	0.957599	0.343751	0.101983
0	C	0.0394958	0.843251	0.415816
0	C	0.962791	0.614463	0.990393
0	C	0.03365	0.114316	0.529193
0	C	0.0341623	0.382323	0.0283935
0	C	0.963205	0.88238	0.489585
0	C	0.99805	0.569231	0.0303527
0	C	0.998212	0.0692139	0.489144
0	C	0.998927	0.427561	0.988427
0	C	0.998702	0.927422	0.529745
0	C	0.985496	0.550195	0.0981544
0	C	0.010559	0.0502163	0.421183
0	C	0.0114301	0.446533	0.920563
0	C	0.986242	0.946457	0.597623
0	C	0.938837	0.576633	0.124246
0	C	0.0572562	0.076543	0.395072
0	C	0.0580076	0.420015	0.894413
0	C	0.939394	0.920222	0.623553
0	C	0.90333	0.622828	0.0836952
0	C	0.092957	0.122638	0.435698
0	C	0.0934931	0.373808	0.934969
0	C	0.90368	0.874167	0.582857
0	C	0.914653	0.641674	0.016273
0	C	0.0817736	0.141479	0.503191
0	C	0.0822282	0.355042	0.0024563
0	C	0.914956	0.855293	0.515431
0	C	0.888699	0.689806	0.964096
0	C	0.107847	0.189611	0.55533
0	C	0.108166	0.306911	0.0546425
0	C	0.888883	0.807179	0.463262
0	C	0.842382	0.729779	0.962494
0	C	0.153951	0.229734	0.556567
0	C	0.15443	0.266892	0.056228
0	C	0.842765	0.767065	0.461988
0	C	0.793323	0.734272	0.00295668
0	C	0.202669	0.234498	0.515608
0	C	0.203465	0.262352	0.0157344
0	C	0.794018	0.762303	0.502904
0	C	0.770555	0.69548	0.0462138
0	C	0.225163	0.19597	0.471758
0	C	0.226244	0.301107	0.972433
0	C	0.771454	0.800846	0.546675
0	C	0.721084	0.712025	0.0765
0	C	0.274249	0.212795	0.44095
0	C	0.275638	0.284487	0.942062
0	C	0.722357	0.784017	0.577454
0	C	0.69473	0.766435	0.0635049
0	C	0.30054	0.267229	0.454052
0	C	0.301911	0.230042	0.955025
0	C	0.696166	0.729544	0.564469
0	C	0.71587	0.805568	0.017554
0	C	0.279672	0.306126	0.500548
0	C	0.28076	0.190946	0.00100306
0	C	0.717104	0.690625	0.518065
0	C	0.763818	0.788869	0.986801
0	C	0.232082	0.289149	0.531741
0	C	0.232878	0.207716	0.0318328
0	C	0.764663	0.707629	0.486834
0	C	0.789682	0.820303	0.929582
0	C	0.206471	0.320379	0.589327
0	C	0.206983	0.176304	0.0890379
0	C	0.790279	0.676396	0.429258
0	C	0.807831	0.882102	0.947954
0	C	0.188252	0.382199	0.5712
0	C	0.188738	0.114534	0.0705869
0	C	0.808511	0.61458	0.447405
0	C	0.839226	0.928205	0.983404
0	C	0.156984	0.428369	0.535808
0	C	0.157269	0.0684789	0.0351026
0	C	0.839756	0.56841	0.482835
0	C	0.805722	0.979278	0.94146
0	C	0.190523	0.479374	0.57796
0	C	0.190719	0.0173494	0.0769479
0	C	0.806241	0.517399	0.440696
0	C	0.817979	0.0365253	0.956624
0	C	0.178326	0.53665	0.563032
0	C	0.178393	0.960123	0.0617181
0	C	0.818445	0.460122	0.455647
0	C	0.777106	0.0764571	0.907946
0	C	0.219185	0.576472	0.611955
0	C	0.21924	0.920137	0.110323
0	C	0.777627	0.420284	0.406723
0	C	0.725969	0.0591085	0.845527
0	C	0.270251	0.559	0.674382
0	C	0.270428	0.937415	0.172735
0	C	0.72658	0.437743	0.34426
0	C	0.712826	0.00100243	0.82892
0	C	0.283364	0.500865	0.690724
0	C	0.283651	0.995503	0.189414
0	C	0.71345	0.495871	0.327893
0	C	0.752076	0.961246	0.876628
0	C	0.244124	0.461233	0.642761
0	C	0.244419	0.0353015	0.141775
0	C	0.752663	0.535526	0.375865
0	C	0.752378	0.899682	0.878804
0	C	0.243767	0.399697	0.64032
0	C	0.244189	0.0968649	0.139684
0	C	0.753014	0.597067	0.378282
0	C	0.735356	0.845068	0.85883
0	C	0.260911	0.345075	0.66
0	C	0.261279	0.151452	0.159751
0	C	0.735839	0.651684	0.358594
0	C	0.838023	0.779503	0.914009
0	C	0.158352	0.279438	0.605091
0	C	0.15871	0.21715	0.104663
0	C	0.838389	0.717353	0.413488
0	C	0.874508	0.785315	0.863862
0	C	0.122086	0.285158	0.655495
0	C	0.122207	0.211367	0.154795
0	C	0.874654	0.711642	0.363083
0	C	0.945387	0.739303	0.791786
0	C	0.0515779	0.239158	0.72799
0	C	0.0513709	0.257422	0.226885
0	C	0.945113	0.757675	0.290559
0	C	0.900429	0.711858	0.718228
0	C	0.0964604	0.211465	0.8014
0	C	0.096272	0.284856	0.300497
0	C	0.900153	0.785353	0.217193
0	C	0.931619	0.706737	0.653569
0	C	0.0656334	0.207217	0.866485
0	C	0.0649428	0.290024	0.365025
0	C	0.930824	0.789498	0.151959
0	C	0.875136	0.839819	0.82036
0	C	0.12146	0.339688	0.698942
0	C	0.121477	0.156841	0.198209
0	C	0.875303	0.657107	0.319662
0	C	0.824587	0.840866	0.740481
0	C	0.172221	0.340863	0.778665
0	C	0.172017	0.155708	0.278098
0	C	0.82454	0.655883	0.239946
0	C	0.809941	0.901491	0.710033
0	C	0.187355	0.401567	0.808582
0	C	0.186601	0.0950542	0.308453
0	C	0.80946	0.595162	0.210079
0	C	0.0863189	0.69249	0.961873
0	C	0.910571	0.192919	0.557807
0	C	0.910601	0.30431	0.0569234
0	C	0.0861893	0.803579	0.460889
0	C	0.144653	0.700994	0.945683
0	C	0.852725	0.202382	0.574814
0	C	0.852322	0.295757	0.0732395
0	C	0.14415	0.794254	0.444102
0	C	0.18832	0.741339	0.987528
0	C	0.809216	0.242738	0.532727
0	C	0.808646	0.255406	0.0314538
0	C	0.187566	0.753782	0.486069
0	C	0.174308	0.773414	0.0455169
0	C	0.82288	0.273846	0.473695
0	C	0.822558	0.22337	0.973364
0	C	0.17369	0.722444	0.544766
0	C	0.116776	0.764651	0.0626201
0	C	0.879932	0.26415	0.45584
0	C	0.880012	0.232203	0.956104
0	C	0.116518	0.731997	0.562403
0	C	0.0730138	0.724352	0.0213164
0	C	0.923554	0.223841	0.497395
0	C	0.923802	0.272505	0.997371
0	C	0.0729779	0.772397	0.520946
0	C	0.68716	0.815819	0.79887
0	C	0.309406	0.315955	0.719735
0	C	0.30952	0.180598	0.21979
0	C	0.687308	0.680789	0.29888
0	C	0.675792	0.757238	0.80472
0	C	0.321018	0.257442	0.713792
0	C	0.320928	0.23919	0.214157
0	C	0.675576	0.739272	0.30492
0	C	0.62894	0.729743	0.745915
0	C	0.368284	0.230126	0.772334
0	C	0.367835	0.266564	0.273051
0	C	0.628277	0.766579	0.24641
0	C	0.593437	0.760159	0.68074
0	C	0.403953	0.260695	0.837275
0	C	0.403348	0.235995	0.338072
0	C	0.592706	0.736048	0.181389
0	C	0.605298	0.818168	0.674178
0	C	0.391857	0.31865	0.84392
0	C	0.391461	0.177966	0.344403
0	C	0.604914	0.678127	0.174652
0	C	0.65152	0.84619	0.732921
0	C	0.345191	0.346476	0.785478
0	C	0.345184	0.150075	0.285587
0	C	0.651601	0.650298	0.233072
0	H	0.251609	0.605481	0.390592
0	H	0.745002	0.105726	0.128814
0	H	0.745306	0.391119	0.628109
0	H	0.251208	0.890731	0.889862
0	H	0.248002	0.50447	0.430771
0	H	0.748445	0.0047198	0.088396
0	H	0.748716	0.492118	0.587751
0	H	0.247663	0.991805	0.929918
0	H	0.333219	0.465011	0.54209
0	H	0.663199	0.965496	0.977019
0	H	0.663293	0.531444	0.47654
0	H	0.333167	0.0313924	0.0407502
0	H	0.425395	0.524587	0.61497
0	H	0.571157	0.0252928	0.904201
0	H	0.571043	0.471794	0.404064
0	H	0.425525	0.971862	0.113386
0	H	0.474987	0.693177	0.402837
0	H	0.521646	0.193557	0.116684
0	H	0.521904	0.303182	0.616265
0	H	0.475093	0.803294	0.901686
0	H	0.553422	0.737122	0.343966
0	H	0.442237	0.237063	0.17439
0	H	0.443276	0.259243	0.674858
0	H	0.554398	0.759715	0.84387
0	H	0.589476	0.836951	0.375902
0	H	0.405408	0.336593	0.141625
0	H	0.40727	0.159416	0.64284
0	H	0.591201	0.660185	0.876661
0	H	0.549882	0.893884	0.466755
0	H	0.445373	0.393736	0.051281
0	H	0.446954	0.102529	0.552041
0	H	0.551316	0.603103	0.967136
0	H	0.577884	0.929018	0.536579
0	H	0.418335	0.429437	0.982191
0	H	0.419029	0.0674239	0.482254
0	H	0.578542	0.567512	0.0363858
0	H	0.636471	0.0188303	0.575437
0	H	0.360261	0.519536	0.943824
0	H	0.360456	0.977631	0.443332
0	H	0.636555	0.47737	0.0746366
0	H	0.602986	0.088723	0.65946
0	H	0.394284	0.589585	0.860451
0	H	0.393874	0.907819	0.359163
0	H	0.602409	0.407226	0.157798
0	H	0.508893	0.0681655	0.705925
0	H	0.488631	0.569005	0.814421
0	H	0.487833	0.928497	0.312498
0	H	0.508041	0.427783	0.203776
0	H	0.354257	0.0585039	0.873675
0	H	0.643357	0.559004	0.646897
0	H	0.642212	0.938087	0.144677
0	H	0.35353	0.437712	0.371512
0	H	0.263673	0.126706	0.855434
0	H	0.734378	0.626772	0.665351
0	H	0.732612	0.869723	0.162766
0	H	0.262539	0.369891	0.353019
0	H	0.199761	0.157364	0.724043
0	H	0.798678	0.656859	0.796888
0	H	0.796591	0.838987	0.29411
0	H	0.198255	0.339847	0.221478
0	H	0.225072	0.121829	0.606888
0	H	0.77324	0.621266	0.913926
0	H	0.771521	0.87464	0.411352
0	H	0.223637	0.375542	0.104451
0	H	0.309193	0.771575	0.651796
0	H	0.687807	0.272464	0.868111
0	H	0.687665	0.225064	0.367172
0	H	0.309385	0.724496	0.150998
0	H	0.33778	0.726549	0.592405
0	H	0.659384	0.227273	0.927533
0	H	0.659067	0.270045	0.426611
0	H	0.337427	0.7696	0.0911199
0	H	0.412631	0.765958	0.758217
0	H	0.584606	0.266876	0.761815
0	H	0.58417	0.230666	0.260798
0	H	0.412969	0.730264	0.256702
0	H	0.449413	0.728641	0.698026
0	H	0.547385	0.230116	0.822027
0	H	0.547441	0.267992	0.321032
0	H	0.449671	0.767145	0.196038
0	H	0.334981	0.682503	0.746502
0	H	0.661171	0.182917	0.773159
0	H	0.661879	0.314128	0.27255
0	H	0.336134	0.814026	0.245705
0	H	0.416066	0.663706	0.789751
0	H	0.579913	0.164192	0.731078
0	H	0.580798	0.332857	0.229181
0	H	0.417384	0.832955	0.287358
0	H	0.377598	0.645082	0.69201
0	H	0.619089	0.146103	0.828834
0	H	0.61916	0.351559	0.326924
0	H	0.377821	0.850938	0.189656
0	H	0.352201	0.907523	0.734933
0	H	0.646384	0.408747	0.787006
0	H	0.644423	0.0892405	0.283599
0	H	0.350256	0.588044	0.231279
0	H	0.328379	0.836319	0.721017
0	H	0.670394	0.337573	0.801056
0	H	0.668314	0.160411	0.297657
0	H	0.326361	0.659274	0.217405
0	H	0.275785	0.931684	0.600505
0	H	0.721192	0.432519	0.922824
0	H	0.720965	0.0649145	0.417942
0	H	0.275618	0.564492	0.0953643
0	H	0.249841	0.859916	0.590752
0	H	0.747639	0.36088	0.932022
0	H	0.747064	0.136646	0.427668
0	H	0.249303	0.636165	0.0861846
0	H	0.213935	0.871139	0.712266
0	H	0.784866	0.373562	0.811668
0	H	0.782505	0.125282	0.305746
0	H	0.211884	0.623388	0.206508
0	H	0.174934	0.919241	0.63819
0	H	0.82295	0.421285	0.886719
0	H	0.82171	0.0773057	0.379902
0	H	0.173646	0.576032	0.131062
0	H	0.237759	0.943487	0.717909
0	H	0.760519	0.445735	0.806648
0	H	0.758723	0.0529379	0.300459
0	H	0.235841	0.551118	0.211043
0	H	0.267095	0.692064	0.322196
0	H	0.73024	0.192647	0.196919
0	H	0.730137	0.304386	0.696713
0	H	0.266427	0.803994	0.82163
0	H	0.189271	0.746525	0.217879
0	H	0.809196	0.247052	0.300112
0	H	0.80808	0.249896	0.80087
0	H	0.18753	0.749496	0.718465
0	H	0.186974	0.852431	0.223602
0	H	0.812145	0.352958	0.293731
0	H	0.810262	0.143973	0.795158
0	H	0.184687	0.643614	0.724955
0	H	0.262814	0.903851	0.333659
0	H	0.73569	0.404323	0.184155
0	H	0.734269	0.0925948	0.685215
0	H	0.261192	0.592321	0.834568
0	H	0.340827	0.849752	0.438213
0	H	0.656622	0.350236	0.0806721
0	H	0.65617	0.146723	0.580786
0	H	0.340215	0.646486	0.938
0	H	0.536995	0.905339	0.76033
0	H	0.459887	0.406621	0.759806
0	H	0.459704	0.0912913	0.258261
0	H	0.537156	0.590028	0.258925
0	H	0.608464	0.858321	0.87718
0	H	0.38866	0.359237	0.643126
0	H	0.388225	0.138373	0.141493
0	H	0.608357	0.637284	0.375766
0	H	0.59096	0.872728	0.00607679
0	H	0.406848	0.372685	0.514483
0	H	0.405841	0.124254	0.0126062
0	H	0.589858	0.623921	0.504254
0	H	0.50318	0.935865	0.0181203
0	H	0.494905	0.435411	0.502346
0	H	0.493725	0.0613176	0.000461694
0	H	0.501503	0.56144	0.516091
0	H	0.431057	0.982666	0.901482
0	H	0.566702	0.4828	0.618811
0	H	0.565764	0.0142849	0.117007
0	H	0.429805	0.51413	0.399491
0	H	0.94939	0.486072	0.674657
0	H	0.0458479	0.985628	0.844454
0	H	0.0475099	0.510765	0.344075
0	H	0.951342	0.0109234	0.174191
0	H	0.0504014	0.471524	0.63996
0	H	0.944902	0.972144	0.879595
0	H	0.946492	0.525298	0.378771
0	H	0.0523427	0.0242297	0.139095
0	H	0.149814	0.522127	0.710717
0	H	0.846106	0.0239401	0.809617
0	H	0.847106	0.474635	0.308071
0	H	0.151043	0.972359	0.209181
0	H	0.150869	0.589517	0.81815
0	H	0.845588	0.0914257	0.702519
0	H	0.846073	0.407227	0.200688
0	H	0.151407	0.904896	0.316259
0	H	0.0349436	0.548832	0.0102679
0	H	0.961309	0.0488653	0.509236
0	H	0.962057	0.447993	0.00852461
0	H	0.0357036	0.947706	0.509769
0	H	0.0129186	0.514576	0.130383
0	H	0.982917	0.0147424	0.388844
0	H	0.984005	0.48214	0.888314
0	H	0.013913	0.981892	0.630041
0	H	0.929443	0.561494	0.177004
0	H	0.066516	0.0614456	0.342223
0	H	0.0673375	0.43508	0.841582
0	H	0.930029	0.935365	0.676322
0	H	0.867709	0.643473	0.105961
0	H	0.128616	0.143172	0.413377
0	H	0.12902	0.353076	0.912633
0	H	0.867908	0.853698	0.605043
0	H	0.790079	0.652396	0.0564777
0	H	0.205725	0.152851	0.461384
0	H	0.206764	0.344204	0.962182
0	H	0.790861	0.843982	0.557008
0	H	0.703051	0.681582	0.110557
0	H	0.292051	0.182547	0.40639
0	H	0.293663	0.314884	0.907936
0	H	0.704474	0.814282	0.611919
0	H	0.656908	0.778568	0.0882574
0	H	0.338064	0.279583	0.428885
0	H	0.339654	0.217847	0.930176
0	H	0.65864	0.717181	0.58963
0	H	0.694494	0.847693	0.00580037
0	H	0.300965	0.348299	0.512294
0	H	0.302044	0.148782	0.0126924
0	H	0.695885	0.648422	0.506408
0	H	0.857903	0.0505573	0.00523823
0	H	0.138454	0.55077	0.514432
0	H	0.138438	0.946142	0.0131139
0	H	0.85831	0.446016	0.504271
0	H	0.785444	0.121947	0.920351
0	H	0.210883	0.621987	0.599742
0	H	0.210851	0.874659	0.0978755
0	H	0.78594	0.374775	0.41894
0	H	0.694846	0.090893	0.808915
0	H	0.301347	0.590693	0.711231
0	H	0.301521	0.905577	0.209275
0	H	0.695519	0.406041	0.3074
0	H	0.672277	0.988128	0.780296
0	H	0.323881	0.487913	0.739343
0	H	0.324239	0.00832747	0.238025
0	H	0.67295	0.508803	0.279246
0	H	0.99194	0.716788	0.808807
0	H	0.00485899	0.216916	0.711057
0	H	0.00480815	0.279919	0.209817
0	H	0.991816	0.779949	0.307433
0	H	0.957261	0.783481	0.778864
0	H	0.0400367	0.283395	0.741128
0	H	0.0394913	0.213237	0.239772
0	H	0.956666	0.713447	0.277402
0	H	0.855885	0.737474	0.697681
0	H	0.141453	0.236489	0.821491
0	H	0.140777	0.259199	0.321148
0	H	0.855128	0.760368	0.197251
0	H	0.885582	0.669074	0.732356
0	H	0.110469	0.16838	0.787259
0	H	0.111197	0.327617	0.286394
0	H	0.886226	0.828466	0.231339
0	H	0.944618	0.748357	0.635397
0	H	0.0534775	0.24915	0.884634
0	H	0.0520435	0.248403	0.383307
0	H	0.942988	0.747536	0.133913
0	H	0.898803	0.686496	0.602096
0	H	0.0983285	0.186764	0.917869
0	H	0.0976334	0.310412	0.416471
0	H	0.898028	0.80984	0.100556
0	H	0.974923	0.680473	0.670984
0	H	0.0218771	0.181542	0.849513
0	H	0.0215517	0.316165	0.347422
0	H	0.974553	0.815222	0.168734
0	H	0.868306	0.876724	0.855433
0	H	0.128044	0.37657	0.663697
0	H	0.128247	0.119945	0.163093
0	H	0.86874	0.620225	0.354923
0	H	0.923341	0.846587	0.813136
0	H	0.0733156	0.346397	0.706374
0	H	0.073255	0.150129	0.205409
0	H	0.923446	0.650412	0.312224
0	H	0.780069	0.819976	0.743693
0	H	0.216539	0.319603	0.775428
0	H	0.216559	0.176581	0.274928
0	H	0.7802	0.677107	0.243174
0	H	0.841368	0.814444	0.699345
0	H	0.155408	0.314882	0.82017
0	H	0.155235	0.1821	0.319262
0	H	0.841319	0.68186	0.19841
0	H	0.788645	0.926664	0.747204
0	H	0.208603	0.42638	0.771029
0	H	0.207685	0.0698377	0.271117
0	H	0.788054	0.570395	0.247514
0	H	0.776061	0.902005	0.65153
0	H	0.221445	0.402147	0.866942
0	H	0.220627	0.0944759	0.366865
0	H	0.775519	0.594551	0.151628
0	H	0.853282	0.924112	0.707786
0	H	0.144228	0.424493	0.810953
0	H	0.143264	0.0725178	0.310882
0	H	0.852625	0.572196	0.207939
0	H	0.155556	0.676384	0.900043
0	H	0.842056	0.178502	0.621216
0	H	0.841471	0.320342	0.118937
0	H	0.154963	0.818308	0.397933
0	H	0.233322	0.747946	0.974467
0	H	0.764567	0.250072	0.546358
0	H	0.763688	0.248771	0.0446144
0	H	0.232288	0.746533	0.472579
0	H	0.207985	0.80584	0.0771593
0	H	0.789302	0.30623	0.44178
0	H	0.788873	0.190943	0.941767
0	H	0.207195	0.689962	0.576586
0	H	0.105659	0.789624	0.107733
0	H	0.890766	0.288377	0.40992
0	H	0.89105	0.20728	0.910899
0	H	0.105517	0.707565	0.608043
0	H	0.0280471	0.717569	0.0345607
0	H	0.968143	0.216341	0.483539
0	H	0.968706	0.279337	0.983997
0	H	0.0282801	0.77977	0.534601
0	H	0.703773	0.733228	0.855234
0	H	0.292932	0.233366	0.663405
0	H	0.292943	0.263296	0.163743
0	H	0.703603	0.763333	0.355361
0	H	0.620446	0.684291	0.750628
0	H	0.376966	0.184709	0.767575
0	H	0.37637	0.312023	0.2685
0	H	0.619488	0.811968	0.251252
0	H	0.556427	0.738849	0.634959
0	H	0.441285	0.239533	0.882847
0	H	0.4404	0.257202	0.383929
0	H	0.555355	0.757207	0.135835
0	H	0.578333	0.84171	0.622804
0	H	0.419006	0.342281	0.895126
0	H	0.418462	0.154309	0.395654
0	H	0.577843	0.654525	0.123386
0	H	0.660477	0.891474	0.727742
0	H	0.336036	0.391711	0.790733
0	H	0.336201	0.104776	0.290577
0	H	0.660824	0.605084	0.227746
