#******************************************
#
# CIF file created by Zeo++
# Zeo++ is an open source package to
# analyze microporous materials
#
#*******************************************

_cell_length_a		14.0226(0)
_cell_length_b		14.3049(0)
_cell_length_c		51.2259(0)
_cell_angle_alpha		90(0)
_cell_angle_beta		90(0)
_cell_angle_gamma		120.752(0)

_symmetry_space_group_name_H-M		'P1'
_symmetry_Int_Tables_number		1
_symmetry_cell_setting		Monoclinic

loop_
_symmetry_equiv_pos_as_xyz
'+x,+y,+z'

loop_
_atom_site_label
_atom_site_type_symbol
_atom_site_fract_x
_atom_site_fract_y
_atom_site_fract_z
0	O	0.395001	0.748618	0.392689
0	O	0.349847	0.618639	0.0633085
0	O	0.373668	0.692168	0.786574
0	O	0.433766	0.690521	0.35499
0	O	0.305703	0.635666	0.0221612
0	O	0.318681	0.570231	0.753874
0	O	0.0973004	0.669864	0.396477
0	O	0.406056	0.413082	0.0611811
0	O	0.632875	0.970585	0.743268
0	O	0.0857251	0.489858	0.464158
0	O	0.558981	0.607712	0.131796
0	O	0.453507	0.0109813	0.805513
0	O	0.283211	0.453343	0.386014
0	O	0.605943	0.822939	0.0527251
0	O	0.240882	0.79715	0.726334
0	O	0.99286	0.242427	0.384983
0	O	0.811056	0.751493	0.0556319
0	O	0.316409	0.0780886	0.719182
0	O	0.0535677	0.10361	0.436652
0	O	0.961679	0.948265	0.105462
0	O	0.113402	0.0286957	0.768637
0	O	0.111595	0.984122	0.363287
0	O	0.0773317	0.132167	0.030531
0	O	0.931359	0.955033	0.69699
0	O	0.818495	0.753909	0.387417
0	O	0.308734	0.0566698	0.0540585
0	O	0.990694	0.24267	0.715075
0	O	0.778493	0.577865	0.391933
0	O	0.487921	0.198279	0.0585235
0	O	0.849719	0.275114	0.72413
0	N	0.17136	0.570095	0.383209
0	N	0.519569	0.589077	0.0495384
0	N	0.447561	0.861371	0.751107
0	H	0.181715	0.503556	0.385098
0	H	0.586475	0.665726	0.0535758
0	H	0.369935	0.85447	0.75131
0	N	0.0411263	0.413242	0.42375
0	N	0.653094	0.620258	0.0944881
0	N	0.430433	0.0439477	0.763093
0	H	0.0197419	0.346666	0.411915
0	H	0.724358	0.662538	0.0833348
0	H	0.384939	0.0576571	0.749311
0	N	0.235955	0.325735	0.417847
0	N	0.735989	0.913842	0.0843968
0	N	0.140576	0.837241	0.754165
0	H	0.195951	0.24509	0.423134
0	H	0.818296	0.95315	0.0896134
0	H	0.0990819	0.878096	0.75737
0	N	0.0992129	0.166293	0.378705
0	N	0.897618	0.931374	0.0457839
0	N	0.131735	0.968607	0.711637
0	H	0.105224	0.0970422	0.37749
0	H	0.97071	0.00624733	0.0445288
0	H	0.0541295	0.960383	0.709569
0	N	0.932539	0.977718	0.407776
0	N	0.0869914	0.956516	0.0759306
0	N	0.100685	0.133958	0.737236
0	H	0.899256	0.900864	0.399521
0	H	0.165666	0.000343933	0.0676532
0	H	0.057428	0.167007	0.728576
0	N	0.106004	0.876	0.39693
0	N	0.194986	0.221928	0.0645687
0	N	0.810975	0.927958	0.73031
0	H	0.0901973	0.8	0.402636
0	H	0.274783	0.280105	0.0700752
0	H	0.747553	0.93839	0.737253
0	N	0.930016	0.691999	0.369268
0	N	0.373021	0.226731	0.0342816
0	N	0.804399	0.113401	0.70727
0	H	0.95991	0.641557	0.374082
0	H	0.429785	0.308067	0.0374106
0	H	0.726615	0.0832281	0.715582
0	C	0.362167	0.686624	0.443006
0	C	0.379039	0.664292	0.114691
0	C	0.420458	0.765124	0.833487
0	H	0.294566	0.668204	0.429454
0	H	0.405127	0.611943	0.105435
0	H	0.458329	0.814711	0.816015
0	C	0.339309	0.657571	0.469318
0	C	0.40753	0.695704	0.140726
0	C	0.449262	0.813157	0.858132
0	H	0.253005	0.615508	0.476108
0	H	0.455548	0.667048	0.15133
0	H	0.511282	0.899374	0.859945
0	C	0.425869	0.681953	0.486669
0	C	0.375166	0.762737	0.152731
0	C	0.397116	0.750138	0.880208
0	H	0.408313	0.660005	0.507182
0	H	0.396687	0.787054	0.172996
0	H	0.417105	0.787527	0.899594
0	C	0.535446	0.735073	0.477623
0	C	0.314381	0.798717	0.138653
0	C	0.319135	0.63954	0.877835
0	H	0.602866	0.754587	0.491295
0	H	0.289042	0.850816	0.148165
0	H	0.27903	0.590926	0.895306
0	C	0.558607	0.763822	0.451317
0	C	0.285713	0.767664	0.112649
0	C	0.291242	0.590158	0.853318
0	H	0.644137	0.80503	0.444501
0	H	0.238175	0.795937	0.101908
0	H	0.230756	0.502945	0.85181
0	C	0.471666	0.740116	0.433893
0	C	0.317797	0.69965	0.1006
0	C	0.341722	0.653896	0.831158
0	C	0.498445	0.774613	0.405752
0	C	0.281954	0.663096	0.0729694
0	C	0.310293	0.601783	0.804743
0	H	0.536045	0.733042	0.395546
0	H	0.294001	0.730188	0.0599389
0	H	0.221313	0.566275	0.800126
0	H	0.551601	0.863933	0.40383
0	H	0.194725	0.594825	0.0720437
0	H	0.334408	0.540062	0.801606
0	C	0.367172	0.694247	0.369225
0	C	0.361727	0.616923	0.0370306
0	C	0.371181	0.664295	0.760786
0	C	0.243771	0.655062	0.3642
0	C	0.444878	0.583117	0.0284561
0	C	0.446744	0.761609	0.743195
0	H	0.23225	0.727737	0.366555
0	H	0.393505	0.495381	0.0212578
0	H	0.534395	0.776078	0.745614
0	C	0.21285	0.610996	0.336473
0	C	0.515332	0.658002	0.00630898
0	C	0.409951	0.732607	0.714819
0	H	0.233821	0.547306	0.332523
0	H	0.568228	0.742653	0.0134276
0	H	0.326076	0.720312	0.711686
0	H	0.257915	0.674329	0.321744
0	H	0.46468	0.662224	0.990385
0	H	0.406973	0.657325	0.708698
0	H	0.123813	0.575053	0.332807
0	H	0.569678	0.631297	0.997929
0	H	0.465668	0.798003	0.701512
0	C	0.0966779	0.583256	0.397889
0	C	0.492903	0.500541	0.0650219
0	C	0.54282	0.962047	0.748756
0	C	0.00695193	0.489464	0.41455
0	C	0.57416	0.507694	0.0863375
0	C	0.540955	0.0669224	0.754909
0	H	0.991985	0.527876	0.432243
0	H	0.520228	0.461025	0.103553
0	H	0.601351	0.106869	0.771599
0	C	0.901182	0.430526	0.398205
0	C	0.63679	0.453806	0.0761859
0	C	0.579104	0.141307	0.731077
0	H	0.91359	0.398223	0.379881
0	H	0.687369	0.494941	0.0589143
0	H	0.524905	0.103327	0.71407
0	H	0.867603	0.483522	0.39365
0	H	0.579335	0.368434	0.0705794
0	H	0.664887	0.166677	0.725488
0	H	0.835754	0.360444	0.408886
0	H	0.692856	0.454564	0.0912549
0	H	0.577953	0.216361	0.734988
0	C	0.069803	0.414197	0.44997
0	C	0.642293	0.660545	0.118417
0	C	0.395163	0.0191191	0.789004
0	C	0.080526	0.318053	0.458977
0	C	0.741111	0.770925	0.12619
0	C	0.280191	0.00281147	0.793596
0	H	0.0509312	0.252802	0.443611
0	H	0.80548	0.805864	0.110245
0	H	0.247841	0.0202404	0.775155
0	C	0.00330507	0.268119	0.482775
0	C	0.795549	0.750351	0.149908
0	C	0.293085	0.0893043	0.813369
0	H	0.0186545	0.207394	0.492351
0	H	0.858909	0.829534	0.158438
0	H	0.209798	0.0762483	0.817914
0	H	0.0226303	0.331987	0.497617
0	H	0.73281	0.706792	0.165459
0	H	0.32853	0.0808242	0.83193
0	C	0.881484	0.21345	0.47473
0	C	0.850865	0.686247	0.142064
0	C	0.365811	0.203779	0.802232
0	H	0.859037	0.147306	0.460753
0	H	0.916458	0.730583	0.127557
0	H	0.335431	0.211682	0.783098
0	H	0.861732	0.271085	0.465776
0	H	0.791435	0.606744	0.133771
0	H	0.452127	0.224429	0.799746
0	H	0.826615	0.177697	0.491851
0	H	0.889788	0.671733	0.159103
0	H	0.36604	0.2653	0.81503
0	C	0.204311	0.359635	0.464562
0	C	0.700897	0.851598	0.131383
0	C	0.19958	0.882928	0.801297
0	H	0.234741	0.428143	0.478969
0	H	0.631231	0.813095	0.145887
0	H	0.239961	0.860608	0.817071
0	C	0.222021	0.27088	0.476444
0	C	0.793	0.959992	0.142851
0	C	0.088289	0.86421	0.811752
0	H	0.173419	0.239465	0.49468
0	H	0.826675	0.945531	0.160979
0	H	0.102967	0.914203	0.829542
0	H	0.188503	0.19968	0.463093
0	H	0.864375	0.998231	0.129104
0	H	0.0505601	0.893786	0.797273
0	C	0.345175	0.31481	0.482125
0	C	0.749492	0.036708	0.148534
0	C	0.00769413	0.744277	0.818378
0	H	0.356286	0.249106	0.490105
0	H	0.817265	0.114622	0.156408
0	H	0.927602	0.733693	0.824988
0	H	0.374301	0.377756	0.49758
0	H	0.685438	0.00197105	0.164069
0	H	0.0401133	0.719754	0.835153
0	C	0.416929	0.363008	0.457605
0	C	0.701326	0.0581117	0.123878
0	C	0.988654	0.669389	0.795066
0	H	0.505597	0.398378	0.462689
0	H	0.665845	0.109578	0.128793
0	H	0.933796	0.583374	0.800855
0	H	0.397149	0.297554	0.443271
0	H	0.768657	0.105152	0.109614
0	H	0.944661	0.685106	0.779285
0	C	0.398702	0.449891	0.445122
0	C	0.612255	0.951771	0.111391
0	C	0.0990622	0.686574	0.784774
0	H	0.446951	0.48043	0.426623
0	H	0.582505	0.968421	0.0927335
0	H	0.0848264	0.634742	0.767429
0	H	0.430662	0.521954	0.458091
0	H	0.538249	0.911102	0.124263
0	H	0.138248	0.660754	0.79969
0	C	0.275305	0.407544	0.439382
0	C	0.652858	0.871767	0.106017
0	C	0.181242	0.806528	0.777746
0	H	0.268211	0.478483	0.432379
0	H	0.579437	0.792354	0.0992847
0	H	0.263289	0.814015	0.772638
0	C	0.241225	0.356563	0.392264
0	C	0.70394	0.882358	0.0589549
0	C	0.179116	0.833845	0.729638
0	C	0.197718	0.269975	0.370297
0	C	0.794011	0.926447	0.0373338
0	C	0.140367	0.871812	0.705646
0	H	0.172613	0.305311	0.35376
0	H	0.757733	0.867313	0.0205107
0	H	0.206722	0.894516	0.690362
0	C	0.289408	0.250391	0.361317
0	C	0.81823	0.0384583	0.0289395
0	C	0.0293503	0.779512	0.695806
0	H	0.315694	0.214501	0.376519
0	H	0.83602	0.0937439	0.0454548
0	H	0.96133	0.757667	0.709604
0	H	0.363479	0.326182	0.354814
0	H	0.747988	0.0335267	0.0180923
0	H	0.0321082	0.705372	0.691855
0	H	0.263867	0.195448	0.34416
0	H	0.891323	0.0789509	0.0158622
0	H	0.00506869	0.800645	0.677189
0	C	0.00164764	0.160878	0.38558
0	C	0.897782	0.84078	0.0546746
0	C	0.223285	0.0669699	0.718269
0	C	0.901887	0.050999	0.394661
0	C	0.00942021	0.852041	0.0628679
0	C	0.208707	0.16454	0.72494
0	H	0.856543	0.0734393	0.409254
0	H	0.987242	0.784086	0.0772097
0	H	0.277088	0.215188	0.739319
0	C	0.827082	0.992395	0.371423
0	C	0.065617	0.838375	0.038873
0	C	0.223359	0.230074	0.700299
0	H	0.86809	0.97093	0.356147
0	H	0.0817349	0.898485	0.0234577
0	H	0.154955	0.187065	0.686219
0	H	0.798271	0.0418525	0.361635
0	H	0.0146568	0.75802	0.0298217
0	H	0.300221	0.251275	0.689816
0	H	0.753118	0.915382	0.377197
0	H	0.146716	0.848113	0.0437364
0	H	0.226531	0.306889	0.704687
0	C	0.00234311	0.00861046	0.429297
0	C	0.0587319	0.993163	0.0979978
0	C	0.0650761	0.0738708	0.76002
0	C	0.00898289	0.917642	0.443379
0	C	0.153572	0.0909512	0.112013
0	C	0.961585	0.0611355	0.773426
0	H	0.953277	0.837465	0.433768
0	H	0.234997	0.115685	0.10252
0	H	0.924036	0.100392	0.761853
0	C	0.968219	0.912892	0.471607
0	C	0.156449	0.0570105	0.140446
0	C	0.996622	0.117194	0.800327
0	H	0.985523	0.858036	0.483379
0	H	0.20843	0.13079	0.152412
0	H	0.92237	0.107961	0.810483
0	H	0.0169798	0.994599	0.480755
0	H	0.071669	0.0187185	0.148923
0	H	0.0276939	0.0745066	0.812769
0	C	0.844817	0.873904	0.472976
0	C	0.200617	0.979908	0.142752
0	C	0.0850209	0.237465	0.798529
0	H	0.793221	0.788025	0.467569
0	H	0.289643	0.0206753	0.138596
0	H	0.0610199	0.281932	0.785151
0	H	0.822417	0.921158	0.460182
0	H	0.158156	0.910226	0.129525
0	H	0.16478	0.249977	0.791618
0	H	0.820785	0.882675	0.493009
0	H	0.188256	0.946654	0.162847
0	H	0.100368	0.276511	0.817818
0	C	0.129621	0.94053	0.442794
0	C	0.132973	0.187444	0.110946
0	C	0.877688	0.937461	0.775974
0	H	0.182503	0.0145609	0.454907
0	H	0.0578363	0.16566	0.123084
0	H	0.917505	0.9023	0.788556
0	C	0.136106	0.844349	0.454284
0	C	0.232161	0.291307	0.122382
0	C	0.76828	0.91274	0.788884
0	H	0.102019	0.82634	0.474361
0	H	0.250422	0.276165	0.142474
0	H	0.78487	0.952327	0.808386
0	H	0.0834446	0.76935	0.442802
0	H	0.308417	0.315486	0.110958
0	H	0.727261	0.947963	0.777255
0	C	0.256059	0.868397	0.454398
0	C	0.208715	0.384838	0.122503
0	C	0.689788	0.789675	0.792088
0	H	0.258233	0.797676	0.462567
0	H	0.281021	0.459126	0.130749
0	H	0.610072	0.773939	0.800591
0	H	0.308095	0.937635	0.467506
0	H	0.138071	0.365411	0.135557
0	H	0.725004	0.757009	0.806281
0	C	0.305001	0.892584	0.426763
0	C	0.184639	0.408036	0.0948212
0	C	0.667744	0.728837	0.766096
0	H	0.392295	0.912073	0.427193
0	H	0.164042	0.473196	0.0954887
0	H	0.61675	0.640005	0.769445
0	H	0.260256	0.818288	0.414449
0	H	0.261005	0.440925	0.0826698
0	H	0.617371	0.749931	0.753164
0	C	0.298102	0.986487	0.414396
0	C	0.089373	0.30632	0.0819928
0	C	0.775155	0.756231	0.751978
0	H	0.328939	0.999303	0.394061
0	H	0.0790982	0.323845	0.0614409
0	H	0.755792	0.717226	0.732496
0	H	0.353937	0.0630104	0.424911
0	H	0.0103734	0.284146	0.091932
0	H	0.818234	0.72156	0.762924
0	C	0.179215	0.96711	0.414751
0	C	0.105612	0.207514	0.0827918
0	C	0.855369	0.87971	0.748967
0	H	0.182442	0.042851	0.407549
0	H	0.0257778	0.13419	0.0761784
0	H	0.935593	0.892132	0.740792
0	C	0.0800189	0.89255	0.372257
0	C	0.172687	0.184122	0.0393503
0	C	0.860255	0.970895	0.706705
0	C	0.00681278	0.792528	0.354872
0	C	0.26867	0.20192	0.0211538
0	C	0.822883	0.0389284	0.690977
0	H	0.955765	0.816053	0.342446
0	H	0.236268	0.122936	0.0100749
0	H	0.893235	0.0890737	0.676931
0	C	0.0834494	0.771573	0.337936
0	C	0.29314	0.294753	0.00252194
0	C	0.717767	0.962889	0.675767
0	H	0.143191	0.761253	0.349696
0	H	0.33029	0.374057	0.0125875
0	H	0.651741	0.901236	0.688147
0	H	0.129708	0.83995	0.324217
0	H	0.216412	0.279948	0.992694
0	H	0.737263	0.921303	0.660328
0	H	0.0366338	0.698839	0.325724
0	H	0.349048	0.300761	0.986674
0	H	0.684367	0.00819086	0.66585
0	C	0.841006	0.682781	0.383593
0	C	0.381174	0.15101	0.0497028
0	C	0.891904	0.213159	0.715782
0	C	0.671305	0.540124	0.406522
0	C	0.525789	0.133532	0.0739938
0	C	0.923805	0.387719	0.735119
0	C	0.633339	0.419918	0.409499
0	C	0.647214	0.220524	0.0782874
0	C	0.838184	0.42256	0.73831
0	H	0.546314	0.373075	0.415743
0	H	0.697081	0.183649	0.0830122
0	H	0.876278	0.50432	0.746746
0	H	0.683471	0.406584	0.423746
0	H	0.657714	0.276359	0.0941594
0	H	0.76967	0.366609	0.751053
0	H	0.639609	0.385604	0.390801
0	H	0.682759	0.269653	0.0605343
0	H	0.801572	0.423733	0.719456
0	C	0.593972	0.558825	0.389567
0	C	0.512009	0.0404151	0.0570861
0	C	0.0135598	0.456252	0.715464
0	H	0.576952	0.516602	0.370724
0	H	0.558736	0.0693116	0.038754
0	H	0.979291	0.458841	0.696416
0	H	0.628341	0.645507	0.385073
0	H	0.424732	0.98452	0.051808
0	H	0.0698113	0.424781	0.712092
0	H	0.512818	0.529453	0.399176
0	H	0.541246	0.991395	0.0672858
0	H	0.0657486	0.540527	0.722237
0	C	0.701258	0.601816	0.432237
0	C	0.458329	0.0978436	0.0990612
0	C	0.968301	0.374507	0.761046
0	H	0.730356	0.688482	0.429107
0	H	0.370723	0.0371505	0.0951156
0	H	0.0273166	0.345863	0.758373
0	H	0.767311	0.597037	0.44247
0	H	0.460262	0.166523	0.109083
0	H	0.901396	0.315858	0.773759
0	H	0.629575	0.569577	0.445406
0	H	0.489603	0.0605311	0.112678
0	H	0.0129085	0.45213	0.771558
0	O	0.485973	0.207405	0.27919
0	O	0.846081	0.289808	0.940408
0	O	0.760998	0.578192	0.610508
0	O	0.45219	0.269355	0.316572
0	O	0.768038	0.212949	0.97908
0	O	0.856066	0.604309	0.648086
0	O	0.445193	0.949	0.281012
0	O	0.102744	0.509194	0.943428
0	O	0.539181	0.646348	0.618113
0	O	0.260586	0.939057	0.210861
0	O	0.12899	0.344242	0.873568
0	O	0.726649	0.808764	0.545427
0	O	0.232064	0.138258	0.292836
0	O	0.912283	0.105237	0.95317
0	O	0.962186	0.834678	0.624052
0	O	0.0350648	0.863809	0.290465
0	O	0.192467	0.188036	0.95378
0	O	0.877718	0.0273739	0.626552
0	O	0.87663	0.897505	0.241715
0	O	0.144766	0.986798	0.902193
0	O	0.0735258	0.190028	0.577313
0	O	0.76419	0.971894	0.31621
0	O	0.0831031	0.811798	0.975741
0	O	0.25679	0.308043	0.648793
0	O	0.549732	0.669346	0.29866
0	O	0.374037	0.893405	0.95758
0	O	0.164424	0.516327	0.631374
0	O	0.36288	0.603496	0.297466
0	O	0.457452	0.794201	0.964184
0	O	0.293004	0.698546	0.627797
0	N	0.320247	0.995215	0.293959
0	N	0.0530839	0.3416	0.958963
0	N	0.725255	0.744539	0.624583
0	H	0.247955	0.995931	0.290814
0	H	0.0500349	0.2686	0.956509
0	H	0.802173	0.811226	0.620507
0	N	0.182447	0.872895	0.250647
0	N	0.170322	0.319905	0.915218
0	N	0.744048	0.892245	0.584426
0	H	0.116792	0.84988	0.263359
0	H	0.188223	0.274212	0.927814
0	H	0.789704	0.957389	0.596828
0	N	0.0996846	0.084648	0.261099
0	N	0.956977	0.0214178	0.92172
0	N	0.0388095	0.968154	0.5931
0	H	0.0169956	0.0406525	0.256151
0	H	0.999538	0.983233	0.916552
0	H	0.0762247	0.0496472	0.588839
0	N	0.943023	0.950444	0.301718
0	N	0.0973685	0.00668997	0.961841
0	N	0.0632638	0.116576	0.634867
0	H	0.868377	0.949119	0.303944
0	H	0.0956956	0.93302	0.96275
0	H	0.138282	0.190036	0.636161
0	N	0.755991	0.784263	0.272497
0	N	0.264447	0.990038	0.932698
0	N	0.0774906	0.304209	0.608875
0	H	0.680387	0.754252	0.282087
0	H	0.29604	0.947343	0.942172
0	H	0.119132	0.380659	0.617675
0	N	0.656503	0.965545	0.281705
0	N	0.0955972	0.707983	0.943334
0	N	0.370422	0.420025	0.616575
0	H	0.577416	0.944468	0.275672
0	H	0.116352	0.650157	0.938552
0	H	0.432378	0.49705	0.611155
0	N	0.478318	0.783218	0.305382
0	N	0.275923	0.717291	0.97508
0	N	0.349871	0.591154	0.644133
0	H	0.406347	0.785391	0.305047
0	H	0.289849	0.660766	0.984412
0	H	0.42881	0.652912	0.639223
0	C	0.455285	0.19384	0.227449
0	C	0.867516	0.272458	0.889005
0	C	0.788058	0.621683	0.559232
0	H	0.436367	0.123453	0.23961
0	H	0.938516	0.320411	0.901886
0	H	0.739962	0.64456	0.571732
0	C	0.429498	0.179488	0.200837
0	C	0.884855	0.2646	0.862409
0	C	0.800922	0.648916	0.532727
0	H	0.38882	0.097166	0.192607
0	H	0.969945	0.306203	0.85488
0	H	0.762799	0.693469	0.524894
0	C	0.454202	0.268969	0.185128
0	C	0.794738	0.204013	0.84582
0	C	0.862075	0.619997	0.516612
0	H	0.434573	0.257853	0.164383
0	H	0.808282	0.198494	0.825113
0	H	0.871611	0.640645	0.49596
0	C	0.504576	0.373063	0.196153
0	C	0.686724	0.150758	0.855867
0	C	0.910955	0.56404	0.527088
0	H	0.52379	0.442792	0.18385
0	H	0.616247	0.103923	0.842817
0	H	0.958791	0.541559	0.514489
0	C	0.529894	0.387889	0.222768
0	C	0.668882	0.157864	0.882432
0	C	0.898504	0.53674	0.553548
0	H	0.56921	0.469327	0.231057
0	H	0.584407	0.116077	0.89
0	H	0.936713	0.493112	0.561491
0	C	0.504832	0.297812	0.238549
0	C	0.759588	0.219204	0.899103
0	C	0.836447	0.565292	0.569716
0	C	0.5327	0.31493	0.267138
0	C	0.73784	0.226743	0.927534
0	C	0.822712	0.53311	0.598009
0	H	0.498702	0.360487	0.2771
0	H	0.690979	0.146037	0.937152
0	H	0.903277	0.56427	0.608199
0	H	0.622956	0.355295	0.270709
0	H	0.694866	0.272443	0.930868
0	H	0.770626	0.444085	0.600745
0	C	0.443375	0.193945	0.303959
0	C	0.85067	0.271052	0.966463
0	C	0.791204	0.61751	0.635475
0	C	0.39918	0.0758771	0.312849
0	C	0.969936	0.340822	0.97676
0	C	0.722304	0.667722	0.644378
0	H	0.474416	0.0655615	0.314434
0	H	0.986154	0.427436	0.978326
0	H	0.633023	0.598293	0.646831
0	C	0.34308	0.0584616	0.339341
0	C	0.978507	0.298832	0.00347699
0	C	0.767783	0.725739	0.670357
0	H	0.269345	0.0677869	0.33828
0	H	0.974507	0.219776	0.00219459
0	H	0.851129	0.799292	0.668132
0	H	0.39813	0.117943	0.353894
0	H	0.909912	0.285687	0.0162608
0	H	0.777286	0.672986	0.684378
0	H	0.313437	0.976958	0.347037
0	H	0.0569645	0.355655	0.0131021
0	H	0.714259	0.752325	0.679091
0	C	0.352151	0.937071	0.278405
0	C	0.113248	0.429077	0.942398
0	C	0.630051	0.727554	0.612696
0	C	0.270108	0.851576	0.258787
0	C	0.20121	0.429503	0.924179
0	C	0.631543	0.810013	0.59297
0	H	0.321374	0.85809	0.241001
0	H	0.206279	0.480509	0.906502
0	H	0.582998	0.759889	0.575407
0	C	0.220158	0.738623	0.271043
0	C	0.312511	0.484138	0.938514
0	C	0.572571	0.863956	0.605385
0	H	0.174395	0.731486	0.289059
0	H	0.311336	0.437351	0.955631
0	H	0.616502	0.912344	0.622662
0	H	0.284846	0.718887	0.275372
0	H	0.335512	0.566162	0.945189
0	H	0.487392	0.80309	0.611445
0	H	0.161327	0.675226	0.257588
0	H	0.379093	0.492607	0.925638
0	H	0.56606	0.918852	0.591485
0	C	0.183852	0.915259	0.226012
0	C	0.140699	0.28655	0.8894
0	C	0.782566	0.887113	0.559659
0	C	0.0840812	0.92733	0.219991
0	C	0.125081	0.174863	0.883463
0	C	0.894812	0.984749	0.552102
0	H	0.0252528	0.900848	0.237047
0	H	0.144118	0.140039	0.901077
0	H	0.930429	0.0462405	0.56835
0	C	0.0208739	0.84988	0.197228
0	C	0.21149	0.191039	0.862654
0	C	0.87324	0.0393648	0.528789
0	H	0.953948	0.864294	0.190583
0	H	0.203657	0.110942	0.858781
0	H	0.953524	0.101691	0.520062
0	H	0.0780921	0.869198	0.180351
0	H	0.193832	0.219178	0.844124
0	H	0.828224	0.977875	0.513191
0	C	0.970259	0.730731	0.205014
0	C	0.329961	0.271093	0.871597
0	C	0.807553	0.0928061	0.537022
0	H	0.922597	0.677045	0.188566
0	H	0.390468	0.272462	0.85778
0	H	0.798282	0.136959	0.520459
0	H	0.912917	0.709896	0.221481
0	H	0.347269	0.249105	0.890781
0	H	0.849499	0.151852	0.552787
0	H	0.0335525	0.711071	0.210566
0	H	0.346037	0.354443	0.872963
0	H	0.723925	0.0332069	0.543806
0	C	0.125921	0.0482871	0.214237
0	C	0.00269806	0.0958788	0.8757
0	C	0.976755	0.9454	0.546216
0	H	0.193349	0.0771338	0.199174
0	H	0.977564	0.138559	0.861308
0	H	0.93885	0.880815	0.530768
0	C	0.0342521	0.0663523	0.203299
0	C	0.986316	0.991905	0.862656
0	C	0.0889471	0.03778	0.536011
0	H	0.999108	0.0177026	0.185276
0	H	0.0376823	0.0133108	0.844707
0	H	0.07578	0.075138	0.518463
0	H	0.963822	0.034862	0.217298
0	H	0.0175223	0.951462	0.875804
0	H	0.127325	0.10436	0.550673
0	C	0.0786236	0.186836	0.197311
0	C	0.864716	0.912735	0.855466
0	C	0.167687	0.99644	0.529478
0	H	0.139183	0.213848	0.181046
0	H	0.838041	0.94777	0.839678
0	H	0.134288	0.93914	0.5128
0	H	0.00999783	0.197585	0.190413
0	H	0.856384	0.837392	0.847221
0	H	0.248697	0.0649075	0.522943
0	C	0.134135	0.258975	0.221265
0	C	0.787985	0.88521	0.879141
0	C	0.184685	0.939416	0.552872
0	H	0.0712257	0.242065	0.236463
0	H	0.80542	0.838213	0.893557
0	H	0.231911	0.999546	0.568359
0	H	0.170654	0.345723	0.216005
0	H	0.70042	0.831771	0.873189
0	H	0.235904	0.904388	0.546987
0	C	0.224148	0.239944	0.232397
0	C	0.803396	0.989008	0.891781
0	C	0.0735331	0.849587	0.56378
0	H	0.293276	0.267306	0.21822
0	H	0.776935	0.0314461	0.878024
0	H	0.0316069	0.782437	0.549398
0	H	0.261945	0.290763	0.250165
0	H	0.748461	0.96895	0.909115
0	H	0.0869819	0.811892	0.581311
0	C	0.180019	0.119498	0.238971
0	C	0.924702	0.0683732	0.899776
0	C	0.994408	0.891092	0.570626
0	H	0.252239	0.111334	0.245442
0	H	0.930573	0.145422	0.907176
0	H	0.912618	0.818906	0.576759
0	C	0.133479	0.0942563	0.286699
0	C	0.952666	0.0494309	0.947275
0	C	0.0165896	0.932168	0.618538
0	C	0.0450196	0.0539723	0.308573
0	C	0.994189	0.00467681	0.969355
0	C	0.0663213	0.0167309	0.640819
0	H	0.0830946	0.0390536	0.326524
0	H	0.0130071	0.0602438	0.986821
0	H	0.0136766	0.977326	0.658857
0	C	0.0171729	0.142125	0.314024
0	C	0.904142	0.888757	0.97618
0	C	0.185641	0.0451486	0.64549
0	H	0.000663318	0.173873	0.296195
0	H	0.867308	0.837546	0.958872
0	H	0.236821	0.0739898	0.627808
0	H	0.0854816	0.210628	0.32456
0	H	0.837333	0.888293	0.987494
0	H	0.187767	0.974222	0.652846
0	H	0.942101	0.111194	0.326287
0	H	0.937499	0.847782	0.988205
0	H	0.226832	0.109862	0.66027
0	C	0.946381	0.862206	0.292477
0	C	0.189734	0.100149	0.953576
0	C	0.967527	0.113901	0.627819
0	C	0.83564	0.758966	0.284957
0	C	0.2922	0.0954403	0.944335
0	C	0.973258	0.222896	0.621976
0	H	0.858291	0.714501	0.270345
0	H	0.332677	0.160208	0.928826
0	H	0.901907	0.202236	0.608376
0	C	0.78256	0.68844	0.309049
0	C	0.371174	0.120487	0.967247
0	C	0.960201	0.271155	0.647347
0	H	0.770047	0.732371	0.325068
0	H	0.334629	0.0582165	0.98258
0	H	0.0182916	0.277116	0.662665
0	H	0.832452	0.655353	0.316665
0	H	0.395474	0.199417	0.9762
0	H	0.875757	0.223025	0.655204
0	H	0.699162	0.618934	0.304617
0	H	0.447687	0.1231	0.961056
0	H	0.977285	0.354866	0.644431
0	C	0.781217	0.847854	0.250274
0	C	0.198929	0.947518	0.910586
0	C	0.116329	0.283014	0.58615
0	C	0.685414	0.852018	0.237232
0	C	0.201555	0.852435	0.897809
0	C	0.214438	0.380661	0.572873
0	H	0.607038	0.804025	0.248675
0	H	0.256319	0.831218	0.909134
0	H	0.242792	0.456738	0.584429
0	C	0.667942	0.801329	0.209757
0	C	0.250987	0.888798	0.87023
0	C	0.174322	0.394522	0.545885
0	H	0.606818	0.814353	0.199027
0	H	0.253703	0.820458	0.860598
0	H	0.246979	0.452288	0.53396
0	H	0.746441	0.845696	0.198499
0	H	0.194957	0.904955	0.858227
0	H	0.135483	0.315911	0.535217
0	C	0.628082	0.680215	0.209969
0	C	0.367111	0.989172	0.870515
0	C	0.092793	0.43479	0.547913
0	H	0.616346	0.649074	0.189776
0	H	0.403496	0.00606198	0.850683
0	H	0.0716563	0.451299	0.528446
0	H	0.548647	0.63251	0.220127
0	H	0.423287	0.978615	0.883403
0	H	0.127195	0.510613	0.559116
0	H	0.6881	0.663369	0.219285
0	H	0.366529	0.0617628	0.87698
0	H	0.0151351	0.374628	0.557353
0	C	0.715177	0.972431	0.235693
0	C	0.0830992	0.751664	0.896755
0	C	0.311361	0.35874	0.57055
0	H	0.790292	0.017327	0.222928
0	H	0.0313413	0.771321	0.883783
0	H	0.28233	0.284578	0.558049
0	C	0.61924	0.980491	0.223442
0	C	0.0848597	0.653003	0.885308
0	C	0.413306	0.454285	0.557373
0	H	0.59843	0.941166	0.203964
0	H	0.126317	0.673495	0.865988
0	H	0.389582	0.472344	0.538191
0	H	0.542765	0.934786	0.235355
0	H	0.135293	0.631319	0.897846
0	H	0.44481	0.529641	0.569051
0	C	0.649221	0.0991604	0.221
0	C	0.966966	0.554702	0.88286
0	C	0.505226	0.427453	0.553702
0	H	0.578616	0.10282	0.212307
0	H	0.970024	0.484444	0.874678
0	H	0.578607	0.497071	0.544367
0	H	0.720169	0.143695	0.207497
0	H	0.918012	0.572211	0.868862
0	H	0.477174	0.358134	0.540096
0	C	0.677375	0.154387	0.247832
0	C	0.909293	0.524208	0.90953
0	C	0.539121	0.40081	0.579845
0	H	0.601962	0.116487	0.260359
0	H	0.951648	0.494163	0.922505
0	H	0.581524	0.475124	0.592146
0	H	0.700589	0.240397	0.245847
0	H	0.823184	0.455161	0.907434
0	H	0.601566	0.376616	0.576459
0	C	0.771481	0.147066	0.261008
0	C	0.909008	0.621223	0.922151
0	C	0.439258	0.309893	0.594397
0	H	0.849461	0.196184	0.249928
0	H	0.85516	0.641552	0.910638
0	H	0.407982	0.232242	0.58371
0	H	0.786679	0.182942	0.280824
0	H	0.871642	0.598516	0.941838
0	H	0.465415	0.297572	0.613859
0	C	0.747642	0.0294696	0.262872
0	C	0.0258062	0.723838	0.923986
0	C	0.342547	0.331142	0.597483
0	H	0.824532	0.0320298	0.270271
0	H	0.0164299	0.793512	0.930767
0	H	0.268914	0.254546	0.605271
0	C	0.671896	0.93939	0.306343
0	C	0.117327	0.752467	0.967758
0	C	0.319638	0.400874	0.640431
0	C	0.567337	0.86466	0.322754
0	C	0.184009	0.725691	0.987307
0	C	0.340158	0.496843	0.658304
0	H	0.592385	0.821729	0.33737
0	H	0.218858	0.793418	0.00218645
0	H	0.265355	0.463136	0.67162
0	C	0.530841	0.934928	0.336903
0	C	0.102147	0.618356	0.000541243
0	C	0.444997	0.533446	0.674391
0	H	0.506401	0.978588	0.323
0	H	0.0656841	0.549291	0.986591
0	H	0.520498	0.571459	0.662083
0	H	0.598719	0.996051	0.349084
0	H	0.033765	0.623181	0.00949925
0	H	0.441797	0.464548	0.684688
0	H	0.460257	0.887432	0.349948
0	H	0.143289	0.598357	0.0160493
0	H	0.454088	0.593227	0.689329
0	C	0.470728	0.682854	0.301117
0	C	0.369655	0.810607	0.965507
0	C	0.259284	0.593502	0.634061
0	C	0.33579	0.489677	0.290359
0	C	0.570077	0.886991	0.955813
0	C	0.210907	0.730789	0.619195
0	C	0.209677	0.42872	0.292673
0	C	0.636015	0.82915	0.954996
0	C	0.289574	0.853762	0.61803
0	H	0.171737	0.458991	0.278982
0	H	0.592702	0.75377	0.943605
0	H	0.357976	0.875646	0.604354
0	H	0.184187	0.437096	0.312495
0	H	0.651143	0.808729	0.974535
0	H	0.326907	0.885922	0.637234
0	H	0.174623	0.341582	0.288933
0	H	0.717509	0.881575	0.945855
0	H	0.245638	0.895137	0.611906
0	C	0.38902	0.451423	0.310044
0	C	0.608246	0.974097	0.976591
0	C	0.121332	0.695866	0.639735
0	H	0.360026	0.364106	0.307796
0	H	0.69629	0.037324	0.973769
0	H	0.0639212	0.725058	0.63521
0	H	0.372164	0.464479	0.330276
0	H	0.599387	0.941522	0.996331
0	H	0.155734	0.726259	0.659221
0	H	0.480077	0.495217	0.308174
0	H	0.561458	0.0166974	0.976013
0	H	0.0696292	0.606639	0.641375
0	C	0.376679	0.495803	0.262592
0	C	0.561068	0.926503	0.928957
0	C	0.166523	0.679268	0.59266
0	H	0.34953	0.413389	0.255149
0	H	0.643912	0.977908	0.920186
0	H	0.111616	0.706211	0.584565
0	H	0.46768	0.543231	0.261613
0	H	0.518927	0.973483	0.929426
0	H	0.117883	0.589964	0.59409
0	H	0.345146	0.533481	0.249233
0	H	0.513385	0.857692	0.915522
0	H	0.233328	0.700612	0.578557
