#******************************************
#
# CIF file created by Zeo++
# Zeo++ is an open source package to
# analyze microporous materials
#
#*******************************************

_cell_length_a		37.402(0)
_cell_length_b		37.4671(0)
_cell_length_c		13.3582(0)
_cell_angle_alpha		90(0)
_cell_angle_beta		90(0)
_cell_angle_gamma		90(0)

_symmetry_space_group_name_H-M		'P1'
_symmetry_Int_Tables_number		1
_symmetry_cell_setting		Monoclinic

loop_
_symmetry_equiv_pos_as_xyz
'+x,+y,+z'

loop_
_atom_site_label
_atom_site_type_symbol
_atom_site_fract_x
_atom_site_fract_y
_atom_site_fract_z
0	P	0.428422	0.472374	0.183222
0	P	0.062234	0.518341	0.682559
0	P	0.26778	0.678584	0.434481
0	P	0.223449	0.311479	0.938266
0	P	0.562873	0.518179	0.862458
0	P	0.929356	0.470887	0.356126
0	P	0.722582	0.310776	0.611167
0	P	0.768673	0.67783	0.10834
0	P	0.929037	0.971149	0.68495
0	P	0.562547	0.0176214	0.184431
0	P	0.768447	0.177349	0.934033
0	P	0.723443	0.811659	0.431789
0	P	0.061865	0.0181362	0.358881
0	P	0.428533	0.971891	0.862195
0	P	0.222863	0.812352	0.110742
0	P	0.268196	0.177888	0.613922
0	P	0.355863	0.480416	0.0567907
0	P	0.135135	0.509482	0.557535
0	P	0.258632	0.605848	0.309212
0	P	0.232276	0.384194	0.812679
0	P	0.635462	0.509489	0.988621
0	P	0.856696	0.479998	0.482403
0	P	0.731973	0.383601	0.736024
0	P	0.759603	0.605042	0.233429
0	P	0.856336	0.980042	0.558996
0	P	0.635068	0.00894065	0.0577231
0	P	0.759432	0.104597	0.80877
0	P	0.732508	0.884388	0.306596
0	P	0.134587	0.00922242	0.484712
0	P	0.355902	0.980402	0.988378
0	P	0.231784	0.885177	0.235776
0	P	0.258894	0.105026	0.73844
0	N	0.400741	0.450061	0.25263
0	N	0.0895214	0.540568	0.75341
0	N	0.289925	0.651148	0.504987
0	N	0.200863	0.338731	0.0082595
0	N	0.590569	0.540221	0.792401
0	N	0.902032	0.44839	0.286083
0	N	0.700638	0.338192	0.540121
0	N	0.790715	0.650485	0.0372656
0	N	0.901723	0.948733	0.755243
0	N	0.590192	0.0397162	0.254502
0	N	0.790546	0.149977	0.00488892
0	N	0.701499	0.83914	0.50266
0	N	0.0891813	0.0404957	0.288454
0	N	0.400936	0.949805	0.791957
0	N	0.200652	0.839617	0.0398434
0	N	0.290039	0.150443	0.542712
0	N	0.402347	0.490856	0.0884722
0	N	0.0884191	0.499808	0.588146
0	N	0.248768	0.652383	0.340754
0	N	0.242422	0.337757	0.844588
0	N	0.588862	0.499511	0.957114
0	N	0.903342	0.489574	0.450733
0	N	0.741596	0.336994	0.704844
0	N	0.749661	0.651558	0.201919
0	N	0.902977	0.989725	0.590337
0	N	0.588499	0.999048	0.0895758
0	N	0.749554	0.151135	0.840171
0	N	0.742378	0.837838	0.337919
0	N	0.0879402	0.999548	0.453449
0	N	0.402467	0.990439	0.956843
0	N	0.241808	0.838671	0.204313
0	N	0.249189	0.151646	0.707528
0	C	0.413114	0.429804	0.335359
0	C	0.0765226	0.560697	0.835748
0	C	0.310393	0.663742	0.587146
0	C	0.180299	0.326025	0.0901013
0	C	0.578071	0.560493	0.709819
0	C	0.915045	0.428231	0.203803
0	C	0.680147	0.3256	0.458013
0	C	0.811191	0.663151	0.955192
0	C	0.914782	0.928537	0.837386
0	C	0.577585	0.0600036	0.336943
0	C	0.810995	0.162607	0.0870421
0	C	0.681091	0.826571	0.584959
0	C	0.0761461	0.0607074	0.206319
0	C	0.413562	0.929539	0.709509
0	C	0.18027	0.826858	0.95772
0	C	0.310483	0.163097	0.460586
0	C	0.419465	0.445758	0.430515
0	C	0.0700463	0.544654	0.930719
0	C	0.294653	0.669826	0.682758
0	C	0.195883	0.319798	0.185845
0	C	0.571626	0.544546	0.614721
0	C	0.921321	0.444193	0.108609
0	C	0.695882	0.319361	0.362452
0	C	0.795462	0.669605	0.859763
0	C	0.921122	0.944469	0.932568
0	C	0.571241	0.0440991	0.432134
0	C	0.795218	0.169025	0.182436
0	C	0.696944	0.820205	0.680285
0	C	0.069861	0.0447973	0.111088
0	C	0.419962	0.945467	0.614368
0	C	0.196087	0.820464	0.862371
0	C	0.294681	0.169449	0.365205
0	C	0.437243	0.425454	0.503238
0	C	0.0517748	0.564725	0.00305098
0	C	0.314944	0.687949	0.754861
0	C	0.175467	0.301677	0.257669
0	C	0.553726	0.564832	0.542181
0	C	0.939554	0.424112	0.0362363
0	C	0.675537	0.301283	0.290398
0	C	0.815824	0.687744	0.787842
0	C	0.939354	0.924341	0.00484378
0	C	0.553276	0.0643691	0.504592
0	C	0.815606	0.18703	0.254561
0	C	0.676642	0.802119	0.752426
0	C	0.05168	0.0649417	0.0387535
0	C	0.437976	0.925224	0.541952
0	C	0.17582	0.802271	0.790358
0	C	0.31499	0.187629	0.293263
0	C	0.446179	0.389614	0.488869
0	C	0.0424107	0.60045	0.988482
0	C	0.350639	0.697496	0.739577
0	C	0.139735	0.292328	0.242086
0	C	0.544696	0.60064	0.556694
0	C	0.949093	0.388438	0.0509623
0	C	0.639784	0.291944	0.305609
0	C	0.851616	0.696943	0.803079
0	C	0.948815	0.888657	0.990005
0	C	0.544097	0.100124	0.489873
0	C	0.851436	0.196123	0.23958
0	C	0.640839	0.792904	0.737548
0	C	0.0421781	0.100612	0.0536371
0	C	0.447138	0.889459	0.556656
0	C	0.140048	0.792959	0.805376
0	C	0.350734	0.197002	0.308459
0	C	0.434771	0.373261	0.40044
0	C	0.0538785	0.616974	0.900336
0	C	0.366917	0.686227	0.650827
0	C	0.123625	0.303675	0.153202
0	C	0.556233	0.617013	0.644991
0	C	0.937886	0.371989	0.139464
0	C	0.623523	0.303345	0.394233
0	C	0.867853	0.685341	0.891525
0	C	0.937568	0.872243	0.901492
0	C	0.555529	0.116486	0.40145
0	C	0.867676	0.184619	0.151048
0	C	0.624492	0.804447	0.649184
0	C	0.0533555	0.117011	0.14225
0	C	0.43564	0.873063	0.644962
0	C	0.123729	0.804471	0.893797
0	C	0.36705	0.18547	0.396893
0	C	0.417304	0.392054	0.32436
0	C	0.0718619	0.598399	0.824724
0	C	0.348128	0.668383	0.575347
0	C	0.142577	0.321445	0.0778972
0	C	0.573836	0.598237	0.72086
0	C	0.919946	0.390573	0.215158
0	C	0.642387	0.32112	0.469711
0	C	0.848967	0.667468	0.966759
0	C	0.919665	0.890882	0.825844
0	C	0.573144	0.0977142	0.325587
0	C	0.848779	0.166904	0.0755528
0	C	0.643299	0.822238	0.573635
0	C	0.0712413	0.0983593	0.217907
0	C	0.417971	0.89182	0.720766
0	C	0.142508	0.822388	0.969165
0	C	0.348252	0.167529	0.472169
0	C	0.408209	0.483639	0.461934
0	C	0.0816475	0.506957	0.962906
0	C	0.257107	0.65786	0.715824
0	C	0.233417	0.331639	0.219355
0	C	0.582807	0.506661	0.583132
0	C	0.90953	0.481805	0.076148
0	C	0.733492	0.331118	0.329356
0	C	0.757814	0.657984	0.826714
0	C	0.909453	0.982112	0.965089
0	C	0.582549	0.00626557	0.463824
0	C	0.757503	0.157508	0.215207
0	C	0.734628	0.831852	0.713051
0	C	0.0814962	0.00714382	0.0785726
0	C	0.408617	0.983287	0.582639
0	C	0.233726	0.83219	0.829486
0	C	0.257057	0.157731	0.332161
0	C	0.397501	0.483638	0.574168
0	C	0.0925053	0.507516	0.0750956
0	C	0.258156	0.646605	0.827627
0	C	0.232256	0.342696	0.331308
0	C	0.593549	0.506716	0.470918
0	C	0.89844	0.481033	0.964138
0	C	0.732572	0.34211	0.217334
0	C	0.758679	0.647107	0.71461
0	C	0.898518	0.981378	0.0772192
0	C	0.593328	0.00643646	0.575997
0	C	0.758211	0.146683	0.327362
0	C	0.733848	0.842838	0.825083
0	C	0.0924558	0.00786021	0.966458
0	C	0.39783	0.983078	0.470468
0	C	0.232817	0.843206	0.717491
0	C	0.257992	0.146641	0.220222
0	C	0.440405	0.508929	0.448212
0	C	0.0496485	0.481345	0.950424
0	C	0.231148	0.689628	0.704866
0	C	0.259289	0.299814	0.208173
0	C	0.550529	0.481465	0.596699
0	C	0.941481	0.507539	0.0877359
0	C	0.759321	0.299279	0.341031
0	C	0.732093	0.689889	0.838792
0	C	0.941467	0.00775828	0.953156
0	C	0.550309	0.980993	0.450518
0	C	0.731869	0.189469	0.202827
0	C	0.760368	0.799953	0.701103
0	C	0.0494449	0.981542	0.0904376
0	C	0.440827	0.00860333	0.595919
0	C	0.259481	0.800296	0.841245
0	C	0.231279	0.189622	0.343664
0	C	0.375351	0.497855	0.405198
0	C	0.114528	0.492746	0.906296
0	C	0.24294	0.625172	0.658481
0	C	0.247705	0.364407	0.162575
0	C	0.615598	0.49229	0.639847
0	C	0.876731	0.496025	0.133131
0	C	0.747694	0.363904	0.386185
0	C	0.743532	0.625172	0.883284
0	C	0.876606	0.996403	0.908453
0	C	0.615345	0.991929	0.40705
0	C	0.743202	0.124704	0.158635
0	C	0.748878	0.8646	0.656139
0	C	0.114309	0.992813	0.135283
0	C	0.375803	0.997609	0.639364
0	C	0.248009	0.864937	0.886365
0	C	0.242741	0.125026	0.389137
0	C	0.465987	0.369112	0.570887
0	C	0.0219901	0.620497	0.0702617
0	C	0.370854	0.717911	0.821053
0	C	0.119268	0.272098	0.323401
0	C	0.524604	0.621072	0.475066
0	C	0.969422	0.368406	0.968953
0	C	0.619439	0.271668	0.224153
0	C	0.872046	0.717243	0.721828
0	C	0.969088	0.868532	0.0719236
0	C	0.523883	0.120474	0.571408
0	C	0.87187	0.216234	0.321193
0	C	0.62057	0.772572	0.819062
0	C	0.0219349	0.120719	0.97163
0	C	0.467344	0.869092	0.475145
0	C	0.119757	0.772612	0.723938
0	C	0.370979	0.217435	0.227092
0	C	0.480801	0.333096	0.533308
0	C	0.00716235	0.656608	0.0334017
0	C	0.406889	0.732737	0.783328
0	C	0.0832138	0.257402	0.285414
0	C	0.509526	0.656901	0.513247
0	C	0.984015	0.332131	0.00528564
0	C	0.583618	0.256505	0.262423
0	C	0.908072	0.731986	0.759896
0	C	0.984089	0.832506	0.0349796
0	C	0.508741	0.15627	0.533255
0	C	0.908072	0.230754	0.283776
0	C	0.584476	0.757857	0.781429
0	C	0.00699717	0.156797	0.00836871
0	C	0.482592	0.833365	0.513499
0	C	0.0835951	0.758014	0.761423
0	C	0.406976	0.232305	0.264974
0	C	0.439313	0.362018	0.656791
0	C	0.0480084	0.627366	0.157905
0	C	0.377971	0.69206	0.908795
0	C	0.112124	0.298115	0.410745
0	C	0.551036	0.6285	0.388805
0	C	0.943401	0.361855	0.881121
0	C	0.611893	0.297788	0.137321
0	C	0.879241	0.691266	0.634435
0	C	0.942827	0.8615	0.158904
0	C	0.55017	0.127947	0.657973
0	C	0.878735	0.190138	0.408526
0	C	0.613552	0.798486	0.906725
0	C	0.0481848	0.127644	0.884551
0	C	0.440976	0.861487	0.388864
0	C	0.11284	0.798479	0.636105
0	C	0.378172	0.191554	0.139471
0	C	0.497877	0.391406	0.609019
0	C	0.990124	0.597712	0.106067
0	C	0.348136	0.74974	0.85749
0	C	0.141786	0.240202	0.360332
0	C	0.492855	0.598573	0.436969
0	C	0.0014257	0.391084	0.933551
0	C	0.642213	0.240075	0.1864
0	C	0.849483	0.749115	0.68499
0	C	0.000805572	0.891344	0.108652
0	C	0.492165	0.097868	0.609215
0	C	0.849436	0.248242	0.357739
0	C	0.643178	0.740659	0.855458
0	C	0.990178	0.0979258	0.935083
0	C	0.498976	0.891737	0.436953
0	C	0.142323	0.740634	0.687825
0	C	0.348268	0.249242	0.190486
0	C	0.403402	0.37086	0.233758
0	C	0.0860051	0.619788	0.734735
0	C	0.36929	0.65438	0.484695
0	C	0.121554	0.335366	0.986898
0	C	0.587814	0.619446	0.811354
0	C	0.906121	0.369225	0.305616
0	C	0.621232	0.335189	0.560291
0	C	0.87013	0.653124	0.0569672
0	C	0.905898	0.869614	0.735199
0	C	0.586923	0.118848	0.234719
0	C	0.869932	0.152687	0.985158
0	C	0.622088	0.836543	0.483455
0	C	0.0849989	0.11962	0.308601
0	C	0.404092	0.870648	0.811441
0	C	0.121262	0.836626	0.0593665
0	C	0.369437	0.153125	0.562288
0	C	0.427494	0.37785	0.142156
0	C	0.062591	0.612635	0.641852
0	C	0.362063	0.678103	0.392551
0	C	0.128975	0.311542	0.895097
0	C	0.563722	0.612547	0.903012
0	C	0.929657	0.376667	0.398083
0	C	0.628277	0.31136	0.652335
0	C	0.863276	0.676856	0.149307
0	C	0.929517	0.877106	0.642932
0	C	0.562835	0.111668	0.143221
0	C	0.862905	0.176396	0.89288
0	C	0.629068	0.813002	0.390799
0	C	0.0613544	0.112155	0.400826
0	C	0.428124	0.877727	0.903128
0	C	0.128246	0.812967	0.151774
0	C	0.362408	0.176517	0.655218
0	C	0.403713	0.330079	0.254174
0	C	0.0851382	0.660538	0.755503
0	C	0.410169	0.654925	0.504654
0	C	0.0806566	0.334783	0.00645464
0	C	0.587577	0.660217	0.790788
0	C	0.907211	0.328446	0.285363
0	C	0.580366	0.334871	0.540063
0	C	0.91095	0.653277	0.0361785
0	C	0.906961	0.82882	0.755163
0	C	0.586434	0.159651	0.254644
0	C	0.910781	0.153038	0.00551725
0	C	0.581236	0.836168	0.503841
0	C	0.0839804	0.160412	0.288591
0	C	0.404516	0.829858	0.791252
0	C	0.0804374	0.836221	0.0386641
0	C	0.41029	0.153572	0.541976
0	C	0.364204	0.380513	0.211289
0	C	0.125427	0.610526	0.714046
0	C	0.359752	0.615143	0.463126
0	C	0.131074	0.374595	0.965238
0	C	0.626998	0.609726	0.833792
0	C	0.866685	0.378275	0.326851
0	C	0.630936	0.374369	0.582044
0	C	0.860262	0.613953	0.0781894
0	C	0.866486	0.878687	0.713724
0	C	0.626148	0.109319	0.212199
0	C	0.860197	0.113479	0.96399
0	C	0.631818	0.875779	0.462544
0	C	0.124397	0.110504	0.330121
0	C	0.364864	0.88022	0.833788
0	C	0.130923	0.875857	0.0805021
0	C	0.359739	0.11385	0.582739
0	C	0.420629	0.513152	0.0160566
0	C	0.0702407	0.477493	0.515539
0	C	0.226217	0.670568	0.268702
0	C	0.265037	0.319659	0.772505
0	C	0.570515	0.477228	0.0294472
0	C	0.921624	0.511923	0.523069
0	C	0.764175	0.318801	0.776819
0	C	0.727128	0.669713	0.274099
0	C	0.921223	0.0120305	0.51782
0	C	0.570165	0.976787	0.0171767
0	C	0.727128	0.169298	0.767766
0	C	0.764835	0.819636	0.265671
0	C	0.0697251	0.977202	0.525923
0	C	0.420759	0.0127066	0.0293174
0	C	0.264233	0.820519	0.276756
0	C	0.226693	0.169791	0.779803
0	C	0.437623	0.497942	0.929992
0	C	0.054026	0.492673	0.428233
0	C	0.241106	0.68679	0.181068
0	C	0.2502	0.303333	0.684946
0	C	0.553714	0.492422	0.115848
0	C	0.937797	0.4968	0.610525
0	C	0.749323	0.302539	0.864419
0	C	0.742057	0.686111	0.361415
0	C	0.937373	0.996864	0.430413
0	C	0.553606	0.991995	0.930441
0	C	0.742194	0.185609	0.680493
0	C	0.749833	0.803306	0.178373
0	C	0.0535992	0.992336	0.61342
0	C	0.437356	0.997509	0.115992
0	C	0.249175	0.804172	0.36396
0	C	0.241641	0.185907	0.867511
0	C	0.447675	0.521067	0.852416
0	C	0.0448013	0.46957	0.349814
0	C	0.217591	0.696513	0.104034
0	C	0.27376	0.293663	0.607941
0	C	0.543722	0.469286	0.193453
0	C	0.946873	0.519958	0.688958
0	C	0.772866	0.292756	0.94137
0	C	0.71858	0.695911	0.438504
0	C	0.946464	0.0199794	0.351904
0	C	0.54394	0.968879	0.852512
0	C	0.71886	0.19523	0.602911
0	C	0.773254	0.79343	0.101233
0	C	0.0445541	0.969188	0.691894
0	C	0.447112	0.0206506	0.193807
0	C	0.272548	0.794414	0.441333
0	C	0.218165	0.195614	0.944679
0	C	0.440982	0.557711	0.854172
0	C	0.0508755	0.432797	0.352853
0	C	0.180799	0.690332	0.107838
0	C	0.310531	0.299996	0.611641
0	C	0.550226	0.432606	0.191364
0	C	0.940782	0.556728	0.685681
0	C	0.809643	0.299019	0.937571
0	C	0.681806	0.689595	0.435126
0	C	0.940418	0.0567525	0.355158
0	C	0.550306	0.932174	0.854989
0	C	0.682065	0.189019	0.60607
0	C	0.810044	0.799627	0.104579
0	C	0.0506223	0.93242	0.688539
0	C	0.44067	0.0573366	0.191421
0	C	0.309329	0.800687	0.438252
0	C	0.181363	0.189495	0.940927
0	C	0.427074	0.571936	0.942242
0	C	0.0636384	0.418645	0.442371
0	C	0.16694	0.677353	0.197447
0	C	0.324339	0.313109	0.701189
0	C	0.563909	0.418413	0.102985
0	C	0.92817	0.57083	0.595925
0	C	0.823458	0.312077	0.847973
0	C	0.66791	0.676351	0.345832
0	C	0.927829	0.0709074	0.444872
0	C	0.563582	0.917955	0.943795
0	C	0.66802	0.175945	0.695374
0	C	0.824013	0.812814	0.193831
0	C	0.0631875	0.918304	0.598757
0	C	0.427282	0.0715367	0.102711
0	C	0.323359	0.813874	0.349049
0	C	0.167458	0.176577	0.851302
0	C	0.418922	0.550926	0.0265514
0	C	0.0713391	0.439757	0.526858
0	C	0.188439	0.669452	0.28106
0	C	0.302819	0.320977	0.784798
0	C	0.571982	0.439463	0.0186691
0	C	0.920528	0.549655	0.511516
0	C	0.801945	0.319932	0.764377
0	C	0.689333	0.668446	0.26207
0	C	0.92014	0.0497623	0.529296
0	C	0.571514	0.939038	0.0281539
0	C	0.689325	0.168065	0.779401
0	C	0.802634	0.8208	0.277594
0	C	0.0708172	0.939475	0.514343
0	C	0.419362	0.0504619	0.0183609
0	C	0.302046	0.821772	0.265082
0	C	0.188905	0.168746	0.767554
0	C	0.448164	0.458359	0.914809
0	C	0.0434197	0.532256	0.41356
0	C	0.280761	0.696864	0.163709
0	C	0.210569	0.293132	0.667537
0	C	0.543222	0.532009	0.131094
0	C	0.948477	0.457241	0.62539
0	C	0.709672	0.292443	0.881663
0	C	0.781708	0.696324	0.378329
0	C	0.947993	0.957275	0.415663
0	C	0.543126	0.0315913	0.915266
0	C	0.781864	0.195851	0.664178
0	C	0.710148	0.793263	0.161485
0	C	0.0429414	0.0319111	0.628262
0	C	0.447787	0.957908	0.131319
0	C	0.209497	0.794022	0.380646
0	C	0.281327	0.195864	0.884826
0	C	0.479085	0.449582	0.987109
0	C	0.0126857	0.540876	0.486542
0	C	0.289988	0.728461	0.233113
0	C	0.201283	0.261749	0.737603
0	C	0.512124	0.54068	0.0592423
0	C	0.97921	0.44863	0.552391
0	C	0.700541	0.260826	0.812244
0	C	0.790822	0.727755	0.30824
0	C	0.978682	0.948627	0.488789
0	C	0.512179	0.0403516	0.987509
0	C	0.79093	0.227082	0.734998
0	C	0.700936	0.761777	0.231294
0	C	0.0122148	0.0405277	0.555227
0	C	0.47877	0.949107	0.0592535
0	C	0.200323	0.762651	0.310425
0	C	0.290687	0.227415	0.815395
0	C	0.462128	0.451306	0.8068
0	C	0.0289672	0.539424	0.306157
0	C	0.287483	0.709492	0.0542665
0	C	0.203962	0.280126	0.558372
0	C	0.529521	0.539109	0.239331
0	C	0.962945	0.450164	0.732826
0	C	0.702932	0.27984	0.991099
0	C	0.788468	0.709284	0.487446
0	C	0.962486	0.950211	0.30826
0	C	0.529222	0.0386287	0.807222
0	C	0.788777	0.209129	0.555449
0	C	0.703301	0.780475	0.052259
0	C	0.0284744	0.0389348	0.735714
0	C	0.461609	0.950893	0.239462
0	C	0.202641	0.780994	0.489655
0	C	0.288087	0.208507	0.994232
0	C	0.416671	0.432302	0.926696
0	C	0.074948	0.558297	0.425232
0	C	0.306807	0.665465	0.17754
0	C	0.184471	0.324533	0.68048
0	C	0.574686	0.558063	0.118507
0	C	0.916988	0.431143	0.613893
0	C	0.683582	0.323797	0.86763
0	C	0.807802	0.664942	0.364926
0	C	0.916429	0.931258	0.427068
0	C	0.574671	0.0575731	0.927421
0	C	0.807863	0.164368	0.677138
0	C	0.684149	0.824711	0.175141
0	C	0.074469	0.0579733	0.61679
0	C	0.416247	0.93193	0.119023
0	C	0.18349	0.825478	0.367325
0	C	0.307268	0.164376	0.871009
0	C	0.448104	0.582126	0.764367
0	C	0.0442393	0.408167	0.263104
0	C	0.155991	0.696973	0.01846
0	C	0.335389	0.293226	0.522381
0	C	0.543071	0.408111	0.280979
0	C	0.947317	0.5814	0.775427
0	C	0.834549	0.292359	0.0267465
0	C	0.657012	0.696534	0.524416
0	C	0.946871	0.0813657	0.26527
0	C	0.543501	0.907728	0.765092
0	C	0.657411	0.195756	0.516376
0	C	0.834786	0.792758	0.0151822
0	C	0.0441615	0.907757	0.778313
0	C	0.44752	0.0818028	0.281259
0	C	0.333964	0.793848	0.52792
0	C	0.156547	0.19614	0.030288
0	C	0.411857	0.597082	0.728951
0	C	0.0808065	0.394115	0.227441
0	C	0.140766	0.660659	0.985008
0	C	0.351481	0.329308	0.490091
0	C	0.579298	0.393124	0.316434
0	C	0.91076	0.595747	0.810295
0	C	0.849845	0.328675	0.0599396
0	C	0.641287	0.660436	0.557922
0	C	0.910218	0.0953212	0.229991
0	C	0.579931	0.89316	0.729932
0	C	0.642542	0.159418	0.481909
0	C	0.850057	0.828979	0.981114
0	C	0.0807876	0.893661	0.813378
0	C	0.411108	0.0963835	0.316516
0	C	0.34902	0.830101	0.562474
0	C	0.14147	0.159797	0.0639574
0	C	0.465784	0.562264	0.676569
0	C	0.0258319	0.427512	0.175597
0	C	0.17572	0.714087	0.929516
0	C	0.315514	0.276888	0.43255
0	C	0.525312	0.427861	0.368867
0	C	0.965322	0.561984	0.863482
0	C	0.814968	0.275264	0.115984
0	C	0.676825	0.713399	0.613591
0	C	0.965179	0.0620133	0.177582
0	C	0.525657	0.927434	0.677271
0	C	0.67711	0.213256	0.427976
0	C	0.815011	0.775494	0.92655
0	C	0.0259452	0.927093	0.866182
0	C	0.465399	0.0621062	0.369041
0	C	0.314136	0.776443	0.61623
0	C	0.176196	0.213443	0.119083
0	C	0.472951	0.612868	0.796733
0	C	0.0202923	0.37671	0.295483
0	C	0.125312	0.722028	0.0501422
0	C	0.36546	0.267422	0.553903
0	C	0.518256	0.377384	0.248302
0	C	0.971593	0.612638	0.743275
0	C	0.865163	0.267285	0.994687
0	C	0.626687	0.721958	0.492358
0	C	0.970812	0.112874	0.297312
0	C	0.51896	0.876689	0.797076
0	C	0.626487	0.220501	0.548162
0	C	0.865436	0.767714	0.0471615
0	C	0.0201168	0.876345	0.746153
0	C	0.472049	0.112829	0.249104
0	C	0.364761	0.768944	0.496166
0	C	0.125758	0.221033	0.998439
0	C	0.409069	0.573811	0.118671
0	C	0.0797693	0.417012	0.620362
0	C	0.166077	0.660451	0.374885
0	C	0.325165	0.330211	0.878526
0	C	0.58134	0.416597	0.926134
0	C	0.912116	0.572325	0.417843
0	C	0.824301	0.328749	0.670403
0	C	0.666908	0.659356	0.168397
0	C	0.911701	0.0724619	0.62288
0	C	0.580602	0.916189	0.120892
0	C	0.666748	0.159056	0.872849
0	C	0.825121	0.829871	0.371138
0	C	0.079198	0.916813	0.420658
0	C	0.410221	0.0732827	0.925611
0	C	0.324578	0.830901	0.171636
0	C	0.166481	0.159958	0.673702
0	C	0.435806	0.605642	0.124089
0	C	0.051775	0.386283	0.624993
0	C	0.134822	0.687832	0.381174
0	C	0.356674	0.303121	0.88491
0	C	0.554046	0.385244	0.920823
0	C	0.940277	0.602888	0.412718
0	C	0.855252	0.301029	0.664061
0	C	0.63541	0.686482	0.162563
0	C	0.939892	0.103001	0.627948
0	C	0.552899	0.885199	0.12631
0	C	0.635437	0.186395	0.878454
0	C	0.856515	0.802633	0.376971
0	C	0.0510223	0.886259	0.415677
0	C	0.437708	0.104473	0.920418
0	C	0.356273	0.803995	0.166305
0	C	0.135229	0.187361	0.668019
0	C	0.411857	0.555888	0.221628
0	C	0.0769566	0.435448	0.722603
0	C	0.184823	0.663225	0.476755
0	C	0.306484	0.327335	0.980478
0	C	0.578663	0.434691	0.823391
0	C	0.914671	0.553752	0.315739
0	C	0.805482	0.326141	0.568621
0	C	0.685532	0.66243	0.0664106
0	C	0.914188	0.0539355	0.725063
0	C	0.578211	0.934385	0.22354
0	C	0.685257	0.161935	0.975045
0	C	0.80653	0.826933	0.473181
0	C	0.0766206	0.935372	0.318539
0	C	0.412873	0.0550999	0.822993
0	C	0.306095	0.8276	0.0695066
0	C	0.185183	0.162983	0.571838
0	C	0.370897	0.588543	0.10464
0	C	0.117512	0.400978	0.608864
0	C	0.150495	0.622589	0.362904
0	C	0.340433	0.368195	0.866324
0	C	0.619309	0.401275	0.939429
0	C	0.874476	0.58859	0.429504
0	C	0.840221	0.366479	0.68223
0	C	0.651623	0.621363	0.180092
0	C	0.874059	0.0887087	0.611091
0	C	0.618407	0.90045	0.107746
0	C	0.651259	0.121157	0.860828
0	C	0.840542	0.867797	0.359147
0	C	0.116854	0.900571	0.432158
0	C	0.372301	0.0887714	0.938438
0	C	0.339642	0.868985	0.183238
0	C	0.150862	0.122086	0.685023
0	C	0.329025	0.504199	0.158948
0	C	0.16131	0.484874	0.659502
0	C	0.234562	0.57911	0.410943
0	C	0.256149	0.411183	0.914248
0	C	0.661987	0.485418	0.886366
0	C	0.830252	0.50476	0.381282
0	C	0.756174	0.410122	0.634061
0	C	0.735821	0.578317	0.131147
0	C	0.829937	0.00478322	0.660242
0	C	0.661686	0.984576	0.159214
0	C	0.735398	0.0779497	0.910774
0	C	0.756451	0.911026	0.408782
0	C	0.160972	0.984525	0.383374
0	C	0.329319	0.00459486	0.886502
0	C	0.25548	0.911885	0.133293
0	C	0.234855	0.0785857	0.636047
0	C	0.289364	0.498391	0.141375
0	C	0.201076	0.49024	0.642721
0	C	0.239894	0.53954	0.391773
0	C	0.250696	0.450685	0.894269
0	C	0.701719	0.490794	0.903789
0	C	0.79053	0.499707	0.399592
0	C	0.750914	0.44974	0.65264
0	C	0.74119	0.538749	0.150244
0	C	0.790226	0.999489	0.642285
0	C	0.701388	0.989735	0.140744
0	C	0.740827	0.0383678	0.892029
0	C	0.750779	0.950609	0.390618
0	C	0.200684	0.989838	0.401307
0	C	0.289615	0.999279	0.90456
0	C	0.249946	0.951451	0.152053
0	C	0.240226	0.0389578	0.654163
0	C	0.346732	0.509021	0.9448
0	C	0.143953	0.481055	0.444966
0	C	0.229985	0.597042	0.196938
0	C	0.26081	0.393144	0.700196
0	C	0.644416	0.480815	0.100573
0	C	0.848144	0.508374	0.59529
0	C	0.760669	0.392356	0.848239
0	C	0.730826	0.596058	0.345378
0	C	0.847675	0.00834682	0.44605
0	C	0.643905	0.980449	0.945279
0	C	0.730773	0.0956828	0.696538
0	C	0.761275	0.893239	0.194621
0	C	0.143278	0.980868	0.597517
0	C	0.346939	0.0089332	0.100659
0	C	0.260576	0.894209	0.347659
0	C	0.230097	0.0961652	0.850344
0	C	0.332491	0.493533	0.864363
0	C	0.15811	0.49657	0.364451
0	C	0.245121	0.581328	0.118124
0	C	0.245231	0.407869	0.620562
0	C	0.658924	0.496154	0.180851
0	C	0.833259	0.493005	0.675001
0	C	0.745524	0.407843	0.92738
0	C	0.746313	0.581769	0.425783
0	C	0.832978	0.992816	0.36632
0	C	0.658608	0.995886	0.86539
0	C	0.746285	0.0812285	0.616435
0	C	0.745954	0.907956	0.114572
0	C	0.157986	0.996354	0.67732
0	C	0.33223	0.993499	0.180486
0	C	0.245047	0.908419	0.428085
0	C	0.245325	0.0811478	0.930051
0	C	0.323753	0.512491	0.770692
0	C	0.16661	0.477669	0.2705
0	C	0.22619	0.572939	0.0241033
0	C	0.263889	0.416432	0.526219
0	C	0.667501	0.477082	0.274457
0	C	0.824732	0.511876	0.768983
0	C	0.764519	0.416178	0.0213519
0	C	0.727435	0.573195	0.519767
0	C	0.824452	0.0115792	0.272177
0	C	0.667351	0.976921	0.771728
0	C	0.727458	0.0726564	0.522366
0	C	0.764956	0.916357	0.0206881
0	C	0.166522	0.977523	0.77135
0	C	0.323549	0.0124661	0.274202
0	C	0.2639	0.916987	0.522108
0	C	0.226268	0.0727839	0.0238896
0	C	0.311477	0.492713	0.687939
0	C	0.177904	0.497641	0.187007
0	C	0.246127	0.561088	0.941059
0	C	0.243709	0.42833	0.443733
0	C	0.679702	0.496755	0.357498
0	C	0.813346	0.491902	0.852378
0	C	0.744601	0.427742	0.104747
0	C	0.74741	0.561141	0.60248
0	C	0.813188	0.991467	0.188889
0	C	0.679254	0.996783	0.688657
0	C	0.747504	0.0608493	0.439512
0	C	0.745099	0.928191	0.937479
0	C	0.177715	0.997598	0.854799
0	C	0.311564	0.992641	0.357234
0	C	0.243882	0.928904	0.604879
0	C	0.246121	0.061304	0.10749
0	C	0.303665	0.509789	0.597674
0	C	0.185582	0.480671	0.0965206
0	C	0.229152	0.553578	0.850426
0	C	0.260413	0.436044	0.352832
0	C	0.687323	0.479573	0.447728
0	C	0.805536	0.508881	0.942787
0	C	0.761626	0.435137	0.195387
0	C	0.730503	0.55343	0.69309
0	C	0.805433	0.00832931	0.0982638
0	C	0.687196	0.979697	0.598474
0	C	0.730639	0.0531445	0.348846
0	C	0.76217	0.935716	0.846989
0	C	0.185467	0.980673	0.94533
0	C	0.303799	0.00974051	0.447526
0	C	0.26077	0.936599	0.695522
0	C	0.229001	0.0538709	0.197951
0	C	0.307864	0.546756	0.58902
0	C	0.182225	0.443605	0.0883451
0	C	0.192114	0.55765	0.841617
0	C	0.297438	0.432085	0.34318
0	C	0.683021	0.44261	0.456067
0	C	0.808885	0.545948	0.951014
0	C	0.798692	0.431221	0.20386
0	C	0.693476	0.557549	0.702224
0	C	0.80869	0.0453978	0.0897838
0	C	0.683509	0.942659	0.590241
0	C	0.693584	0.0570152	0.339815
0	C	0.799215	0.931646	0.838495
0	C	0.182276	0.943594	0.953579
0	C	0.307745	0.0467465	0.455872
0	C	0.297803	0.932591	0.704605
0	C	0.191916	0.0576789	0.206029
0	C	0.319778	0.566624	0.67107
0	C	0.171262	0.423552	0.171052
0	C	0.172087	0.569171	0.923828
0	C	0.317709	0.420495	0.424853
0	C	0.671199	0.42285	0.373729
0	C	0.81999	0.565991	0.868421
0	C	0.818696	0.420013	0.121262
0	C	0.673409	0.569283	0.620322
0	C	0.819642	0.065574	0.172291
0	C	0.67193	0.92273	0.672572
0	C	0.673446	0.0684911	0.421863
0	C	0.819156	0.920135	0.920883
0	C	0.171395	0.923467	0.870919
0	C	0.319368	0.0666426	0.373537
0	C	0.317905	0.920994	0.62263
0	C	0.171984	0.0688108	0.123236
0	C	0.327653	0.549644	0.761474
0	C	0.163525	0.440429	0.261731
0	C	0.188968	0.576734	0.0146969
0	C	0.301092	0.412768	0.515945
0	C	0.663511	0.439929	0.283347
0	C	0.827823	0.549114	0.777807
0	C	0.801773	0.412584	0.0303781
0	C	0.690229	0.577004	0.529506
0	C	0.827445	0.0488201	0.263098
0	C	0.663925	0.939703	0.762918
0	C	0.690224	0.076214	0.512732
0	C	0.802188	0.912576	0.0116047
0	C	0.163601	0.94027	0.780175
0	C	0.327194	0.0496594	0.28311
0	C	0.301117	0.913286	0.531787
0	C	0.188995	0.0762735	0.032518
0	H	0.444462	0.438081	0.574282
0	H	0.044522	0.552002	0.0739663
0	H	0.302401	0.694923	0.826253
0	H	0.187915	0.294569	0.329107
0	H	0.546469	0.55219	0.471191
0	H	0.946623	0.436787	0.965111
0	H	0.688056	0.294182	0.219058
0	H	0.803279	0.694985	0.716639
0	H	0.946485	0.937006	0.075952
0	H	0.546069	0.0517684	0.575676
0	H	0.803042	0.194269	0.325746
0	H	0.689257	0.794911	0.82355
0	H	0.044609	0.0523006	0.96757
0	H	0.44522	0.937858	0.470908
0	H	0.188427	0.795071	0.719212
0	H	0.30242	0.19479	0.222055
0	H	0.439961	0.344796	0.390864
0	H	0.0483561	0.645374	0.890761
0	H	0.395316	0.6918	0.640396
0	H	0.0952104	0.298209	0.142624
0	H	0.551033	0.645474	0.654653
0	H	0.943573	0.343633	0.149335
0	H	0.595081	0.297933	0.404504
0	H	0.89631	0.690673	0.901789
0	H	0.943195	0.843877	0.891634
0	H	0.550231	0.144917	0.391753
0	H	0.896146	0.18991	0.140943
0	H	0.596019	0.799144	0.639158
0	H	0.0476853	0.145364	0.152184
0	H	0.440915	0.844615	0.654652
0	H	0.0952922	0.799031	0.903952
0	H	0.395483	0.1909	0.40718
0	H	0.419726	0.476463	0.623676
0	H	0.0702913	0.514703	0.124685
0	H	0.265597	0.668599	0.877721
0	H	0.22485	0.320582	0.381044
0	H	0.571382	0.514058	0.421379
0	H	0.920576	0.473874	0.914243
0	H	0.725218	0.319991	0.167577
0	H	0.766259	0.669209	0.665064
0	H	0.920712	0.974168	0.126871
0	H	0.571172	0.0138432	0.625519
0	H	0.765757	0.168809	0.376836
0	H	0.726481	0.820734	0.874854
0	H	0.0702829	0.0151082	0.916765
0	H	0.419982	0.975667	0.420935
0	H	0.225383	0.821114	0.667759
0	H	0.265552	0.168655	0.170321
0	H	0.387964	0.510028	0.597655
0	H	0.102298	0.481312	0.0993582
0	H	0.232006	0.636769	0.852523
0	H	0.258341	0.352586	0.356548
0	H	0.602946	0.480294	0.447273
0	H	0.888485	0.50716	0.93974
0	H	0.758732	0.351928	0.192475
0	H	0.732448	0.637552	0.689572
0	H	0.888634	0.0075386	0.101634
0	H	0.602745	0.980032	0.599808
0	H	0.731937	0.13717	0.352189
0	H	0.760062	0.852589	0.84972
0	H	0.102293	0.981681	0.94206
0	H	0.388386	0.00946677	0.446597
0	H	0.258993	0.852954	0.69256
0	H	0.231774	0.136991	0.195315
0	H	0.375643	0.464784	0.58789
0	H	0.114189	0.526638	0.0879628
0	H	0.277353	0.6249	0.839178
0	H	0.212958	0.3643	0.343012
0	H	0.61551	0.525472	0.457406
0	H	0.876822	0.461795	0.951848
0	H	0.71336	0.363756	0.205182
0	H	0.777711	0.625306	0.702368
0	H	0.876902	0.962163	0.0898152
0	H	0.615273	0.0252244	0.58933
0	H	0.777197	0.12486	0.339893
0	H	0.714706	0.86454	0.837396
0	H	0.114108	0.0270383	0.953889
0	H	0.375899	0.964269	0.457203
0	H	0.213648	0.864902	0.705447
0	H	0.277052	0.124836	0.208371
0	H	0.449665	0.509989	0.370903
0	H	0.03974	0.480445	0.873731
0	H	0.229861	0.69962	0.628299
0	H	0.260549	0.289893	0.131535
0	H	0.541149	0.480547	0.673919
0	H	0.951672	0.508465	0.164136
0	H	0.76056	0.289494	0.41781
0	H	0.731197	0.699802	0.91548
0	H	0.951518	0.00871259	0.876612
0	H	0.54082	0.980086	0.373399
0	H	0.730921	0.199234	0.125997
0	H	0.761624	0.790283	0.624209
0	H	0.0392713	0.980722	0.166867
0	H	0.450391	0.00944126	0.672976
0	H	0.260517	0.790399	0.917938
0	H	0.230199	0.199562	0.420312
0	H	0.43347	0.536217	0.470453
0	H	0.0570983	0.454074	0.971566
0	H	0.203967	0.681947	0.726679
0	H	0.286488	0.307378	0.230116
0	H	0.557431	0.45413	0.574834
0	H	0.933847	0.534778	0.0668016
0	H	0.786533	0.306777	0.319034
0	H	0.704779	0.682425	0.817738
0	H	0.933968	0.0350052	0.9744
0	H	0.557291	0.953665	0.472246
0	H	0.70455	0.182125	0.224183
0	H	0.787592	0.807354	0.723272
0	H	0.056948	0.954255	0.0696239
0	H	0.43378	0.0359416	0.574452
0	H	0.286756	0.807781	0.819822
0	H	0.204019	0.182098	0.322199
0	H	0.463162	0.50044	0.494015
0	H	0.0271447	0.489376	0.997889
0	H	0.239228	0.712016	0.752502
0	H	0.251108	0.277402	0.255588
0	H	0.527862	0.489948	0.55054
0	H	0.963838	0.499598	0.0396102
0	H	0.751142	0.276793	0.293903
0	H	0.740149	0.71228	0.791133
0	H	0.963894	0.999696	0.000875028
0	H	0.527701	0.989422	0.496984
0	H	0.740039	0.211927	0.250091
0	H	0.752116	0.777417	0.747947
0	H	0.0270973	0.989543	0.0423487
0	H	0.463401	0.000258963	0.549215
0	H	0.251364	0.777892	0.793723
0	H	0.239383	0.212004	0.296038
0	H	0.382171	0.51144	0.335112
0	H	0.107758	0.478914	0.836577
0	H	0.228985	0.632194	0.589075
0	H	0.261857	0.357498	0.0934082
0	H	0.608707	0.478719	0.709897
0	H	0.883638	0.510154	0.202275
0	H	0.761526	0.357017	0.455876
0	H	0.729681	0.63201	0.95299
0	H	0.883411	0.0104457	0.8391
0	H	0.608473	0.978313	0.337061
0	H	0.729378	0.131542	0.0888952
0	H	0.762628	0.85768	0.586339
0	H	0.107457	0.978756	0.20458
0	H	0.382665	0.0112819	0.709286
0	H	0.262023	0.857997	0.955748
0	H	0.228909	0.132019	0.458764
0	H	0.356718	0.476228	0.386498
0	H	0.133038	0.514396	0.886882
0	H	0.264712	0.606882	0.638408
0	H	0.225963	0.3827	0.142233
0	H	0.634324	0.51383	0.658622
0	H	0.858402	0.47434	0.15358
0	H	0.725945	0.382296	0.405694
0	H	0.765226	0.606705	0.902717
0	H	0.858178	0.974749	0.888397
0	H	0.634007	0.0135223	0.388149
0	H	0.764883	0.106204	0.139308
0	H	0.727175	0.88307	0.636828
0	H	0.132744	0.0144501	0.155458
0	H	0.357174	0.976008	0.65839
0	H	0.226292	0.883304	0.906363
0	H	0.264417	0.106564	0.408771
0	H	0.360439	0.517334	0.450123
0	H	0.129584	0.473516	0.951676
0	H	0.223754	0.60991	0.703505
0	H	0.266756	0.379628	0.20817
0	H	0.630418	0.472757	0.594877
0	H	0.861422	0.514998	0.0875586
0	H	0.766972	0.378995	0.341019
0	H	0.72423	0.610171	0.837969
0	H	0.861431	0.0154695	0.954077
0	H	0.630232	0.972436	0.451989
0	H	0.723862	0.10973	0.203915
0	H	0.768258	0.879622	0.701151
0	H	0.129483	0.973744	0.0896675
0	H	0.360877	0.0170464	0.594332
0	H	0.267184	0.880091	0.841001
0	H	0.223412	0.109973	0.344048
0	H	0.495343	0.319202	0.592787
0	H	0.992138	0.670028	0.0927871
0	H	0.420508	0.747904	0.84209
0	H	0.0694947	0.242255	0.344035
0	H	0.494862	0.670811	0.454033
0	H	0.998875	0.318677	0.945632
0	H	0.569884	0.241485	0.203579
0	H	0.921778	0.747161	0.701309
0	H	0.999014	0.819046	0.0944905
0	H	0.493961	0.170087	0.592403
0	H	0.921735	0.245848	0.342613
0	H	0.570826	0.742748	0.840247
0	H	0.992151	0.170262	0.948713
0	H	0.497374	0.819532	0.454384
0	H	0.0700017	0.742798	0.702717
0	H	0.420616	0.247462	0.206229
0	H	0.459448	0.315224	0.508184
0	H	0.0285458	0.67478	0.0102314
0	H	0.425042	0.711372	0.76002
0	H	0.0651349	0.278823	0.26207
0	H	0.530749	0.674881	0.538638
0	H	0.962512	0.314092	0.0284074
0	H	0.565421	0.277673	0.286867
0	H	0.926177	0.710585	0.783225
0	H	0.962814	0.814301	0.0112481
0	H	0.529932	0.174325	0.508139
0	H	0.926093	0.209231	0.260802
0	H	0.566377	0.779267	0.758109
0	H	0.0283012	0.17496	0.0321737
0	H	0.461451	0.81528	0.538803
0	H	0.0654848	0.779493	0.784154
0	H	0.425133	0.210965	0.288437
0	H	0.499377	0.336899	0.470799
0	H	0.989123	0.653066	0.969605
0	H	0.40309	0.750704	0.7195
0	H	0.0869922	0.239426	0.221598
0	H	0.49099	0.652827	0.57572
0	H	0.00215137	0.335438	0.0689738
0	H	0.58775	0.238319	0.325607
0	H	0.904252	0.749936	0.823749
0	H	0.00226658	0.836171	0.971544
0	H	0.4903	0.152178	0.470588
0	H	0.904517	0.248726	0.219861
0	H	0.5882	0.739858	0.71764
0	H	0.988755	0.153207	0.0716872
0	H	0.501055	0.837563	0.57608
0	H	0.0871967	0.740131	0.825522
0	H	0.40312	0.250292	0.328731
0	H	0.451616	0.346776	0.71747
0	H	0.0348304	0.641273	0.219681
0	H	0.392097	0.705299	0.970092
0	H	0.0977852	0.285062	0.471959
0	H	0.538362	0.643323	0.327902
0	H	0.956512	0.34798	0.819174
0	H	0.597667	0.284689	0.0759799
0	H	0.893554	0.704358	0.573235
0	H	0.955789	0.847398	0.220684
0	H	0.537266	0.142425	0.719147
0	H	0.893114	0.203056	0.46989
0	H	0.599435	0.785312	0.968142
0	H	0.035222	0.141687	0.822672
0	H	0.453838	0.84697	0.3277
0	H	0.0987507	0.785297	0.574658
0	H	0.392327	0.204767	0.0781897
0	H	0.429105	0.386957	0.688627
0	H	0.0590407	0.602412	0.187422
0	H	0.353023	0.6812	0.939083
0	H	0.137072	0.308874	0.441309
0	H	0.561709	0.60369	0.357371
0	H	0.932532	0.386925	0.851891
0	H	0.636677	0.308936	0.106798
0	H	0.85431	0.680469	0.603884
0	H	0.931791	0.886413	0.188693
0	H	0.561127	0.103176	0.688846
0	H	0.853677	0.179544	0.43884
0	H	0.638536	0.809333	0.93684
0	H	0.0591948	0.102691	0.854951
0	H	0.429945	0.886212	0.357886
0	H	0.137867	0.809256	0.606098
0	H	0.353251	0.18066	0.109102
0	H	0.416184	0.346854	0.629605
0	H	0.0706793	0.643718	0.133527
0	H	0.394259	0.669391	0.884307
0	H	0.0960143	0.320835	0.385645
0	H	0.573855	0.644213	0.415431
0	H	0.920624	0.345597	0.905189
0	H	0.595521	0.320256	0.162865
0	H	0.895394	0.668567	0.659483
0	H	0.920173	0.845277	0.133736
0	H	0.572811	0.144006	0.631927
0	H	0.894695	0.167299	0.38348
0	H	0.59728	0.821167	0.882197
0	H	0.0708566	0.143876	0.909559
0	H	0.418388	0.845412	0.415233
0	H	0.0965814	0.821194	0.660488
0	H	0.394459	0.168904	0.164127
0	H	0.51307	0.37707	0.666225
0	H	0.974445	0.611538	0.163247
0	H	0.362097	0.765278	0.914709
0	H	0.127653	0.224761	0.417409
0	H	0.477563	0.612796	0.379754
0	H	0.0171742	0.377195	0.876647
0	H	0.628088	0.224557	0.129465
0	H	0.863551	0.76455	0.627772
0	H	0.0163634	0.877465	0.165987
0	H	0.476821	0.11202	0.666458
0	H	0.863481	0.263558	0.415254
0	H	0.629154	0.725162	0.912642
0	H	0.974638	0.111775	0.877653
0	H	0.514292	0.877575	0.37967
0	H	0.12841	0.725246	0.630207
0	H	0.362186	0.264662	0.132931
0	H	0.5162	0.397854	0.54677
0	H	0.972174	0.591471	0.0428023
0	H	0.341859	0.767778	0.794525
0	H	0.148104	0.222111	0.29752
0	H	0.474559	0.592022	0.499202
0	H	0.0192839	0.397297	0.997057
0	H	0.648944	0.221975	0.248841
0	H	0.843197	0.76721	0.747818
0	H	0.0189166	0.897744	0.045864
0	H	0.473921	0.0913306	0.54687
0	H	0.843405	0.26639	0.294841
0	H	0.649404	0.722621	0.792461
0	H	0.972061	0.0916013	0.997913
0	H	0.517273	0.898363	0.49912
0	H	0.148267	0.722516	0.750863
0	H	0.342099	0.267388	0.253266
0	H	0.489296	0.416779	0.641811
0	H	0.998773	0.572209	0.137926
0	H	0.322627	0.741119	0.889617
0	H	0.167259	0.248777	0.392815
0	H	0.50159	0.573249	0.404203
0	H	0.9929	0.416591	0.901452
0	H	0.667489	0.248965	0.153393
0	H	0.823984	0.740518	0.65273
0	H	0.991981	0.916766	0.140658
0	H	0.500942	0.0725311	0.641789
0	H	0.823806	0.239795	0.389515
0	H	0.668708	0.749195	0.887654
0	H	0.998958	0.0724591	0.903263
0	H	0.490099	0.917022	0.404258
0	H	0.167992	0.749104	0.656364
0	H	0.322709	0.240615	0.15868
0	H	0.41742	0.40007	0.0962839
0	H	0.073236	0.590665	0.596052
0	H	0.339828	0.667803	0.347019
0	H	0.151275	0.321816	0.849794
0	H	0.57374	0.59031	0.948916
0	H	0.918898	0.398589	0.443863
0	H	0.650432	0.32159	0.698299
0	H	0.841039	0.66673	0.19511
0	H	0.91884	0.899097	0.597274
0	H	0.572952	0.0894197	0.0975519
0	H	0.84069	0.166161	0.847184
0	H	0.651247	0.823338	0.345109
0	H	0.0719804	0.0901324	0.446466
0	H	0.417987	0.899928	0.948951
0	H	0.150484	0.823195	0.197403
0	H	0.34023	0.166096	0.700754
0	H	0.455167	0.383864	0.164901
0	H	0.0348494	0.606228	0.663114
0	H	0.35599	0.705777	0.41476
0	H	0.135066	0.283902	0.91767
0	H	0.536024	0.606612	0.880345
0	H	0.957303	0.383298	0.376371
0	H	0.634387	0.283709	0.629989
0	H	0.857347	0.704583	0.127258
0	H	0.957169	0.883641	0.664811
0	H	0.53516	0.105664	0.165973
0	H	0.856882	0.204096	0.914974
0	H	0.635102	0.785264	0.412428
0	H	0.0336937	0.105673	0.378914
0	H	0.455809	0.883761	0.880548
0	H	0.134218	0.785238	0.129832
0	H	0.356367	0.204282	0.633885
0	H	0.4286	0.354708	0.0923286
0	H	0.0614616	0.635862	0.592323
0	H	0.385168	0.679161	0.342423
0	H	0.105936	0.310347	0.844776
0	H	0.562706	0.635707	0.952793
0	H	0.931092	0.353496	0.447751
0	H	0.605068	0.310249	0.70208
0	H	0.886513	0.677753	0.198959
0	H	0.930921	0.853985	0.593077
0	H	0.561695	0.134733	0.0931182
0	H	0.886097	0.177399	0.843079
0	H	0.605858	0.812127	0.341026
0	H	0.0599899	0.13527	0.450719
0	H	0.429237	0.8546	0.953017
0	H	0.105047	0.812047	0.201566
0	H	0.385605	0.177337	0.705056
0	H	0.430791	0.319835	0.26546
0	H	0.0578941	0.670416	0.76626
0	H	0.420286	0.681994	0.516253
0	H	0.0705963	0.307729	0.0186699
0	H	0.560518	0.67051	0.779476
0	H	0.934484	0.318733	0.274033
0	H	0.570113	0.307858	0.528432
0	H	0.921305	0.680255	0.024555
0	H	0.93422	0.81907	0.766494
0	H	0.55934	0.169781	0.266389
0	H	0.921003	0.180056	0.017316
0	H	0.570986	0.809126	0.515003
0	H	0.0567282	0.170187	0.277305
0	H	0.4316	0.81967	0.779766
0	H	0.0702491	0.809177	0.0271175
0	H	0.420514	0.180638	0.531077
0	H	0.387728	0.323494	0.321193
0	H	0.100864	0.667214	0.822947
0	H	0.416943	0.638854	0.571336
0	H	0.073779	0.351073	0.0726373
0	H	0.603571	0.666734	0.723722
0	H	0.891308	0.321554	0.218421
0	H	0.573744	0.350967	0.473314
0	H	0.917362	0.63719	0.969243
0	H	0.891031	0.821861	0.821999
0	H	0.602585	0.166412	0.321216
0	H	0.917377	0.136894	0.0722108
0	H	0.574642	0.852109	0.570916
0	H	0.0998966	0.16733	0.221695
0	H	0.388468	0.823192	0.724413
0	H	0.0739068	0.85225	0.971702
0	H	0.416906	0.137718	0.474755
0	H	0.391967	0.315421	0.191406
0	H	0.0968996	0.675455	0.693243
0	H	0.424852	0.643406	0.441587
0	H	0.0660143	0.346057	0.942937
0	H	0.599366	0.674878	0.853499
0	H	0.895747	0.313551	0.348094
0	H	0.565672	0.346477	0.602982
0	H	0.925687	0.641551	0.0988765
0	H	0.895504	0.814006	0.692271
0	H	0.597946	0.174273	0.191467
0	H	0.925495	0.141477	0.942538
0	H	0.566536	0.847928	0.441156
0	H	0.0954757	0.175229	0.351429
0	H	0.392869	0.815199	0.854169
0	H	0.0656432	0.847875	0.101363
0	H	0.424995	0.14175	0.604563
0	H	0.360679	0.409048	0.195842
0	H	0.129254	0.582107	0.697412
0	H	0.331139	0.611413	0.448427
0	H	0.159686	0.378306	0.950523
0	H	0.630462	0.581226	0.849847
0	H	0.862744	0.406659	0.343779
0	H	0.659513	0.377933	0.59754
0	H	0.831676	0.610508	0.0937365
0	H	0.862541	0.907095	0.697168
0	H	0.629799	0.0807866	0.196911
0	H	0.831586	0.109921	0.948961
0	H	0.660422	0.879345	0.447367
0	H	0.128292	0.0821106	0.346965
0	H	0.361266	0.908708	0.84975
0	H	0.159477	0.879436	0.0963116
0	H	0.33115	0.110238	0.598025
0	H	0.354143	0.366022	0.146051
0	H	0.135837	0.625484	0.650117
0	H	0.374091	0.605018	0.397712
0	H	0.116707	0.384711	0.899891
0	H	0.63716	0.624375	0.898622
0	H	0.856455	0.36319	0.390759
0	H	0.616409	0.384613	0.646976
0	H	0.874782	0.603509	0.14287
0	H	0.856351	0.863717	0.649485
0	H	0.636122	0.123796	0.146868
0	H	0.874602	0.103131	0.898991
0	H	0.617382	0.886178	0.397639
0	H	0.134576	0.125543	0.394172
0	H	0.354744	0.865556	0.89862
0	H	0.116272	0.886275	0.144985
0	H	0.374224	0.103343	0.647422
0	H	0.346917	0.374322	0.275158
0	H	0.142214	0.61644	0.779171
0	H	0.366273	0.598043	0.527081
0	H	0.124566	0.391711	0.0292057
0	H	0.644244	0.615675	0.769646
0	H	0.849823	0.37235	0.261897
0	H	0.624763	0.391472	0.517823
0	H	0.866324	0.596939	0.0136641
0	H	0.849532	0.872658	0.778413
0	H	0.643457	0.115597	0.275961
0	H	0.866484	0.0964585	0.0283393
0	H	0.625558	0.89273	0.527022
0	H	0.141339	0.116406	0.26531
0	H	0.347631	0.874204	0.769679
0	H	0.124864	0.892801	0.0158259
0	H	0.36596	0.0970006	0.518026
0	H	0.461246	0.51045	0.786314
0	H	0.0323941	0.48025	0.282069
0	H	0.228018	0.709411	0.0366524
0	H	0.263372	0.280655	0.540688
0	H	0.530332	0.479914	0.259823
0	H	0.959162	0.50932	0.756935
0	H	0.76247	0.279742	0.00859133
0	H	0.729039	0.709016	0.505537
0	H	0.958711	0.00931784	0.283887
0	H	0.53094	0.979522	0.785574
0	H	0.729429	0.208062	0.535615
0	H	0.762751	0.780399	0.0341564
0	H	0.0323067	0.979821	0.759945
0	H	0.460228	0.0100256	0.260599
0	H	0.261998	0.781406	0.508385
0	H	0.228628	0.208438	0.012129
0	H	0.422633	0.600806	0.945833
0	H	0.0674869	0.389721	0.447042
0	H	0.137982	0.673464	0.202721
0	H	0.353277	0.317133	0.70651
0	H	0.568201	0.389529	0.0990702
0	H	0.924382	0.599755	0.591024
0	H	0.852403	0.31603	0.842636
0	H	0.638969	0.672288	0.340824
0	H	0.924089	0.0998401	0.44965
0	H	0.567677	0.889055	0.94801
0	H	0.639063	0.171957	0.70015
0	H	0.85297	0.816788	0.198687
0	H	0.0669419	0.889374	0.593894
0	H	0.423098	0.100428	0.0985947
0	H	0.352308	0.817921	0.34434
0	H	0.138494	0.172684	0.846129
0	H	0.470586	0.434607	0.0530316
0	H	0.0213807	0.554426	0.554615
0	H	0.306378	0.7208	0.297231
0	H	0.185305	0.269691	0.80227
0	H	0.520327	0.556329	0.994255
0	H	0.970526	0.434969	0.484485
0	H	0.684581	0.268536	0.747327
0	H	0.806796	0.71989	0.243492
0	H	0.969915	0.935142	0.556892
0	H	0.520662	0.055248	0.053598
0	H	0.806575	0.218974	0.800134
0	H	0.684815	0.769601	0.295788
0	H	0.0209376	0.0540252	0.487096
0	H	0.470274	0.934501	0.99269
0	H	0.184465	0.770606	0.245545
0	H	0.306974	0.219657	0.75117
0	H	0.499799	0.43287	0.95181
0	H	0.992733	0.559011	0.453043
0	H	0.305421	0.749336	0.194531
0	H	0.185349	0.241036	0.699848
0	H	0.491038	0.556623	0.0954178
0	H	0.999241	0.430605	0.585987
0	H	0.684663	0.240147	0.850409
0	H	0.80668	0.74854	0.345939
0	H	0.998629	0.930444	0.455477
0	H	0.491503	0.0571326	0.95225
0	H	0.80716	0.247804	0.698083
0	H	0.685216	0.740981	0.193218
0	H	0.992248	0.0586753	0.588597
0	H	0.499229	0.932011	0.0943556
0	H	0.184307	0.741936	0.347926
0	H	0.306267	0.248199	0.853916
0	H	0.492948	0.473935	0.013006
0	H	0.997943	0.516593	0.508764
0	H	0.265761	0.741878	0.261871
0	H	0.225495	0.248075	0.765533
0	H	0.498763	0.516259	0.0318375
0	H	0.993845	0.472935	0.529802
0	H	0.724801	0.247182	0.784607
0	H	0.76653	0.741319	0.280447
0	H	0.993456	0.972891	0.511124
0	H	0.498279	0.0160007	0.0132201
0	H	0.766631	0.240796	0.762128
0	H	0.725165	0.748209	0.259478
0	H	0.997472	0.0162442	0.532911
0	H	0.49292	0.973417	0.0342872
0	H	0.224582	0.748963	0.282885
0	H	0.266515	0.240981	0.786814
0	H	0.485469	0.46776	0.788714
0	H	0.00545184	0.5231	0.289051
0	H	0.271288	0.73283	0.0346481
0	H	0.220169	0.256701	0.539682
0	H	0.5062	0.522689	0.257865
0	H	0.986399	0.466576	0.749931
0	H	0.719057	0.256447	0.0106639
0	H	0.772226	0.732659	0.50645
0	H	0.985982	0.966583	0.291287
0	H	0.505849	0.0222268	0.789156
0	H	0.772541	0.232541	0.536814
0	H	0.719396	0.75704	0.0328987
0	H	0.00499519	0.022539	0.752687
0	H	0.484999	0.967268	0.257603
0	H	0.218771	0.757529	0.508513
0	H	0.271982	0.231921	0.0137237
0	H	0.470258	0.423373	0.798088
0	H	0.0208801	0.567393	0.297867
0	H	0.315552	0.717048	0.043965
0	H	0.17591	0.27254	0.547946
0	H	0.521445	0.567053	0.24811
0	H	0.971115	0.422224	0.741216
0	H	0.67484	0.272383	0.00148684
0	H	0.816518	0.71694	0.497552
0	H	0.970577	0.922255	0.299802
0	H	0.521174	0.0665738	0.7984
0	H	0.816835	0.216841	0.545861
0	H	0.675196	0.773003	0.0422254
0	H	0.0203585	0.0668806	0.744256
0	H	0.469605	0.922939	0.248424
0	H	0.174554	0.773446	0.499583
0	H	0.316185	0.215955	0.00452984
0	H	0.44132	0.456658	0.750843
0	H	0.04947	0.534056	0.249309
0	H	0.281513	0.688218	0.000150497
0	H	0.209997	0.301203	0.503677
0	H	0.550445	0.533744	0.29496
0	H	0.942409	0.455483	0.78962
0	H	0.70899	0.301104	0.0451969
0	H	0.782561	0.688147	0.542043
0	H	0.941987	0.955616	0.25141
0	H	0.550016	0.0331832	0.751267
0	H	0.782995	0.188143	0.500326
0	H	0.709304	0.801635	0.997836
0	H	0.0489905	0.0335244	0.792523
0	H	0.44077	0.956395	0.29526
0	H	0.2086	0.802052	0.544435
0	H	0.282019	0.187281	0.0484348
0	H	0.410176	0.42598	0.00486028
0	H	0.0813366	0.564722	0.50342
0	H	0.313555	0.659903	0.255993
0	H	0.177708	0.330313	0.758801
0	H	0.581006	0.564348	0.0402135
0	H	0.910598	0.424662	0.535743
0	H	0.676873	0.32932	0.78913
0	H	0.814511	0.659242	0.286525
0	H	0.909975	0.924823	0.505223
0	H	0.581123	0.0638236	0.00566086
0	H	0.814461	0.158462	0.755497
0	H	0.677565	0.830475	0.253586
0	H	0.0808724	0.0644359	0.538619
0	H	0.409877	0.925643	0.0407514
0	H	0.176854	0.831257	0.288923
0	H	0.313943	0.158752	0.792544
0	H	0.392652	0.442467	0.889539
0	H	0.0989624	0.547956	0.388401
0	H	0.296335	0.641123	0.142956
0	H	0.194917	0.348768	0.645239
0	H	0.598791	0.547904	0.155252
0	H	0.892956	0.441451	0.65071
0	H	0.694009	0.348174	0.902143
0	H	0.797387	0.64066	0.399968
0	H	0.892437	0.941604	0.390114
0	H	0.598696	0.047359	0.890396
0	H	0.797407	0.140197	0.64158
0	H	0.694567	0.84896	0.139918
0	H	0.0984961	0.0476475	0.653607
0	H	0.392188	0.942167	0.155833
0	H	0.193947	0.8497	0.402622
0	H	0.296741	0.140084	0.905739
0	H	0.422753	0.406434	0.892087
0	H	0.0689973	0.584123	0.390205
0	H	0.332543	0.671006	0.141216
0	H	0.158748	0.31884	0.644287
0	H	0.568692	0.583947	0.15314
0	H	0.92298	0.405337	0.648985
0	H	0.657831	0.318233	0.903843
0	H	0.833552	0.670591	0.401043
0	H	0.922355	0.905427	0.392051
0	H	0.568688	0.0834705	0.892895
0	H	0.833664	0.170037	0.641347
0	H	0.658335	0.819102	0.139336
0	H	0.0685283	0.0837856	0.651897
0	H	0.422192	0.906045	0.153687
0	H	0.157702	0.819854	0.403251
0	H	0.333042	0.169858	0.907199
0	H	0.398461	0.612824	0.786856
0	H	0.0947723	0.379178	0.285972
0	H	0.124838	0.647865	0.0435877
0	H	0.368457	0.34108	0.548132
0	H	0.592786	0.377565	0.258309
0	H	0.897137	0.610913	0.751597
0	H	0.865491	0.341552	0.000908148
0	H	0.624809	0.648049	0.499826
0	H	0.89635	0.110368	0.288494
0	H	0.593442	0.877585	0.787978
0	H	0.626724	0.146252	0.540072
0	H	0.865808	0.841995	0.0396917
0	H	0.0945826	0.878634	0.754706
0	H	0.397521	0.11185	0.258377
0	H	0.364962	0.843167	0.504399
0	H	0.125947	0.146703	0.00505145
0	H	0.415004	0.614594	0.663135
0	H	0.0780787	0.375995	0.162767
0	H	0.123277	0.663433	0.918893
0	H	0.368157	0.326571	0.422352
0	H	0.576094	0.375419	0.381822
0	H	0.913426	0.613694	0.875383
0	H	0.867643	0.325871	0.125396
0	H	0.624214	0.66337	0.624814
0	H	0.912815	0.113297	0.164946
0	H	0.577027	0.875593	0.664152
0	H	0.625038	0.16225	0.415866
0	H	0.867741	0.825994	0.915475
0	H	0.0781666	0.875632	0.878296
0	H	0.414068	0.114064	0.382053
0	H	0.366445	0.827176	0.628651
0	H	0.123604	0.162633	0.129258
0	H	0.393571	0.575516	0.707365
0	H	0.0983311	0.416072	0.204089
0	H	0.162215	0.642073	0.964471
0	H	0.330442	0.348713	0.472409
0	H	0.597522	0.414663	0.338664
0	H	0.89295	0.573913	0.832876
0	H	0.828443	0.347195	0.0813223
0	H	0.66251	0.641444	0.577353
0	H	0.892655	0.0733166	0.207221
0	H	0.59801	0.914899	0.708369
0	H	0.664183	0.14113	0.460863
0	H	0.828633	0.847456	0.95962
0	H	0.0984269	0.915592	0.836262
0	H	0.393074	0.0746574	0.338467
0	H	0.327459	0.848505	0.58338
0	H	0.162968	0.14145	0.0857436
0	H	0.469551	0.580089	0.611625
0	H	0.0227328	0.409652	0.110448
0	H	0.157735	0.717521	0.86474
0	H	0.333549	0.273373	0.367904
0	H	0.521497	0.409947	0.43359
0	H	0.968427	0.579888	0.928538
0	H	0.833061	0.27184	0.180531
0	H	0.658754	0.71714	0.67807
0	H	0.968162	0.0798565	0.112353
0	H	0.522178	0.909597	0.612241
0	H	0.659151	0.216733	0.363137
0	H	0.832943	0.772051	0.861659
0	H	0.0229415	0.909201	0.931296
0	H	0.468957	0.0799696	0.433998
0	H	0.332036	0.772944	0.681195
0	H	0.158194	0.21686	0.183831
0	H	0.492475	0.552338	0.695954
0	H	0.99877	0.436383	0.194949
0	H	0.185747	0.740822	0.94762
0	H	0.304923	0.250278	0.449544
0	H	0.498638	0.437806	0.34938
0	H	0.992344	0.552827	0.844709
0	H	0.804911	0.248527	0.0980647
0	H	0.687308	0.739965	0.59561
0	H	0.992277	0.0531642	0.19668
0	H	0.49883	0.937028	0.696489
0	H	0.686937	0.24001	0.446658
0	H	0.805091	0.748746	0.944942
0	H	0.998862	0.936027	0.847224
0	H	0.492193	0.0524555	0.349681
0	H	0.304251	0.749711	0.597573
0	H	0.186092	0.240204	0.100733
0	H	0.449534	0.539708	0.650988
0	H	0.0412206	0.45073	0.150502
0	H	0.19824	0.697649	0.904455
0	H	0.29336	0.29386	0.407692
0	H	0.541536	0.450394	0.394758
0	H	0.949643	0.538938	0.888438
0	H	0.79248	0.291694	0.141299
0	H	0.699039	0.696631	0.639103
0	H	0.949794	0.0387537	0.152737
0	H	0.541625	0.950217	0.651877
0	H	0.699776	0.197069	0.402656
0	H	0.792409	0.791829	0.901546
0	H	0.0414101	0.95029	0.891116
0	H	0.449411	0.0393587	0.394598
0	H	0.291498	0.792711	0.641351
0	H	0.198798	0.197144	0.144272
0	H	0.460598	0.629986	0.853253
0	H	0.0333183	0.359746	0.351191
0	H	0.108357	0.710114	0.107793
0	H	0.382462	0.27875	0.612391
0	H	0.530615	0.360368	0.191546
0	H	0.958849	0.629609	0.687065
0	H	0.88206	0.279217	0.936928
0	H	0.609763	0.710289	0.434228
0	H	0.957792	0.129921	0.352851
0	H	0.531468	0.859606	0.853412
0	H	0.609433	0.208239	0.605024
0	H	0.882504	0.779776	0.104313
0	H	0.0330118	0.85938	0.690192
0	H	0.459533	0.129866	0.192666
0	H	0.381705	0.780987	0.438683
0	H	0.108765	0.208931	0.941188
0	H	0.498276	0.602665	0.828153
0	H	0.994835	0.386262	0.327696
0	H	0.135696	0.747537	0.0797017
0	H	0.35451	0.24199	0.582336
0	H	0.492905	0.387601	0.217077
0	H	0.997074	0.602863	0.711736
0	H	0.854731	0.241801	0.965119
0	H	0.637392	0.747395	0.463241
0	H	0.996268	0.103348	0.329625
0	H	0.493524	0.8866	0.828522
0	H	0.636616	0.24595	0.578783
0	H	0.855032	0.742328	0.0774659
0	H	0.99462	0.88596	0.714317
0	H	0.497479	0.102896	0.217655
0	H	0.354498	0.743428	0.466345
0	H	0.136053	0.246493	0.968295
0	H	0.480128	0.629662	0.732692
0	H	0.0132513	0.359854	0.231457
0	H	0.108249	0.728695	0.986172
0	H	0.382597	0.260695	0.490117
0	H	0.511128	0.360481	0.312155
0	H	0.978567	0.629531	0.807293
0	H	0.882305	0.260556	0.0584403
0	H	0.609508	0.728734	0.55601
0	H	0.977861	0.12964	0.233111
0	H	0.511988	0.859905	0.732858
0	H	0.609551	0.227341	0.484049
0	H	0.882388	0.760785	0.983163
0	H	0.0131542	0.859472	0.810199
0	H	0.479025	0.12966	0.313235
0	H	0.381825	0.762271	0.56015
0	H	0.108753	0.227823	0.0624332
0	H	0.463526	0.59591	0.122749
0	H	0.0244534	0.397256	0.620379
0	H	0.145183	0.715282	0.378688
0	H	0.346599	0.275585	0.882886
0	H	0.526488	0.395494	0.923338
0	H	0.967539	0.591767	0.417599
0	H	0.84455	0.273684	0.667258
0	H	0.645536	0.714009	0.165222
0	H	0.967137	0.0918162	0.623411
0	H	0.525472	0.895858	0.123529
0	H	0.645806	0.213857	0.876102
0	H	0.84629	0.775137	0.374566
0	H	0.0237702	0.89741	0.420586
0	H	0.465201	0.0940234	0.923351
0	H	0.34638	0.7764	0.168721
0	H	0.145592	0.2148	0.671016
0	H	0.432555	0.624162	0.0612815
0	H	0.0550249	0.367254	0.563446
0	H	0.115854	0.684789	0.319293
0	H	0.375565	0.306246	0.822862
0	H	0.557205	0.366479	0.983069
0	H	0.93712	0.622077	0.473907
0	H	0.874388	0.303988	0.725557
0	H	0.616498	0.683196	0.224488
0	H	0.936836	0.122115	0.566517
0	H	0.555825	0.86634	0.0642009
0	H	0.616614	0.183313	0.816239
0	H	0.875365	0.805781	0.314838
0	H	0.0541814	0.867083	0.476909
0	H	0.434583	0.123306	0.982524
0	H	0.375027	0.807409	0.228564
0	H	0.116272	0.184171	0.729872
0	H	0.43207	0.621122	0.192704
0	H	0.0539033	0.37113	0.694659
0	H	0.119624	0.684675	0.450536
0	H	0.371914	0.30653	0.954122
0	H	0.557196	0.369913	0.851735
0	H	0.938259	0.617883	0.34276
0	H	0.870324	0.303832	0.594374
0	H	0.620188	0.683288	0.0932462
0	H	0.93781	0.118108	0.697709
0	H	0.555785	0.869884	0.195511
0	H	0.620068	0.183264	0.947527
0	H	0.871811	0.805848	0.446142
0	H	0.0530192	0.871221	0.34578
0	H	0.434759	0.119767	0.851197
0	H	0.37162	0.807331	0.097258
0	H	0.120014	0.184385	0.59863
0	H	0.438258	0.543952	0.23296
0	H	0.050786	0.448058	0.732523
0	H	0.197302	0.689409	0.486811
0	H	0.294278	0.30104	0.990787
0	H	0.552384	0.446932	0.812375
0	H	0.940748	0.540974	0.305623
0	H	0.792919	0.300003	0.558394
0	H	0.69786	0.688695	0.0566121
0	H	0.940264	0.0411864	0.735446
0	H	0.552045	0.946832	0.234851
0	H	0.697701	0.188129	0.985182
0	H	0.794126	0.800709	0.483118
0	H	0.0505317	0.948115	0.308362
0	H	0.439088	0.0427091	0.81212
0	H	0.293838	0.80129	0.0599936
0	H	0.197739	0.189158	0.562358
0	H	0.408533	0.575724	0.281683
0	H	0.0794429	0.415855	0.783574
0	H	0.165328	0.660461	0.537998
0	H	0.325969	0.330368	0.0417045
0	H	0.581698	0.4149	0.763107
0	H	0.912209	0.573282	0.25459
0	H	0.824944	0.328905	0.507312
0	H	0.666	0.659661	0.00522377
0	H	0.911642	0.0734896	0.786122
0	H	0.5812	0.914606	0.283875
0	H	0.665629	0.159215	0.0359918
0	H	0.826093	0.829676	0.534253
0	H	0.079121	0.915843	0.257405
0	H	0.409962	0.0748628	0.762594
0	H	0.325686	0.830297	0.00845572
0	H	0.165664	0.16047	0.510597
0	H	0.390819	0.536042	0.235732
0	H	0.0984921	0.454751	0.736849
0	H	0.204365	0.64185	0.490306
0	H	0.286712	0.348494	0.993946
0	H	0.599915	0.454314	0.809315
0	H	0.892999	0.534561	0.301961
0	H	0.785985	0.347568	0.555296
0	H	0.705192	0.641205	0.0523887
0	H	0.892523	0.0347313	0.738798
0	H	0.599637	0.953852	0.237265
0	H	0.70479	0.140601	0.989108
0	H	0.786946	0.848233	0.48715
0	H	0.0982758	0.954585	0.304714
0	H	0.391511	0.0355894	0.808933
0	H	0.286405	0.848759	0.0550137
0	H	0.204652	0.141589	0.557698
0	H	0.350677	0.567453	0.114526
0	H	0.138316	0.421552	0.618138
0	H	0.171361	0.602033	0.371233
0	H	0.3194	0.388573	0.874758
0	H	0.639811	0.422108	0.929692
0	H	0.853556	0.568063	0.421555
0	H	0.819489	0.387183	0.674155
0	H	0.672613	0.600978	0.171006
0	H	0.853146	0.0681879	0.61937
0	H	0.639111	0.921123	0.116962
0	H	0.672126	0.100654	0.870038
0	H	0.819634	0.888271	0.368127
0	H	0.137757	0.921112	0.424024
0	H	0.351739	0.0679591	0.929265
0	H	0.318564	0.889257	0.17388
0	H	0.171693	0.101525	0.676202
0	H	0.36488	0.609343	0.159876
0	H	0.122652	0.380474	0.665604
0	H	0.130215	0.617075	0.420116
0	H	0.36071	0.373927	0.923388
0	H	0.62494	0.380517	0.883762
0	H	0.869274	0.608802	0.371979
0	H	0.860468	0.371834	0.624816
0	H	0.631251	0.615785	0.123173
0	H	0.868883	0.109006	0.668407
0	H	0.62384	0.879795	0.163862
0	H	0.63077	0.11567	0.917478
0	H	0.860961	0.873311	0.415977
0	H	0.122014	0.880355	0.374607
0	H	0.36677	0.109326	0.8821
0	H	0.36004	0.87462	0.126433
0	H	0.130534	0.116745	0.627817
0	H	0.366934	0.60019	0.0303613
0	H	0.121424	0.388617	0.535471
0	H	0.137931	0.618682	0.289773
0	H	0.352912	0.372171	0.793106
0	H	0.623235	0.389405	0.0134401
0	H	0.870815	0.601364	0.502439
0	H	0.852921	0.370287	0.755224
0	H	0.639238	0.617236	0.253366
0	H	0.87037	0.101376	0.538023
0	H	0.622208	0.888348	0.0339868
0	H	0.638955	0.117132	0.787402
0	H	0.8529	0.871808	0.285783
0	H	0.12058	0.887806	0.505077
0	H	0.368378	0.100927	0.012083
0	H	0.351933	0.873221	0.256588
0	H	0.138328	0.118032	0.758137
0	H	0.335666	0.5331	0.1612
0	H	0.154263	0.456065	0.660753
0	H	0.205692	0.586065	0.413764
0	H	0.285038	0.404343	0.917504
0	H	0.655044	0.456587	0.8842
0	H	0.837503	0.533523	0.379716
0	H	0.785029	0.403099	0.631525
0	H	0.706943	0.5852	0.127802
0	H	0.83702	0.0335874	0.661447
0	H	0.654592	0.955778	0.161254
0	H	0.706511	0.0848313	0.913469
0	H	0.785374	0.904294	0.411257
0	H	0.153912	0.955717	0.382062
0	H	0.336308	0.0334171	0.884389
0	H	0.284384	0.905107	0.130048
0	H	0.205979	0.0855164	0.633423
0	H	0.337263	0.492839	0.232163
0	H	0.15306	0.496031	0.732932
0	H	0.246107	0.58691	0.484294
0	H	0.244552	0.403521	0.98764
0	H	0.653838	0.496841	0.813152
0	H	0.838059	0.493537	0.307573
0	H	0.744666	0.402225	0.560748
0	H	0.7475	0.586172	0.0580051
0	H	0.837909	0.993705	0.734007
0	H	0.653806	0.995944	0.232728
0	H	0.746903	0.0858515	0.984092
0	H	0.745024	0.902919	0.482023
0	H	0.152975	0.995631	0.309664
0	H	0.337346	0.993217	0.813122
0	H	0.243836	0.903916	0.0602021
0	H	0.24639	0.0866284	0.562878
0	H	0.273709	0.510659	0.202125
0	H	0.216473	0.477645	0.703451
0	H	0.227581	0.523766	0.452167
0	H	0.262936	0.466679	0.954331
0	H	0.717188	0.478471	0.842759
0	H	0.774947	0.512349	0.339322
0	H	0.763127	0.465373	0.59179
0	H	0.729026	0.522963	0.0896357
0	H	0.774618	0.0121306	0.702491
0	H	0.717003	0.977248	0.201203
0	H	0.728512	0.0226126	0.952457
0	H	0.763067	0.966304	0.451224
0	H	0.21628	0.977313	0.340884
0	H	0.274036	0.0115886	0.84375
0	H	0.262092	0.967236	0.0914138
0	H	0.227983	0.0233729	0.593276
0	H	0.279712	0.510407	0.0713563
0	H	0.210721	0.478294	0.572613
0	H	0.227545	0.530375	0.321669
0	H	0.263023	0.459718	0.824019
0	H	0.7113	0.478557	0.973587
0	H	0.781309	0.511811	0.469929
0	H	0.763391	0.459032	0.72244
0	H	0.728723	0.529516	0.220107
0	H	0.780861	0.0114146	0.571826
0	H	0.710647	0.977538	0.0705307
0	H	0.728549	0.0290865	0.821957
0	H	0.762932	0.960096	0.320576
0	H	0.210083	0.977805	0.471581
0	H	0.280189	0.0115409	0.97452
0	H	0.262328	0.96081	0.221904
0	H	0.227843	0.0295212	0.723935
0	H	0.281701	0.470052	0.140232
0	H	0.209079	0.518486	0.642227
0	H	0.268178	0.531563	0.389655
0	H	0.222385	0.458557	0.891943
0	H	0.709682	0.519046	0.905249
0	H	0.782304	0.47153	0.400673
0	H	0.722638	0.457744	0.655029
0	H	0.769486	0.530833	0.152745
0	H	0.782158	0.971271	0.641651
0	H	0.709527	0.0179298	0.139306
0	H	0.769133	0.0304608	0.890161
0	H	0.722424	0.958355	0.389053
0	H	0.208723	0.018064	0.402297
0	H	0.281608	0.971047	0.906212
0	H	0.221615	0.959253	0.154347
0	H	0.268521	0.0310149	0.656234
0	H	0.353774	0.537116	0.949415
0	H	0.136763	0.452992	0.44937
0	H	0.202232	0.60559	0.19997
0	H	0.288814	0.385526	0.703947
0	H	0.637061	0.452797	0.0960734
0	H	0.856022	0.536267	0.591639
0	H	0.788464	0.383963	0.844882
0	H	0.702735	0.603271	0.340709
0	H	0.855353	0.0363022	0.449664
0	H	0.63644	0.952443	0.949246
0	H	0.702715	0.103075	0.700843
0	H	0.789249	0.885538	0.198853
0	H	0.135623	0.952913	0.59383
0	H	0.3544	0.0369464	0.0967155
0	H	0.288677	0.887048	0.342969
0	H	0.202184	0.104121	0.846349
0	H	0.326208	0.464893	0.861768
0	H	0.164501	0.525195	0.361975
0	H	0.273447	0.57351	0.1172
0	H	0.216646	0.414701	0.619176
0	H	0.665555	0.524718	0.183347
0	H	0.826211	0.464536	0.676729
0	H	0.717152	0.415487	0.928717
0	H	0.77498	0.57533	0.428114
0	H	0.826119	0.964293	0.364618
0	H	0.665322	0.024436	0.86323
0	H	0.774922	0.0746353	0.614395
0	H	0.717409	0.914881	0.112483
0	H	0.164832	0.0248708	0.679134
0	H	0.325491	0.964953	0.182637
0	H	0.216365	0.914786	0.430422
0	H	0.273808	0.0739495	0.931952
0	H	0.308125	0.463881	0.693552
0	H	0.18059	0.526549	0.19233
0	H	0.275009	0.557874	0.946902
0	H	0.214835	0.431437	0.450211
0	H	0.683141	0.52558	0.35212
0	H	0.8107	0.462996	0.847067
0	H	0.715699	0.430833	0.0991826
0	H	0.776283	0.557901	0.596424
0	H	0.810585	0.962561	0.19435
0	H	0.682215	0.0256686	0.693939
0	H	0.776398	0.0577946	0.445509
0	H	0.716211	0.931398	0.943021
0	H	0.180257	0.0265105	0.849483
0	H	0.308407	0.963781	0.351882
0	H	0.215001	0.932053	0.59889
0	H	0.275036	0.0583059	0.102241
0	H	0.29443	0.494139	0.533822
0	H	0.194057	0.49647	0.0321194
0	H	0.244921	0.544651	0.786426
0	H	0.244444	0.445015	0.289267
0	H	0.6965	0.495149	0.511788
0	H	0.796959	0.493078	0.00705796
0	H	0.745861	0.443844	0.259642
0	H	0.746313	0.544332	0.756822
0	H	0.796977	0.992404	0.0340728
0	H	0.696148	0.995431	0.534434
0	H	0.746496	0.0442421	0.284985
0	H	0.746461	0.944634	0.782865
0	H	0.193876	0.99655	0.00967113
0	H	0.294786	0.994031	0.511537
0	H	0.244941	0.945595	0.759324
0	H	0.2447	0.0452132	0.262373
0	H	0.301854	0.560237	0.518604
0	H	0.18814	0.4302	0.0177576
0	H	0.178691	0.551851	0.770923
0	H	0.31063	0.438017	0.27224
0	H	0.688884	0.429042	0.526452
0	H	0.802848	0.559343	0.0215493
0	H	0.81215	0.436908	0.274561
0	H	0.680118	0.551622	0.772926
0	H	0.802712	0.0587122	0.0191088
0	H	0.689652	0.929163	0.519915
0	H	0.680255	0.0510989	0.26908
0	H	0.81272	0.937438	0.767932
0	H	0.188257	0.930226	0.0241802
0	H	0.301757	0.060257	0.52626
0	H	0.311152	0.938492	0.775316
0	H	0.178367	0.0519683	0.276564
0	H	0.322846	0.59558	0.664311
0	H	0.168808	0.394525	0.164533
0	H	0.143072	0.572154	0.916819
0	H	0.346705	0.417565	0.417155
0	H	0.668055	0.393893	0.380234
0	H	0.822479	0.595009	0.874981
0	H	0.847739	0.417178	0.128005
0	H	0.644413	0.572332	0.627599
0	H	0.822052	0.0945942	0.165568
0	H	0.66921	0.893728	0.6661
0	H	0.644423	0.0713288	0.414629
0	H	0.848178	0.917169	0.914092
0	H	0.169039	0.894438	0.877487
0	H	0.322264	0.0956267	0.380033
0	H	0.346911	0.918051	0.629914
0	H	0.142927	0.0715577	0.129691
0	H	0.337093	0.565333	0.824906
0	H	0.154822	0.424573	0.325643
0	H	0.173124	0.585829	0.0782226
0	H	0.317132	0.403644	0.579058
0	H	0.654138	0.424318	0.219704
0	H	0.83659	0.564972	0.71396
0	H	0.817607	0.403753	0.966539
0	H	0.674346	0.586257	0.466224
0	H	0.83611	0.0647875	0.326843
0	H	0.654773	0.923926	0.826529
0	H	0.674276	0.0852716	0.576101
0	H	0.817964	0.903478	0.0752683
0	H	0.154999	0.924337	0.716309
0	H	0.336394	0.0653937	0.21948
0	H	0.317028	0.904125	0.468473
0	H	0.173219	0.0850639	0.968535
