#******************************************
#
# CIF file created by Zeo++
# Zeo++ is an open source package to
# analyze microporous materials
#
#*******************************************

_cell_length_a		27.1896(0)
_cell_length_b		12.499(0)
_cell_length_c		25.7551(0)
_cell_angle_alpha		90(0)
_cell_angle_beta		90(0)
_cell_angle_gamma		90(0)

_symmetry_space_group_name_H-M		'P1'
_symmetry_Int_Tables_number		1
_symmetry_cell_setting		Monoclinic

loop_
_symmetry_equiv_pos_as_xyz
'+x,+y,+z'

loop_
_atom_site_label
_atom_site_type_symbol
_atom_site_fract_x
_atom_site_fract_y
_atom_site_fract_z
0	Si	0.0922478	0.849348	0.408019
0	Si	0.383902	0.694446	0.914507
0	Si	0.877907	0.850125	0.0672996
0	Si	0.585295	0.694027	0.564384
0	Si	0.876439	0.207036	0.569174
0	Si	0.585486	0.362839	0.0630589
0	Si	0.0915578	0.206272	0.909605
0	Si	0.382651	0.362549	0.413022
0	Si	0.111927	0.24463	0.424069
0	Si	0.360826	0.301274	0.933711
0	Si	0.856882	0.245968	0.0501172
0	Si	0.607455	0.30218	0.545922
0	Si	0.856702	0.811729	0.553077
0	Si	0.607944	0.755496	0.0437104
0	Si	0.112417	0.810481	0.926611
0	Si	0.361081	0.754622	0.431584
0	Si	0.934357	0.544429	0.376209
0	Si	0.538607	0.0247504	0.868583
0	Si	0.0355449	0.544554	0.105738
0	Si	0.430831	0.0255773	0.60477
0	Si	0.0342303	0.512026	0.600986
0	Si	0.430644	0.0323006	0.109257
0	Si	0.933586	0.511475	0.870973
0	Si	0.537506	0.0319394	0.372641
0	Si	0.799953	0.489826	0.218422
0	Si	0.668758	0.0738844	0.710295
0	Si	0.169409	0.495359	0.264303
0	Si	0.299619	0.080237	0.761913
0	Si	0.16879	0.566625	0.758738
0	Si	0.299859	0.98319	0.267078
0	Si	0.799302	0.561496	0.713021
0	Si	0.669064	0.976684	0.215617
0	C	0.0589356	0.0463006	0.445197
0	C	0.413753	0.498857	0.955362
0	C	0.910176	0.0476757	0.0297254
0	C	0.554877	0.499459	0.5232
0	C	0.909722	0.0100599	0.532005
0	C	0.555222	0.557882	0.0219301
0	C	0.0591294	0.00870942	0.947085
0	C	0.413447	0.556971	0.45411
0	C	0.1278	0.0622339	0.496947
0	C	0.342901	0.486401	0.00449467
0	C	0.841401	0.0626418	0.977743
0	C	0.626117	0.486572	0.47475
0	C	0.840858	0.994193	0.48024
0	C	0.626097	0.570463	0.97283
0	C	0.127855	0.993569	0.999144
0	C	0.342283	0.570205	0.502677
0	C	0.103052	0.114034	0.459185
0	C	0.368891	0.432557	0.968386
0	C	0.866033	0.115005	0.0154086
0	C	0.599803	0.432937	0.510673
0	C	0.865596	0.942359	0.517998
0	C	0.600024	0.624344	0.00886414
0	C	0.10326	0.941315	0.961422
0	C	0.368608	0.623699	0.466713
0	C	0.87707	0.586337	0.340747
0	C	0.595556	0.98042	0.833384
0	C	0.0925699	0.588022	0.141219
0	C	0.373561	0.982971	0.639893
0	C	0.0914794	0.470084	0.636497
0	C	0.37354	0.0765512	0.144211
0	C	0.876356	0.468264	0.835779
0	C	0.594824	0.0742931	0.33752
0	C	0.103188	0.954492	0.511906
0	C	0.367306	0.59454	0.0191995
0	C	0.866081	0.954664	0.96325
0	C	0.60189	0.594659	0.459668
0	C	0.865496	0.101918	0.465285
0	C	0.601794	0.46215	0.958215
0	C	0.103171	0.101533	0.0136489
0	C	0.366452	0.462064	0.517745
0	C	0.0684023	0.933957	0.465015
0	C	0.404189	0.612102	0.973826
0	C	0.901033	0.935074	0.0101043
0	C	0.56482	0.612637	0.504822
0	C	0.900286	0.122413	0.512179
0	C	0.564973	0.44459	0.00364393
0	C	0.0683064	0.121285	0.966735
0	C	0.403419	0.443875	0.472515
0	H	0.0336211	0.893258	0.477532
0	H	0.438803	0.652104	0.987634
0	H	0.935981	0.894964	0.997609
0	H	0.530442	0.653213	0.490841
0	H	0.93507	0.163074	0.499656
0	H	0.530435	0.404196	0.98994
0	H	0.0333542	0.161439	0.979186
0	H	0.437766	0.403045	0.486402
0	C	0.808854	0.670477	0.296534
0	C	0.663196	0.894614	0.789245
0	C	0.160331	0.674347	0.185187
0	C	0.305305	0.899305	0.683989
0	C	0.159667	0.385859	0.68071
0	C	0.305682	0.16227	0.188059
0	C	0.808427	0.382215	0.791968
0	C	0.663154	0.157761	0.293455
0	C	0.856479	0.681265	0.329122
0	C	0.615181	0.884767	0.821313
0	C	0.112757	0.683593	0.152388
0	C	0.353492	0.887957	0.65234
0	C	0.112029	0.375122	0.648135
0	C	0.353753	0.172146	0.156087
0	C	0.856105	0.372771	0.824588
0	C	0.614981	0.169243	0.325109
0	C	0.844993	0.49795	0.319288
0	C	0.628677	0.0679014	0.812796
0	C	0.124864	0.500662	0.163327
0	C	0.340618	0.0714587	0.659756
0	C	0.123592	0.558439	0.657939
0	C	0.340432	0.989016	0.164771
0	C	0.843986	0.555744	0.813914
0	C	0.627678	0.985697	0.317629
0	C	0.804366	0.548066	0.286933
0	C	0.668084	0.0168609	0.779199
0	C	0.165249	0.552265	0.195504
0	C	0.300786	0.0218594	0.693301
0	C	0.164223	0.508267	0.690267
0	C	0.300843	0.0400363	0.198151
0	C	0.803536	0.504337	0.781766
0	C	0.667627	0.0351753	0.284203
0	H	0.767843	0.516111	0.301531
0	H	0.705277	0.0483313	0.791992
0	H	0.201919	0.520631	0.181165
0	H	0.263801	0.0536891	0.680046
0	H	0.200743	0.540111	0.675592
0	H	0.263733	0.00840774	0.185191
0	H	0.766889	0.535971	0.796171
0	H	0.704551	0.00327542	0.297621
0	O	0.0211936	0.0759807	0.423657
0	O	0.452232	0.46739	0.935939
0	O	0.947822	0.0778792	0.0512926
0	O	0.516191	0.468272	0.542248
0	O	0.94744	0.980335	0.553573
0	O	0.516659	0.589174	0.0412342
0	O	0.0214768	0.978568	0.925517
0	O	0.452117	0.588017	0.434957
0	O	0.848814	0.402808	0.32862
0	O	0.626267	0.162698	0.823444
0	O	0.121298	0.405222	0.154677
0	O	0.343444	0.165963	0.648591
0	O	0.119797	0.653569	0.64858
0	O	0.342976	0.89418	0.154236
0	O	0.847539	0.651123	0.822737
0	O	0.624719	0.891154	0.328687
0	C	0.173422	0.0938423	0.526318
0	C	0.296531	0.456093	0.0329417
0	C	0.796017	0.0937464	0.947811
0	C	0.672798	0.455911	0.446996
0	C	0.795238	0.962654	0.450851
0	C	0.67245	0.600887	0.944381
0	C	0.173199	0.962324	0.0291103
0	C	0.295648	0.601022	0.530473
0	H	0.175948	0.0478651	0.563613
0	H	0.293401	0.502838	0.0699504
0	H	0.794029	0.0475281	0.91054
0	H	0.676553	0.502607	0.41004
0	H	0.792774	0.00854738	0.413527
0	H	0.675611	0.553965	0.907414
0	H	0.175217	0.00854937	0.0663769
0	H	0.291882	0.554296	0.567416
0	C	0.220342	0.0791019	0.494646
0	C	0.250238	0.470482	0.000224573
0	C	0.748731	0.0788007	0.978847
0	C	0.718626	0.469991	0.480469
0	C	0.7483	0.977593	0.482473
0	C	0.718777	0.586912	0.977096
0	C	0.220503	0.977064	0.998085
0	C	0.249806	0.587058	0.497022
0	H	0.215813	0.106057	0.454364
0	H	0.255866	0.445852	0.959752
0	H	0.752726	0.10545	0.01924
0	H	0.712496	0.443945	0.520651
0	H	0.752796	0.950755	0.522777
0	H	0.713293	0.612508	0.0174528
0	H	0.216336	0.951665	0.957523
0	H	0.255872	0.61357	0.456901
0	H	0.231996	0.995195	0.493772
0	H	0.237819	0.553887	7.77082e-05
0	H	0.737057	0.994898	0.979436
0	H	0.730747	0.553584	0.481379
0	H	0.736669	0.0615142	0.483275
0	H	0.731065	0.503426	0.977637
0	H	0.2326	0.0606969	0.998041
0	H	0.237809	0.503398	0.495896
0	H	0.250304	0.126723	0.511623
0	H	0.220382	0.42063	0.0159008
0	H	0.718967	0.126519	0.961517
0	H	0.74885	0.421112	0.464888
0	H	0.718335	0.929964	0.465514
0	H	0.748677	0.636209	0.961091
0	H	0.250039	0.928156	0.0150595
0	H	0.219523	0.635541	0.512752
0	O	0.172832	0.204521	0.542308
0	O	0.296486	0.345696	0.0494954
0	O	0.796512	0.204352	0.931677
0	O	0.672804	0.345484	0.430497
0	O	0.795759	0.851938	0.434919
0	O	0.672407	0.711234	0.927743
0	O	0.172616	0.851716	0.045259
0	O	0.295736	0.711436	0.546988
0	H	0.137436	0.230812	0.548106
0	H	0.331623	0.318887	0.0559918
0	H	0.831848	0.230617	0.925541
0	H	0.637621	0.318725	0.424131
0	H	0.831139	0.825513	0.429164
0	H	0.637253	0.737931	0.921276
0	H	0.137267	0.825506	0.0513205
0	H	0.330937	0.738047	0.553404
0	C	0.0970863	0.217913	0.354355
0	C	0.377469	0.326764	0.864303
0	C	0.871656	0.220455	0.11997
0	C	0.591099	0.329712	0.615217
0	C	0.871686	0.838144	0.622784
0	C	0.591889	0.729029	0.113195
0	C	0.0978771	0.836496	0.856749
0	C	0.377468	0.727276	0.362282
0	H	0.0596606	0.184081	0.351501
0	H	0.415508	0.357341	0.86217
0	H	0.909248	0.18763	0.123089
0	H	0.553209	0.361175	0.617224
0	H	0.909045	0.872342	0.625591
0	H	0.553865	0.698495	0.115588
0	H	0.0603088	0.86942	0.853558
0	H	0.415328	0.695622	0.360296
0	H	0.122739	0.161057	0.336387
0	H	0.35317	0.385855	0.845942
0	H	0.84626	0.163074	0.137948
0	H	0.615714	0.388635	0.633236
0	H	0.845954	0.894565	0.64094
0	H	0.616303	0.669617	0.13113
0	H	0.123357	0.893933	0.83894
0	H	0.352817	0.668485	0.344222
0	H	0.0979311	0.292107	0.331285
0	H	0.375602	0.252781	0.841147
0	H	0.870293	0.294792	0.14289
0	H	0.592604	0.256201	0.638746
0	H	0.871069	0.763728	0.645696
0	H	0.59397	0.802655	0.136593
0	H	0.0992663	0.762306	0.83372
0	H	0.376052	0.800812	0.338773
0	C	0.0672495	0.341818	0.452266
0	C	0.405028	0.205663	0.963866
0	C	0.90135	0.343338	0.021667
0	C	0.562641	0.207038	0.516491
0	C	0.901263	0.714453	0.524746
0	C	0.563159	0.850659	0.0142002
0	C	0.0677685	0.713173	0.954801
0	C	0.405946	0.849474	0.461153
0	H	0.0668671	0.33751	0.495358
0	H	0.40139	0.205289	0.00680125
0	H	0.901943	0.33827	0.978586
0	H	0.565746	0.206569	0.47349
0	H	0.901658	0.719002	0.481659
0	H	0.565984	0.85057	0.971172
0	H	0.0670981	0.717964	0.997889
0	H	0.40265	0.850203	0.504131
0	H	0.0297573	0.323003	0.438738
0	H	0.44299	0.230671	0.954751
0	H	0.938842	0.325371	0.0354658
0	H	0.524863	0.232569	0.526098
0	H	0.938776	0.732988	0.538307
0	H	0.525388	0.82565	0.0241388
0	H	0.030327	0.731461	0.940954
0	H	0.443707	0.823494	0.451759
0	H	0.0753478	0.424939	0.441446
0	H	0.400347	0.12313	0.950141
0	H	0.892938	0.426547	0.0320631
0	H	0.567234	0.124444	0.530148
0	H	0.893075	0.631311	0.535444
0	H	0.568018	0.933388	0.0275706
0	H	0.0760836	0.629975	0.944296
0	H	0.401578	0.932019	0.44735
0	C	0.176024	0.296977	0.429905
0	C	0.29653	0.249354	0.937616
0	C	0.792598	0.297006	0.0440421
0	C	0.6714	0.248199	0.541983
0	C	0.792564	0.759615	0.547302
0	C	0.672032	0.808454	0.0393226
0	C	0.176616	0.759018	0.932828
0	C	0.297159	0.808742	0.435475
0	H	0.178191	0.379336	0.41507
0	H	0.294882	0.16579	0.924405
0	H	0.789983	0.37969	0.0583003
0	H	0.672449	0.164763	0.555497
0	H	0.790376	0.677174	0.562024
0	H	0.67361	0.891942	0.0526382
0	H	0.179052	0.676071	0.918897
0	H	0.296186	0.892151	0.421919
0	H	0.202763	0.248247	0.408422
0	H	0.270898	0.296188	0.913758
0	H	0.766145	0.248218	0.0658779
0	H	0.697482	0.294408	0.565584
0	H	0.765866	0.808265	0.568879
0	H	0.698001	0.761754	0.0628319
0	H	0.203137	0.807153	0.91075
0	H	0.271083	0.762551	0.411863
0	H	0.187068	0.297311	0.471342
0	H	0.283607	0.25268	0.978396
0	H	0.781556	0.295903	0.00260237
0	H	0.684259	0.250469	0.501165
0	H	0.781472	0.759526	0.505877
0	H	0.684613	0.805536	0.998411
0	H	0.187725	0.760674	0.974242
0	H	0.284257	0.806571	0.476274
0	C	0.967512	0.659098	0.406297
0	C	0.502003	0.909318	0.892759
0	C	0.0026425	0.657856	0.0741908
0	C	0.467465	0.908898	0.582082
0	C	0.00112051	0.397371	0.570839
0	C	0.467607	0.147806	0.0857461
0	C	0.966507	0.398012	0.902362
0	C	0.500989	0.148643	0.395544
0	H	0.942392	0.69823	0.434655
0	H	0.525493	0.862622	0.919963
0	H	0.0281149	0.695976	0.0458258
0	H	0.444325	0.861816	0.554728
0	H	0.0262085	0.358436	0.542391
0	H	0.444345	0.195221	0.0586723
0	H	0.941004	0.359772	0.930661
0	H	0.524135	0.195342	0.423051
0	H	0.978054	0.720662	0.377461
0	H	0.491399	0.855315	0.860778
0	H	0.99172	0.720542	0.102281
0	H	0.477376	0.855651	0.614611
0	H	0.990681	0.335635	0.599637
0	H	0.478285	0.200999	0.118019
0	H	0.977441	0.335454	0.874226
0	H	0.491213	0.20226	0.363108
0	H	0.00105832	0.633695	0.42703
0	H	0.468364	0.933326	0.913671
0	H	0.969387	0.631657	0.0531946
0	H	0.501529	0.931949	0.561663
0	H	0.967511	0.42273	0.550205
0	H	0.501233	0.123764	0.0648149
0	H	0.999748	0.424137	0.92341
0	H	0.466853	0.125559	0.41581
0	C	0.974675	0.474566	0.328072
0	C	0.50162	0.106335	0.821831
0	C	0.99486	0.476649	0.154209
0	C	0.467531	0.108968	0.651005
0	C	0.993844	0.581833	0.649081
0	C	0.467183	0.949723	0.155993
0	C	0.97409	0.579156	0.82226
0	C	0.500643	0.949064	0.32634
0	H	0.00826291	0.44411	0.346857
0	H	0.468307	0.138255	0.840528
0	H	0.961383	0.445579	0.135459
0	H	0.500774	0.140808	0.632125
0	H	0.960305	0.612435	0.630252
0	H	0.500433	0.917346	0.137365
0	H	0.00763838	0.6103	0.840852
0	H	0.467198	0.917968	0.345113
0	H	0.985737	0.52707	0.295951
0	H	0.490219	0.0596699	0.787781
0	H	0.983612	0.530486	0.185734
0	H	0.479002	0.0635248	0.685414
0	H	0.982692	0.52917	0.681107
0	H	0.478634	0.995874	0.190192
0	H	0.985215	0.525164	0.790749
0	H	0.489485	0.994538	0.29183
0	H	0.954814	0.405576	0.31153
0	H	0.523738	0.174686	0.808112
0	H	0.0145402	0.408287	0.17158
0	H	0.445161	0.177426	0.664148
0	H	0.0137025	0.650704	0.665753
0	H	0.444733	0.881664	0.169467
0	H	0.954353	0.647431	0.804883
0	H	0.522762	0.880098	0.313355
0	C	0.915103	0.448778	0.42827
0	C	0.559289	0.108887	0.924533
0	C	0.0550572	0.446988	0.0546302
0	C	0.410742	0.107455	0.547813
0	C	0.053534	0.607647	0.548935
0	C	0.410201	0.949005	0.0529257
0	C	0.914386	0.609163	0.922157
0	C	0.557526	0.949524	0.429441
0	H	0.946932	0.415068	0.448834
0	H	0.528196	0.146259	0.944826
0	H	0.0233961	0.4143	0.033409
0	H	0.442117	0.143569	0.527448
0	H	0.0217151	0.641598	0.528447
0	H	0.441352	0.911642	0.0327315
0	H	0.946143	0.641553	0.943328
0	H	0.526088	0.913871	0.449892
0	H	0.894315	0.382044	0.410264
0	H	0.583791	0.172975	0.910067
0	H	0.0747936	0.379671	0.0735201
0	H	0.386249	0.172437	0.561267
0	H	0.0744527	0.674201	0.566929
0	H	0.385539	0.884922	0.0670473
0	H	0.894745	0.67668	0.903308
0	H	0.581727	0.884171	0.415817
0	H	0.891145	0.488202	0.456828
0	H	0.579945	0.060303	0.952676
0	H	0.0800232	0.484623	0.0264853
0	H	0.390226	0.0578549	0.519964
0	H	0.077382	0.568118	0.520311
0	H	0.389774	0.997985	0.0247576
0	H	0.889374	0.571778	0.95033
0	H	0.578329	0.998652	0.457252
0	C	0.873494	0.793752	0.340755
0	C	0.597025	0.772629	0.831853
0	C	0.0952005	0.795509	0.140308
0	C	0.371202	0.775274	0.642389
0	C	0.094987	0.26265	0.636524
0	C	0.371777	0.284294	0.145331
0	C	0.873657	0.260773	0.836513
0	C	0.597342	0.281947	0.335137
0	H	0.842838	0.852256	0.333298
0	H	0.627433	0.713314	0.824811
0	H	0.125551	0.854836	0.147615
0	H	0.340529	0.716695	0.649571
0	H	0.125604	0.2041	0.644063
0	H	0.341266	0.343459	0.152184
0	H	0.843255	0.201536	0.82929
0	H	0.62805	0.340467	0.328007
0	O	0.88301	0.800277	0.396124
0	O	0.586038	0.76416	0.886918
0	O	0.0856451	0.801066	0.0849289
0	O	0.382285	0.765622	0.587387
0	O	0.0855523	0.256047	0.581142
0	O	0.382822	0.292219	0.0902504
0	O	0.883408	0.255031	0.891853
0	O	0.586282	0.291399	0.39015
0	H	0.904114	0.865329	0.404102
0	H	0.564525	0.699367	0.893551
0	H	0.0644367	0.865755	0.0766849
0	H	0.403768	0.700607	0.581126
0	H	0.0644825	0.19097	0.573146
0	H	0.404505	0.35672	0.0835055
0	H	0.904607	0.190263	0.899978
0	H	0.564737	0.356291	0.396452
0	C	0.919138	0.825498	0.309975
0	C	0.551761	0.743178	0.799955
0	C	0.0493427	0.826549	0.170912
0	C	0.416184	0.745541	0.674664
0	C	0.0492794	0.231038	0.667233
0	C	0.416921	0.314459	0.177253
0	C	0.919391	0.229725	0.805707
0	C	0.552373	0.311979	0.302905
0	H	0.928282	0.910154	0.315724
0	H	0.540313	0.660381	0.807405
0	H	0.0396162	0.910717	0.164626
0	H	0.427551	0.662626	0.667354
0	H	0.040565	0.145988	0.662187
0	H	0.428428	0.39704	0.169341
0	H	0.929322	0.145731	0.812218
0	H	0.540913	0.394722	0.310534
0	H	0.914038	0.81213	0.268263
0	H	0.558619	0.751556	0.758251
0	H	0.0545484	0.814497	0.212701
0	H	0.409004	0.753994	0.716311
0	H	0.0540099	0.246136	0.708857
0	H	0.409848	0.307301	0.218974
0	H	0.913894	0.241103	0.763914
0	H	0.559602	0.304239	0.261241
0	H	0.951458	0.778233	0.322144
0	H	0.520272	0.795113	0.809804
0	H	0.0173925	0.777881	0.159078
0	H	0.447823	0.797293	0.665089
0	H	0.0168229	0.277118	0.654383
0	H	0.448411	0.262134	0.167914
0	H	0.951311	0.278869	0.817145
0	H	0.520763	0.259957	0.312233
0	C	0.761968	0.709677	0.326561
0	C	0.709529	0.855428	0.820229
0	C	0.207164	0.713885	0.155142
0	C	0.259092	0.860341	0.652772
0	C	0.206516	0.346572	0.65065
0	C	0.259382	0.201303	0.15698
0	C	0.761664	0.342696	0.822139
0	C	0.709412	0.196744	0.324599
0	H	0.729244	0.70014	0.300662
0	H	0.742649	0.864606	0.794914
0	H	0.239757	0.706646	0.181394
0	H	0.22572	0.871812	0.677489
0	H	0.239275	0.356155	0.676492
0	H	0.226217	0.192116	0.182224
0	H	0.728998	0.350178	0.796008
0	H	0.742737	0.185326	0.299805
0	C	0.754023	0.654594	0.378634
0	C	0.716871	0.910812	0.872316
0	C	0.216009	0.656805	0.103719
0	C	0.252938	0.91363	0.600023
0	C	0.214378	0.401593	0.598545
0	C	0.252164	0.145828	0.104897
0	C	0.753013	0.399529	0.873664
0	C	0.715662	0.143349	0.377309
0	H	0.782679	0.67711	0.406849
0	H	0.6874	0.890247	0.899897
0	H	0.187567	0.67744	0.0749364
0	H	0.282639	0.890831	0.573126
0	H	0.185623	0.37922	0.570419
0	H	0.281568	0.166753	0.0773007
0	H	0.781437	0.378371	0.902377
0	H	0.685921	0.165848	0.404215
0	H	0.754515	0.567167	0.375499
0	H	0.717402	0.998231	0.868808
0	H	0.215937	0.569506	0.107766
0	H	0.253057	0.00118382	0.602588
0	H	0.213993	0.489023	0.601675
0	H	0.251877	0.0584063	0.108409
0	H	0.753282	0.486843	0.869758
0	H	0.715687	0.0558017	0.374682
0	H	0.718403	0.678595	0.395567
0	H	0.751846	0.885448	0.890211
0	H	0.251709	0.680807	0.0869925
0	H	0.218042	0.888579	0.581834
0	H	0.249926	0.377394	0.581514
0	H	0.217117	0.170753	0.0870097
0	H	0.717276	0.375807	0.890396
0	H	0.750521	0.168608	0.395507
0	C	0.813709	0.738702	0.24729
0	C	0.658895	0.825703	0.740185
0	C	0.154937	0.743521	0.234065
0	C	0.308877	0.831342	0.733416
0	C	0.154801	0.317678	0.729963
0	C	0.309911	0.23128	0.237101
0	C	0.813622	0.313214	0.743012
0	C	0.65956	0.225616	0.243993
0	H	0.811907	0.824397	0.256908
0	H	0.660389	0.740112	0.750082
0	H	0.156265	0.829041	0.224006
0	H	0.307025	0.745583	0.723926
0	H	0.156635	0.231978	0.720363
0	H	0.308514	0.316852	0.227159
0	H	0.812309	0.227654	0.753001
0	H	0.661494	0.311388	0.253443
0	H	0.783441	0.723708	0.219831
0	H	0.689546	0.840132	0.713125
0	H	0.185163	0.729895	0.261749
0	H	0.278037	0.846946	0.760078
0	H	0.185032	0.332746	0.757453
0	H	0.279167	0.217038	0.264064
0	H	0.783286	0.326977	0.715479
0	H	0.690335	0.209834	0.217274
0	H	0.84836	0.723478	0.226868
0	H	0.624498	0.840842	0.719211
0	H	0.120282	0.72779	0.254401
0	H	0.343153	0.84613	0.754642
0	H	0.120123	0.332852	0.750337
0	H	0.344241	0.216011	0.25818
0	H	0.848195	0.329011	0.722527
0	H	0.625239	0.210914	0.222836
0	O	0.764598	0.823538	0.3335
0	O	0.706453	0.741672	0.827268
0	O	0.203676	0.827264	0.146971
0	O	0.261365	0.746168	0.646967
0	O	0.203856	0.232705	0.64376
0	O	0.262415	0.315058	0.149901
0	O	0.765095	0.229256	0.830139
0	O	0.707144	0.310899	0.330459
0	H	0.774439	0.840959	0.370468
0	H	0.695632	0.72425	0.863888
0	H	0.193732	0.842638	0.10982
0	H	0.272074	0.726678	0.610563
0	H	0.194094	0.21525	0.60678
0	H	0.273162	0.332454	0.113252
0	H	0.77514	0.213613	0.867228
0	H	0.696392	0.330319	0.366866
0	C	0.856614	0.516151	0.179396
0	C	0.610214	0.0444943	0.675015
0	C	0.111843	0.519144	0.302213
0	C	0.357481	0.0501476	0.798291
0	C	0.11215	0.54059	0.797838
0	C	0.358271	0.0124002	0.302642
0	C	0.856765	0.537443	0.674981
0	C	0.611401	0.00693939	0.178927
0	H	0.889367	0.486153	0.199979
0	H	0.578469	0.0774726	0.696253
0	H	0.0796699	0.488838	0.280747
0	H	0.389812	0.0790499	0.776644
0	H	0.0793654	0.570089	0.777142
0	H	0.390085	0.979733	0.281403
0	H	0.888982	0.568059	0.696278
0	H	0.578974	0.977151	0.200121
0	H	0.862304	0.601765	0.171797
0	H	0.603963	0.958133	0.670353
0	H	0.105488	0.604365	0.310284
0	H	0.362473	0.96397	0.80494
0	H	0.106556	0.455063	0.805734
0	H	0.364462	0.0987149	0.307586
0	H	0.863138	0.45214	0.667141
0	H	0.606233	0.0932146	0.172731
0	H	0.854783	0.474854	0.141655
0	H	0.610385	0.0807572	0.636025
0	H	0.113177	0.476703	0.339683
0	H	0.357493	0.0900849	0.836453
0	H	0.113931	0.582452	0.835439
0	H	0.358018	0.975647	0.341523
0	H	0.855323	0.579398	0.637388
0	H	0.611778	0.967968	0.140543
0	C	0.791298	0.343099	0.227549
0	C	0.676675	0.221355	0.717784
0	C	0.179725	0.34893	0.255865
0	C	0.292673	0.227715	0.753543
0	C	0.177542	0.71328	0.749472
0	C	0.291879	0.83574	0.259575
0	C	0.789158	0.707951	0.721549
0	C	0.675871	0.8292	0.224071
0	H	0.789163	0.299001	0.19081
0	H	0.676653	0.263507	0.680402
0	H	0.182421	0.30589	0.292875
0	H	0.29312	0.271071	0.790574
0	H	0.180108	0.757485	0.78615
0	H	0.292226	0.793481	0.296927
0	H	0.786594	0.751079	0.684548
0	H	0.675918	0.785831	0.187046
0	H	0.757604	0.327066	0.250334
0	H	0.711189	0.240027	0.738471
0	H	0.21344	0.333804	0.233025
0	H	0.258175	0.246654	0.732846
0	H	0.211029	0.729064	0.726293
0	H	0.257193	0.817114	0.239214
0	H	0.755396	0.723185	0.744298
0	H	0.710084	0.810236	0.245301
0	H	0.82223	0.310676	0.250637
0	H	0.646546	0.253774	0.741974
0	H	0.149018	0.314479	0.233139
0	H	0.32289	0.258449	0.728955
0	H	0.146434	0.745836	0.726699
0	H	0.321802	0.803402	0.235069
0	H	0.819846	0.742199	0.744382
0	H	0.645318	0.798514	0.248202
0	C	0.744433	0.546951	0.185233
0	C	0.72279	0.0181665	0.674017
0	C	0.223723	0.555509	0.298449
0	C	0.244779	0.0266122	0.797576
0	C	0.224316	0.509371	0.79186
0	C	0.24572	0.0390265	0.303137
0	C	0.744857	0.501725	0.678962
0	C	0.724108	0.0301619	0.180248
0	H	0.745942	0.634947	0.183108
0	H	0.722252	0.93003	0.67302
0	H	0.221449	0.643478	0.300079
0	H	0.24504	0.938527	0.799356
0	H	0.22265	0.421428	0.794254
0	H	0.246308	0.127152	0.304202
0	H	0.747026	0.413743	0.67732
0	H	0.724026	0.118279	0.178722
0	H	0.710559	0.524819	0.205966
0	H	0.757591	0.0432033	0.692125
0	H	0.258247	0.534296	0.278713
0	H	0.210389	0.0514338	0.778553
0	H	0.258144	0.53094	0.770899
0	H	0.210957	0.0141602	0.284908
0	H	0.71039	0.523118	0.698768
0	H	0.758379	0.0047513	0.199339
0	H	0.741531	0.515654	0.145414
0	H	0.722913	0.0474052	0.633705
0	H	0.226006	0.525221	0.338499
0	H	0.244044	0.0573476	0.837623
0	H	0.227441	0.54115	0.831573
0	H	0.24546	0.0096596	0.343428
0	H	0.742542	0.532064	0.63892
0	H	0.724919	0.999902	0.140121
0	C	0.0470065	0.867017	0.353828
0	C	0.431142	0.668217	0.863142
0	C	0.923136	0.869207	0.12137
0	C	0.537406	0.668833	0.615199
0	C	0.921673	0.189465	0.623381
0	C	0.538301	0.389239	0.114452
0	C	0.0464641	0.18699	0.855424
0	C	0.43029	0.387715	0.361939
0	H	0.0620448	0.836858	0.317031
0	H	0.424283	0.717077	0.828434
0	H	0.90821	0.838877	0.15819
0	H	0.543882	0.71781	0.649937
0	H	0.906626	0.219814	0.660139
0	H	0.544933	0.339783	0.149007
0	H	0.0613318	0.217753	0.818662
0	H	0.423531	0.339002	0.327172
0	H	0.0372156	0.951796	0.348305
0	H	0.430795	0.583449	0.851364
0	H	0.932523	0.954211	0.126806
0	H	0.53739	0.584133	0.627096
0	H	0.931398	0.104665	0.628977
0	H	0.538985	0.473827	0.126504
0	H	0.0373421	0.101882	0.849851
0	H	0.430427	0.472475	0.350153
0	H	0.0125813	0.822589	0.36197
0	H	0.468564	0.686179	0.87721
0	H	0.957755	0.825502	0.113289
0	H	0.500235	0.68717	0.600518
0	H	0.956138	0.233762	0.615229
0	H	0.500827	0.372102	0.100312
0	H	0.0117077	0.230138	0.863533
0	H	0.467499	0.368935	0.37637
0	C	0.154011	0.898491	0.386759
0	C	0.322554	0.64784	0.890559
0	C	0.816018	0.89795	0.0888988
0	C	0.646267	0.645867	0.588658
0	C	0.814683	0.157846	0.590422
0	C	0.646844	0.409746	0.0868272
0	C	0.15354	0.158672	0.888209
0	C	0.321575	0.410719	0.389059
0	H	0.166796	0.856373	0.351753
0	H	0.31375	0.683275	0.852565
0	H	0.803392	0.854796	0.123666
0	H	0.655284	0.681804	0.626489
0	H	0.801774	0.200277	0.625288
0	H	0.655932	0.373823	0.124636
0	H	0.165945	0.200836	0.853069
0	H	0.312575	0.375477	0.35107
0	H	0.181984	0.887366	0.417207
0	H	0.292706	0.669018	0.917541
0	H	0.788	0.887493	0.0584484
0	H	0.676217	0.665889	0.561589
0	H	0.786771	0.168529	0.559872
0	H	0.676581	0.38922	0.0595945
0	H	0.181615	0.170561	0.918481
0	H	0.291663	0.389976	0.416039
0	H	0.152579	0.984696	0.377721
0	H	0.322264	0.560118	0.886064
0	H	0.817408	0.983914	0.0984949
0	H	0.646186	0.558261	0.593534
0	H	0.816174	0.0717396	0.599671
0	H	0.647014	0.497384	0.0916322
0	H	0.152399	0.0723866	0.87928
0	H	0.321528	0.498416	0.384581
0	C	0.0951403	0.704508	0.425598
0	C	0.38166	0.840559	0.929443
0	C	0.875846	0.705118	0.0498077
0	C	0.588815	0.840107	0.549729
0	C	0.873496	0.351835	0.551522
0	C	0.587829	0.216657	0.0483093
0	C	0.0934134	0.351304	0.927075
0	C	0.379268	0.216427	0.427607
0	H	0.058251	0.673421	0.436078
0	H	0.419108	0.874365	0.934224
0	H	0.913009	0.674615	0.0400478
0	H	0.551738	0.875224	0.544063
0	H	0.910405	0.383083	0.54122
0	H	0.550391	0.182523	0.044039
0	H	0.0561729	0.381619	0.936653
0	H	0.416367	0.181532	0.433409
0	H	0.119857	0.688225	0.458397
0	H	0.361069	0.85842	0.965152
0	H	0.851742	0.68822	0.0165762
0	H	0.610302	0.857332	0.514538
0	H	0.848932	0.367912	0.518568
0	H	0.608034	0.198786	0.012353
0	H	0.117372	0.368382	0.960406
0	H	0.357665	0.198982	0.462685
0	H	0.10825	0.657161	0.392202
0	H	0.363978	0.884537	0.897391
0	H	0.8624	0.657692	0.083008
0	H	0.606144	0.883424	0.582206
0	H	0.860165	0.399221	0.584804
0	H	0.605943	0.172931	0.0801665
0	H	0.106934	0.398729	0.893907
0	H	0.362123	0.173063	0.395036
0	C	0.140527	0.866126	0.522673
0	C	0.330026	0.68433	0.0268396
0	C	0.828667	0.866125	0.953094
0	C	0.639201	0.684379	0.452017
0	C	0.828161	0.190295	0.454533
0	C	0.639143	0.372472	0.950616
0	C	0.140566	0.190053	0.023941
0	C	0.329137	0.372398	0.525502
0	H	0.166274	0.855292	0.490158
0	H	0.305491	0.692941	0.993141
0	H	0.8029	0.85652	0.985707
0	H	0.66364	0.693426	0.485744
0	H	0.802368	0.20102	0.487016
0	H	0.663766	0.364096	0.984263
0	H	0.166349	0.199831	0.991356
0	H	0.304691	0.363274	0.491786
0	H	0.122215	0.788845	0.529524
0	H	0.348439	0.761894	0.0328944
0	H	0.846859	0.788494	0.946921
0	H	0.620739	0.761835	0.445691
0	H	0.84647	0.267613	0.447756
0	H	0.620759	0.294786	0.944799
0	H	0.122341	0.267618	0.0301905
0	H	0.347589	0.294947	0.53192
0	H	0.163143	0.881972	0.557434
0	H	0.306224	0.671999	0.0610231
0	H	0.806078	0.880892	0.918218
0	H	0.663114	0.671692	0.417933
0	H	0.805596	0.174565	0.41973
0	H	0.662855	0.384715	0.916339
0	H	0.16314	0.175113	0.0588106
0	H	0.305232	0.385226	0.559584
0	C	0.0726322	0.974895	0.562826
0	C	0.395313	0.574974	0.0718524
0	C	0.896428	0.974631	0.912145
0	C	0.574126	0.575089	0.406864
0	C	0.896017	0.0814952	0.414347
0	C	0.573703	0.481369	0.905567
0	C	0.072721	0.0814262	0.0646694
0	C	0.39428	0.481736	0.570501
0	H	0.0976913	0.00382792	0.594085
0	H	0.368947	0.543246	0.101266
0	H	0.871199	0.00339274	0.880992
0	H	0.60058	0.543298	0.377577
0	H	0.87093	0.0525946	0.383108
0	H	0.599973	0.513071	0.876069
0	H	0.0978755	0.0525693	0.0958667
0	H	0.367851	0.513576	0.599796
0	O	0.0412668	0.0657612	0.552485
0	O	0.428513	0.486477	0.0641149
0	O	0.927815	0.0656236	0.922036
0	O	0.540913	0.486552	0.414429
0	O	0.927358	0.99058	0.424656
0	O	0.540482	0.569858	0.91322
0	O	0.0413549	0.990469	0.0546304
0	O	0.427514	0.570229	0.562911
0	H	0.00518113	0.0464991	0.555505
0	H	0.463274	0.512575	0.0570061
0	H	0.963908	0.0455459	0.920668
0	H	0.506036	0.512469	0.420806
0	H	0.963454	0.00983881	0.421656
0	H	0.505777	0.543701	0.920497
0	H	0.0052546	0.0105376	0.0559892
0	H	0.462365	0.544176	0.556498
0	C	0.042463	0.880154	0.581129
0	C	0.422769	0.67145	0.092713
0	C	0.926485	0.879862	0.893745
0	C	0.54677	0.671577	0.385841
0	C	0.92619	0.176203	0.396008
0	C	0.546268	0.384782	0.884794
0	C	0.0426156	0.176151	0.083046
0	C	0.421621	0.38522	0.591499
0	H	0.0219599	0.898923	0.616697
0	H	0.441856	0.652294	0.129065
0	H	0.944962	0.89673	0.856769
0	H	0.527453	0.652143	0.349647
0	H	0.94644	0.157611	0.360261
0	H	0.527613	0.403439	0.848121
0	H	0.0235756	0.158696	0.11964
0	H	0.441268	0.404774	0.627473
0	H	0.0651475	0.80902	0.589521
0	H	0.398181	0.739412	0.10102
0	H	0.904031	0.807252	0.887759
0	H	0.571413	0.739341	0.377224
0	H	0.903534	0.24752	0.3879
0	H	0.570722	0.316231	0.877144
0	H	0.0651375	0.248381	0.0897151
0	H	0.396907	0.317797	0.600463
0	H	0.0145251	0.856519	0.552294
0	H	0.451265	0.699599	0.0654494
0	H	0.95595	0.859279	0.921454
0	H	0.518456	0.70052	0.413087
0	H	0.954334	0.199484	0.424692
0	H	0.517418	0.357289	0.911777
0	H	0.0135738	0.197553	0.0549934
0	H	0.449668	0.355829	0.564063
