#******************************************
#
# CIF file created by Zeo++
# Zeo++ is an open source package to
# analyze microporous materials
#
#*******************************************

_cell_length_a		35.0347(0)
_cell_length_b		15.9902(0)
_cell_length_c		14.7761(0)
_cell_angle_alpha		90(0)
_cell_angle_beta		90(0)
_cell_angle_gamma		90(0)

_symmetry_space_group_name_H-M		'P1'
_symmetry_Int_Tables_number		1
_symmetry_cell_setting		Monoclinic

loop_
_symmetry_equiv_pos_as_xyz
'+x,+y,+z'

loop_
_atom_site_label
_atom_site_type_symbol
_atom_site_fract_x
_atom_site_fract_y
_atom_site_fract_z
0	O	0.108283	0.429221	0.851723
0	O	0.474549	0.0457663	0.857065
0	O	0.979522	0.92777	0.690626
0	O	0.613186	0.539333	0.681405
0	O	0.978653	0.542799	0.189616
0	O	0.61291	0.928763	0.181109
0	O	0.107202	0.0470769	0.352603
0	O	0.474421	0.435366	0.355902
0	H	0.134597	0.451357	0.832577
0	H	0.447867	0.0250954	0.839629
0	H	0.952883	0.947118	0.709937
0	H	0.639431	0.515986	0.699627
0	H	0.952313	0.521101	0.208928
0	H	0.639517	0.949958	0.198713
0	H	0.133797	0.0271573	0.333452
0	H	0.447959	0.457929	0.338206
0	O	0.972805	0.412221	0.997328
0	O	0.611968	0.0573822	0.994158
0	O	0.114722	0.911316	0.543869
0	O	0.476626	0.561375	0.541498
0	O	0.114123	0.563317	0.0444702
0	O	0.475853	0.917427	0.0429009
0	O	0.972019	0.0597035	0.499274
0	O	0.611314	0.412213	0.493332
0	H	0.989832	0.39917	0.0505121
0	H	0.595604	0.0693423	0.0486501
0	H	0.0975928	0.897949	0.490959
0	H	0.493327	0.570895	0.487018
0	H	0.0970585	0.576695	0.991416
0	H	0.492275	0.905839	0.988448
0	H	0.989116	0.0723786	0.552394
0	H	0.594789	0.401757	0.547893
0	O	0.926045	0.40455	0.864016
0	O	0.657052	0.0687049	0.858278
0	O	0.161685	0.905111	0.676795
0	O	0.431301	0.577783	0.676285
0	O	0.16082	0.5703	0.178034
0	O	0.430564	0.904067	0.178329
0	O	0.925008	0.0674506	0.366493
0	O	0.656291	0.396556	0.357723
0	H	0.922912	0.404664	0.932502
0	H	0.660932	0.0680427	0.926725
0	H	0.164694	0.905189	0.608203
0	H	0.427631	0.576529	0.607888
0	H	0.164011	0.570077	0.109619
0	H	0.426766	0.905727	0.109855
0	H	0.922021	0.0673656	0.435127
0	H	0.66015	0.398114	0.426029
0	C	0.0828052	0.421823	0.782283
0	C	0.499314	0.0521656	0.786029
0	C	0.00503916	0.920199	0.759942
0	C	0.588369	0.548782	0.751874
0	C	0.0040363	0.551253	0.259159
0	C	0.588128	0.92144	0.251956
0	C	0.0816895	0.0541221	0.283216
0	C	0.499007	0.426242	0.284952
0	C	0.0948137	0.424755	0.692523
0	C	0.48632	0.0493625	0.697035
0	C	0.993115	0.922785	0.849769
0	C	0.600998	0.546346	0.841201
0	C	0.991952	0.548696	0.34886
0	C	0.600965	0.923661	0.341103
0	C	0.0936103	0.0515282	0.193382
0	C	0.486114	0.429381	0.195882
0	C	0.0674102	0.412142	0.622153
0	C	0.513233	0.0590559	0.624987
0	C	0.0206844	0.910761	0.919936
0	C	0.574012	0.558401	0.912589
0	C	0.0192859	0.561492	0.419358
0	C	0.573969	0.913091	0.412838
0	C	0.0660122	0.0635667	0.123266
0	C	0.512862	0.417897	0.123894
0	C	0.02946	0.403221	0.644523
0	C	0.551405	0.0670754	0.64528
0	C	0.0586376	0.902587	0.897241
0	C	0.536039	0.568824	0.891443
0	C	0.0572422	0.57046	0.397118
0	C	0.535859	0.90451	0.392182
0	C	0.0280511	0.0716398	0.145939
0	C	0.550891	0.4072	0.144277
0	H	0.00816177	0.394531	0.590995
0	H	0.572233	0.0739261	0.590415
0	H	0.0800747	0.894433	0.950544
0	H	0.515127	0.577554	0.945802
0	H	0.0785054	0.57913	0.450742
0	H	0.514981	0.896725	0.446782
0	H	0.00661424	0.0798785	0.0926609
0	H	0.571623	0.398926	0.0894541
0	C	0.975805	0.401364	0.753443
0	C	0.606062	0.0717186	0.75094
0	C	0.112181	0.901654	0.787917
0	C	0.481921	0.577327	0.784631
0	C	0.110957	0.572819	0.288411
0	C	0.481378	0.900116	0.286007
0	C	0.974499	0.0718953	0.255335
0	C	0.605333	0.397516	0.250137
0	C	0.964168	0.40478	0.842334
0	C	0.618713	0.0675779	0.838978
0	C	0.1236	0.904732	0.698825
0	C	0.469537	0.573558	0.696379
0	C	0.122677	0.56976	0.199559
0	C	0.468876	0.905171	0.197909
0	C	0.963085	0.0681417	0.344408
0	C	0.618004	0.400939	0.338189
0	C	0.991449	0.407285	0.915299
0	C	0.592249	0.0640083	0.91362
0	C	0.0961965	0.906477	0.626063
0	C	0.496182	0.567154	0.622314
0	C	0.0954389	0.56739	0.126495
0	C	0.495439	0.909898	0.123534
0	C	0.990503	0.0658733	0.417121
0	C	0.591569	0.406846	0.412724
0	C	0.0303811	0.406786	0.900596
0	C	0.553161	0.0658894	0.901364
0	C	0.0572821	0.90567	0.641109
0	C	0.535233	0.565899	0.63528
0	C	0.056493	0.567345	0.14105
0	C	0.534508	0.908296	0.136119
0	C	0.0294051	0.0673288	0.402024
0	C	0.552487	0.407982	0.400422
0	C	0.0433634	0.410495	0.807867
0	C	0.539083	0.06227	0.809442
0	C	0.0444746	0.909398	0.733994
0	C	0.548884	0.561775	0.727538
0	C	0.0434528	0.563107	0.233697
0	C	0.548415	0.91101	0.2282
0	C	0.0422174	0.0644362	0.309125
0	C	0.538559	0.412928	0.308455
0	C	0.0163228	0.405069	0.73579
0	C	0.565386	0.066889	0.735832
0	C	0.0716551	0.904542	0.805862
0	C	0.522428	0.569117	0.800601
0	C	0.0704321	0.568728	0.305886
0	C	0.522016	0.90525	0.301523
0	C	0.015021	0.0693634	0.237305
0	C	0.564781	0.406086	0.234887
0	C	0.0570509	0.399778	0.977654
0	C	0.527307	0.0747202	0.979666
0	C	0.0304304	0.898426	0.564396
0	C	0.561396	0.57217	0.557155
0	C	0.0298403	0.574489	0.0640077
0	C	0.560503	0.900482	0.0579091
0	C	0.0562365	0.0743601	0.478801
0	C	0.526542	0.4009	0.478825
0	H	0.0852346	0.42953	0.96992
0	H	0.498821	0.045927	0.973627
0	H	0.00214295	0.927646	0.57257
0	H	0.589248	0.540608	0.563352
0	H	0.00160818	0.544914	0.0716459
0	H	0.58877	0.930301	0.0639948
0	H	0.0844364	0.0447293	0.470717
0	H	0.498634	0.432365	0.473196
0	C	0.0800324	0.408049	0.525786
0	C	0.500113	0.0611848	0.528908
0	C	0.00819385	0.906498	0.016402
0	C	0.586864	0.560288	0.00887947
0	C	0.00657321	0.565628	0.515653
0	C	0.58689	0.910686	0.50908
0	C	0.0785006	0.067905	0.0267947
0	C	0.499687	0.416828	0.0278401
0	H	0.0562592	0.412497	0.477574
0	H	0.523409	0.0508855	0.480323
0	H	0.0320244	0.911409	0.064401
0	H	0.563152	0.55451	0.05717
0	H	0.0303073	0.561692	0.564023
0	H	0.563425	0.920411	0.557361
0	H	0.054658	0.0635974	0.978778
0	H	0.523165	0.424342	0.979178
0	H	0.0954422	0.349229	0.511531
0	H	0.48689	0.122027	0.512114
0	H	0.993026	0.84738	0.0307528
0	H	0.602029	0.619142	0.0247242
0	H	0.990925	0.624183	0.529636
0	H	0.600243	0.849958	0.525745
0	H	0.0939089	0.126764	0.0126221
0	H	0.485034	0.357528	0.0113634
0	H	0.100096	0.458947	0.509113
0	H	0.478211	0.013315	0.515256
0	H	0.988011	0.957118	0.0331763
0	H	0.607163	0.509445	0.0239139
0	H	0.986681	0.514408	0.532363
0	H	0.60862	0.958766	0.523377
0	H	0.0984822	0.0169546	0.00984791
0	H	0.478867	0.466948	0.0140412
0	C	0.946748	0.394811	0.677446
0	C	0.63399	0.0824034	0.67318
0	C	0.141529	0.896719	0.863528
0	C	0.453867	0.590238	0.861774
0	C	0.139875	0.579815	0.364654
0	C	0.453313	0.889482	0.363514
0	C	0.94513	0.0768774	0.179785
0	C	0.632976	0.383342	0.172445
0	H	0.962176	0.389984	0.610828
0	H	0.617705	0.0834515	0.607484
0	H	0.126324	0.892859	0.930484
0	H	0.470001	0.592345	0.927655
0	H	0.124318	0.58343	0.431229
0	H	0.469614	0.885539	0.429081
0	H	0.960315	0.082073	0.112911
0	H	0.616725	0.384293	0.106682
0	C	0.922535	0.315371	0.68847
0	C	0.654869	0.166459	0.682135
0	C	0.16617	0.817837	0.853768
0	C	0.433246	0.67438	0.85082
0	C	0.16331	0.660402	0.354489
0	C	0.43088	0.807616	0.352819
0	C	0.919929	0.154782	0.190571
0	C	0.651434	0.296629	0.181742
0	H	0.900496	0.311876	0.635855
0	H	0.674377	0.176222	0.625212
0	H	0.189964	0.818387	0.902593
0	H	0.413164	0.684794	0.906476
0	H	0.184466	0.665799	0.408861
0	H	0.411342	0.798435	0.409817
0	H	0.896275	0.15425	0.141344
0	H	0.670897	0.28437	0.12531
0	H	0.907849	0.314937	0.75422
0	H	0.671846	0.168411	0.744622
0	H	0.178942	0.814166	0.785901
0	H	0.416867	0.675899	0.787399
0	H	0.178887	0.660928	0.289903
0	H	0.413678	0.808459	0.290611
0	H	0.906923	0.156952	0.258265
0	H	0.668031	0.292381	0.244661
0	H	0.940162	0.259093	0.684402
0	H	0.634678	0.218643	0.684019
0	H	0.149413	0.761084	0.864734
0	H	0.453509	0.726431	0.849593
0	H	0.144977	0.715732	0.35637
0	H	0.450008	0.753633	0.349313
0	H	0.936329	0.212221	0.180991
0	H	0.629823	0.247204	0.182903
0	C	0.92155	0.473095	0.674214
0	C	0.662375	0.00962069	0.668645
0	C	0.166537	0.975432	0.864703
0	C	0.42535	0.517757	0.867223
0	C	0.165732	0.502566	0.367441
0	C	0.426295	0.964661	0.369747
0	C	0.920692	0.99732	0.177495
0	C	0.66326	0.452296	0.167846
0	H	0.900971	0.469934	0.618237
0	H	0.681682	0.0161832	0.61056
0	H	0.18752	0.972957	0.919836
0	H	0.405708	0.525415	0.924535
0	H	0.186462	0.506604	0.423054
0	H	0.406831	0.958865	0.427625
0	H	0.899713	0.999694	0.122358
0	H	0.682394	0.443298	0.109774
0	H	0.93844	0.529975	0.664499
0	H	0.647822	0.94934	0.66201
0	H	0.149561	0.0321483	0.874459
0	H	0.439754	0.457514	0.875749
0	H	0.149361	0.445012	0.377537
0	H	0.441975	0.0234484	0.377602
0	H	0.938077	0.941314	0.167034
0	H	0.650413	0.514365	0.160921
0	H	0.905017	0.480224	0.736889
0	H	0.680165	0.00693911	0.729805
0	H	0.182558	0.981953	0.801165
0	H	0.407894	0.513994	0.805588
0	H	0.182116	0.496029	0.304478
0	H	0.408628	0.969936	0.308594
0	H	0.904694	0.989539	0.240884
0	H	0.681091	0.452891	0.229028
0	N	0.0445691	0.358644	0.0482436
0	N	0.540491	0.116421	0.0491858
0	N	0.0427751	0.857736	0.493375
0	N	0.549055	0.615185	0.487736
0	N	0.0423361	0.615533	0.993378
0	N	0.547634	0.858203	0.988512
0	N	0.04391	0.115413	0.549589
0	N	0.539013	0.357486	0.547857
0	N	0.0633239	0.351567	0.128761
0	N	0.522145	0.12503	0.129934
0	N	0.0238002	0.850365	0.413228
0	N	0.567321	0.622305	0.406637
0	N	0.0235101	0.622712	0.912979
0	N	0.566058	0.849953	0.907748
0	N	0.0628558	0.122785	0.629788
0	N	0.520751	0.350192	0.628926
0	C	0.106199	0.354706	0.128888
0	C	0.479256	0.122085	0.132002
0	C	0.980907	0.853031	0.413232
0	C	0.61013	0.616444	0.403921
0	C	0.980628	0.619941	0.91319
0	C	0.608947	0.852866	0.90604
0	C	0.105748	0.119719	0.629756
0	C	0.477952	0.356436	0.631644
0	H	0.115205	0.415392	0.0983674
0	H	0.469965	0.0611068	0.102638
0	H	0.971715	0.913563	0.443789
0	H	0.618634	0.554856	0.433008
0	H	0.971583	0.559255	0.943692
0	H	0.618226	0.913803	0.935497
0	H	0.114813	0.0589346	0.599575
0	H	0.469551	0.418001	0.602307
0	H	0.118588	0.303026	0.0875493
0	H	0.466588	0.173388	0.090647
0	H	0.968589	0.801249	0.454496
0	H	0.623565	0.666838	0.445224
0	H	0.968369	0.671615	0.95474
0	H	0.621558	0.801563	0.94753
0	H	0.118119	0.171154	0.588106
0	H	0.464419	0.306012	0.590574
0	C	0.0483277	0.275706	0.178057
0	C	0.537669	0.200942	0.178191
0	C	0.038849	0.774577	0.363839
0	C	0.552992	0.699751	0.359132
0	C	0.0386206	0.698347	0.863474
0	C	0.550701	0.773785	0.859687
0	C	0.0479019	0.198792	0.678971
0	C	0.534954	0.272728	0.676563
0	H	0.0554295	0.216922	0.14136
0	H	0.530045	0.259707	0.141997
0	H	0.0315871	0.715758	0.400324
0	H	0.561484	0.757528	0.396045
0	H	0.0316798	0.757266	0.9001
0	H	0.558246	0.715224	0.896337
0	H	0.0552438	0.257485	0.64232
0	H	0.526301	0.214885	0.639994
0	H	0.0166504	0.279566	0.180915
0	H	0.569388	0.197154	0.179226
0	H	0.0705251	0.778247	0.361201
0	H	0.521244	0.698271	0.358226
0	H	0.070287	0.694126	0.860417
0	H	0.518995	0.777527	0.858337
0	H	0.0162191	0.195283	0.681601
0	H	0.5667	0.273817	0.677333
0	C	0.121442	0.349537	0.226423
0	C	0.46472	0.128223	0.230129
0	C	0.965703	0.847876	0.315638
0	C	0.624547	0.621924	0.30564
0	C	0.965252	0.625292	0.81579
0	C	0.623638	0.846576	0.808058
0	C	0.121042	0.125306	0.727232
0	C	0.463556	0.351488	0.729947
0	H	0.112661	0.406188	0.265183
0	H	0.473329	0.0713526	0.268762
0	H	0.974325	0.904801	0.277115
0	H	0.61467	0.56629	0.266615
0	H	0.973798	0.568482	0.776984
0	H	0.614978	0.903206	0.769087
0	H	0.112446	0.0685235	0.766024
0	H	0.473473	0.407321	0.768627
0	H	0.153167	0.348996	0.22525
0	H	0.433005	0.129967	0.229989
0	H	0.933989	0.846741	0.31692
0	H	0.656265	0.620458	0.305191
0	H	0.933532	0.626298	0.817271
0	H	0.655354	0.845098	0.808506
0	H	0.152755	0.126436	0.725791
0	H	0.431838	0.353021	0.730436
0	C	0.0647855	0.27337	0.27435
0	C	0.52215	0.20298	0.275396
0	C	0.0225349	0.772496	0.267409
0	C	0.568446	0.701803	0.261872
0	C	0.0220572	0.700647	0.767307
0	C	0.5664	0.771201	0.762668
0	C	0.0642424	0.200927	0.775378
0	C	0.519584	0.271346	0.773927
0	H	0.0545485	0.328232	0.313833
0	H	0.532478	0.147596	0.313849
0	H	0.0327232	0.827602	0.228265
0	H	0.557141	0.647808	0.222636
0	H	0.0320757	0.645536	0.727913
0	H	0.556051	0.826206	0.723626
0	H	0.0540431	0.145861	0.814581
0	H	0.531051	0.325441	0.812742
0	H	0.0542278	0.216421	0.309767
0	H	0.533329	0.259346	0.310795
0	H	0.0332225	0.715745	0.231806
0	H	0.558128	0.759437	0.227446
0	H	0.0327424	0.757352	0.731647
0	H	0.555375	0.714442	0.727751
0	H	0.0535978	0.257755	0.810921
0	H	0.529799	0.213797	0.808697
0	N	0.107543	0.269626	0.268579
0	N	0.479389	0.207757	0.271572
0	N	0.979803	0.768371	0.273031
0	N	0.611291	0.70312	0.265204
0	N	0.97932	0.704971	0.773441
0	N	0.609165	0.766786	0.766791
0	N	0.106977	0.204948	0.769614
0	N	0.476739	0.270441	0.770848
0	C	0.124409	0.256434	0.360235
0	C	0.463163	0.221618	0.363729
0	C	0.962942	0.755343	0.181377
0	C	0.627512	0.716304	0.172884
0	C	0.962361	0.718372	0.681933
0	C	0.625518	0.752718	0.674786
0	C	0.123877	0.218074	0.861224
0	C	0.460608	0.258028	0.863379
0	H	0.117391	0.192092	0.382357
0	H	0.471353	0.28515	0.386295
0	H	0.969844	0.690929	0.159315
0	H	0.620498	0.780699	0.150987
0	H	0.969697	0.782448	0.659514
0	H	0.617764	0.688756	0.652765
0	H	0.117007	0.282553	0.883174
0	H	0.467713	0.193893	0.885986
0	H	0.114336	0.300295	0.412886
0	H	0.472599	0.176518	0.41582
0	H	0.973072	0.799062	0.128682
0	H	0.61704	0.672583	0.120499
0	H	0.972054	0.674098	0.629315
0	H	0.615791	0.797066	0.622251
0	H	0.11375	0.174431	0.913996
0	H	0.471065	0.302343	0.915188
0	H	0.155786	0.26167	0.357021
0	H	0.431738	0.219375	0.360816
0	H	0.931602	0.760741	0.184789
0	H	0.658902	0.710803	0.174903
0	H	0.930959	0.714025	0.685542
0	H	0.656928	0.755987	0.67766
0	H	0.15521	0.212597	0.85773
0	H	0.429216	0.263253	0.861413
0	O	0.151181	0.30224	0.642438
0	O	0.4322	0.175358	0.644089
0	O	0.937574	0.800287	0.904071
0	O	0.655964	0.672072	0.889466
0	O	0.935706	0.67125	0.399586
0	O	0.655287	0.79773	0.393028
0	O	0.149365	0.173734	0.138887
0	O	0.431281	0.303216	0.149381
0	H	0.128294	0.28961	0.684908
0	H	0.45469	0.187714	0.688523
0	H	0.959568	0.786765	0.858378
0	H	0.632286	0.68309	0.848887
0	H	0.958562	0.684036	0.356955
0	H	0.632927	0.785568	0.34808
0	H	0.127389	0.187567	0.184561
0	H	0.455243	0.292843	0.188839
0	O	0.28668	0.319829	0.50331
0	O	0.303361	0.16273	0.469185
0	O	0.807027	0.82035	0.071199
0	O	0.790691	0.663226	0.0341782
0	O	0.80021	0.653415	0.538896
0	O	0.783098	0.810478	0.572413
0	O	0.279893	0.152997	0.972094
0	O	0.295794	0.310456	0.00826251
0	H	0.282087	0.257241	0.510663
0	H	0.317223	0.198768	0.423664
0	H	0.819904	0.783608	0.11765
0	H	0.785465	0.72557	0.0272451
0	H	0.80473	0.716017	0.531389
0	H	0.769067	0.774	0.617221
0	H	0.267147	0.189662	0.925403
0	H	0.301155	0.248209	0.0155459
0	O	0.305524	0.47461	0.510577
0	O	0.279359	0.0109128	0.490979
0	O	0.784755	0.973556	0.0457228
0	O	0.810796	0.509403	0.0316852
0	O	0.781374	0.498642	0.531261
0	O	0.806924	0.962647	0.552207
0	O	0.301931	0.999652	0.997033
0	O	0.27545	0.464219	0.0106572
0	H	0.320008	0.42073	0.495231
0	H	0.266955	0.0652184	0.46772
0	H	0.771458	0.920187	0.0685118
0	H	0.824462	0.564088	0.0481723
0	H	0.766865	0.55254	0.546587
0	H	0.819335	0.90838	0.575461
0	H	0.315209	0.0529308	0.973999
0	H	0.261821	0.409448	0.994393
0	C	0.159644	0.38527	0.636408
0	C	0.422371	0.0932157	0.639541
0	C	0.928735	0.882982	0.908537
0	C	0.665333	0.589643	0.896485
0	C	0.92716	0.588255	0.405144
0	C	0.664843	0.879921	0.398987
0	C	0.15804	0.090966	0.134383
0	C	0.421653	0.385567	0.142321
0	C	0.134117	0.446102	0.666344
0	C	0.446514	0.0309252	0.672518
0	C	0.953786	0.943721	0.876086
0	C	0.640582	0.52704	0.866951
0	C	0.952634	0.527427	0.374927
0	C	0.640663	0.942296	0.366329
0	C	0.132906	0.0304162	0.166878
0	C	0.446403	0.448473	0.171097
0	C	0.145103	0.532015	0.661868
0	C	0.433941	0.945995	0.670206
0	C	0.942457	0.0294771	0.87868
0	C	0.652432	0.441822	0.87331
0	C	0.94162	0.441529	0.379068
0	C	0.652983	0.0273554	0.369944
0	C	0.144101	0.944565	0.164066
0	C	0.434324	0.533544	0.165059
0	C	0.180525	0.552928	0.628238
0	C	0.398453	0.927397	0.635325
0	C	0.90702	0.0502729	0.912285
0	C	0.687996	0.423334	0.907772
0	C	0.906198	0.420612	0.412638
0	C	0.688346	0.0459795	0.405512
0	C	0.179498	0.923518	0.130389
0	C	0.39857	0.551591	0.131428
0	H	0.189137	0.61865	0.624717
0	H	0.388552	0.862484	0.633662
0	H	0.898052	0.115859	0.913959
0	H	0.697327	0.35819	0.912625
0	H	0.897543	0.354902	0.415897
0	H	0.698126	0.110958	0.407929
0	H	0.188336	0.857857	0.128577
0	H	0.389053	0.616623	0.126716
0	C	0.244032	0.517261	0.564015
0	C	0.337221	0.965888	0.562002
0	C	0.844339	0.0151548	0.980453
0	C	0.750683	0.463097	0.973639
0	C	0.842769	0.456137	0.47719
0	C	0.749318	0.00752337	0.479985
0	C	0.242288	0.958288	0.0623841
0	C	0.335688	0.511092	0.0672782
0	C	0.269113	0.455688	0.537365
0	C	0.31492	0.0278183	0.524052
0	C	0.820725	0.954617	0.0165267
0	C	0.774696	0.526248	0.00141087
0	C	0.817731	0.517642	0.504222
0	C	0.77156	0.945566	0.51807
0	C	0.265979	0.018724	0.026366
0	C	0.311689	0.447679	0.0401717
0	C	0.257618	0.36865	0.534875
0	C	0.328948	0.112231	0.515864
0	C	0.833748	0.869603	0.0266192
0	C	0.762378	0.61276	0.00174474
0	C	0.829229	0.604679	0.50695
0	C	0.757659	0.860973	0.52528
0	C	0.25305	0.103816	0.0163717
0	C	0.324165	0.361272	0.0397839
0	C	0.221614	0.343452	0.560599
0	C	0.363472	0.137098	0.551615
0	C	0.868541	0.843034	0.993902
0	C	0.726391	0.635862	0.973586
0	C	0.865208	0.62998	0.481116
0	C	0.723371	0.836007	0.488334
0	C	0.21824	0.130538	0.0488383
0	C	0.360319	0.338528	0.0670661
0	C	0.19616	0.405642	0.597497
0	C	0.386249	0.0748915	0.597083
0	C	0.892586	0.903583	0.949609
0	C	0.701922	0.571846	0.936513
0	C	0.890627	0.567857	0.44395
0	C	0.700716	0.898265	0.442619
0	C	0.194139	0.0701109	0.093167
0	C	0.384841	0.402871	0.103283
0	C	0.206799	0.491675	0.595926
0	C	0.373919	0.989675	0.598032
0	C	0.881297	0.989423	0.947686
0	C	0.713461	0.486406	0.93972
0	C	0.879971	0.481829	0.445232
0	C	0.712856	0.98361	0.442736
0	C	0.205332	0.984205	0.0950761
0	C	0.373115	0.488206	0.100219
0	C	0.209716	0.255588	0.548325
0	C	0.376243	0.224722	0.541957
0	C	0.880415	0.755082	0.00533831
0	C	0.713609	0.723326	0.984356
0	C	0.87708	0.717852	0.493604
0	C	0.710727	0.748208	0.497152
0	C	0.206372	0.218477	0.0370316
0	C	0.373281	0.251175	0.056202
0	H	0.195593	0.226571	0.607066
0	H	0.39071	0.251409	0.601613
0	H	0.894837	0.726968	0.946358
0	H	0.698974	0.750916	0.925592
0	H	0.891296	0.746917	0.435029
0	H	0.696591	0.721644	0.437022
0	H	0.191949	0.246813	0.0958974
0	H	0.388149	0.223841	0.114766
0	C	0.118115	0.598063	0.693845
0	C	0.459442	0.878398	0.70497
0	C	0.969044	0.0956518	0.845298
0	C	0.62604	0.373872	0.843272
0	C	0.968559	0.375515	0.346795
0	C	0.627311	0.0949856	0.335964
0	C	0.117386	0.878544	0.19724
0	C	0.460656	0.601806	0.194557
0	H	0.129014	0.661769	0.684114
0	H	0.447173	0.815577	0.697901
0	H	0.95739	0.159092	0.851821
0	H	0.637958	0.310961	0.852254
0	H	0.957624	0.311809	0.356293
0	H	0.639445	0.15788	0.343586
0	H	0.128953	0.815025	0.190737
0	H	0.4483	0.664501	0.187247
0	H	0.111671	0.590522	0.766345
0	H	0.466187	0.887817	0.777082
0	H	0.976329	0.0859834	0.773521
0	H	0.61843	0.380827	0.771365
0	H	0.974993	0.383293	0.274314
0	H	0.620484	0.0861216	0.263814
0	H	0.110019	0.888225	0.268968
0	H	0.469077	0.594134	0.265868
0	H	0.0906463	0.593878	0.657934
0	H	0.486944	0.878372	0.668815
0	H	0.996174	0.0940933	0.882931
0	H	0.599055	0.376185	0.881422
0	H	0.996036	0.379484	0.382715
0	H	0.599862	0.0943775	0.372368
0	H	0.0903017	0.880326	0.159429
0	H	0.487228	0.60067	0.154745
0	C	0.255267	0.608928	0.560807
0	C	0.323616	0.875727	0.564328
0	C	0.831945	0.10606	0.976304
0	C	0.763085	0.372181	0.977655
0	C	0.831552	0.364454	0.480127
0	C	0.762739	0.097823	0.478566
0	C	0.254557	0.867288	0.0664055
0	C	0.323061	0.60186	0.0634664
0	H	0.229962	0.648161	0.580874
0	H	0.346868	0.835508	0.59387
0	H	0.855756	0.144432	0.946316
0	H	0.738435	0.331413	0.956596
0	H	0.856708	0.325345	0.458716
0	H	0.739417	0.138035	0.449335
0	H	0.230719	0.829074	0.0965037
0	H	0.347677	0.642922	0.0840873
0	C	0.266633	0.634442	0.464414
0	C	0.315559	0.843749	0.468293
0	C	0.824377	0.139858	0.0717788
0	C	0.774136	0.34721	0.0744359
0	C	0.820931	0.338319	0.576809
0	C	0.770718	0.129273	0.574853
0	C	0.261951	0.833554	0.970828
0	C	0.311652	0.626582	0.966853
0	H	0.276928	0.699492	0.462236
0	H	0.304753	0.778994	0.469269
0	H	0.812988	0.204076	0.0697344
0	H	0.784687	0.282347	0.0769666
0	H	0.810219	0.273603	0.578834
0	H	0.781696	0.193855	0.574256
0	H	0.273322	0.769293	0.97272
0	H	0.301006	0.691393	0.964461
0	H	0.24249	0.628419	0.417663
0	H	0.341294	0.845515	0.426323
0	H	0.850782	0.140251	0.112298
0	H	0.749811	0.352763	0.120567
0	H	0.845619	0.343063	0.622231
0	H	0.744901	0.127592	0.616571
0	H	0.235478	0.833164	0.93057
0	H	0.335796	0.621103	0.920206
0	H	0.28968	0.594446	0.438432
0	H	0.293881	0.882394	0.434523
0	H	0.80341	0.101089	0.107725
0	H	0.796913	0.387751	0.10076
0	H	0.798416	0.378789	0.604499
0	H	0.792242	0.0902028	0.608621
0	H	0.282874	0.87228	0.934693
0	H	0.288828	0.585862	0.941087
0	C	0.287444	0.626925	0.628479
0	C	0.288318	0.866565	0.624939
0	C	0.797029	0.116278	0.914755
0	C	0.796032	0.356042	0.911516
0	C	0.798914	0.346788	0.413626
0	C	0.798037	0.107702	0.418102
0	C	0.289534	0.85665	0.127688
0	C	0.290264	0.617711	0.130116
0	H	0.293695	0.694216	0.63199
0	H	0.279977	0.800533	0.63148
0	H	0.789296	0.182561	0.907236
0	H	0.803228	0.289185	0.908754
0	H	0.792646	0.279494	0.410044
0	H	0.806171	0.1739	0.411863
0	H	0.29713	0.790263	0.135042
0	H	0.282965	0.684524	0.132947
0	H	0.313757	0.594224	0.609001
0	H	0.263957	0.901117	0.596909
0	H	0.772233	0.0829358	0.942376
0	H	0.821717	0.390583	0.931975
0	H	0.772734	0.379406	0.434237
0	H	0.822482	0.0733912	0.446091
0	H	0.314372	0.889748	0.0999371
0	H	0.26458	0.582956	0.110082
0	H	0.279969	0.605593	0.69662
0	H	0.293499	0.891197	0.692983
0	H	0.802411	0.0908469	0.847133
0	H	0.788878	0.376489	0.842866
0	H	0.80593	0.368369	0.345298
0	H	0.792984	0.0832393	0.349953
0	H	0.284305	0.882034	0.195401
0	H	0.297631	0.597364	0.198669
0	N	0.216623	0.22156	0.469619
0	N	0.368803	0.262329	0.465414
0	N	0.872448	0.718837	0.0823626
0	N	0.720663	0.758517	0.0624112
0	N	0.869997	0.751785	0.57228
0	N	0.717922	0.710379	0.573702
0	N	0.21428	0.25448	0.959841
0	N	0.366129	0.215928	0.978243
0	N	0.212368	0.137891	0.452845
0	N	0.373143	0.346094	0.452014
0	N	0.87628	0.635026	0.0964563
0	N	0.716179	0.842049	0.0789705
0	N	0.874107	0.835409	0.589387
0	N	0.713759	0.626514	0.586751
0	N	0.210339	0.338242	0.945425
0	N	0.370803	0.132524	0.961353
0	C	0.182698	0.0884258	0.503177
0	C	0.403065	0.393852	0.503288
0	C	0.90574	0.586271	0.0447952
0	C	0.686579	0.891339	0.0283069
0	C	0.90358	0.885407	0.53903
0	C	0.684206	0.57845	0.534634
0	C	0.18068	0.38692	0.996561
0	C	0.400862	0.0833706	0.010628
0	H	0.153278	0.105481	0.48123
0	H	0.432342	0.377126	0.479709
0	H	0.935189	0.601482	0.0683092
0	H	0.657125	0.873545	0.049337
0	H	0.933073	0.868448	0.560476
0	H	0.654777	0.59474	0.55747
0	H	0.151311	0.371356	0.972727
0	H	0.430128	0.101167	0.988163
0	H	0.185123	0.101381	0.576838
0	H	0.400876	0.378446	0.576495
0	H	0.903667	0.60214	0.971658
0	H	0.68947	0.878737	0.954622
0	H	0.901001	0.872889	0.465303
0	H	0.686721	0.59401	0.461508
0	H	0.182635	0.371294	0.0697754
0	H	0.398655	0.0959323	0.0844254
0	C	0.20978	0.121558	0.352475
0	C	0.374113	0.36688	0.35257
0	C	0.877208	0.614374	0.195917
0	C	0.713358	0.85824	0.179308
0	C	0.876789	0.851337	0.689829
0	C	0.712507	0.60554	0.68614
0	C	0.209495	0.358587	0.845876
0	C	0.373066	0.116627	0.860872
0	H	0.232397	0.158359	0.317554
0	H	0.351321	0.331072	0.317112
0	H	0.854366	0.650263	0.231072
0	H	0.735554	0.820686	0.214843
0	H	0.854284	0.814186	0.724728
0	H	0.735127	0.641479	0.722076
0	H	0.232403	0.322722	0.810961
0	H	0.350677	0.154234	0.826125
0	H	0.181977	0.142151	0.323691
0	H	0.401744	0.349107	0.320684
0	H	0.904776	0.6323	0.22798
0	H	0.685293	0.83869	0.207522
0	H	0.904673	0.830848	0.718272
0	H	0.68475	0.623077	0.71757
0	H	0.181979	0.340419	0.813727
0	H	0.40097	0.136277	0.831881
0	C	0.190082	0.995156	0.485417
0	C	0.396136	0.488032	0.489943
0	C	0.897739	0.492573	0.0580085
0	C	0.693337	0.984851	0.0464124
0	C	0.896096	0.978522	0.557471
0	C	0.691327	0.484333	0.548008
0	C	0.188542	0.480654	0.983132
0	C	0.393926	0.989872	0.992712
0	H	0.2187	0.977035	0.512467
0	H	0.368501	0.50666	0.52171
0	H	0.86948	0.475703	0.0281009
0	H	0.721397	0.00434796	0.0174479
0	H	0.867448	0.996646	0.530604
0	H	0.719186	0.466113	0.51707
0	H	0.216723	0.497851	0.013254
0	H	0.366078	0.970403	0.0228175
0	H	0.168336	0.95694	0.522708
0	H	0.419285	0.523849	0.525438
0	H	0.919706	0.455318	0.0203783
0	H	0.670637	0.0220522	0.010959
0	H	0.917791	0.0170549	0.520348
0	H	0.668509	0.448225	0.511701
0	H	0.166465	0.517826	0.0204464
0	H	0.416891	0.952599	0.0271121
0	C	0.215944	0.0274239	0.335891
0	C	0.366781	0.461314	0.3427
0	C	0.869908	0.519933	0.206402
0	C	0.720169	0.952122	0.195468
0	C	0.870465	0.945317	0.70699
0	C	0.719929	0.511141	0.696096
0	C	0.216687	0.453043	0.835084
0	C	0.366175	0.0227848	0.844599
0	H	0.213037	0.014152	0.262238
0	H	0.367367	0.478501	0.269695
0	H	0.871131	0.50291	0.279401
0	H	0.717696	0.965783	0.269171
0	H	0.873443	0.958307	0.780692
0	H	0.719014	0.493872	0.769069
0	H	0.215557	0.469793	0.761991
0	H	0.36828	0.0093393	0.770773
0	H	0.245583	0.00930261	0.355241
0	H	0.337688	0.477306	0.368049
0	H	0.840591	0.504178	0.182472
0	H	0.749839	0.969356	0.175246
0	H	0.840759	0.963207	0.687965
0	H	0.749168	0.495362	0.671529
0	H	0.245937	0.469088	0.859225
0	H	0.3366	0.00557591	0.8656
0	N	0.186133	0.978155	0.385902
0	N	0.39784	0.508392	0.390817
0	N	0.900419	0.472247	0.156967
0	N	0.690387	0.00199776	0.146125
0	N	0.900105	0.99513	0.657044
0	N	0.689172	0.463915	0.64708
0	N	0.186033	0.500702	0.884066
0	N	0.396188	0.972701	0.892901
0	C	0.190619	0.886595	0.368765
0	C	0.393363	0.600406	0.377195
0	C	0.895745	0.380348	0.171121
0	C	0.69578	0.093375	0.163003
0	C	0.895346	0.0865608	0.674598
0	C	0.693658	0.371915	0.660749
0	C	0.190644	0.592596	0.869722
0	C	0.390515	0.881345	0.876332
0	H	0.16686	0.853075	0.401622
0	H	0.417396	0.633032	0.409932
0	H	0.919399	0.347246	0.137403
0	H	0.671773	0.127822	0.132401
0	H	0.918869	0.120626	0.641451
0	H	0.669707	0.339304	0.627638
0	H	0.166793	0.625606	0.902758
0	H	0.414535	0.846637	0.906527
0	H	0.217612	0.859626	0.393372
0	H	0.366569	0.626715	0.40378
0	H	0.868653	0.354419	0.14585
0	H	0.722589	0.119405	0.13614
0	H	0.868174	0.113126	0.650621
0	H	0.720517	0.345678	0.634435
0	H	0.217582	0.61879	0.895625
0	H	0.363734	0.855663	0.903724
0	H	0.188721	0.874313	0.295457
0	H	0.394705	0.614553	0.304148
0	H	0.897634	0.366521	0.244189
0	H	0.695164	0.105579	0.236466
0	H	0.897454	0.0986275	0.747914
0	H	0.692143	0.357687	0.733744
0	H	0.189069	0.606289	0.796596
0	H	0.390867	0.869026	0.80288
