#******************************************
#
# CIF file created by Zeo++
# Zeo++ is an open source package to
# analyze microporous materials
#
#*******************************************

_cell_length_a		28.5041(0)
_cell_length_b		13.7157(0)
_cell_length_c		31.2534(0)
_cell_angle_alpha		90(0)
_cell_angle_beta		117.274(0)
_cell_angle_gamma		90(0)

_symmetry_space_group_name_H-M		'P1'
_symmetry_Int_Tables_number		1
_symmetry_cell_setting		Monoclinic

loop_
_symmetry_equiv_pos_as_xyz
'+x,+y,+z'

loop_
_atom_site_label
_atom_site_type_symbol
_atom_site_fract_x
_atom_site_fract_y
_atom_site_fract_z
0	C	0.295577	0.511722	0.0926088
0	C	0.788327	0.472718	0.959903
0	C	0.795434	0.98271	0.0930655
0	C	0.296081	0.00338504	0.960294
0	H	0.285919	0.535307	0.0546311
0	H	0.801569	0.475713	0.000435887
0	H	0.781702	0.997533	0.0529146
0	H	0.306507	0.0167144	0.999898
0	C	0.279763	0.595222	0.1166
0	C	0.803228	0.563702	0.939494
0	C	0.780936	0.0697463	0.115934
0	C	0.310599	0.0931927	0.939266
0	C	0.238533	0.755684	0.110885
0	C	0.847559	0.722502	0.950175
0	C	0.741427	0.233258	0.107
0	C	0.352083	0.255902	0.956026
0	H	0.246854	0.731801	0.149154
0	H	0.837634	0.704518	0.910934
0	H	0.751078	0.215499	0.146165
0	H	0.353444	0.236325	0.920794
0	C	0.26819	0.852084	0.115104
0	C	0.82366	0.823046	0.950304
0	C	0.767324	0.331457	0.106447
0	C	0.326083	0.357187	0.949226
0	H	0.244951	0.900742	0.0838513
0	H	0.848239	0.863472	0.984375
0	H	0.74195	0.372577	0.0727269
0	H	0.347371	0.403718	0.981899
0	H	0.269734	0.892386	0.146532
0	H	0.826295	0.868368	0.921949
0	H	0.767315	0.377231	0.135827
0	H	0.331414	0.395446	0.920433
0	C	0.322899	0.837969	0.12032
0	C	0.7674	0.81745	0.941766
0	C	0.82253	0.322623	0.112126
0	C	0.268898	0.348575	0.936723
0	C	0.364095	0.801338	0.162912
0	C	0.726845	0.786358	0.897416
0	C	0.864547	0.28923	0.155113
0	C	0.232481	0.313895	0.891214
0	H	0.35703	0.783683	0.193559
0	H	0.735613	0.76926	0.867686
0	H	0.857699	0.271365	0.185874
0	H	0.245175	0.300286	0.863639
0	C	0.414055	0.784862	0.166244
0	C	0.675462	0.774068	0.891284
0	C	0.914934	0.276223	0.158818
0	C	0.180382	0.295849	0.881423
0	H	0.446219	0.755844	0.199124
0	H	0.643688	0.748243	0.857272
0	H	0.947566	0.249045	0.191991
0	H	0.151387	0.268301	0.846595
0	C	0.421228	0.804337	0.125769
0	C	0.666267	0.792949	0.930686
0	C	0.921943	0.296056	0.118252
0	C	0.166521	0.31225	0.918237
0	C	0.381266	0.842024	0.0831009
0	C	0.705349	0.826574	0.974842
0	C	0.881495	0.331918	0.0753918
0	C	0.20116	0.350754	0.963031
0	H	0.38902	0.855908	0.0526466
0	H	0.695642	0.839674	0.00424424
0	H	0.889105	0.346496	0.044812
0	H	0.188039	0.365037	0.99008
0	C	0.332308	0.860904	0.0810842
0	C	0.755861	0.841206	0.979679
0	C	0.832106	0.347372	0.0731744
0	C	0.252623	0.370926	0.971697
0	H	0.30072	0.89306	0.0485713
0	H	0.787093	0.870261	0.0133309
0	H	0.800191	0.378893	0.0405032
0	H	0.280369	0.403955	0.00590237
0	C	0.483274	0.697531	0.118877
0	C	0.602888	0.689451	0.936399
0	C	0.984268	0.189992	0.111631
0	C	0.10498	0.202736	0.922715
0	C	0.457524	0.61612	0.125314
0	C	0.629646	0.606287	0.933128
0	C	0.955698	0.109142	0.114505
0	C	0.133367	0.120487	0.921341
0	H	0.425278	0.627281	0.134489
0	H	0.663589	0.615004	0.926187
0	H	0.921397	0.120877	0.120656
0	H	0.165333	0.128266	0.911495
0	C	0.471696	0.521405	0.118862
0	C	0.613723	0.513274	0.939913
0	C	0.970033	0.0142036	0.108735
0	C	0.120685	0.028704	0.932899
0	C	0.513493	0.507696	0.108021
0	C	0.570673	0.503361	0.949311
0	C	0.0138058	0.999424	0.100756
0	C	0.0788315	0.0184061	0.943902
0	H	0.527121	0.435334	0.104489
0	H	0.556096	0.432172	0.953178
0	H	0.027054	0.926524	0.0975194
0	H	0.0670969	0.947119	0.951142
0	C	0.539532	0.589681	0.10169
0	C	0.544297	0.587339	0.953044
0	C	0.0423549	0.0807408	0.0979441
0	C	0.0499416	0.10141	0.944173
0	C	0.524029	0.686277	0.105467
0	C	0.560382	0.682225	0.947531
0	C	0.0281551	0.177811	0.102701
0	C	0.063147	0.195759	0.934781
0	C	0.439132	0.43821	0.12412
0	C	0.643848	0.426342	0.934543
0	C	0.938187	0.93121	0.114973
0	C	0.153161	0.9423	0.931243
0	H	0.449949	0.43011	0.163732
0	H	0.63048	0.416448	0.894338
0	H	0.952727	0.921836	0.155394
0	H	0.143032	0.9285	0.891942
0	C	0.379897	0.465438	0.0940912
0	C	0.704018	0.445954	0.962177
0	C	0.878728	0.957537	0.089183
0	C	0.21209	0.969217	0.960956
0	C	0.266072	0.418235	0.0906985
0	C	0.816156	0.3833	0.954354
0	C	0.768163	0.889494	0.0951433
0	C	0.327216	0.913883	0.960514
0	C	0.212283	0.420488	0.0787947
0	C	0.866272	0.393446	0.956839
0	C	0.715218	0.893691	0.0859893
0	C	0.380851	0.924389	0.972983
0	H	0.191021	0.489814	0.0734718
0	H	0.882611	0.465206	0.955631
0	H	0.695057	0.963733	0.0823284
0	H	0.399061	0.996828	0.978188
0	C	0.184667	0.33356	0.0732964
0	C	0.896382	0.31083	0.961327
0	C	0.68707	0.807475	0.0800268
0	C	0.412321	0.842194	0.980997
0	C	0.210868	0.242142	0.0848671
0	C	0.87562	0.215627	0.958241
0	C	0.712287	0.715232	0.0895445
0	C	0.390842	0.74677	0.974724
0	C	0.264426	0.24124	0.0954732
0	C	0.825692	0.207375	0.956692
0	C	0.764818	0.712829	0.0971145
0	C	0.336935	0.737893	0.962298
0	C	0.291527	0.327878	0.098231
0	C	0.795896	0.290363	0.953984
0	C	0.79262	0.798794	0.100091
0	C	0.305252	0.820557	0.954417
0	H	0.333397	0.32256	0.107545
0	H	0.756512	0.281086	0.951192
0	H	0.833696	0.793536	0.10667
0	H	0.263407	0.809739	0.943954
0	C	0.183004	0.0704165	0.0707713
0	C	0.912033	0.0501836	0.975449
0	C	0.677743	0.548235	0.070719
0	C	0.418864	0.577942	0.997493
0	H	0.146115	0.066617	0.0371394
0	H	0.942224	0.0591066	0.0127862
0	H	0.644063	0.556543	0.0351435
0	H	0.401544	0.581858	0.0222532
0	H	0.181442	0.0217458	0.0981486
0	H	0.926194	0.00701879	0.954083
0	H	0.668626	0.49919	0.0937707
0	H	0.459948	0.552918	0.0169867
0	H	0.216625	0.0525103	0.0641921
0	H	0.876118	0.0178118	0.973669
0	H	0.712194	0.521907	0.0675552
0	H	0.396172	0.530797	0.966844
0	C	0.248624	0.692712	0.0392643
0	C	0.830707	0.653649	0.0176713
0	C	0.753133	0.160206	0.0376939
0	C	0.321449	0.182196	0.0139169
0	H	0.229262	0.763873	0.0252747
0	H	0.860041	0.709908	0.0385363
0	H	0.722569	0.214258	0.0167232
0	H	0.340073	0.249646	0.0335126
0	H	0.222623	0.636798	0.0133918
0	H	0.843167	0.584765	0.0387975
0	H	0.740581	0.0897808	0.0177573
0	H	0.342067	0.120542	0.0384546
0	H	0.287337	0.69433	0.038814
0	H	0.791862	0.675577	0.0143389
0	H	0.790906	0.182382	0.0386388
0	H	0.279667	0.18232	0.00688777
0	C	0.178115	0.762144	0.0829501
0	C	0.908086	0.718894	0.976825
0	C	0.680829	0.232024	0.0799078
0	C	0.409482	0.256652	0.994857
0	C	0.106074	0.875293	0.048042
0	C	0.985604	0.820547	0.00802158
0	C	0.604218	0.335512	0.0456779
0	C	0.486736	0.353175	0.0123197
0	H	0.102345	0.953236	0.0392781
0	H	0.99563	0.890918	0.0267375
0	H	0.597091	0.411222	0.0328613
0	H	0.495365	0.431793	0.0165791
0	H	0.0953273	0.861684	0.0769669
0	H	0.991514	0.822122	0.97576
0	H	0.595113	0.325136	0.0758413
0	H	0.49438	0.323475	0.983549
0	H	0.0831322	0.830031	0.0165782
0	H	0.00757539	0.760134	0.0317978
0	H	0.582627	0.283141	0.0167464
0	H	0.507626	0.312551	0.0460506
0	C	0.56699	0.842572	0.121105
0	C	0.513431	0.832641	0.92084
0	C	0.0729178	0.332661	0.124655
0	C	0.0124269	0.343291	0.90491
0	H	0.566366	0.899503	0.0961365
0	H	0.509042	0.896013	0.940088
0	H	0.0735295	0.391724	0.101217
0	H	0.00746139	0.40667	0.923914
0	H	0.607311	0.826921	0.148489
0	H	0.47526	0.806736	0.893321
0	H	0.112367	0.318155	0.153857
0	H	0.974312	0.313706	0.8791
0	H	0.541378	0.863659	0.137149
0	H	0.540488	0.850754	0.906004
0	H	0.0447057	0.351139	0.138161
0	H	0.0374463	0.362581	0.888106
0	C	0.458151	0.258142	0.133479
0	C	0.630814	0.247213	0.928255
0	C	0.9512	0.751365	0.122018
0	C	0.135609	0.764954	0.925278
0	C	0.465134	0.077122	0.124994
0	C	0.626703	0.0658627	0.938022
0	C	0.958709	0.569513	0.113646
0	C	0.130364	0.58438	0.934604
0	C	0.416977	0.0544843	0.131961
0	C	0.674417	0.0414659	0.930636
0	C	0.913145	0.541534	0.123611
0	C	0.177148	0.563595	0.925304
0	H	0.409332	0.111799	0.152679
0	H	0.683499	0.099644	0.911208
0	H	0.90439	0.599324	0.143437
0	H	0.183328	0.620828	0.903695
0	H	0.421849	0.985809	0.151662
0	H	0.668319	0.974685	0.90928
0	H	0.921753	0.475552	0.145896
0	H	0.171409	0.495385	0.904892
0	H	0.381378	0.0462956	0.0973616
0	H	0.709991	0.0295131	0.965078
0	H	0.876967	0.526546	0.0900261
0	H	0.21429	0.556587	0.958659
0	C	0.517241	0.0685559	0.170325
0	C	0.574611	0.0595286	0.89252
0	C	0.0119414	0.566302	0.157961
0	C	0.0775425	0.573786	0.890372
0	H	0.526056	0.992715	0.182569
0	H	0.564211	0.983502	0.881052
0	H	0.0237481	0.491172	0.170292
0	H	0.0700463	0.497393	0.878449
0	H	0.517679	0.111723	0.200139
0	H	0.575622	0.0992706	0.862334
0	H	0.0116412	0.607202	0.188119
0	H	0.0754436	0.617226	0.85994
0	H	0.550063	0.0938175	0.163866
0	H	0.542054	0.090163	0.897882
0	H	0.0430688	0.597399	0.150738
0	H	0.0449576	0.596714	0.897515
0	C	0.465736	0.0232995	0.0827249
0	C	0.625392	0.0153009	0.980751
0	C	0.958701	0.518476	0.0705421
0	C	0.131912	0.53354	0.978397
0	H	0.472888	0.944813	0.0904103
0	H	0.62373	0.935378	0.976768
0	H	0.962081	0.438937	0.0755943
0	H	0.119908	0.456578	0.970803
0	H	0.496276	0.0518175	0.0737725
0	H	0.590946	0.0377551	0.985439
0	H	0.991582	0.542657	0.0638354
0	H	0.104904	0.568606	0.990129
0	H	0.428495	0.0322451	0.0495946
0	H	0.659695	0.0344166	0.0149696
0	H	0.923152	0.534538	0.0367662
0	H	0.171159	0.536915	0.00961602
0	N	0.254398	0.675646	0.0882823
0	N	0.828483	0.641456	0.969839
0	N	0.758918	0.15093	0.0870061
0	N	0.325319	0.175932	0.968179
0	N	0.353722	0.499144	0.119747
0	N	0.73007	0.464868	0.934678
0	N	0.853707	0.975407	0.117646
0	N	0.238503	0.98777	0.933737
0	H	0.367275	0.480629	0.155772
0	H	0.715316	0.449366	0.898122
0	H	0.870092	0.959933	0.154245
0	H	0.224995	0.960748	0.898905
0	N	0.447423	0.34389	0.106079
0	N	0.633922	0.334162	0.953522
0	N	0.944153	0.837036	0.0952549
0	N	0.14393	0.851572	0.951459
0	H	0.439981	0.341711	0.0706995
0	H	0.64755	0.33184	0.990428
0	H	0.934785	0.833527	0.0591594
0	H	0.151737	0.850875	0.987075
0	O	0.471169	0.791759	0.126874
0	O	0.615027	0.782326	0.926825
0	O	0.97201	0.284247	0.119406
0	O	0.114122	0.294535	0.909656
0	O	0.183508	0.166024	0.09094
0	O	0.904769	0.143814	0.951614
0	O	0.684831	0.639838	0.0961263
0	O	0.42572	0.673646	0.980674
0	O	0.28646	0.591406	0.158269
0	O	0.79637	0.568256	0.897726
0	O	0.787369	0.0712514	0.157509
0	O	0.310783	0.094221	0.900063
0	O	0.162	0.855493	0.0654278
0	O	0.929332	0.81054	0.992929
0	O	0.660732	0.32367	0.0628685
0	O	0.430265	0.348203	0.99566
0	O	0.146534	0.697811	0.0756875
0	O	0.935866	0.648408	0.983529
0	O	0.652215	0.162614	0.0727795
0	O	0.434365	0.192268	0.0221431
0	O	0.547147	0.757292	0.0899774
0	O	0.535427	0.758223	0.958245
0	O	0.0573998	0.247392	0.0932233
0	O	0.0374903	0.272668	0.943608
0	O	0.579044	0.570379	0.0901379
0	O	0.503142	0.57313	0.962798
0	O	0.0846299	0.0623543	0.090056
0	O	0.0089401	0.0854031	0.953955
0	H	0.599303	0.632119	0.0906739
0	H	0.485781	0.638301	0.963606
0	H	0.104894	0.125209	0.0917593
0	H	0.989416	0.148328	0.9527
0	O	0.458962	0.181516	0.106668
0	O	0.634877	0.170348	0.956784
0	O	0.94802	0.673646	0.094143
0	O	0.136768	0.688894	0.953202
0	O	0.466403	0.256351	0.175534
0	O	0.623723	0.244351	0.88661
0	O	0.959382	0.749546	0.164019
0	O	0.127962	0.760899	0.883452
0	O	0.357539	0.46189	0.0500973
0	O	0.727276	0.445024	0.00636505
0	O	0.854545	0.963821	0.0452338
0	O	0.233426	0.977847	0.0047989
0	Cl	0.117646	0.339343	0.0498463
0	Cl	0.960163	0.327754	0.972515
0	Cl	0.620306	0.815234	0.0561613
0	Cl	0.478275	0.861532	0.0021321
0	Cl	0.30064	0.135909	0.106332
0	Cl	0.797942	0.0978082	0.958991
0	Cl	0.797331	0.605385	0.101408
0	Cl	0.307317	0.626632	0.958105
0	C	0.335282	0.401331	0.267328
0	C	0.750941	0.396376	0.784905
0	C	0.834102	0.893792	0.268603
0	C	0.259304	0.908713	0.787119
0	H	0.357182	0.406968	0.308197
0	H	0.728696	0.404797	0.743918
0	H	0.853915	0.899453	0.309023
0	H	0.236067	0.916474	0.746573
0	C	0.373577	0.370828	0.247472
0	C	0.714053	0.361415	0.805293
0	C	0.872705	0.86288	0.249091
0	C	0.223274	0.868419	0.80754
0	C	0.44062	0.25062	0.250605
0	C	0.647252	0.243349	0.802032
0	C	0.93846	0.744275	0.249922
0	C	0.156715	0.749139	0.804135
0	H	0.424536	0.276388	0.211758
0	H	0.664694	0.267446	0.841316
0	H	0.920118	0.769903	0.210991
0	H	0.168848	0.783971	0.840936
0	C	0.499067	0.280654	0.278113
0	C	0.589371	0.27621	0.777183
0	C	0.996719	0.775926	0.274856
0	C	0.0977467	0.771056	0.772502
0	H	0.519797	0.255564	0.257164
0	H	0.569676	0.250029	0.798736
0	H	0.0151713	0.748838	0.252557
0	H	0.0748429	0.741429	0.790613
0	H	0.51989	0.243145	0.31345
0	H	0.566584	0.240935	0.741538
0	H	0.0192896	0.740634	0.310529
0	H	0.0814557	0.732686	0.737472
0	C	0.500911	0.389709	0.282932
0	C	0.588284	0.385591	0.774077
0	C	0.99787	0.885283	0.277546
0	C	0.0919378	0.879858	0.767094
0	C	0.492948	0.434024	0.319682
0	C	0.594473	0.432506	0.736946
0	C	0.99321	0.932676	0.315356
0	C	0.0992445	0.928861	0.731095
0	H	0.490997	0.390141	0.347889
0	H	0.595445	0.390088	0.707823
0	H	0.993173	0.890906	0.345064
0	H	0.104492	0.887959	0.703665
0	C	0.485586	0.534328	0.319294
0	C	0.601773	0.532987	0.738321
0	C	0.986263	0.0331925	0.31386
0	C	0.101512	0.030346	0.731222
0	H	0.475702	0.569335	0.345461
0	H	0.610227	0.569448	0.711678
0	H	0.979292	0.0712594	0.341091
0	H	0.109377	0.070026	0.704833
0	C	0.489623	0.589069	0.283413
0	C	0.5996	0.585966	0.775595
0	C	0.986594	0.08485	0.275397
0	C	0.0947999	0.0811587	0.766887
0	C	0.500054	0.548411	0.247746
0	C	0.591332	0.542511	0.811912
0	C	0.992988	0.0408239	0.238143
0	C	0.0853048	0.0347971	0.801981
0	H	0.503195	0.594406	0.220805
0	H	0.589718	0.586645	0.840072
0	H	0.992847	0.0845284	0.208969
0	H	0.079868	0.0770888	0.828895
0	C	0.504725	0.447143	0.247546
0	C	0.586773	0.441087	0.811111
0	C	0.99776	0.939394	0.239411
0	C	0.0844638	0.933055	0.801836
0	H	0.509767	0.411278	0.218541
0	H	0.583733	0.403699	0.840908
0	H	0.9992	0.900741	0.209177
0	H	0.0794182	0.893141	0.829814
0	C	0.441635	0.72963	0.285252
0	C	0.646438	0.726749	0.772736
0	C	0.94012	0.225628	0.279299
0	C	0.1388	0.227544	0.765649
0	C	0.393875	0.680459	0.270407
0	C	0.694596	0.678391	0.788558
0	C	0.892112	0.177131	0.264281
0	C	0.188261	0.183383	0.781524
0	H	0.390628	0.60513	0.258042
0	H	0.698678	0.604505	0.802874
0	H	0.887787	0.103263	0.249927
0	H	0.193549	0.108148	0.794082
0	C	0.350946	0.728924	0.271503
0	C	0.736952	0.725418	0.785737
0	C	0.850246	0.223743	0.268009
0	C	0.23082	0.236253	0.782029
0	C	0.355119	0.826165	0.28573
0	C	0.731931	0.820713	0.768822
0	C	0.855343	0.319856	0.284026
0	C	0.224416	0.334074	0.768173
0	H	0.321822	0.865347	0.286074
0	H	0.764498	0.859132	0.766682
0	H	0.822765	0.358946	0.285779
0	H	0.256696	0.377892	0.768671
0	C	0.403643	0.874516	0.301048
0	C	0.683096	0.868418	0.752588
0	C	0.90406	0.367618	0.299521
0	C	0.174783	0.378146	0.752826
0	C	0.447801	0.826499	0.301729
0	C	0.63947	0.821466	0.75363
0	C	0.947657	0.320258	0.298635
0	C	0.130906	0.32488	0.749746
0	C	0.299834	0.672452	0.255239
0	C	0.787944	0.668502	0.802148
0	C	0.799781	0.166158	0.25333
0	C	0.284231	0.18576	0.800738
0	H	0.281114	0.666257	0.21407
0	H	0.805856	0.658485	0.842885
0	H	0.780533	0.156928	0.212441
0	H	0.301956	0.18063	0.841604
0	C	0.313394	0.570549	0.278567
0	C	0.773626	0.568221	0.776827
0	C	0.813873	0.0656731	0.278277
0	C	0.27575	0.0829737	0.778022
0	C	0.290318	0.329893	0.254004
0	C	0.796733	0.327478	0.797147
0	C	0.788681	0.823	0.253704
0	C	0.305622	0.842206	0.797394
0	C	0.287607	0.243237	0.229103
0	C	0.799029	0.238355	0.819977
0	C	0.787206	0.735308	0.230248
0	C	0.31976	0.767135	0.831553
0	H	0.317381	0.223124	0.217412
0	H	0.769002	0.216556	0.831014
0	H	0.818837	0.714582	0.221454
0	H	0.299292	0.756352	0.853626
0	C	0.246581	0.178245	0.219234
0	C	0.839427	0.173047	0.828352
0	C	0.74507	0.671488	0.217664
0	C	0.3606	0.704284	0.837633
0	C	0.205886	0.199829	0.232127
0	C	0.879942	0.196884	0.815663
0	C	0.700447	0.697632	0.223865
0	C	0.388927	0.715915	0.810677
0	C	0.208468	0.28856	0.255759
0	C	0.879068	0.289449	0.795958
0	C	0.702733	0.785776	0.247839
0	C	0.37537	0.79386	0.777915
0	C	0.251141	0.35197	0.267691
0	C	0.836706	0.353101	0.785146
0	C	0.747252	0.845865	0.264258
0	C	0.333465	0.85593	0.770749
0	H	0.25398	0.419086	0.288209
0	H	0.834252	0.422607	0.766469
0	H	0.749163	0.91125	0.285367
0	H	0.321769	0.914836	0.74366
0	C	0.123635	0.136943	0.228248
0	C	0.959527	0.133582	0.814963
0	C	0.619483	0.631495	0.220554
0	C	0.469264	0.655709	0.809446
0	H	0.135407	0.1426	0.266809
0	H	0.948625	0.149581	0.777356
0	H	0.636277	0.63887	0.259768
0	H	0.457578	0.651193	0.77099
0	H	0.103765	0.0665989	0.214339
0	H	0.977093	0.0603959	0.82386
0	H	0.602641	0.557807	0.209474
0	H	0.49308	0.591541	0.828006
0	H	0.0990511	0.197603	0.207051
0	H	0.986633	0.186826	0.840004
0	H	0.589896	0.687554	0.20123
0	H	0.490227	0.722929	0.825652
0	C	0.412494	0.25407	0.316996
0	C	0.672985	0.248279	0.733241
0	C	0.91509	0.749378	0.320087
0	C	0.189299	0.744376	0.740541
0	H	0.44982	0.213739	0.336716
0	H	0.634999	0.209865	0.71397
0	H	0.952774	0.708685	0.338189
0	H	0.154464	0.696647	0.722527
0	H	0.379586	0.2038	0.310504
0	H	0.7053	0.196682	0.739609
0	H	0.88209	0.700036	0.315405
0	H	0.225105	0.699261	0.750682
0	H	0.411875	0.31335	0.340661
0	H	0.673918	0.309021	0.710281
0	H	0.91656	0.810093	0.34424
0	H	0.18793	0.799392	0.714066
0	C	0.432488	0.140293	0.251225
0	C	0.65402	0.13308	0.800786
0	C	0.932146	0.633466	0.250921
0	C	0.167824	0.639597	0.812336
0	C	0.365128	0.0189495	0.211504
0	C	0.722001	0.0123527	0.842625
0	C	0.868051	0.508002	0.209674
0	C	0.242823	0.532616	0.856673
0	H	0.33038	0.0155941	0.176382
0	H	0.758733	0.0144639	0.876319
0	H	0.832354	0.504378	0.175245
0	H	0.284465	0.54826	0.867472
0	H	0.354265	0.0123599	0.240819
0	H	0.730583	0.000833929	0.812227
0	H	0.857841	0.496637	0.239158
0	H	0.225444	0.485959	0.824729
0	H	0.394568	0.965424	0.214028
0	H	0.69507	0.957745	0.844153
0	H	0.898008	0.456616	0.211149
0	H	0.237871	0.502378	0.88674
0	C	0.519382	0.888585	0.290242
0	C	0.567548	0.888664	0.76314
0	C	0.0198559	0.385063	0.288886
0	C	0.0606129	0.385143	0.763315
0	H	0.557837	0.920081	0.314298
0	H	0.529952	0.92221	0.738276
0	H	0.0586492	0.414026	0.313764
0	H	0.0215348	0.415402	0.740351
0	H	0.49521	0.939961	0.261876
0	H	0.592523	0.940555	0.790862
0	H	0.996363	0.439671	0.262038
0	H	0.0855978	0.43687	0.791258
0	H	0.523815	0.818457	0.275697
0	H	0.561928	0.82053	0.778489
0	H	0.0232294	0.316629	0.272412
0	H	0.0575426	0.314821	0.778481
0	C	0.216625	0.759394	0.232289
0	C	0.871488	0.756173	0.826824
0	C	0.717512	0.255811	0.23047
0	C	0.371487	0.26332	0.824048
0	C	0.134033	0.841349	0.220769
0	C	0.953271	0.841098	0.836963
0	C	0.635949	0.340273	0.219354
0	C	0.453587	0.338751	0.828807
0	C	0.0976612	0.756178	0.195539
0	C	0.989368	0.754316	0.859787
0	C	0.599742	0.255755	0.192982
0	C	0.490067	0.259215	0.860793
0	H	0.0561045	0.778341	0.179077
0	H	0.0308876	0.776196	0.874976
0	H	0.558173	0.276979	0.178011
0	H	0.531231	0.284232	0.878583
0	H	0.102991	0.697163	0.221132
0	H	0.982621	0.697082	0.83294
0	H	0.60603	0.194201	0.217529
0	H	0.488301	0.194	0.839781
0	H	0.10597	0.725486	0.167195
0	H	0.982688	0.721575	0.888679
0	H	0.606915	0.228704	0.163407
0	H	0.478993	0.237044	0.888775
0	C	0.122938	0.887526	0.259577
0	C	0.962012	0.888587	0.797027
0	C	0.623817	0.383173	0.258172
0	C	0.464845	0.364054	0.786898
0	H	0.0859304	0.928615	0.243772
0	H	0.997819	0.933301	0.812076
0	H	0.58595	0.421633	0.242251
0	H	0.504537	0.394769	0.800055
0	H	0.155041	0.936789	0.282587
0	H	0.928082	0.934806	0.774153
0	H	0.654831	0.433602	0.28165
0	H	0.436268	0.416615	0.762172
0	H	0.120067	0.832133	0.283726
0	H	0.965608	0.833991	0.772941
0	H	0.621732	0.325959	0.281932
0	H	0.462045	0.299449	0.765028
0	C	0.138441	0.914186	0.186345
0	C	0.95201	0.912453	0.873437
0	C	0.640789	0.414796	0.185876
0	C	0.451057	0.426909	0.857006
0	H	0.102057	0.956057	0.166865
0	H	0.990826	0.945168	0.89537
0	H	0.603198	0.451285	0.163618
0	H	0.490581	0.450713	0.883394
0	H	0.147247	0.87818	0.159302
0	H	0.939429	0.877068	0.898207
0	H	0.653939	0.381466	0.161129
0	H	0.428957	0.411904	0.877359
0	H	0.170517	0.966949	0.205309
0	H	0.924272	0.972939	0.855989
0	H	0.669893	0.471852	0.205609
0	H	0.431296	0.489508	0.83366
0	N	0.407241	0.293591	0.270942
0	N	0.678967	0.286202	0.78006
0	N	0.907121	0.786479	0.272673
0	N	0.190258	0.790847	0.783717
0	N	0.315062	0.498788	0.248134
0	N	0.770076	0.493887	0.805096
0	N	0.814908	0.991252	0.248928
0	N	0.275927	0.00716301	0.807302
0	H	0.305604	0.511778	0.212227
0	H	0.778414	0.504982	0.84074
0	H	0.805908	0.00272	0.213102
0	H	0.285077	0.0166955	0.843245
0	N	0.260532	0.712744	0.268542
0	N	0.827796	0.710179	0.789968
0	N	0.761197	0.208913	0.266883
0	N	0.321471	0.237463	0.788532
0	H	0.27352	0.733352	0.304224
0	H	0.81527	0.731413	0.754478
0	H	0.774868	0.231688	0.302387
0	H	0.311611	0.246467	0.752318
0	O	0.485233	0.691355	0.282575
0	O	0.603619	0.68851	0.777078
0	O	0.98205	0.187246	0.273597
0	O	0.0956889	0.184185	0.768042
0	O	0.169426	0.127098	0.219525
0	O	0.913691	0.121238	0.823122
0	O	0.65957	0.633238	0.20348
0	O	0.424126	0.642146	0.818526
0	O	0.373807	0.408883	0.212072
0	O	0.714163	0.394867	0.841662
0	O	0.872232	0.899197	0.213119
0	O	0.222809	0.903566	0.843551
0	O	0.385113	0.11731	0.213205
0	O	0.700917	0.11005	0.839344
0	O	0.886315	0.607813	0.211888
0	O	0.219074	0.629096	0.846151
0	O	0.460632	0.0809119	0.280553
0	O	0.626278	0.0751694	0.77051
0	O	0.960853	0.577442	0.281928
0	O	0.138092	0.572008	0.793452
0	O	0.495996	0.874434	0.322748
0	O	0.591023	0.868311	0.731205
0	O	0.996164	0.36705	0.320858
0	O	0.0822434	0.371515	0.729362
0	O	0.406955	0.969162	0.315099
0	O	0.679153	0.961237	0.736034
0	O	0.907905	0.461076	0.315296
0	O	0.170036	0.474687	0.741715
0	H	0.440935	0.999762	0.316987
0	H	0.644727	0.992217	0.732814
0	H	0.942044	0.492583	0.318024
0	H	0.13472	0.500225	0.738714
0	O	0.1876	0.79965	0.252026
0	O	0.898838	0.802144	0.80693
0	O	0.689474	0.298768	0.250528
0	O	0.399276	0.297017	0.80139
0	O	0.206213	0.759907	0.189638
0	O	0.882777	0.751765	0.869593
0	O	0.706518	0.254371	0.187695
0	O	0.387023	0.258225	0.867557
0	O	0.323298	0.553638	0.320312
0	O	0.765057	0.554816	0.735183
0	O	0.823792	0.0529985	0.320315
0	O	0.268312	0.0693082	0.736645
0	Cl	0.247524	0.0691742	0.192449
0	Cl	0.83757	0.0617453	0.852555
0	Cl	0.749374	0.559151	0.195313
0	Cl	0.375572	0.609671	0.877875
0	Cl	0.160823	0.326773	0.271292
0	Cl	0.928291	0.332723	0.783991
0	Cl	0.650934	0.827175	0.256806
0	Cl	0.407849	0.815583	0.744337
0	C	0.30957	0.563706	0.45084
0	C	0.777859	0.561342	0.605627
0	C	0.807942	0.0668587	0.448772
0	C	0.283283	0.066934	0.610077
0	H	0.334862	0.589982	0.489314
0	H	0.752863	0.587823	0.567058
0	H	0.833342	0.0912814	0.487583
0	H	0.260821	0.0948769	0.571379
0	C	0.310132	0.451797	0.447937
0	C	0.775785	0.449647	0.608411
0	C	0.807261	0.954939	0.4446
0	C	0.278384	0.955334	0.612505
0	C	0.322045	0.291637	0.4865
0	C	0.768833	0.289543	0.571305
0	C	0.816818	0.793234	0.481074
0	C	0.268868	0.793946	0.575059
0	H	0.312746	0.271456	0.447985
0	H	0.777594	0.268795	0.609734
0	H	0.808201	0.774443	0.442551
0	H	0.276025	0.774321	0.613027
0	C	0.378632	0.257441	0.520813
0	C	0.712144	0.256993	0.536374
0	C	0.873301	0.758796	0.515781
0	C	0.213008	0.759535	0.538915
0	H	0.388213	0.274485	0.558695
0	H	0.703336	0.274799	0.498765
0	H	0.882363	0.776489	0.553432
0	H	0.205585	0.776181	0.501546
0	H	0.380186	0.176542	0.519569
0	H	0.709885	0.17612	0.537209
0	H	0.874533	0.677832	0.514696
0	H	0.211099	0.67871	0.540185
0	C	0.41808	0.30354	0.507443
0	C	0.672345	0.303806	0.549101
0	C	0.913704	0.803674	0.503275
0	C	0.171931	0.806674	0.549784
0	C	0.441532	0.393085	0.528192
0	C	0.649994	0.394436	0.528941
0	C	0.935425	0.895448	0.522136
0	C	0.149005	0.895457	0.527403
0	H	0.434505	0.426152	0.556578
0	H	0.658623	0.428707	0.501718
0	H	0.926415	0.931366	0.548732
0	H	0.158191	0.927197	0.499987
0	C	0.474275	0.441758	0.513107
0	C	0.616188	0.442533	0.542987
0	C	0.968982	0.942488	0.50748
0	C	0.114117	0.944793	0.539618
0	H	0.492085	0.511788	0.529234
0	H	0.598791	0.512861	0.526882
0	H	0.985929	0.0137538	0.522645
0	H	0.0963731	0.0140185	0.522132
0	C	0.483983	0.398886	0.477291
0	C	0.604856	0.398551	0.577619
0	C	0.980675	0.896488	0.473498
0	C	0.102221	0.903916	0.574532
0	C	0.463595	0.307749	0.457678
0	C	0.624421	0.306759	0.596785
0	C	0.962535	0.802865	0.456345
0	C	0.122411	0.813853	0.595885
0	H	0.473005	0.275342	0.430842
0	H	0.613786	0.273641	0.62269
0	H	0.973859	0.76764	0.431337
0	H	0.111229	0.783098	0.621914
0	C	0.430914	0.260347	0.473487
0	C	0.657751	0.259609	0.581693
0	C	0.929705	0.75656	0.472313
0	C	0.157145	0.765209	0.582856
0	H	0.414962	0.188951	0.458293
0	H	0.672916	0.187473	0.596536
0	H	0.916282	0.68257	0.459668
0	H	0.173003	0.694576	0.599116
0	C	0.503995	0.537672	0.442669
0	C	0.58398	0.535683	0.612635
0	C	0.00150109	0.0342801	0.438763
0	C	0.080948	0.0440271	0.607191
0	C	0.454578	0.578066	0.4314
0	C	0.633359	0.57662	0.624265
0	C	0.952267	0.0756602	0.427223
0	C	0.130925	0.0837133	0.620004
0	H	0.425349	0.534154	0.436122
0	H	0.662949	0.532991	0.619926
0	H	0.922071	0.0319849	0.430538
0	H	0.160777	0.0400503	0.616205
0	C	0.442809	0.6732	0.413631
0	C	0.644649	0.671969	0.641835
0	C	0.941768	0.171871	0.410902
0	C	0.142774	0.178576	0.638249
0	C	0.479151	0.725521	0.40439
0	C	0.60805	0.723697	0.650919
0	C	0.978911	0.224171	0.402783
0	C	0.10574	0.231757	0.646185
0	H	0.470234	0.799231	0.389719
0	H	0.616523	0.797745	0.665157
0	H	0.970926	0.298846	0.389269
0	H	0.114641	0.305158	0.661086
0	C	0.527821	0.683342	0.413728
0	C	0.559684	0.680495	0.641872
0	C	0.0271684	0.180665	0.411829
0	C	0.0565444	0.190153	0.635513
0	C	0.542307	0.589461	0.434722
0	C	0.5456	0.586573	0.620872
0	C	0.0404468	0.0856968	0.431743
0	C	0.0424655	0.0962798	0.614497
0	C	0.389077	0.715168	0.401892
0	C	0.698213	0.714308	0.653428
0	C	0.888547	0.215088	0.399855
0	C	0.197455	0.218599	0.652147
0	H	0.360995	0.692532	0.363475
0	H	0.726342	0.692332	0.691933
0	H	0.85975	0.192649	0.361585
0	H	0.224178	0.1939	0.690718
0	C	0.368422	0.67764	0.436842
0	C	0.718755	0.676147	0.618521
0	C	0.868274	0.178765	0.435321
0	C	0.219852	0.180347	0.618419
0	C	0.254562	0.604757	0.434347
0	C	0.833615	0.598123	0.621779
0	C	0.753354	0.109889	0.432261
0	C	0.340378	0.0978767	0.628135
0	C	0.210538	0.545326	0.423289
0	C	0.875805	0.534616	0.631438
0	C	0.708711	0.0517348	0.420409
0	C	0.379234	0.031653	0.63103
0	H	0.213914	0.46559	0.425349
0	H	0.870678	0.455143	0.629299
0	H	0.711304	0.971883	0.421615
0	H	0.37076	0.95353	0.623414
0	C	0.16116	0.588171	0.40947
0	C	0.925739	0.572775	0.643504
0	C	0.65975	0.0959774	0.406852
0	C	0.430086	0.0650516	0.643232
0	C	0.154986	0.689821	0.405319
0	C	0.934501	0.673824	0.648118
0	C	0.654528	0.197805	0.403554
0	C	0.44321	0.163928	0.653577
0	C	0.199846	0.748371	0.41759
0	C	0.891692	0.736568	0.638092
0	C	0.699832	0.255092	0.415862
0	C	0.403761	0.229351	0.65037
0	C	0.249314	0.706863	0.431986
0	C	0.84142	0.699601	0.624692
0	C	0.749008	0.212124	0.430459
0	C	0.352934	0.19697	0.638441
0	H	0.28399	0.753222	0.441386
0	H	0.808086	0.748788	0.616477
0	H	0.784142	0.257491	0.440535
0	H	0.322998	0.248656	0.637158
0	C	0.0881874	0.75952	0.421529
0	C	0.999328	0.747032	0.630038
0	C	0.585384	0.256417	0.41968
0	C	0.50678	0.225069	0.631064
0	H	0.0488549	0.789426	0.399022
0	H	0.038726	0.776883	0.652271
0	H	0.5467	0.289316	0.397333
0	H	0.548144	0.247208	0.650957
0	H	0.114283	0.815799	0.445443
0	H	0.972109	0.804612	0.608721
0	H	0.610718	0.307114	0.447887
0	H	0.481913	0.2868	0.611379
0	H	0.0863821	0.695108	0.441288
0	H	0.000389286	0.687004	0.607496
0	H	0.581652	0.186395	0.434507
0	H	0.502125	0.163064	0.607455
0	C	0.323834	0.443331	0.533921
0	C	0.77172	0.441006	0.525797
0	C	0.815338	0.94266	0.528593
0	C	0.271839	0.94443	0.529003
0	H	0.363484	0.476179	0.55349
0	H	0.730767	0.462159	0.501055
0	H	0.855626	0.969677	0.551783
0	H	0.2317	0.971095	0.50507
0	H	0.319113	0.388896	0.557645
0	H	0.786289	0.390242	0.50712
0	H	0.805096	0.8886	0.549099
0	H	0.283301	0.891118	0.509047
0	H	0.29419	0.501349	0.527581
0	H	0.796768	0.507193	0.53369
0	H	0.787424	0.00437821	0.521105
0	H	0.299593	0.00660864	0.537202
0	C	0.281211	0.237921	0.497114
0	C	0.809744	0.23501	0.561166
0	C	0.775739	0.737672	0.490676
0	C	0.310988	0.739552	0.566489
0	C	0.191492	0.250918	0.486245
0	C	0.897342	0.251626	0.566981
0	C	0.688077	0.751449	0.484803
0	C	0.398158	0.757736	0.571654
0	H	0.185024	0.305327	0.508805
0	H	0.903589	0.306308	0.544401
0	H	0.681362	0.805507	0.507334
0	H	0.407089	0.817113	0.552984
0	H	0.200755	0.180252	0.504759
0	H	0.887863	0.181072	0.54838
0	H	0.698303	0.681061	0.503521
0	H	0.386795	0.69211	0.548998
0	H	0.158095	0.246691	0.450071
0	H	0.931091	0.247055	0.602964
0	H	0.654342	0.745947	0.448852
0	H	0.430894	0.744009	0.607449
0	C	0.611308	0.540353	0.41526
0	C	0.477783	0.535387	0.641215
0	C	0.1095	0.0371343	0.412392
0	C	0.977126	0.0405079	0.636427
0	H	0.654134	0.53851	0.437838
0	H	0.435747	0.519772	0.619096
0	H	0.152328	0.0354784	0.434994
0	H	0.934283	0.0321707	0.615948
0	H	0.599946	0.602485	0.390545
0	H	0.48346	0.602686	0.66191
0	H	0.0981773	0.100137	0.388178
0	H	0.987248	0.103211	0.66079
0	H	0.596333	0.47181	0.395852
0	H	0.498561	0.474124	0.664629
0	H	0.0946861	0.969024	0.392423
0	H	0.996062	0.973609	0.655682
0	C	0.341896	0.871956	0.381856
0	C	0.746039	0.869573	0.671801
0	C	0.842684	0.372776	0.38032
0	C	0.247875	0.370929	0.672231
0	C	0.304669	0.0382905	0.371601
0	C	0.784475	0.0331816	0.676377
0	C	0.805777	0.538898	0.371683
0	C	0.290123	0.532771	0.687167
0	C	0.255161	0.00532602	0.374105
0	C	0.833186	0.996725	0.673429
0	C	0.757018	0.505499	0.375323
0	C	0.337718	0.497704	0.6819
0	H	0.241137	0.934241	0.356127
0	H	0.847466	0.927397	0.69308
0	H	0.743456	0.433618	0.358127
0	H	0.351767	0.426114	0.699334
0	H	0.222785	0.0574067	0.357059
0	H	0.865604	0.0491839	0.688584
0	H	0.724094	0.556361	0.358108
0	H	0.370719	0.548848	0.698014
0	H	0.263257	0.996186	0.411733
0	H	0.824349	0.98337	0.635859
0	H	0.76596	0.498442	0.413291
0	H	0.328287	0.48842	0.643975
0	C	0.328661	0.129154	0.401538
0	C	0.759408	0.120572	0.644077
0	C	0.830057	0.629339	0.401852
0	C	0.26879	0.629153	0.661437
0	H	0.335521	0.118328	0.4388
0	H	0.752452	0.105285	0.607056
0	H	0.837704	0.617613	0.439314
0	H	0.258782	0.623164	0.623148
0	H	0.303017	0.193224	0.38669
0	H	0.784076	0.186358	0.657016
0	H	0.804041	0.693179	0.387726
0	H	0.298201	0.687568	0.677481
0	H	0.367085	0.146769	0.403082
0	H	0.72073	0.137634	0.642376
0	H	0.86805	0.647666	0.40267
0	H	0.233005	0.651941	0.663495
0	C	0.300315	0.0436533	0.321483
0	C	0.790473	0.0449837	0.726829
0	C	0.800001	0.545975	0.32111
0	C	0.296977	0.531411	0.738271
0	H	0.285565	0.114458	0.304591
0	H	0.806109	0.116741	0.741653
0	H	0.784669	0.617047	0.304817
0	H	0.321056	0.592374	0.759684
0	H	0.273707	0.987349	0.297499
0	H	0.817224	0.989972	0.751801
0	H	0.77334	0.48963	0.29726
0	H	0.316801	0.464296	0.757457
0	H	0.339042	0.032204	0.322341
0	H	0.752385	0.0363647	0.727492
0	H	0.838253	0.535214	0.320954
0	H	0.258744	0.535202	0.738753
0	N	0.315845	0.398537	0.488001
0	N	0.77556	0.396337	0.57039
0	N	0.810633	0.89994	0.483343
0	N	0.274853	0.900836	0.573524
0	N	0.333302	0.600575	0.420569
0	N	0.755141	0.601256	0.636015
0	N	0.832079	0.103501	0.41882
0	N	0.258829	0.109933	0.6384
0	H	0.322295	0.566145	0.387854
0	H	0.76518	0.566363	0.668484
0	H	0.821032	0.0687997	0.386097
0	H	0.269061	0.0789482	0.671696
0	N	0.390536	0.823062	0.404923
0	N	0.696819	0.82204	0.649946
0	N	0.891067	0.322925	0.403087
0	N	0.197945	0.326646	0.651025
0	H	0.418577	0.851619	0.436915
0	H	0.669331	0.849594	0.617571
0	H	0.919385	0.350522	0.435192
0	H	0.168248	0.359208	0.621469
0	O	0.517195	0.44346	0.460333
0	O	0.570848	0.442193	0.593976
0	O	0.0136874	0.939391	0.455884
0	O	0.0668294	0.950749	0.588419
0	O	0.105631	0.732329	0.386041
0	O	0.985183	0.709504	0.66618
0	O	0.606006	0.243285	0.385164
0	O	0.494602	0.195548	0.669656
0	O	0.305083	0.40963	0.411506
0	O	0.776207	0.407849	0.643233
0	O	0.80349	0.914287	0.408227
0	O	0.278796	0.914804	0.647632
0	O	0.235344	0.288808	0.479094
0	O	0.853678	0.290169	0.57425
0	O	0.731412	0.791782	0.477528
0	O	0.354566	0.79587	0.579175
0	O	0.287088	0.159089	0.516626
0	O	0.805468	0.152544	0.545643
0	O	0.780381	0.655077	0.506131
0	O	0.307642	0.656568	0.551864
0	O	0.592117	0.550084	0.450994
0	O	0.495898	0.546563	0.604837
0	O	0.0899203	0.044727	0.447912
0	O	0.992521	0.0572585	0.598531
0	O	0.561879	0.73094	0.401189
0	O	0.52563	0.727149	0.654733
0	O	0.0618004	0.228159	0.400057
0	O	0.021359	0.237444	0.646532
0	H	0.542606	0.784807	0.376734
0	H	0.54476	0.7818	0.678888
0	H	0.0431069	0.283338	0.376239
0	H	0.0394208	0.291131	0.671378
0	O	0.347292	0.964111	0.399423
0	O	0.74144	0.958601	0.65127
0	O	0.848659	0.464674	0.398345
0	O	0.244316	0.465478	0.657988
0	O	0.30143	0.838104	0.349624
0	O	0.785844	0.837125	0.70528
0	O	0.802098	0.339529	0.348024
0	O	0.288828	0.331003	0.700343
0	O	0.380367	0.716632	0.475743
0	O	0.706166	0.713304	0.579123
0	O	0.881222	0.217599	0.474406
0	O	0.20629	0.212798	0.578038
0	Cl	0.107714	0.515509	0.397759
0	Cl	0.976398	0.494939	0.652118
0	Cl	0.605644	0.0246576	0.394366
0	Cl	0.476474	0.983756	0.644545
0	Cl	0.193436	0.87304	0.415
0	Cl	0.901458	0.860605	0.642297
0	Cl	0.694128	0.37975	0.412807
0	Cl	0.417581	0.351728	0.660242
