#******************************************
#
# CIF file created by Zeo++
# Zeo++ is an open source package to
# analyze microporous materials
#
#*******************************************

_cell_length_a		39.7363(0)
_cell_length_b		39.81(0)
_cell_length_c		6.09896(0)
_cell_angle_alpha		90(0)
_cell_angle_beta		90(0)
_cell_angle_gamma		90(0)

_symmetry_space_group_name_H-M		'P1'
_symmetry_Int_Tables_number		1
_symmetry_cell_setting		Monoclinic

loop_
_symmetry_equiv_pos_as_xyz
'+x,+y,+z'

loop_
_atom_site_label
_atom_site_type_symbol
_atom_site_fract_x
_atom_site_fract_y
_atom_site_fract_z
0	Se	0.388421	0.566306	0.531529
0	Se	0.111988	0.432743	0.0322124
0	Se	0.183121	0.637672	0.780314
0	Se	0.317367	0.361321	0.280194
0	Se	0.612201	0.432491	0.454076
0	Se	0.888975	0.566371	0.953231
0	Se	0.817633	0.361315	0.203497
0	Se	0.68352	0.637577	0.703898
0	Se	0.888958	0.0668458	0.030812
0	Se	0.612212	0.932009	0.529922
0	Se	0.683465	0.138117	0.280426
0	Se	0.817688	0.860777	0.780805
0	Se	0.11184	0.932142	0.953834
0	Se	0.388568	0.0669034	0.454252
0	Se	0.317339	0.860809	0.704238
0	Se	0.183199	0.138126	0.203312
0	As	0.455798	0.607647	0.106359
0	As	0.044824	0.391338	0.608397
0	As	0.141838	0.704696	0.356854
0	As	0.358626	0.294204	0.85625
0	As	0.54497	0.391277	0.878154
0	As	0.956022	0.607658	0.376106
0	As	0.858981	0.294233	0.627571
0	As	0.642188	0.704756	0.128414
0	As	0.955974	0.108135	0.608046
0	As	0.545018	0.890797	0.106022
0	As	0.642188	0.205281	0.856209
0	As	0.85898	0.793709	0.35704
0	As	0.0448288	0.890826	0.376693
0	As	0.455802	0.10816	0.878507
0	As	0.358622	0.793662	0.128403
0	As	0.141835	0.205252	0.627625
0	O	0.432184	0.512202	0.495102
0	O	0.0681034	0.486722	0.996462
0	O	0.237382	0.681301	0.744269
0	O	0.262798	0.318089	0.247962
0	O	0.568649	0.486793	0.488771
0	O	0.932801	0.512354	0.988864
0	O	0.763403	0.31766	0.23988
0	O	0.737884	0.681052	0.738261
0	O	0.932735	0.0128206	0.996811
0	O	0.568735	0.986342	0.497031
0	O	0.737909	0.181496	0.246824
0	O	0.763376	0.81722	0.745235
0	O	0.0680854	0.986201	0.98747
0	O	0.432214	0.0127265	0.488724
0	O	0.262837	0.817498	0.73717
0	O	0.237315	0.181909	0.240887
0	C	0.42403	0.601935	0.866602
0	C	0.076655	0.397089	0.36866
0	C	0.147515	0.672991	0.116811
0	C	0.352916	0.325938	0.616382
0	C	0.576709	0.396958	0.11811
0	C	0.924226	0.601936	0.61608
0	C	0.853286	0.325945	0.867554
0	C	0.647908	0.672994	0.368104
0	C	0.924222	0.102373	0.367973
0	C	0.576712	0.896518	0.865958
0	C	0.647901	0.173525	0.616487
0	C	0.853291	0.825416	0.117021
0	C	0.0765836	0.896589	0.616758
0	C	0.424095	0.102426	0.118487
0	C	0.352905	0.825408	0.368207
0	C	0.147534	0.173519	0.867464
0	C	0.422966	0.574242	0.74395
0	C	0.0776654	0.424819	0.246164
0	C	0.175247	0.671977	0.994213
0	C	0.325157	0.326969	0.493805
0	C	0.577737	0.424622	0.241059
0	C	0.923244	0.574225	0.738781
0	C	0.825522	0.326978	0.989864
0	C	0.675673	0.671961	0.490628
0	C	0.92324	0.0746599	0.245353
0	C	0.57774	0.924186	0.743089
0	C	0.675652	0.172494	0.493823
0	C	0.825542	0.826448	0.994586
0	C	0.0775646	0.924306	0.739353
0	C	0.423056	0.0747412	0.241192
0	C	0.325139	0.826447	0.490722
0	C	0.175288	0.172484	0.989848
0	C	0.399141	0.629482	0.840392
0	C	0.101461	0.369498	0.341944
0	C	0.119881	0.64816	0.0907611
0	C	0.380543	0.350761	0.58988
0	C	0.601599	0.369407	0.144204
0	C	0.899393	0.629504	0.642741
0	C	0.880912	0.350784	0.893628
0	C	0.620285	0.648168	0.394511
0	C	0.899397	0.12994	0.341117
0	C	0.601594	0.86897	0.839661
0	C	0.620276	0.148703	0.590027
0	C	0.880921	0.85025	0.0908994
0	C	0.101401	0.869013	0.643502
0	C	0.399197	0.129959	0.144765
0	C	0.380529	0.850236	0.394624
0	C	0.119907	0.148682	0.893497
0	C	0.401063	0.650537	0.655524
0	C	0.0994299	0.348388	0.157392
0	C	0.0987671	0.65	0.906298
0	C	0.401756	0.348728	0.405626
0	C	0.599721	0.348359	0.329114
0	C	0.901409	0.650648	0.827156
0	C	0.902007	0.348988	0.0782127
0	C	0.599062	0.650204	0.578727
0	C	0.901423	0.151089	0.156749
0	C	0.599706	0.847918	0.654791
0	C	0.599051	0.150763	0.40584
0	C	0.902021	0.848426	0.906358
0	C	0.0994162	0.847882	0.827964
0	C	0.401078	0.151025	0.329592
0	C	0.401736	0.848231	0.578919
0	C	0.0988018	0.150506	0.0780295
0	C	0.378129	0.676747	0.627539
0	C	0.122242	0.322063	0.129628
0	C	0.0724646	0.62713	0.879413
0	C	0.428021	0.371627	0.378004
0	C	0.622661	0.322152	0.356945
0	C	0.878534	0.676916	0.854933
0	C	0.92831	0.371866	0.104961
0	C	0.572796	0.627311	0.606328
0	C	0.878594	0.177408	0.129343
0	C	0.622601	0.82166	0.627313
0	C	0.572786	0.127872	0.378124
0	C	0.928324	0.8713	0.879493
0	C	0.122224	0.821537	0.855143
0	C	0.378152	0.177254	0.357083
0	C	0.427999	0.871136	0.606436
0	C	0.0724992	0.127635	0.10488
0	C	0.352927	0.682131	0.783742
0	C	0.147445	0.316617	0.285721
0	C	0.0670817	0.602109	0.0361906
0	C	0.433297	0.396866	0.533805
0	C	0.647827	0.316763	0.200499
0	C	0.853309	0.682298	0.6989
0	C	0.933717	0.396832	0.947856
0	C	0.567527	0.602067	0.450556
0	C	0.853376	0.182788	0.285437
0	C	0.64776	0.816273	0.783813
0	C	0.567523	0.1026	0.533719
0	C	0.933724	0.896296	0.0364167
0	C	0.147383	0.816123	0.698711
0	C	0.352989	0.182618	0.200578
0	C	0.433285	0.896344	0.450429
0	C	0.0671038	0.102637	0.947979
0	C	0.350771	0.661341	0.967883
0	C	0.14974	0.337501	0.469399
0	C	0.0879741	0.599974	0.220026
0	C	0.412315	0.399165	0.717152
0	C	0.649932	0.337532	0.0162288
0	C	0.851054	0.661405	0.515265
0	C	0.912846	0.39892	0.763887
0	C	0.588502	0.599775	0.267179
0	C	0.851083	0.161842	0.468821
0	C	0.649901	0.837091	0.967857
0	C	0.588512	0.100276	0.717025
0	C	0.912836	0.898421	0.220299
0	C	0.149635	0.837043	0.515181
0	C	0.350872	0.161804	0.0165311
0	C	0.412319	0.898604	0.266994
0	C	0.0879784	0.100524	0.764038
0	C	0.373819	0.635148	0.996848
0	C	0.126849	0.363841	0.498322
0	C	0.114272	0.622944	0.248209
0	C	0.38606	0.37617	0.746068
0	C	0.626871	0.363717	0.987429
0	C	0.873983	0.635097	0.486426
0	C	0.886546	0.375951	0.735879
0	C	0.614761	0.622771	0.238271
0	C	0.873975	0.1355	0.497394
0	C	0.626875	0.86331	0.996409
0	C	0.614769	0.12327	0.746057
0	C	0.886535	0.875457	0.248425
0	C	0.126753	0.863402	0.486815
0	C	0.37391	0.135592	0.988029
0	C	0.386057	0.875613	0.238224
0	C	0.114281	0.123489	0.735916
0	C	0.485281	0.643722	0.0162563
0	C	0.0153903	0.355205	0.517825
0	C	0.105652	0.734119	0.267293
0	C	0.394746	0.264735	0.76606
0	C	0.515473	0.355203	0.968077
0	C	0.985474	0.643782	0.466609
0	C	0.895161	0.264805	0.717138
0	C	0.606053	0.73421	0.218529
0	C	0.985393	0.144268	0.517415
0	C	0.515553	0.854714	0.0159632
0	C	0.606057	0.234736	0.766018
0	C	0.895156	0.76428	0.267405
0	C	0.0154082	0.854687	0.467137
0	C	0.485267	0.144241	0.968591
0	C	0.394745	0.764192	0.218502
0	C	0.105645	0.234669	0.717187
0	C	0.510448	0.653279	0.166722
0	C	0.990239	0.345653	0.667778
0	C	0.0961981	0.759243	0.418016
0	C	0.40425	0.23959	0.916448
0	C	0.490294	0.345679	0.817635
0	C	0.010629	0.653329	0.316679
0	C	0.904589	0.239671	0.566436
0	C	0.596572	0.759358	0.0681175
0	C	0.0105273	0.153811	0.667527
0	C	0.490397	0.845192	0.16659
0	C	0.596549	0.259879	0.916416
0	C	0.904608	0.73915	0.418086
0	C	0.990266	0.845187	0.316992
0	C	0.510423	0.153757	0.817962
0	C	0.404223	0.739043	0.0680896
0	C	0.0962155	0.259802	0.566476
0	C	0.533721	0.678357	0.114025
0	C	0.967105	0.32046	0.61524
0	C	0.071014	0.782446	0.36648
0	C	0.429381	0.21636	0.864271
0	C	0.467024	0.32059	0.870181
0	C	0.0337672	0.678519	0.369296
0	C	0.929755	0.216445	0.617971
0	C	0.571415	0.782574	0.120108
0	C	0.0336708	0.178998	0.615087
0	C	0.46712	0.820107	0.114213
0	C	0.571396	0.28309	0.864307
0	C	0.92977	0.715928	0.366444
0	C	0.967121	0.819988	0.369176
0	C	0.533705	0.178841	0.870361
0	C	0.429358	0.715807	0.12015
0	C	0.0710294	0.283009	0.617939
0	C	0.532054	0.694681	0.911762
0	C	0.968979	0.304004	0.413107
0	C	0.054459	0.780742	0.16454
0	C	0.445843	0.218083	0.66198
0	C	0.468712	0.304213	0.0722461
0	C	0.0318821	0.69498	0.571408
0	C	0.946337	0.218161	0.819821
0	C	0.554908	0.780836	0.322224
0	C	0.0318214	0.19545	0.412922
0	C	0.468769	0.803744	0.912089
0	C	0.554929	0.281365	0.662046
0	C	0.946318	0.717634	0.164468
0	C	0.968984	0.803471	0.571091
0	C	0.532049	0.195213	0.0724578
0	C	0.445858	0.717537	0.322297
0	C	0.0544399	0.281291	0.819756
0	C	0.507091	0.685658	0.761792
0	C	0.993941	0.31308	0.263273
0	C	0.0634359	0.755875	0.0140778
0	C	0.436856	0.243015	0.511954
0	C	0.493687	0.313207	0.222233
0	C	0.00689529	0.685921	0.721126
0	C	0.937396	0.243051	0.97023
0	C	0.563868	0.75589	0.472239
0	C	0.00686455	0.186393	0.263016
0	C	0.493715	0.812738	0.761909
0	C	0.563924	0.256437	0.512008
0	C	0.937344	0.742506	0.0140392
0	C	0.993952	0.812486	0.721068
0	C	0.507082	0.186239	0.222544
0	C	0.436903	0.742485	0.472322
0	C	0.0633854	0.256404	0.97017
0	C	0.484123	0.660171	0.813755
0	C	0.0167265	0.33865	0.31525
0	C	0.0890353	0.732971	0.0649084
0	C	0.4113	0.265927	0.563446
0	C	0.516649	0.338707	0.170414
0	C	0.984117	0.660351	0.669134
0	C	0.911796	0.265958	0.919463
0	C	0.589438	0.732985	0.420925
0	C	0.984071	0.160824	0.314859
0	C	0.516693	0.838233	0.813583
0	C	0.589486	0.23353	0.563472
0	C	0.911752	0.765416	0.0649383
0	C	0.0167435	0.838069	0.669472
0	C	0.484108	0.160744	0.170908
0	C	0.41134	0.765396	0.420973
0	C	0.0889902	0.233501	0.91944
0	C	0.487437	0.571463	0.0627484
0	C	0.0132126	0.427553	0.563506
0	C	0.178054	0.736313	0.312554
0	C	0.322361	0.262638	0.812282
0	C	0.513326	0.427463	0.921625
0	C	0.987611	0.571418	0.420863
0	C	0.822758	0.262622	0.6718
0	C	0.678453	0.736322	0.172338
0	C	0.987591	0.0719142	0.563439
0	C	0.513344	0.926962	0.0626972
0	C	0.678451	0.23685	0.81218
0	C	0.822758	0.762097	0.312714
0	C	0.0131985	0.92704	0.421156
0	C	0.48746	0.0719811	0.921776
0	C	0.322355	0.762096	0.17227
0	C	0.178055	0.236865	0.671901
0	C	0.507697	0.568247	0.875522
0	C	0.993124	0.430568	0.375418
0	C	0.181172	0.756542	0.124963
0	C	0.319246	0.242461	0.624408
0	C	0.493074	0.430708	0.108852
0	C	0.00770177	0.568382	0.608934
0	C	0.819636	0.242386	0.859363
0	C	0.681609	0.7565	0.360189
0	C	0.00769145	0.068903	0.375399
0	C	0.493089	0.930184	0.875479
0	C	0.681584	0.257022	0.624297
0	C	0.81966	0.741864	0.125127
0	C	0.993096	0.93008	0.609173
0	C	0.507727	0.0687437	0.108945
0	C	0.319215	0.741912	0.360103
0	C	0.181197	0.257097	0.85948
0	C	0.532735	0.543607	0.863867
0	C	0.968219	0.455307	0.361849
0	C	0.205834	0.781549	0.112861
0	C	0.294533	0.217515	0.611575
0	C	0.468025	0.455341	0.12037
0	C	0.0325642	0.543602	0.622543
0	C	0.794958	0.217398	0.871491
0	C	0.706321	0.781454	0.372748
0	C	0.0325589	0.0441281	0.361784
0	C	0.468035	0.954812	0.863929
0	C	0.706292	0.281978	0.611593
0	C	0.794988	0.716871	0.112875
0	C	0.968206	0.954834	0.622539
0	C	0.532752	0.0440867	0.120456
0	C	0.294498	0.716969	0.372783
0	C	0.205867	0.282097	0.871462
0	C	0.53809	0.522013	0.0407988
0	C	0.962859	0.477142	0.537839
0	C	0.227554	0.786893	0.289704
0	C	0.272747	0.212197	0.788096
0	C	0.462665	0.476903	0.943281
0	C	0.0378995	0.521766	0.446532
0	C	0.773227	0.212075	0.694691
0	C	0.728043	0.786786	0.195914
0	C	0.0378771	0.0222628	0.537673
0	C	0.462688	0.976403	0.0408832
0	C	0.728043	0.287314	0.788277
0	C	0.773231	0.711543	0.289535
0	C	0.962876	0.976654	0.446424
0	C	0.53808	0.0225043	0.943441
0	C	0.272742	0.711653	0.196106
0	C	0.227561	0.287439	0.694491
0	C	0.51756	0.524393	0.226058
0	C	0.983234	0.474902	0.723967
0	C	0.225257	0.766399	0.475062
0	C	0.275076	0.232585	0.973911
0	C	0.483182	0.474493	0.75797
0	C	0.0175416	0.524046	0.260362
0	C	0.775543	0.232555	0.50928
0	C	0.725673	0.766397	0.0101283
0	C	0.0175171	0.0245266	0.723861
0	C	0.483202	0.974008	0.226235
0	C	0.725703	0.26692	0.974055
0	C	0.775513	0.732034	0.474915
0	C	0.983231	0.974361	0.260229
0	C	0.517573	0.0249325	0.75809
0	C	0.275104	0.732035	0.0102904
0	C	0.225234	0.266953	0.509126
0	C	0.492279	0.548792	0.236459
0	C	0.00835635	0.450441	0.736052
0	C	0.200823	0.741171	0.485899
0	C	0.299583	0.257749	0.985153
0	C	0.508458	0.450087	0.747678
0	C	0.992442	0.548531	0.2483
0	C	0.799994	0.257771	0.498438
0	C	0.701178	0.741222	0.999191
0	C	0.992413	0.049006	0.735916
0	C	0.508481	0.949605	0.236557
0	C	0.701208	0.241747	0.985167
0	C	0.799963	0.75725	0.485909
0	C	0.00834587	0.94989	0.248387
0	C	0.4923	0.0493431	0.74788
0	C	0.299611	0.757202	0.999224
0	C	0.200797	0.241726	0.498421
0	C	0.406216	0.523732	0.425507
0	C	0.0940573	0.47526	0.926154
0	C	0.225812	0.655393	0.674702
0	C	0.274502	0.343778	0.176108
0	C	0.594526	0.47517	0.559125
0	C	0.906845	0.523822	0.0591242
0	C	0.774969	0.34357	0.309419
0	C	0.726272	0.655255	0.809019
0	C	0.906742	0.024182	0.925945
0	C	0.594635	0.974813	0.425999
0	C	0.726264	0.155738	0.175681
0	C	0.774977	0.843089	0.675304
0	C	0.094047	0.974813	0.0585368
0	C	0.406226	0.0241779	0.558946
0	C	0.274512	0.84322	0.808681
0	C	0.225805	0.15594	0.309787
0	C	0.385162	0.506797	0.259063
0	C	0.114954	0.492215	0.759036
0	C	0.242764	0.63434	0.508435
0	C	0.257589	0.364666	0.00879742
0	C	0.615574	0.492082	0.725736
0	C	0.885926	0.506848	0.22604
0	C	0.758015	0.364612	0.475753
0	C	0.743204	0.634301	0.975957
0	C	0.885906	0.00702936	0.759094
0	C	0.615602	0.991901	0.259423
0	C	0.743188	0.134804	0.00864167
0	C	0.75803	0.864112	0.508829
0	C	0.114879	0.99195	0.225527
0	C	0.385219	0.00705789	0.725173
0	C	0.257587	0.864133	0.975846
0	C	0.242767	0.13486	0.475901
0	C	0.383293	0.471455	0.26811
0	C	0.116748	0.527574	0.767375
0	C	0.278174	0.632512	0.517132
0	C	0.222179	0.366566	0.0180112
0	C	0.617464	0.527421	0.716676
0	C	0.88413	0.471492	0.217389
0	C	0.722604	0.36641	0.467154
0	C	0.778613	0.632425	0.966841
0	C	0.884167	0.971651	0.768039
0	C	0.617436	0.0272642	0.268778
0	C	0.778599	0.132912	0.017841
0	C	0.722617	0.865922	0.517516
0	C	0.116616	0.027327	0.216763
0	C	0.383421	0.971694	0.715786
0	C	0.222175	0.866007	0.966675
0	C	0.278179	0.133071	0.467329
0	C	0.366193	0.453696	0.10612
0	C	0.133986	0.545319	0.605991
0	C	0.295991	0.615381	0.355574
0	C	0.204392	0.383574	0.856111
0	C	0.63459	0.545172	0.878608
0	C	0.866856	0.453716	0.378439
0	C	0.70478	0.383535	0.628722
0	C	0.796393	0.615367	0.128591
0	C	0.866957	0.953799	0.607119
0	C	0.634487	0.045087	0.106968
0	C	0.796382	0.115874	0.856045
0	C	0.70479	0.883027	0.355893
0	C	0.133844	0.0451597	0.377713
0	C	0.366343	0.953854	0.877384
0	C	0.204385	0.883044	0.128448
0	C	0.295998	0.115919	0.628832
0	C	0.350805	0.470945	0.931685
0	C	0.149627	0.527966	0.432668
0	C	0.278648	0.599888	0.181541
0	C	0.221681	0.398969	0.681553
0	C	0.649972	0.527906	0.0530109
0	C	0.851189	0.471032	0.551846
0	C	0.722127	0.399055	0.802694
0	C	0.779091	0.599914	0.30285
0	C	0.851283	0.970961	0.433211
0	C	0.649877	0.027978	0.93201
0	C	0.779093	0.100455	0.681612
0	C	0.722125	0.898513	0.181767
0	C	0.149531	0.027966	0.551469
0	C	0.350895	0.970947	0.0522098
0	C	0.221673	0.898479	0.302839
0	C	0.278649	0.100377	0.802668
0	C	0.351665	0.506178	0.92744
0	C	0.148757	0.492734	0.428693
0	C	0.243341	0.600702	0.177672
0	C	0.256978	0.398027	0.676839
0	C	0.649074	0.492672	0.0573282
0	C	0.852086	0.506262	0.556252
0	C	0.757437	0.398265	0.806477
0	C	0.743793	0.60083	0.307393
0	C	0.852141	0.00622542	0.428343
0	C	0.64901	0.992708	0.927253
0	C	0.743796	0.101387	0.676967
0	C	0.757433	0.897711	0.177885
0	C	0.148668	0.9927	0.556145
0	C	0.351728	0.00621785	0.0570059
0	C	0.256973	0.897556	0.307515
0	C	0.243336	0.101156	0.806359
0	C	0.368855	0.524008	0.0891873
0	C	0.131349	0.474924	0.589822
0	C	0.225469	0.617989	0.339095
0	C	0.274835	0.380805	0.838615
0	C	0.631866	0.474856	0.895613
0	C	0.869512	0.524103	0.395333
0	C	0.775309	0.380984	0.64503
0	C	0.725944	0.618089	0.145735
0	C	0.869499	0.0241144	0.589212
0	C	0.631878	0.974845	0.0889337
0	C	0.72594	0.118628	0.838675
0	C	0.775312	0.880446	0.339393
0	C	0.131296	0.974837	0.395282
0	C	0.368876	0.0240965	0.895462
0	C	0.27483	0.880316	0.145816
0	C	0.225468	0.118453	0.644972
0	C	0.334359	0.452051	0.75023
0	C	0.16631	0.546845	0.252264
0	C	0.297576	0.583354	0.000931976
0	C	0.202701	0.41551	0.500903
0	C	0.666442	0.546805	0.23437
0	C	0.834454	0.452097	0.73178
0	C	0.703189	0.415583	0.983282
0	C	0.798052	0.583334	0.483446
0	C	0.834575	0.951919	0.253251
0	C	0.666317	0.046984	0.750629
0	C	0.798062	0.0839041	0.500936
0	C	0.703178	0.915014	0.00109193
0	C	0.16626	0.0469843	0.731472
0	C	0.334422	0.951921	0.233364
0	C	0.202689	0.91504	0.483419
0	C	0.297572	0.0838341	0.983289
0	H	0.420848	0.64669	0.534344
0	H	0.0796566	0.352333	0.036333
0	H	0.102633	0.669651	0.784516
0	H	0.397962	0.328893	0.285014
0	H	0.579946	0.352197	0.450383
0	H	0.92121	0.646762	0.94812
0	H	0.898127	0.329365	0.200149
0	H	0.602859	0.670041	0.699345
0	H	0.921185	0.147168	0.0355452
0	H	0.579971	0.851791	0.533277
0	H	0.602845	0.170613	0.285314
0	H	0.898147	0.828786	0.784532
0	H	0.0796868	0.851825	0.949366
0	H	0.420822	0.14717	0.451082
0	H	0.397937	0.828412	0.699641
0	H	0.10268	0.170147	0.199864
0	H	0.380155	0.693139	0.48459
0	H	0.120118	0.305676	0.986973
0	H	0.0560543	0.629081	0.736581
0	H	0.444521	0.369542	0.235533
0	H	0.620662	0.305755	0.499877
0	H	0.880629	0.693317	0.997557
0	H	0.944709	0.369948	0.247862
0	H	0.55628	0.629404	0.748717
0	H	0.880728	0.193852	0.986955
0	H	0.620565	0.805223	0.484604
0	H	0.556276	0.129981	0.235718
0	H	0.944721	0.869362	0.736601
0	H	0.120109	0.805091	0.997524
0	H	0.380172	0.193696	0.499804
0	H	0.444496	0.869074	0.748931
0	H	0.0560924	0.129576	0.247736
0	H	0.335267	0.702918	0.764451
0	H	0.165033	0.295768	0.266986
0	H	0.0461905	0.584487	0.018296
0	H	0.454152	0.414484	0.515057
0	H	0.665489	0.295974	0.219661
0	H	0.835667	0.703101	0.717654
0	H	0.954609	0.414457	0.965621
0	H	0.546675	0.584448	0.46931
0	H	0.835755	0.203613	0.26684
0	H	0.665404	0.795465	0.764801
0	H	0.546672	0.0849838	0.514859
0	H	0.954617	0.913916	0.0185562
0	H	0.164983	0.795275	0.717109
0	H	0.335318	0.203404	0.219613
0	H	0.454139	0.913963	0.469099
0	H	0.046211	0.0850164	0.965853
0	H	0.331209	0.66589	0.0898689
0	H	0.169333	0.332895	0.591586
0	H	0.0834351	0.580479	0.342498
0	H	0.416775	0.418814	0.838883
0	H	0.669448	0.332965	0.893972
0	H	0.831454	0.665967	0.393069
0	H	0.917408	0.418372	0.641152
0	H	0.584039	0.580133	0.145423
0	H	0.83149	0.166399	0.591074
0	H	0.669409	0.832529	0.090172
0	H	0.584059	0.0806075	0.838619
0	H	0.917384	0.917902	0.342861
0	H	0.16917	0.832449	0.39261
0	H	0.331367	0.166351	0.894191
0	H	0.416794	0.918218	0.145058
0	H	0.0834229	0.0810524	0.641447
0	H	0.372199	0.619577	0.143133
0	H	0.12865	0.379608	0.643648
0	H	0.129964	0.621348	0.393973
0	H	0.370277	0.37788	0.891332
0	H	0.628446	0.37926	0.840992
0	H	0.872202	0.619314	0.341185
0	H	0.87087	0.377509	0.59002
0	H	0.630526	0.621072	0.0929265
0	H	0.872164	0.119649	0.642322
0	H	0.628479	0.878919	0.142544
0	H	0.63055	0.121542	0.891313
0	H	0.870839	0.877047	0.394169
0	H	0.128522	0.879219	0.341711
0	H	0.372318	0.119981	0.841915
0	H	0.370291	0.877295	0.0928894
0	H	0.129957	0.121911	0.590077
0	H	0.465224	0.653308	0.691408
0	H	0.0356968	0.345479	0.193597
0	H	0.0958522	0.714175	0.942494
0	H	0.40448	0.284821	0.441217
0	H	0.535559	0.345547	0.292761
0	H	0.965125	0.653533	0.790671
0	H	0.904994	0.284763	0.0418556
0	H	0.596223	0.714068	0.543082
0	H	0.965103	0.15401	0.193164
0	H	0.535578	0.845072	0.69108
0	H	0.596302	0.214632	0.441267
0	H	0.904921	0.784203	0.942498
0	H	0.0357207	0.844849	0.791204
0	H	0.465204	0.153921	0.293312
0	H	0.404543	0.784301	0.543185
0	H	0.0957856	0.214689	0.0418057
0	H	0.505531	0.698341	0.603705
0	H	0.995618	0.300352	0.105566
0	H	0.0506527	0.754336	0.85673
0	H	0.449656	0.244594	0.354164
0	H	0.495267	0.300482	0.380163
0	H	0.00519997	0.698665	0.878776
0	H	0.9502	0.244595	0.127509
0	H	0.551018	0.754288	0.629848
0	H	0.00520506	0.199126	0.105327
0	H	0.495257	0.800025	0.603932
0	H	0.551115	0.25485	0.354256
0	H	0.950113	0.744039	0.856632
0	H	0.995624	0.799699	0.878563
0	H	0.505527	0.198974	0.380453
0	H	0.449739	0.744075	0.629986
0	H	0.0505688	0.254848	0.127395
0	H	0.550045	0.714398	0.872195
0	H	0.951091	0.284093	0.374261
0	H	0.0346071	0.798714	0.126402
0	H	0.465661	0.200119	0.622933
0	H	0.450732	0.284482	0.111673
0	H	0.0497739	0.714888	0.610325
0	H	0.966173	0.200171	0.857956
0	H	0.535066	0.798782	0.361122
0	H	0.0497254	0.215351	0.37413
0	H	0.450775	0.784022	0.872772
0	H	0.53509	0.29931	0.623053
0	H	0.966152	0.699645	0.126254
0	H	0.951086	0.783557	0.609672
0	H	0.550049	0.214932	0.111799
0	H	0.465681	0.699573	0.361249
0	H	0.0345856	0.299262	0.857832
0	H	0.55329	0.685059	0.23176
0	H	0.947482	0.313713	0.732455
0	H	0.0643702	0.802	0.484264
0	H	0.436057	0.196848	0.981817
0	H	0.447447	0.313918	0.752455
0	H	0.0533909	0.685263	0.252077
0	H	0.936367	0.196875	0.50024
0	H	0.564751	0.802077	0.00247205
0	H	0.0532755	0.18574	0.732434
0	H	0.447565	0.813435	0.232076
0	H	0.564708	0.30259	0.98192
0	H	0.9364	0.696358	0.48414
0	H	0.94751	0.813285	0.251794
0	H	0.553259	0.185509	0.752467
0	H	0.436009	0.696292	0.00256682
0	H	0.0644084	0.302568	0.500153
0	H	0.512773	0.641163	0.327165
0	H	0.987835	0.357815	0.82773
0	H	0.108479	0.761579	0.577977
0	H	0.392095	0.237295	0.0763749
0	H	0.48796	0.357816	0.657263
0	H	0.0130354	0.641174	0.156719
0	H	0.8923	0.237335	0.40651
0	H	0.608746	0.761661	0.908249
0	H	0.0129043	0.141638	0.82745
0	H	0.488094	0.857344	0.326932
0	H	0.608707	0.262182	0.0763405
0	H	0.892332	0.736813	0.578054
0	H	0.987887	0.857391	0.157167
0	H	0.512727	0.141607	0.657623
0	H	0.392053	0.736745	0.908213
0	H	0.108508	0.262144	0.40656
0	H	0.476452	0.549401	0.383221
0	H	0.0240929	0.44994	0.882945
0	H	0.200256	0.725382	0.632702
0	H	0.300222	0.273414	0.132506
0	H	0.524255	0.449439	0.600799
0	H	0.976714	0.549052	0.101383
0	H	0.800579	0.273545	0.351571
0	H	0.700511	0.725554	0.851853
0	H	0.976662	0.0495131	0.882746
0	H	0.524293	0.948969	0.38338
0	H	0.700565	0.226072	0.13248
0	H	0.800522	0.773032	0.632748
0	H	0.0240779	0.949347	0.10148
0	H	0.476481	0.049989	0.601089
0	H	0.300274	0.77286	0.851847
0	H	0.200209	0.225943	0.351594
0	H	0.521114	0.507011	0.36286
0	H	0.979673	0.492417	0.859835
0	H	0.242741	0.769949	0.611525
0	H	0.25763	0.229018	0.110069
0	H	0.479615	0.491843	0.621019
0	H	0.0210881	0.506535	0.124463
0	H	0.758064	0.229012	0.372809
0	H	0.743071	0.769978	0.873727
0	H	0.0210888	0.00701301	0.859723
0	H	0.479612	0.991364	0.363139
0	H	0.743129	0.270496	0.110324
0	H	0.758005	0.728498	0.611253
0	H	0.97964	0.991832	0.124156
0	H	0.521154	0.00758854	0.621125
0	H	0.257688	0.728463	0.873985
0	H	0.242692	0.270505	0.372531
0	H	0.557924	0.503198	0.0343926
0	H	0.943103	0.496096	0.529483
0	H	0.246433	0.806701	0.282804
0	H	0.25384	0.192452	0.780119
0	H	0.442823	0.49571	0.949593
0	H	0.0576188	0.502775	0.454911
0	H	0.754329	0.192287	0.701632
0	H	0.746942	0.806546	0.203605
0	H	0.0575888	0.00326473	0.529244
0	H	0.442855	0.995219	0.0344984
0	H	0.74694	0.307072	0.780442
0	H	0.754337	0.691754	0.282463
0	H	0.943143	0.995633	0.45466
0	H	0.55789	0.00366411	0.949756
0	H	0.253832	0.691908	0.20394
0	H	0.246445	0.307245	0.701272
0	H	0.547917	0.540936	0.715852
0	H	0.953141	0.457915	0.213437
0	H	0.208459	0.796669	0.965048
0	H	0.29192	0.202368	0.463445
0	H	0.452834	0.458025	0.268326
0	H	0.0476352	0.540968	0.770978
0	H	0.792331	0.202267	0.0192546
0	H	0.708969	0.796604	0.520848
0	H	0.0476471	0.0415366	0.213417
0	H	0.452831	0.957454	0.716021
0	H	0.708922	0.29712	0.463446
0	H	0.792381	0.701745	0.96507
0	H	0.953101	0.95744	0.770813
0	H	0.547956	0.0414237	0.268358
0	H	0.291865	0.701813	0.520866
0	H	0.20851	0.297224	0.0192443
0	H	0.504305	0.58509	0.735669
0	H	0.996519	0.413515	0.236975
0	H	0.164277	0.75315	0.98574
0	H	0.336242	0.245829	0.485201
0	H	0.496469	0.413877	0.248763
0	H	0.00433019	0.585447	0.747357
0	H	0.836542	0.245764	0.998557
0	H	0.66464	0.753129	0.499525
0	H	0.00432358	0.0859727	0.237001
0	H	0.496486	0.913349	0.735586
0	H	0.664605	0.253645	0.485023
0	H	0.836575	0.745248	0.985986
0	H	0.996473	0.913031	0.747667
0	H	0.504349	0.0855832	0.248847
0	H	0.336201	0.745275	0.499373
0	H	0.16431	0.253708	0.998747
0	H	0.369848	0.551331	0.0778044
0	H	0.130314	0.447599	0.578106
0	H	0.198089	0.619012	0.327256
0	H	0.302203	0.379714	0.826164
0	H	0.630852	0.447535	0.907069
0	H	0.870555	0.551426	0.407326
0	H	0.802689	0.379978	0.656789
0	H	0.698574	0.619157	0.158046
0	H	0.870487	0.0514746	0.576788
0	H	0.630917	0.947487	0.0770311
0	H	0.698569	0.119707	0.82627
0	H	0.802693	0.879426	0.327507
0	H	0.130301	0.947475	0.407563
0	H	0.369806	0.0514568	0.907337
0	H	0.302201	0.879242	0.15824
0	H	0.198086	0.119449	0.656677
0	H	0.33919	0.519575	0.794515
0	H	0.161425	0.479323	0.296667
0	H	0.229892	0.588099	0.0454378
0	H	0.270374	0.41047	0.543783
0	H	0.661538	0.479264	0.190251
0	H	0.839415	0.519651	0.688381
0	H	0.770884	0.410886	0.938656
0	H	0.730384	0.588325	0.440153
0	H	0.839475	0.0195797	0.296363
0	H	0.661465	0.979333	0.794424
0	H	0.730396	0.0889159	0.544039
0	H	0.770872	0.910301	0.0455563
0	H	0.161349	0.979326	0.68799
0	H	0.339226	0.0195814	0.189699
0	H	0.270371	0.910034	0.44044
0	H	0.229886	0.0885093	0.938416
0	H	0.365378	0.426341	0.112758
0	H	0.134802	0.572683	0.611571
0	H	0.323422	0.614581	0.361838
0	H	0.176975	0.384387	0.861904
0	H	0.635431	0.572524	0.871933
0	H	0.866024	0.426352	0.372547
0	H	0.677351	0.384316	0.622547
0	H	0.823808	0.614559	0.12285
0	H	0.866162	0.926384	0.613881
0	H	0.635298	0.0724916	0.114514
0	H	0.8238	0.115054	0.861878
0	H	0.677358	0.883818	0.362157
0	H	0.134646	0.0725741	0.371118
0	H	0.365551	0.926449	0.869784
0	H	0.176968	0.883853	0.122639
0	H	0.323429	0.115133	0.62263
0	H	0.395756	0.457971	0.402135
0	H	0.104158	0.541124	0.900479
0	H	0.291688	0.645063	0.650564
0	H	0.208676	0.3542	0.152332
0	H	0.605	0.540905	0.582671
0	H	0.896732	0.45797	0.0842299
0	H	0.709093	0.353847	0.333799
0	H	0.792121	0.644827	0.832685
0	H	0.896757	0.958199	0.901202
0	H	0.604993	0.0406751	0.402822
0	H	0.792105	0.145297	0.152087
0	H	0.709106	0.853373	0.650952
0	H	0.104019	0.0407911	0.083701
0	H	0.395895	0.958296	0.581819
0	H	0.208675	0.853613	0.832464
0	H	0.291695	0.145652	0.334073
0	H	0.350514	0.431437	0.690555
0	H	0.150171	0.567389	0.191633
0	H	0.318117	0.599484	0.939945
0	H	0.182068	0.399403	0.441095
0	H	0.650222	0.567328	0.294661
0	H	0.850543	0.431482	0.791982
0	H	0.682686	0.399421	0.0444708
0	H	0.81869	0.599424	0.543444
0	H	0.850694	0.931285	0.193686
0	H	0.650068	0.0675304	0.691
0	H	0.818711	0.0999941	0.441148
0	H	0.682662	0.898853	0.940121
0	H	0.150078	0.0675204	0.7918
0	H	0.35062	0.931313	0.292687
0	H	0.182081	0.898919	0.543444
0	H	0.318086	0.0999825	0.044498
0	H	0.310373	0.440824	0.802956
0	H	0.190184	0.558099	0.306687
0	H	0.308946	0.559536	0.055076
0	H	0.191441	0.439372	0.554808
0	H	0.690346	0.55816	0.181243
0	H	0.81056	0.440923	0.677039
0	H	0.691761	0.439365	0.929004
0	H	0.809296	0.559469	0.429451
0	H	0.81067	0.940737	0.307878
0	H	0.690232	0.0583447	0.803647
0	H	0.809291	0.0600211	0.554732
0	H	0.691771	0.938817	0.0551704
0	H	0.190088	0.0582947	0.676553
0	H	0.310475	0.940639	0.18027
0	H	0.191396	0.93888	0.429376
0	H	0.308974	0.0600371	0.929076
0	H	0.328905	0.467949	0.606948
0	H	0.171985	0.530859	0.109795
0	H	0.281656	0.577676	0.85809
0	H	0.218614	0.421091	0.357858
0	H	0.672045	0.53088	0.377279
0	H	0.828802	0.46802	0.87458
0	H	0.719117	0.42132	0.125981
0	H	0.782116	0.57774	0.626368
0	H	0.82902	0.967792	0.11013
0	H	0.671818	0.0311077	0.607416
0	H	0.782138	0.0783547	0.357884
0	H	0.719092	0.920702	0.85824
0	H	0.171954	0.0310562	0.8741
0	H	0.328967	0.967769	0.376794
0	H	0.218615	0.920666	0.626331
0	H	0.281633	0.0781247	0.125955
0	H	0.44141	0.553719	0.756181
0	H	0.0592629	0.445376	0.259511
0	H	0.195794	0.690324	0.00699257
0	H	0.304543	0.308637	0.506675
0	H	0.559294	0.445144	0.228788
0	H	0.94163	0.553655	0.725448
0	H	0.804974	0.308637	0.977025
0	H	0.69627	0.690315	0.477862
0	H	0.941611	0.0540817	0.258943
0	H	0.559315	0.944719	0.755637
0	H	0.696256	0.190842	0.506558
0	H	0.804986	0.808117	0.00739544
0	H	0.0591791	0.944871	0.725748
0	H	0.441475	0.0542041	0.228625
0	H	0.304528	0.808112	0.477871
0	H	0.195829	0.190836	0.977127
