#******************************************
#
# CIF file created by Zeo++
# Zeo++ is an open source package to
# analyze microporous materials
#
#*******************************************

_cell_length_a		21.9994(0)
_cell_length_b		22.6311(0)
_cell_length_c		21.7029(0)
_cell_angle_alpha		90(0)
_cell_angle_beta		90(0)
_cell_angle_gamma		90(0)

_symmetry_space_group_name_H-M		'P1'
_symmetry_Int_Tables_number		1
_symmetry_cell_setting		Monoclinic

loop_
_symmetry_equiv_pos_as_xyz
'+x,+y,+z'

loop_
_atom_site_label
_atom_site_type_symbol
_atom_site_fract_x
_atom_site_fract_y
_atom_site_fract_z
0	P	0.106191	0.361604	0.317895
0	P	0.417276	0.634163	0.823191
0	P	0.917303	0.860105	0.213395
0	P	0.603647	0.130573	0.718633
0	P	0.311117	0.0883941	0.380253
0	P	0.812358	0.405314	0.656914
0	P	0.211427	0.905041	0.880176
0	P	0.713557	0.587434	0.155075
0	P	0.37412	0.300165	0.109802
0	P	0.646539	0.798306	0.425453
0	P	0.874484	0.195506	0.927235
0	P	0.146843	0.695011	0.60935
0	P	0.917138	0.631914	0.717242
0	P	0.604261	0.360024	0.213544
0	P	0.104351	0.134048	0.823361
0	P	0.418041	0.861855	0.31775
0	P	0.710397	0.90454	0.65606
0	P	0.210415	0.588068	0.378335
0	P	0.809507	0.0885131	0.156071
0	P	0.308602	0.406277	0.880871
0	P	0.647811	0.693635	0.926105
0	P	0.375174	0.194363	0.610719
0	P	0.146993	0.798083	0.109023
0	P	0.876025	0.298642	0.426005
0	O	0.153544	0.410578	0.317306
0	O	0.369512	0.5856	0.824014
0	O	0.86973	0.908866	0.21341
0	O	0.650776	0.081408	0.719175
0	O	0.311038	0.13453	0.431275
0	O	0.813117	0.358708	0.60637
0	O	0.211348	0.857878	0.930124
0	O	0.713947	0.634234	0.104699
0	O	0.424528	0.299657	0.15787
0	O	0.596115	0.797782	0.377383
0	O	0.924893	0.19661	0.879181
0	O	0.0963923	0.69565	0.657348
0	O	0.869939	0.582783	0.717665
0	O	0.65202	0.408593	0.212867
0	O	0.151842	0.0852206	0.823704
0	O	0.370824	0.910978	0.317422
0	O	0.710399	0.858449	0.60503
0	O	0.209725	0.634716	0.428829
0	O	0.809327	0.135511	0.105875
0	O	0.308281	0.35927	0.931051
0	O	0.597236	0.694394	0.878207
0	O	0.425655	0.194743	0.658693
0	O	0.0966651	0.797211	0.157202
0	O	0.926381	0.297894	0.377885
0	C	0.992891	0.566935	0.408773
0	C	0.529625	0.426721	0.910811
0	C	0.0299188	0.067819	0.126065
0	C	0.491523	0.925308	0.6263
0	C	0.402384	0.978272	0.590469
0	C	0.904296	0.513546	0.445465
0	C	0.118998	0.0148328	0.0900416
0	C	0.619413	0.478827	0.946309
0	C	0.585921	0.390086	0.999147
0	C	0.436139	0.890035	0.536838
0	C	0.0857629	0.103592	0.0370985
0	C	0.93763	0.602319	0.498275
0	C	0.0301861	0.42668	0.626543
0	C	0.492299	0.567235	0.125273
0	C	0.991739	0.926425	0.910382
0	C	0.530105	0.0675007	0.409847
0	C	0.61917	0.0144649	0.445758
0	C	0.119017	0.479841	0.590044
0	C	0.90258	0.979202	0.946519
0	C	0.402514	0.515103	0.0898181
0	C	0.436122	0.603677	0.0367667
0	C	0.585608	0.102879	0.499193
0	C	0.935901	0.89034	0.999216
0	C	0.0855143	0.391173	0.537141
0	H	0.0302274	0.571348	0.37615
0	H	0.491548	0.422932	0.878938
0	H	0.992223	0.0719925	0.158278
0	H	0.529159	0.921075	0.658641
0	H	0.370582	0.0149876	0.594797
0	H	0.872805	0.476565	0.441512
0	H	0.150648	0.977979	0.0941575
0	H	0.651343	0.515451	0.942196
0	H	0.591498	0.357661	0.035772
0	H	0.430802	0.858147	0.499616
0	H	0.0913408	0.135834	0.000310111
0	H	0.932332	0.634471	0.535262
0	H	0.992753	0.422375	0.659076
0	H	0.530343	0.571084	0.15717
0	H	0.0294226	0.922368	0.878143
0	H	0.492454	0.0717299	0.377526
0	H	0.650893	0.977676	0.441505
0	H	0.150605	0.516741	0.594069
0	H	0.870853	0.0160014	0.94247
0	H	0.370562	0.4785	0.093963
0	H	0.43059	0.636019	5.25524e-05
0	H	0.591034	0.134852	0.536329
0	H	0.930339	0.857983	0.0358995
0	H	0.0907707	0.359025	0.500145
0	C	0.952426	0.519249	0.403771
0	C	0.570547	0.473976	0.905381
0	C	0.0704663	0.0202218	0.131301
0	C	0.450747	0.972695	0.631901
0	C	0.395638	0.937398	0.542321
0	C	0.897339	0.55474	0.493284
0	C	0.126051	0.0560173	0.0422323
0	C	0.626566	0.437339	0.993825
0	C	0.53697	0.385247	0.957997
0	C	0.484589	0.884401	0.578485
0	C	0.03715	0.10904	0.078592
0	C	0.985922	0.60801	0.45643
0	C	0.0707768	0.474259	0.631632
0	C	0.45132	0.520036	0.13079
0	C	0.951122	0.973977	0.905262
0	C	0.570802	0.020044	0.404314
0	C	0.626011	0.0554328	0.4938
0	C	0.125913	0.438664	0.542205
0	C	0.895547	0.93786	0.994193
0	C	0.395428	0.556478	0.0421713
0	C	0.48504	0.608585	0.0779371
0	C	0.53712	0.108477	0.45759
0	C	0.98452	0.885043	0.957704
0	C	0.0371317	0.385595	0.578912
0	C	0.961808	0.473538	0.354459
0	C	0.56088	0.520221	0.856667
0	C	0.0606547	0.974055	0.180066
0	C	0.460031	0.0182059	0.681484
0	C	0.346228	0.946117	0.495365
0	C	0.847818	0.546376	0.540231
0	C	0.175515	0.0473356	0.995395
0	C	0.676544	0.445522	0.0402087
0	C	0.491115	0.336697	0.966274
0	C	0.530232	0.835595	0.570187
0	C	0.991644	0.157905	0.0703918
0	C	0.0313008	0.657032	0.464495
0	C	0.061422	0.520008	0.680913
0	C	0.460863	0.473927	0.179671
0	C	0.960894	0.0202438	0.856593
0	C	0.561492	0.974486	0.354796
0	C	0.675417	0.0467274	0.540776
0	C	0.175437	0.447022	0.495259
0	C	0.846	0.94634	0.0409832
0	C	0.345474	0.548245	0.995787
0	C	0.530933	0.65709	0.0695913
0	C	0.491462	0.157273	0.465915
0	C	0.0300024	0.836136	0.965735
0	C	0.991667	0.336658	0.570831
0	H	0.922113	0.443372	0.351257
0	H	0.601213	0.549469	0.852462
0	H	0.100644	0.94433	0.183906
0	H	0.419839	0.0476617	0.685652
0	H	0.343521	0.908042	0.463231
0	H	0.844498	0.58512	0.571453
0	H	0.177769	0.0850625	0.962751
0	H	0.679466	0.407345	0.0722398
0	H	0.462284	0.331736	0.924615
0	H	0.56014	0.831563	0.611187
0	H	0.96282	0.163036	0.112045
0	H	0.0612107	0.6612	0.4235
0	H	0.101144	0.550142	0.684114
0	H	0.420498	0.444725	0.183884
0	H	0.920789	0.0498068	0.852656
0	H	0.601694	0.945039	0.350626
0	H	0.678167	0.0848532	0.572844
0	H	0.178826	0.408252	0.46409
0	H	0.843716	0.908488	0.0734664
0	H	0.342651	0.586317	0.963606
0	H	0.559747	0.662115	0.111263
0	H	0.461618	0.16138	0.424882
0	H	0.0589112	0.831201	0.92412
0	H	0.961697	0.332583	0.611798
0	H	0.965468	0.495291	0.30879
0	H	0.555416	0.498896	0.810984
0	H	0.0557535	0.995311	0.225846
0	H	0.464788	0.99623	0.726931
0	H	0.301332	0.948474	0.518467
0	H	0.80308	0.543066	0.516959
0	H	0.220476	0.0457398	0.018337
0	H	0.721241	0.447746	0.0167895
0	H	0.514464	0.293672	0.972577
0	H	0.506708	0.792462	0.565712
0	H	0.015132	0.200833	0.0641846
0	H	0.00770867	0.700101	0.468958
0	H	0.0577158	0.498287	0.726591
0	H	0.466251	0.495386	0.225299
0	H	0.966038	0.999045	0.810812
0	H	0.556707	0.996409	0.309323
0	H	0.720299	0.0442858	0.51767
0	H	0.22017	0.450428	0.51853
0	H	0.801077	0.947995	0.0179745
0	H	0.300743	0.546179	0.0191611
0	H	0.507603	0.700115	0.0631908
0	H	0.51497	0.200399	0.470526
0	H	0.00647949	0.793189	0.971663
0	H	0.0151685	0.293533	0.566457
0	C	0.0194179	0.437056	0.367459
0	C	0.504519	0.558004	0.871613
0	C	0.00384714	0.936896	0.16546
0	C	0.516842	0.0558276	0.667993
0	C	0.357984	0.00313122	0.458449
0	C	0.859895	0.490353	0.578676
0	C	0.16455	0.989896	0.958945
0	C	0.665508	0.502443	0.0775047
0	C	0.450407	0.349803	0.0223046
0	C	0.569481	0.847227	0.512663
0	C	0.950722	0.145271	0.0143901
0	C	0.0706409	0.645572	0.521989
0	C	0.00386199	0.556525	0.667851
0	C	0.517212	0.436071	0.164937
0	C	0.017501	0.0576177	0.871425
0	C	0.504712	0.936836	0.368339
0	C	0.663577	0.989774	0.577776
0	C	0.163233	0.503	0.456771
0	C	0.856882	0.00366604	0.0776608
0	C	0.356422	0.49119	0.958697
0	C	0.57167	0.643891	0.0136164
0	C	0.452142	0.145499	0.523362
0	C	0.0708028	0.848469	0.021905
0	C	0.952386	0.348103	0.513293
0	H	0.0163944	0.418058	0.414676
0	H	0.509759	0.577163	0.918616
0	H	0.00792521	0.918722	0.11794
0	H	0.512813	0.0751306	0.620992
0	H	0.404596	0.00116628	0.438568
0	H	0.905966	0.493804	0.59965
0	H	0.118243	0.991589	0.938284
0	H	0.619419	0.500165	0.0986275
0	H	0.429115	0.394058	0.016398
0	H	0.589957	0.892049	0.516406
0	H	0.929273	0.10106	0.0201312
0	H	0.0915832	0.600938	0.518131
0	H	0.00687776	0.575394	0.62058
0	H	0.512089	0.416872	0.117941
0	H	0.01298	0.0761209	0.918776
0	H	0.508738	0.917623	0.41538
0	H	0.61693	0.991787	0.597568
0	H	0.117123	0.499486	0.4359
0	H	0.903121	0.00190016	0.0984641
0	H	0.402537	0.493313	0.937613
0	H	0.592903	0.599614	0.0195736
0	H	0.43172	0.100666	0.519498
0	H	0.0924791	0.892598	0.0163358
0	H	0.931439	0.392738	0.517114
0	H	0.0594672	0.467148	0.368121
0	H	0.463909	0.528727	0.873908
0	H	0.96333	0.96637	0.164685
0	H	0.557332	0.0263411	0.666527
0	H	0.357998	0.0413732	0.490731
0	H	0.861589	0.451518	0.547232
0	H	0.164226	0.951893	0.991501
0	H	0.664514	0.540739	0.0453207
0	H	0.479544	0.353378	0.0641585
0	H	0.539323	0.848623	0.471464
0	H	0.979733	0.141844	0.972462
0	H	0.0404943	0.643767	0.563175
0	H	0.963772	0.526478	0.667295
0	H	0.557858	0.465317	0.162736
0	H	0.0580621	0.0282235	0.872755
0	H	0.464179	0.966273	0.36972
0	H	0.663602	0.951485	0.545559
0	H	0.161565	0.541853	0.488201
0	H	0.857326	0.0417485	0.0452001
0	H	0.357285	0.452973	0.990983
0	H	0.542574	0.640299	0.97173
0	H	0.48226	0.144035	0.564588
0	H	0.0416841	0.851897	0.0637376
0	H	0.982547	0.349887	0.472121
0	C	0.0257522	0.388162	0.319712
0	C	0.497481	0.606882	0.823922
0	C	0.997553	0.887111	0.212215
0	C	0.523116	0.104433	0.716105
0	C	0.310798	0.010093	0.407697
0	C	0.811701	0.483324	0.628514
0	C	0.212675	0.982808	0.909105
0	C	0.714077	0.509422	0.126894
0	C	0.401685	0.302381	0.028422
0	C	0.618966	0.800477	0.50688
0	C	0.902184	0.192947	0.00856049
0	C	0.119542	0.692864	0.52787
0	C	0.99761	0.605549	0.71547
0	C	0.524062	0.387245	0.212714
0	C	0.0240699	0.107109	0.824368
0	C	0.498527	0.888131	0.320325
0	C	0.710658	0.982849	0.628642
0	C	0.211306	0.510078	0.406832
0	C	0.808621	0.0106675	0.127376
0	C	0.307877	0.484196	0.909295
0	C	0.620456	0.691263	0.00753906
0	C	0.402588	0.192171	0.529221
0	C	0.119074	0.800548	0.0277744
0	C	0.90349	0.300808	0.507423
0	H	0.0127266	0.403764	0.273198
0	H	0.509551	0.591102	0.777214
0	H	0.0102691	0.902068	0.259074
0	H	0.509774	0.0885359	0.762416
0	H	0.264723	0.998405	0.424182
0	H	0.765868	0.494292	0.610924
0	H	0.258594	0.993321	0.926909
0	H	0.759751	0.498389	0.108867
0	H	0.419246	0.258248	0.0154648
0	H	0.601983	0.756205	0.520043
0	H	0.920118	0.236966	0.0215106
0	H	0.102022	0.736951	0.514752
0	H	0.0107263	0.590084	0.762006
0	H	0.511883	0.403065	0.259378
0	H	0.0115616	0.091895	0.777549
0	H	0.511892	0.903955	0.273992
0	H	0.756752	0.994587	0.612243
0	H	0.257203	0.499246	0.424353
0	H	0.762778	0.999958	0.109504
0	H	0.262174	0.495084	0.927336
0	H	0.602992	0.735381	0.0206628
0	H	0.419471	0.236457	0.515986
0	H	0.100848	0.756588	0.0150356
0	H	0.921045	0.256711	0.520479
0	H	0.993273	0.35143	0.330514
0	H	0.53046	0.643455	0.834013
0	H	0.0302581	0.85067	0.201006
0	H	0.490898	0.141457	0.705434
0	H	0.320769	0.978276	0.36942
0	H	0.82055	0.515623	0.666637
0	H	0.20412	0.0154054	0.871234
0	H	0.705493	0.477208	0.165107
0	H	0.363818	0.311624	0.995282
0	H	0.656724	0.810425	0.539996
0	H	0.864321	0.183893	0.041728
0	H	0.157468	0.683397	0.494841
0	H	0.0300349	0.642283	0.704502
0	H	0.491104	0.350672	0.202565
0	H	0.99133	0.14363	0.835185
0	H	0.530773	0.851152	0.331092
0	H	0.700568	0.01465	0.666909
0	H	0.202498	0.477725	0.368755
0	H	0.817217	0.978189	0.165342
0	H	0.316375	0.516522	0.871161
0	H	0.65838	0.681872	0.0405674
0	H	0.36478	0.182157	0.496192
0	H	0.156884	0.809292	0.994452
0	H	0.865591	0.310229	0.540504
0	C	0.109693	0.313386	0.249134
0	C	0.413153	0.681655	0.753823
0	C	0.913119	0.811648	0.281971
0	C	0.607194	0.178846	0.787419
0	C	0.243841	0.0938329	0.329493
0	C	0.74483	0.399368	0.707368
0	C	0.2784	0.899549	0.829078
0	C	0.780608	0.592363	0.206112
0	C	0.325507	0.233616	0.113669
0	C	0.695604	0.732017	0.421255
0	C	0.825193	0.261568	0.923485
0	C	0.196252	0.761011	0.613477
0	C	0.913191	0.680022	0.786075
0	C	0.608465	0.312226	0.282677
0	C	0.10872	0.182077	0.754469
0	C	0.414551	0.813919	0.248724
0	C	0.777764	0.899036	0.706715
0	C	0.27781	0.593982	0.327728
0	C	0.742495	0.0937993	0.207121
0	C	0.241596	0.401377	0.829789
0	C	0.696626	0.760036	0.922195
0	C	0.326232	0.260743	0.615015
0	C	0.196043	0.731842	0.112603
0	C	0.82649	0.232705	0.42207
0	C	0.0659423	0.269805	0.239403
0	C	0.458258	0.723412	0.741921
0	C	0.958132	0.769703	0.293451
0	C	0.563032	0.221977	0.79751
0	C	0.232162	0.0508392	0.285051
0	C	0.731535	0.44296	0.750673
0	C	0.290528	0.942518	0.784784
0	C	0.791568	0.549774	0.251134
0	C	0.28297	0.221263	0.0678774
0	C	0.738269	0.719701	0.466953
0	C	0.781472	0.272904	0.968406
0	C	0.239564	0.772561	0.568187
0	C	0.95718	0.723233	0.796515
0	C	0.563313	0.270504	0.29449
0	C	0.0640864	0.224374	0.742912
0	C	0.458861	0.77102	0.238291
0	C	0.79016	0.942438	0.750516
0	C	0.29057	0.550655	0.283983
0	C	0.73093	0.051051	0.251831
0	C	0.230838	0.443885	0.784625
0	C	0.739006	0.772509	0.968101
0	C	0.283536	0.273145	0.569372
0	C	0.240026	0.7208	0.067866
0	C	0.783421	0.221008	0.467561
0	H	0.0275443	0.263469	0.270823
0	H	0.497982	0.728736	0.771871
0	H	0.998071	0.764942	0.263712
0	H	0.523973	0.227476	0.766759
0	H	0.261318	0.0119499	0.279164
0	H	0.75947	0.48281	0.755824
0	H	0.261656	0.981591	0.778844
0	H	0.761794	0.5114	0.257489
0	H	0.276968	0.249816	0.0274496
0	H	0.743967	0.74798	0.507604
0	H	0.774934	0.243856	0.00835766
0	H	0.245288	0.74404	0.527742
0	H	0.996068	0.729299	0.765661
0	H	0.523451	0.265501	0.264691
0	H	0.0243657	0.229793	0.772841
0	H	0.497982	0.765452	0.268959
0	H	0.761495	0.981726	0.756006
0	H	0.262288	0.511058	0.278597
0	H	0.760298	0.0123811	0.258118
0	H	0.260739	0.482158	0.778207
0	H	0.744785	0.744122	0.00868493
0	H	0.277749	0.244906	0.528718
0	H	0.246927	0.750195	0.0282546
0	H	0.7779	0.249419	0.508108
0	C	0.0712487	0.232786	0.188073
0	C	0.452685	0.760055	0.690318
0	C	0.952056	0.73216	0.344286
0	C	0.568783	0.259602	0.848314
0	C	0.181684	0.0573107	0.246467
0	C	0.68109	0.435915	0.789212
0	C	0.341076	0.935716	0.746368
0	C	0.842156	0.555968	0.289614
0	C	0.246389	0.170979	0.0734121
0	C	0.775426	0.669838	0.461019
0	C	0.744346	0.322775	0.962531
0	C	0.277221	0.822043	0.574301
0	C	0.951424	0.760261	0.847795
0	C	0.569025	0.233488	0.345781
0	C	0.0702123	0.261416	0.691678
0	C	0.453215	0.733705	0.187231
0	C	0.840695	0.935837	0.788999
0	C	0.340919	0.557624	0.245309
0	C	0.680265	0.0575436	0.290164
0	C	0.18029	0.437738	0.74609
0	C	0.775732	0.822693	0.962459
0	C	0.246486	0.323066	0.575379
0	C	0.276917	0.670722	0.0734489
0	C	0.745765	0.171523	0.46151
0	H	0.0378367	0.198038	0.18018
0	H	0.48725	0.793349	0.680762
0	H	0.986491	0.698684	0.353563
0	H	0.53503	0.293998	0.85645
0	H	0.172261	0.0243796	0.211035
0	H	0.670506	0.469363	0.823788
0	H	0.3507	0.968557	0.7109
0	H	0.850925	0.523395	0.325583
0	H	0.212502	0.160997	0.0382448
0	H	0.809392	0.659865	0.496134
0	H	0.709477	0.331959	0.996961
0	H	0.311754	0.831385	0.539575
0	H	0.985037	0.79471	0.856237
0	H	0.534422	0.20021	0.355268
0	H	0.0360473	0.295133	0.682313
0	H	0.487073	0.699457	0.178862
0	H	0.850666	0.96908	0.823961
0	H	0.351024	0.524409	0.210348
0	H	0.671046	0.0248492	0.325886
0	H	0.171706	0.470224	0.709997
0	H	0.809496	0.832788	0.997719
0	H	0.212481	0.333115	0.540323
0	H	0.311969	0.661765	0.03915
0	H	0.711435	0.162018	0.496389
0	C	0.119853	0.239842	0.147061
0	C	0.402391	0.754553	0.651211
0	C	0.901342	0.736977	0.38295
0	C	0.618242	0.253648	0.888446
0	C	0.143404	0.106358	0.252841
0	C	0.644388	0.385625	0.784003
0	C	0.379067	0.886446	0.752891
0	C	0.881347	0.60424	0.282444
0	C	0.252802	0.133616	0.124402
0	C	0.769508	0.63283	0.409692
0	C	0.751445	0.360756	0.912119
0	C	0.27104	0.85943	0.625301
0	C	0.902121	0.753615	0.888006
0	C	0.619525	0.238596	0.384699
0	C	0.120598	0.255755	0.652701
0	C	0.403695	0.739727	0.147188
0	C	0.878302	0.886228	0.783171
0	C	0.37814	0.607516	0.250911
0	C	0.641633	0.10625	0.283183
0	C	0.140948	0.389603	0.753333
0	C	0.769616	0.859806	0.911238
0	C	0.252571	0.360082	0.62669
0	C	0.26931	0.632251	0.123363
0	C	0.751651	0.134304	0.410331
0	H	0.124266	0.210251	0.107555
0	H	0.39778	0.783898	0.611525
0	H	0.896411	0.707014	0.422087
0	H	0.623023	0.283757	0.927469
0	H	0.10446	0.111464	0.222057
0	H	0.605454	0.380094	0.814743
0	H	0.418258	0.881215	0.722424
0	H	0.920455	0.609111	0.31306
0	H	0.223534	0.0948883	0.128929
0	H	0.799229	0.594439	0.404855
0	H	0.72183	0.399247	0.907378
0	H	0.301156	0.897502	0.630292
0	H	0.897339	0.783236	0.927438
0	H	0.624242	0.208948	0.424125
0	H	0.125578	0.285322	0.61324
0	H	0.399023	0.709863	0.107945
0	H	0.917295	0.881031	0.813881
0	H	0.41702	0.612982	0.220089
0	H	0.602356	0.111266	0.313579
0	H	0.101865	0.384773	0.722684
0	H	0.798995	0.898456	0.906639
0	H	0.222928	0.398529	0.63156
0	H	0.298727	0.593591	0.127888
0	H	0.721544	0.0962241	0.4054
0	C	0.162976	0.284156	0.156948
0	C	0.357868	0.712063	0.663245
0	C	0.856776	0.779492	0.371158
0	C	0.661719	0.20972	0.878274
0	C	0.155259	0.148845	0.297977
0	C	0.657819	0.342469	0.740026
0	C	0.366622	0.843874	0.797757
0	C	0.87024	0.646255	0.236644
0	C	0.296076	0.146124	0.169698
0	C	0.726118	0.645262	0.364498
0	C	0.795788	0.349175	0.867635
0	C	0.226901	0.847801	0.669978
0	C	0.858763	0.709662	0.877425
0	C	0.664096	0.281057	0.37277
0	C	0.164774	0.212875	0.664573
0	C	0.360031	0.783388	0.157733
0	C	0.86573	0.843326	0.738678
0	C	0.365276	0.650373	0.29538
0	C	0.653508	0.148585	0.237879
0	C	0.151877	0.347644	0.799234
0	C	0.726509	0.84718	0.865829
0	C	0.296004	0.347577	0.671816
0	C	0.224675	0.643534	0.167644
0	C	0.795472	0.146134	0.365399
0	H	0.200955	0.289608	0.125147
0	H	0.318595	0.707835	0.632874
0	H	0.81708	0.783031	0.401063
0	H	0.700348	0.205116	0.909402
0	H	0.1256	0.187192	0.302828
0	H	0.629397	0.303134	0.736095
0	H	0.395944	0.80527	0.802631
0	H	0.900595	0.683999	0.23114
0	H	0.30109	0.11703	0.209455
0	H	0.721511	0.616454	0.324453
0	H	0.801199	0.378635	0.828219
0	H	0.222062	0.876909	0.709741
0	H	0.82025	0.704534	0.908628
0	H	0.703534	0.28497	0.402982
0	H	0.20421	0.208657	0.634404
0	H	0.321336	0.788034	0.126703
0	H	0.89487	0.80455	0.734254
0	H	0.394109	0.689393	0.299643
0	H	0.623666	0.186766	0.232649
0	H	0.121418	0.309993	0.804773
0	H	0.721724	0.87609	0.825897
0	H	0.300757	0.376392	0.711837
0	H	0.218842	0.613676	0.206666
0	H	0.80007	0.117191	0.325482
0	C	0.157966	0.321188	0.208448
0	C	0.363236	0.675316	0.71494
0	C	0.862635	0.817137	0.32024
0	C	0.656229	0.172026	0.827349
0	C	0.205911	0.142637	0.336593
0	C	0.708402	0.349336	0.701424
0	C	0.315792	0.850325	0.836071
0	C	0.81942	0.6404	0.198222
0	C	0.332681	0.196523	0.164381
0	C	0.688874	0.69518	0.370266
0	C	0.832912	0.299164	0.873258
0	C	0.189216	0.798217	0.664118
0	C	0.86425	0.672586	0.82601
0	C	0.658591	0.31817	0.321369
0	C	0.158858	0.175725	0.715873
0	C	0.365415	0.820777	0.208917
0	C	0.815031	0.849673	0.70015
0	C	0.314713	0.643643	0.334028
0	C	0.704409	0.142432	0.19962
0	C	0.202661	0.353453	0.837721
0	C	0.689762	0.796888	0.871249
0	C	0.33311	0.297557	0.665999
0	C	0.187807	0.693745	0.162328
0	C	0.833192	0.195701	0.371227
0	H	0.192185	0.35567	0.215792
0	H	0.327975	0.642191	0.723793
0	H	0.827351	0.850259	0.311469
0	H	0.690663	0.137769	0.819876
0	H	0.214707	0.176307	0.371774
0	H	0.718364	0.315128	0.667156
0	H	0.30636	0.816535	0.870949
0	H	0.811121	0.673677	0.162511
0	H	0.36645	0.205839	0.200203
0	H	0.654984	0.704305	0.334513
0	H	0.867479	0.29051	0.838035
0	H	0.154726	0.789625	0.699429
0	H	0.829881	0.638346	0.81816
0	H	0.693909	0.351256	0.312587
0	H	0.193821	0.142294	0.724701
0	H	0.330818	0.854813	0.216691
0	H	0.805704	0.815692	0.665443
0	H	0.305121	0.677659	0.368613
0	H	0.713347	0.176004	0.164369
0	H	0.210835	0.320202	0.873495
0	H	0.656114	0.787491	0.83534
0	H	0.367018	0.288346	0.701714
0	H	0.153024	0.702178	0.197389
0	H	0.867443	0.204442	0.335712
0	C	0.115467	0.308798	0.382284
0	C	0.409346	0.688205	0.886662
0	C	0.908594	0.806474	0.149655
0	C	0.6137	0.183898	0.654823
0	C	0.375873	0.0961431	0.3265
0	C	0.876795	0.398659	0.711262
0	C	0.146333	0.899139	0.826671
0	C	0.648133	0.59433	0.208022
0	C	0.320441	0.362294	0.119639
0	C	0.700117	0.860497	0.415372
0	C	0.82115	0.13318	0.917056
0	C	0.200302	0.632668	0.61908
0	C	0.907623	0.684793	0.652966
0	C	0.612261	0.306106	0.149938
0	C	0.112931	0.187894	0.886916
0	C	0.408096	0.808327	0.381368
0	C	0.645717	0.896625	0.709885
0	C	0.145814	0.594506	0.324174
0	C	0.874684	0.0949748	0.209374
0	C	0.374037	0.399667	0.827909
0	C	0.701293	0.631395	0.91593
0	C	0.321434	0.132295	0.620832
0	C	0.200558	0.860255	0.11896
0	C	0.822585	0.360985	0.41623
0	C	0.0654774	0.280289	0.408115
0	C	0.459946	0.716408	0.911636
0	C	0.958859	0.778099	0.124225
0	C	0.564206	0.213077	0.628863
0	C	0.400797	0.0472024	0.296897
0	C	0.90053	0.447956	0.741248
0	C	0.122038	0.948871	0.797985
0	C	0.622898	0.545175	0.236975
0	C	0.288723	0.38558	0.0697066
0	C	0.731084	0.88478	0.465273
0	C	0.789604	0.109499	0.966898
0	C	0.230991	0.608349	0.569018
0	C	0.957449	0.713437	0.626977
0	C	0.561676	0.277902	0.124967
0	C	0.0626046	0.216256	0.912236
0	C	0.457618	0.779127	0.407242
0	C	0.620683	0.945453	0.739596
0	C	0.122442	0.54516	0.294013
0	C	0.899146	0.0455128	0.238454
0	C	0.399204	0.448936	0.799102
0	C	0.732977	0.607796	0.965733
0	C	0.290417	0.108073	0.570935
0	C	0.231997	0.883774	0.0689678
0	C	0.792011	0.385445	0.466288
0	H	0.0184544	0.288746	0.39239
0	H	0.506703	0.706803	0.895907
0	H	0.00577997	0.787302	0.139796
0	H	0.51697	0.204737	0.643925
0	H	0.383911	0.00181855	0.304794
0	H	0.882983	0.493061	0.733214
0	H	0.139664	0.993886	0.806454
0	H	0.640017	0.499879	0.229188
0	H	0.2946	0.36858	0.0223231
0	H	0.724625	0.868672	0.512896
0	H	0.795321	0.126351	0.0143586
0	H	0.224333	0.624453	0.521407
0	H	0.00453933	0.705088	0.642559
0	H	0.51492	0.287471	0.140715
0	H	0.0157088	0.206979	0.896648
0	H	0.504836	0.787538	0.392169
0	H	0.637495	0.990876	0.731798
0	H	0.140392	0.500165	0.301793
0	H	0.881557	0.000407045	0.230486
0	H	0.382043	0.494187	0.807076
0	H	0.727192	0.624617	0.0132027
0	H	0.296913	0.124161	0.523312
0	H	0.225996	0.866922	0.0215381
0	H	0.798782	0.369444	0.513918
0	C	0.0747565	0.239498	0.45575
0	C	0.4516	0.758498	0.958216
0	C	0.949999	0.736442	0.0773215
0	C	0.574352	0.254535	0.582028
0	C	0.449221	0.0554999	0.255864
0	C	0.948553	0.440392	0.782916
0	C	0.0731371	0.941864	0.757284
0	C	0.573679	0.553221	0.277078
0	C	0.248253	0.43246	0.0794499
0	C	0.771675	0.931491	0.45509
0	C	0.749546	0.0623317	0.956939
0	C	0.271497	0.561543	0.579041
0	C	0.9479	0.754202	0.579369
0	C	0.569989	0.235839	0.0783548
0	C	0.0713823	0.258013	0.959066
0	C	0.447519	0.73754	0.453956
0	C	0.572279	0.93698	0.780604
0	C	0.0742363	0.552489	0.252521
0	C	0.948204	0.0529548	0.278903
0	C	0.448376	0.441042	0.758905
0	C	0.773273	0.56083	0.955732
0	C	0.249724	0.0614513	0.581105
0	C	0.272324	0.930769	0.0787303
0	C	0.751439	0.432184	0.456216
0	H	0.0359496	0.217378	0.476525
0	H	0.4909	0.780461	0.978343
0	H	0.989005	0.714365	0.0568636
0	H	0.535913	0.277195	0.561078
0	H	0.469213	0.0174815	0.232775
0	H	0.96768	0.478674	0.806325
0	H	0.0536313	0.980459	0.734785
0	H	0.553366	0.515101	0.299714
0	H	0.223671	0.451258	0.0406507
0	H	0.795726	0.951107	0.493869
0	H	0.72502	0.0432216	0.99563
0	H	0.295345	0.541901	0.540163
0	H	0.986567	0.776392	0.558419
0	H	0.530674	0.213893	0.058241
0	H	0.0323294	0.280093	0.979428
0	H	0.485974	0.714838	0.47483
0	H	0.552158	0.974906	0.803741
0	H	0.0554012	0.514152	0.228978
0	H	0.967828	0.0145769	0.3017
0	H	0.46862	0.479232	0.736335
0	H	0.797813	0.541764	0.994417
0	H	0.225646	0.0418799	0.542322
0	H	0.296769	0.949742	0.0399151
0	H	0.727653	0.451921	0.495082
0	C	0.133645	0.22706	0.476192
0	C	0.393015	0.77257	0.9784
0	C	0.891221	0.722961	0.0572943
0	C	0.633568	0.266992	0.562626
0	C	0.471571	0.112302	0.244503
0	C	0.971656	0.38393	0.794571
0	C	0.0495885	0.885579	0.745507
0	C	0.550808	0.60991	0.288044
0	C	0.239425	0.454813	0.138821
0	C	0.781345	0.952673	0.395385
0	C	0.741036	0.0400472	0.89749
0	C	0.281323	0.540303	0.638698
0	C	0.888904	0.76654	0.559191
0	C	0.628555	0.221788	0.0581173
0	C	0.130124	0.271578	0.979156
0	C	0.388313	0.725017	0.47335
0	C	0.55012	0.880098	0.791912
0	C	0.0505637	0.6088	0.241239
0	C	0.971744	0.109345	0.290003
0	C	0.471298	0.384404	0.747765
0	C	0.782014	0.538739	0.896239
0	C	0.239986	0.0402866	0.640803
0	C	0.281183	0.953053	0.138131
0	C	0.741451	0.453222	0.396508
0	H	0.14086	0.19501	0.512993
0	H	0.386509	0.805771	0.0142383
0	H	0.884339	0.690399	0.0209059
0	H	0.641452	0.299698	0.526618
0	H	0.509095	0.118686	0.212347
0	H	0.00873707	0.378075	0.827388
0	H	0.0115116	0.880262	0.713807
0	H	0.512638	0.616066	0.319447
0	H	0.207676	0.491067	0.146446
0	H	0.813356	0.988677	0.387441
0	H	0.709748	0.00342633	0.88977
0	H	0.313181	0.504169	0.646486
0	H	0.881471	0.798564	0.522411
0	H	0.635044	0.188603	0.0222572
0	H	0.136935	0.304212	0.0154911
0	H	0.380463	0.692195	0.509243
0	H	0.512631	0.873566	0.824083
0	H	0.0133133	0.614481	0.208591
0	H	0.00993233	0.115003	0.321509
0	H	0.509429	0.378368	0.71629
0	H	0.813625	0.502407	0.888429
0	H	0.207904	0.00433629	0.648742
0	H	0.312701	0.989514	0.145705
0	H	0.70953	0.489296	0.388681
0	C	0.183519	0.255514	0.449316
0	C	0.342542	0.744346	0.952474
0	C	0.841034	0.751007	0.084032
0	C	0.682929	0.237792	0.589592
0	C	0.445792	0.161131	0.274208
0	C	0.947188	0.334742	0.764387
0	C	0.0748002	0.835943	0.774216
0	C	0.576845	0.658906	0.258895
0	C	0.271143	0.430576	0.188678
0	C	0.750224	0.927601	0.345594
0	C	0.772432	0.0647799	0.84768
0	C	0.250515	0.565482	0.688628
0	C	0.839193	0.737998	0.586272
0	C	0.679041	0.250007	0.0840481
0	C	0.180357	0.243505	0.952544
0	C	0.338926	0.754253	0.446497
0	C	0.576029	0.831373	0.762137
0	C	0.0746853	0.658059	0.271589
0	C	0.946379	0.158701	0.260866
0	C	0.445349	0.3353	0.776787
0	C	0.750349	0.563289	0.84652
0	C	0.27115	0.0653115	0.690608
0	C	0.249843	0.928507	0.188072
0	C	0.772124	0.427897	0.346581
0	H	0.22958	0.244677	0.464682
0	H	0.296696	0.756394	0.967683
0	H	0.795028	0.739118	0.0692141
0	H	0.7292	0.248524	0.574947
0	H	0.46266	0.205546	0.264287
0	H	0.96471	0.290589	0.774485
0	H	0.0570268	0.791962	0.763932
0	H	0.559499	0.703186	0.268403
0	H	0.263016	0.447462	0.23524
0	H	0.75876	0.943807	0.298889
0	H	0.764475	0.0479718	0.801105
0	H	0.259137	0.549278	0.735299
0	H	0.79304	0.748758	0.571108
0	H	0.724875	0.237957	0.0688091
0	H	0.226345	0.255427	0.967425
0	H	0.292657	0.743462	0.461135
0	H	0.559318	0.786889	0.772057
0	H	0.0567443	0.702094	0.261766
0	H	0.964154	0.202794	0.270632
0	H	0.462737	0.291066	0.767156
0	H	0.758359	0.546565	0.79989
0	H	0.262575	0.0491138	0.737312
0	H	0.258045	0.945319	0.234603
0	H	0.763346	0.443931	0.299875
0	C	0.174466	0.297056	0.402461
0	C	0.350659	0.701487	0.906715
0	C	0.849679	0.793428	0.13012
0	C	0.673024	0.1956	0.635636
0	C	0.397888	0.153054	0.315801
0	C	0.899716	0.342126	0.722131
0	C	0.123306	0.842721	0.815363
0	C	0.625614	0.651112	0.218295
0	C	0.312285	0.384324	0.179109
0	C	0.709009	0.881479	0.355584
0	C	0.813056	0.11144	0.857466
0	C	0.209404	0.611718	0.67883
0	C	0.84852	0.696411	0.63303
0	C	0.670938	0.292839	0.129832
0	C	0.171812	0.201007	0.906524
0	C	0.34878	0.796548	0.400535
0	C	0.623844	0.839646	0.720483
0	C	0.122369	0.650894	0.313645
0	C	0.897713	0.151501	0.22001
0	C	0.396579	0.342933	0.817431
0	C	0.709342	0.609606	0.85635
0	C	0.312469	0.111341	0.68062
0	C	0.208957	0.882031	0.178499
0	C	0.813288	0.381711	0.356421
0	H	0.213805	0.319482	0.382392
0	H	0.310779	0.679357	0.8874
0	H	0.810041	0.815415	0.15011
0	H	0.71197	0.172689	0.655924
0	H	0.378515	0.191524	0.339167
0	H	0.881379	0.303348	0.698452
0	H	0.142302	0.803621	0.837924
0	H	0.645247	0.689685	0.195295
0	H	0.337282	0.366216	0.218381
0	H	0.684548	0.862659	0.316316
0	H	0.8377	0.130069	0.818224
0	H	0.185159	0.63067	0.718171
0	H	0.809313	0.673858	0.653198
0	H	0.710822	0.314946	0.149147
0	H	0.211493	0.179001	0.886635
0	H	0.309813	0.819458	0.380303
0	H	0.643266	0.801263	0.697017
0	H	0.140473	0.689719	0.337427
0	H	0.878591	0.190363	0.197119
0	H	0.376986	0.304267	0.840303
0	H	0.684352	0.627936	0.817187
0	H	0.336957	0.130123	0.719897
0	H	0.184348	0.863555	0.217842
0	H	0.83741	0.362632	0.317075
