#******************************************
#
# CIF file created by Zeo++
# Zeo++ is an open source package to
# analyze microporous materials
#
#*******************************************

_cell_length_a		16.7631(0)
_cell_length_b		8.91503(0)
_cell_length_c		62.794(0)
_cell_angle_alpha		90(0)
_cell_angle_beta		90(0)
_cell_angle_gamma		90(0)

_symmetry_space_group_name_H-M		'P1'
_symmetry_Int_Tables_number		1
_symmetry_cell_setting		Monoclinic

loop_
_symmetry_equiv_pos_as_xyz
'+x,+y,+z'

loop_
_atom_site_label
_atom_site_type_symbol
_atom_site_fract_x
_atom_site_fract_y
_atom_site_fract_z
0	Br	0.33471	0.780703	0.0526893
0	Br	0.059523	0.217285	0.939901
0	Br	0.665602	0.68467	0.189793
0	Br	0.971473	0.771581	0.357244
0	Br	0.180941	0.32275	0.619291
0	Br	0.112203	0.879554	0.440777
0	Br	0.867786	0.995278	0.695376
0	Br	0.0385336	0.205637	0.893475
0	Br	0.672606	0.813692	0.599668
0	Br	0.603527	0.350168	0.449651
0	Br	0.374695	0.482509	0.6955
0	Br	0.386662	0.767657	0.858569
0	Br	0.687961	0.462812	0.109722
0	Br	0.668001	0.80825	0.955766
0	Br	0.298371	0.0647453	0.204954
0	Br	0.430332	0.466817	0.374366
0	Cl	0.0404281	0.912123	0.116123
0	Cl	0.976638	0.483127	0.92303
0	Cl	0.804748	0.270754	0.126704
0	Cl	0.795709	0.112755	0.340626
0	Cl	0.0373779	0.956534	0.647063
0	Cl	0.0252535	0.167963	0.40829
0	Cl	0.791029	0.689462	0.652939
0	Cl	0.868211	0.583542	0.870513
0	Cl	0.539397	0.406992	0.650359
0	Cl	0.542487	0.658533	0.404068
0	Cl	0.280221	0.180748	0.656493
0	Cl	0.550423	0.0839393	0.871635
0	Cl	0.498984	0.0750493	0.134582
0	Cl	0.444312	0.20748	0.921487
0	Cl	0.301189	0.538937	0.117739
0	Cl	0.237977	0.823582	0.374306
0	Cl	0.993159	0.824831	0.0744998
0	Cl	0.933884	0.665837	0.958383
0	Cl	0.691612	0.266564	0.160085
0	Cl	0.715649	0.375509	0.325509
0	Cl	0.922788	0.794455	0.62266
0	Cl	0.953296	0.36781	0.437985
0	Cl	0.719573	0.504185	0.684631
0	Cl	0.783067	0.835706	0.854117
0	Cl	0.435968	0.288485	0.618342
0	Cl	0.459907	0.829114	0.435781
0	Cl	0.216741	0.985989	0.688247
0	Cl	0.403306	0.123335	0.848934
0	Cl	0.411247	0.877887	0.108467
0	Cl	0.40758	0.428	0.952558
0	Cl	0.182006	0.428086	0.145494
0	Cl	0.157448	0.064265	0.35358
0	C	0.111326	0.0478332	0.0811782
0	C	0.0951586	0.655241	0.945695
0	C	0.840219	0.097482	0.163439
0	C	0.878057	0.338158	0.31773
0	C	0.0832714	0.813244	0.609263
0	C	0.120214	0.319781	0.439968
0	C	0.887257	0.550067	0.685211
0	C	0.948472	0.815273	0.848876
0	C	0.601049	0.327117	0.61076
0	C	0.628842	0.7987	0.438188
0	C	0.384446	0.0354267	0.685719
0	C	0.536243	0.303221	0.839901
0	C	0.576744	0.933777	0.100956
0	C	0.557813	0.285482	0.954096
0	C	0.329962	0.536794	0.162452
0	C	0.319338	0.00719381	0.344996
0	C	0.129028	0.175885	0.096451
0	C	0.160732	0.554274	0.93699
0	C	0.925003	0.0981796	0.154455
0	C	0.944806	0.228618	0.31291
0	C	0.152064	0.923238	0.608613
0	C	0.188353	0.209429	0.436565
0	C	0.957654	0.648627	0.678807
0	C	0.0150714	0.704684	0.84436
0	C	0.672366	0.422811	0.616929
0	C	0.69839	0.696563	0.43227
0	C	0.450986	0.139824	0.678375
0	C	0.626786	0.306428	0.838389
0	C	0.642049	0.0503504	0.103518
0	C	0.601555	0.137499	0.951041
0	C	0.397482	0.647639	0.158167
0	C	0.378165	0.879282	0.342248
0	C	0.188153	0.291052	0.087638
0	C	0.241112	0.635552	0.934279
0	C	0.975435	0.958198	0.159516
0	C	0.0197593	0.305406	0.304119
0	C	0.214634	0.889511	0.591466
0	C	0.271098	0.278538	0.440713
0	C	0.0394245	0.576021	0.683281
0	C	0.09108	0.778552	0.835727
0	C	0.740062	0.418453	0.60053
0	C	0.781249	0.768252	0.43523
0	C	0.534571	0.0707	0.681005
0	C	0.657579	0.444237	0.826236
0	C	0.709927	0.0355728	0.0872258
0	C	0.691371	0.15303	0.955732
0	C	0.468091	0.626175	0.173608
0	C	0.454533	0.923947	0.330352
0	C	0.27343	0.229783	0.0867007
0	C	0.240591	0.762192	0.917749
0	C	0.941371	0.808731	0.151521
0	C	0.0599691	0.413464	0.319834
0	C	0.267218	0.753754	0.596651
0	C	0.293182	0.409871	0.426126
0	C	0.0565488	0.428559	0.671563
0	C	0.133206	0.880784	0.851866
0	C	0.781565	0.265026	0.600068
0	C	0.797231	0.910083	0.422063
0	C	0.55025	0.928453	0.667894
0	C	0.635936	0.591459	0.837409
0	C	0.762532	0.897486	0.0911014
0	C	0.736609	0.262319	0.941218
0	C	0.514675	0.478812	0.170623
0	C	0.507063	0.032913	0.342997
0	C	0.326229	0.312642	0.0706414
0	C	0.301461	0.888342	0.92171
0	C	0.980006	0.672738	0.162369
0	C	0.102861	0.544973	0.308917
0	C	0.301043	0.677693	0.576659
0	C	0.35448	0.521122	0.43519
0	C	0.117326	0.322115	0.681951
0	C	0.182587	0.00459993	0.841116
0	C	0.819554	0.225984	0.578587
0	C	0.858298	0.0190316	0.431821
0	C	0.615798	0.825216	0.676766
0	C	0.632779	0.726572	0.822343
0	C	0.801473	0.833906	0.070921
0	C	0.8145	0.321192	0.951036
0	C	0.54127	0.389454	0.190552
0	C	0.559528	0.132316	0.32883
0	C	0.30184	0.292759	0.0472784
0	C	0.302878	0.95389	0.944341
0	C	0.952899	0.648538	0.185449
0	C	0.0510616	0.641506	0.294222
0	C	0.238183	0.612795	0.56152
0	C	0.335105	0.585236	0.457277
0	C	0.0996937	0.274459	0.704908
0	C	0.133856	0.114871	0.827609
0	C	0.760441	0.20248	0.560265
0	C	0.841818	0.0683083	0.454842
0	C	0.604883	0.779061	0.70009
0	C	0.568283	0.717707	0.80515
0	C	0.744148	0.766541	0.0544895
0	C	0.806785	0.383112	0.973763
0	C	0.500175	0.424359	0.211797
0	C	0.514313	0.237069	0.313684
0	C	0.302617	0.128936	0.0396152
0	C	0.231682	0.0547237	0.950173
0	C	0.862259	0.653634	0.18908
0	C	0.994736	0.75068	0.305952
0	C	0.191951	0.478588	0.570758
0	C	0.263192	0.692254	0.4587
0	C	0.0245762	0.177678	0.707941
0	C	0.078919	0.219476	0.840498
0	C	0.707437	0.062385	0.562828
0	C	0.768312	0.168891	0.458312
0	C	0.534061	0.674236	0.704729
0	C	0.482173	0.73325	0.813754
0	C	0.701503	0.624154	0.062453
0	C	0.759968	0.530766	0.976179
0	C	0.426875	0.325609	0.216621
0	C	0.469548	0.365335	0.324998
0	C	0.233423	0.0350371	0.0459487
0	C	0.156546	0.96666	0.954355
0	C	0.823402	0.804694	0.187254
0	C	0.926907	0.667143	0.315704
0	C	0.128872	0.525875	0.586025
0	C	0.184592	0.613076	0.455706
0	C	0.948517	0.264586	0.704617
0	C	0.00619886	0.139915	0.848418
0	C	0.639378	0.0887662	0.577519
0	C	0.690834	0.0845012	0.456596
0	C	0.454844	0.753407	0.703373
0	C	0.455017	0.595123	0.824809
0	C	0.632085	0.658709	0.0763891
0	C	0.672094	0.512416	0.971974
0	C	0.357445	0.361176	0.202261
0	C	0.394589	0.311648	0.335245
0	C	0.239124	0.890603	0.0529463
0	C	0.0859403	0.00478342	0.942184
0	C	0.744212	0.815664	0.177196
0	C	0.91173	0.660991	0.337108
0	C	0.118464	0.469669	0.605891
0	C	0.132622	0.66761	0.4389
0	C	0.890796	0.201859	0.689627
0	C	0.984213	0.130549	0.869086
0	C	0.61971	0.996178	0.594031
0	C	0.630002	0.147421	0.442456
0	C	0.394935	0.689534	0.689224
0	C	0.422064	0.590723	0.844958
0	C	0.618653	0.599072	0.0958977
0	C	0.63783	0.599572	0.954643
0	C	0.328605	0.239956	0.188699
0	C	0.373189	0.339816	0.355771
0	C	0.176829	0.813177	0.0645067
0	C	0.0354787	0.911453	0.93208
0	C	0.721139	0.916006	0.162317
0	C	0.859213	0.552512	0.346723
0	C	0.0596749	0.538177	0.620081
0	C	0.0955442	0.588596	0.423578
0	C	0.851786	0.273647	0.673927
0	C	0.921078	0.0307405	0.876146
0	C	0.566613	0.0409292	0.611101
0	C	0.59036	0.0750123	0.42695
0	C	0.351379	0.759367	0.67423
0	C	0.421445	0.460268	0.858269
0	C	0.556629	0.655629	0.109983
0	C	0.588058	0.555396	0.939035
0	C	0.318004	0.244301	0.167463
0	C	0.309373	0.25863	0.366279
0	C	0.151371	0.892075	0.0840347
0	C	0.0513252	0.751555	0.928713
0	C	0.777469	0.00790744	0.14962
0	C	0.869799	0.392825	0.341113
0	C	0.0790638	0.691756	0.626945
0	C	0.104029	0.42565	0.420583
0	C	0.86655	0.430906	0.667753
0	C	0.933836	0.869314	0.872075
0	C	0.588517	0.177994	0.622919
0	C	0.608334	0.918842	0.42062
0	C	0.360576	0.918547	0.668311
0	C	0.494906	0.367823	0.859923
0	C	0.567714	0.809886	0.118015
0	C	0.563297	0.398752	0.935309
0	C	0.34269	0.3743	0.154112
0	C	0.315581	0.0930113	0.366471
0	C	0.0643901	0.913437	0.0897624
0	C	0.00692281	0.628339	0.940037
0	C	0.77465	0.176876	0.150448
0	C	0.806299	0.292563	0.331436
0	C	0.0223944	0.824185	0.627556
0	C	0.0423521	0.310999	0.427013
0	C	0.808331	0.554696	0.672817
0	C	0.874686	0.765017	0.86148
0	C	0.532896	0.309425	0.626982
0	C	0.551642	0.791921	0.424972
0	C	0.302123	0.0380896	0.674986
0	C	0.494579	0.199793	0.855812
0	C	0.505245	0.932264	0.116392
0	C	0.484088	0.328368	0.940858
0	C	0.281186	0.474227	0.143736
0	C	0.248396	0.987783	0.360253
0	C	0.0972526	0.101732	0.0589363
0	C	0.109465	0.717583	0.967178
0	C	0.830842	0.0805168	0.186527
0	C	0.856359	0.443643	0.30007
0	C	0.0510645	0.767541	0.587915
0	C	0.112741	0.37337	0.46215
0	C	0.883041	0.513712	0.708041
0	C	0.932122	0.925177	0.831333
0	C	0.577467	0.334533	0.587774
0	C	0.622102	0.839836	0.460884
0	C	0.386418	0.997221	0.708573
0	C	0.498261	0.327609	0.818821
0	C	0.55615	0.897552	0.0783399
0	C	0.557178	0.341362	0.976231
0	C	0.288035	0.563253	0.182856
0	C	0.30465	0.0961293	0.325109
0	C	0.152061	0.100079	0.0433551
0	C	0.157116	0.848785	0.968467
0	C	0.856054	0.934561	0.194512
0	C	0.873834	0.590445	0.300181
0	C	0.06875	0.637519	0.578239
0	C	0.162657	0.494788	0.468285
0	C	0.934215	0.395417	0.715172
0	C	0.955124	0.0696748	0.831691
0	C	0.589204	0.224563	0.573431
0	C	0.675864	0.956196	0.467657
0	C	0.439187	0.879949	0.714849
0	C	0.463408	0.455087	0.812363
0	C	0.57441	0.771275	0.0678535
0	C	0.626429	0.416056	0.983694
0	C	0.323309	0.500637	0.201395
0	C	0.33773	0.230005	0.321079
0	O	0.143271	0.685027	0.0608886
0	O	0.970067	0.962635	0.920201
0	O	0.642284	0.942397	0.15617
0	O	0.806295	0.57123	0.36154
0	O	0.993756	0.477055	0.626243
0	O	0.0520871	0.65665	0.407119
0	O	0.800078	0.207533	0.659229
0	O	0.855172	0.0632319	0.885836
0	O	0.503874	0.971895	0.61794
0	O	0.534393	0.141261	0.413415
0	O	0.299438	0.68715	0.660238
0	O	0.36697	0.41118	0.871276
0	O	0.492565	0.58691	0.11596
0	O	0.567348	0.649182	0.921978
0	O	0.294372	0.132489	0.15373
0	O	0.247927	0.312681	0.376004
0	C	0.158625	0.605029	0.0405603
0	C	0.892969	0.943955	0.930615
0	C	0.588232	0.980654	0.173617
0	C	0.786231	0.71986	0.370454
0	C	0.975913	0.320344	0.619784
0	C	0.973616	0.708007	0.413731
0	C	0.728932	0.137668	0.667741
0	C	0.835471	0.220843	0.891248
0	C	0.476217	0.828685	0.60851
0	C	0.461545	0.190558	0.423819
0	C	0.227223	0.628147	0.669599
0	C	0.288035	0.482341	0.873762
0	C	0.474481	0.433042	0.108536
0	C	0.496936	0.740325	0.925512
0	C	0.225101	0.0408978	0.158599
0	C	0.23224	0.476509	0.376457
0	C	0.0169796	0.173689	0.0561398
0	C	0.0858945	0.63452	0.985365
0	C	0.804396	0.176866	0.202639
0	C	0.810007	0.371632	0.281771
0	C	0.994303	0.879208	0.578064
0	C	0.0719366	0.287582	0.477809
0	C	0.845365	0.605449	0.723332
0	C	0.883511	0.863125	0.812804
0	C	0.538071	0.482008	0.582078
0	C	0.577655	0.762643	0.47647
0	C	0.350708	0.0901271	0.724061
0	C	0.508721	0.204345	0.802366
0	C	0.509695	0.0232882	0.0682628
0	C	0.496439	0.29455	0.990427
0	C	0.2241	0.666694	0.182066
0	C	0.247354	0.0220219	0.309654
0	O	0.951731	0.117635	0.0564348
0	O	0.0873006	0.663809	0.00449221
0	O	0.797785	0.141718	0.221808
0	O	0.760135	0.43128	0.270867
0	O	0.922836	0.865591	0.576207
0	O	0.0530976	0.322545	0.496144
0	O	0.848696	0.597875	0.742974
0	O	0.819793	0.912259	0.807179
0	O	0.481782	0.541071	0.590709
0	O	0.566352	0.7961	0.495353
0	O	0.354196	0.0828383	0.743691
0	O	0.565833	0.195793	0.790764
0	O	0.438649	0.0432202	0.0693523
0	O	0.473764	0.351903	0.00716321
0	O	0.191715	0.726036	0.166648
0	O	0.179132	0.0582031	0.306389
0	O	0.0309997	0.324912	0.0539229
0	O	0.060458	0.49008	0.979589
0	O	0.782715	0.323829	0.197487
0	O	0.83409	0.227347	0.280285
0	O	0.0365854	0.00261565	0.57192
0	O	0.0538401	0.141148	0.471202
0	O	0.798374	0.722361	0.714917
0	O	0.922021	0.744133	0.804294
0	O	0.580303	0.545254	0.565911
0	O	0.542153	0.627742	0.469459
0	O	0.306636	0.20994	0.715405
0	O	0.442424	0.11756	0.802433
0	O	0.561992	0.117331	0.0584276
0	O	0.46221	0.157566	0.983957
0	O	0.197645	0.704329	0.202633
0	O	0.285423	0.901477	0.301298
0	C	0.962607	0.419805	0.0489574
0	C	0.00933594	0.407852	0.993855
0	C	0.752273	0.408639	0.215504
0	C	0.802611	0.134193	0.2629
0	C	0.998264	0.10719	0.557108
0	C	0.0134625	0.0470205	0.486581
0	C	0.76687	0.82397	0.730916
0	C	0.887703	0.671823	0.785266
0	C	0.546636	0.674181	0.554702
0	C	0.505506	0.537127	0.485856
0	C	0.273839	0.311473	0.731213
0	C	0.422219	0.0375816	0.78265
0	C	0.528158	0.245739	0.0470954
0	C	0.419945	0.074702	9.09235e-05
0	C	0.13609	0.816188	0.204515
0	C	0.243752	0.804608	0.286112
0	C	0.134022	0.157663	0.0211591
0	C	0.22004	0.845531	0.985858
0	C	0.919665	0.942899	0.211194
0	C	0.837678	0.697417	0.283953
0	C	0.0266146	0.575664	0.558766
0	C	0.200894	0.483617	0.490051
0	C	0.97995	0.427097	0.735371
0	C	0.927691	0.178599	0.814703
0	C	0.549144	0.229283	0.551697
0	C	0.722622	0.926672	0.487738
0	C	0.487136	0.90479	0.73491
0	C	0.428815	0.457067	0.789966
0	C	0.535947	0.730602	0.0469403
0	C	0.655642	0.373182	0.00566969
0	C	0.331548	0.597861	0.22102
0	C	0.313576	0.324915	0.302133
0	O	0.0772056	0.12477	0.0104711
0	O	0.233909	0.93411	5.22504e-05
0	O	0.928148	0.870559	0.227514
0	O	0.80199	0.809967	0.289109
0	O	0.98551	0.463757	0.55974
0	O	0.1921	0.561281	0.505753
0	O	0.981692	0.358025	0.752042
0	O	0.903239	0.303573	0.818427
0	O	0.480521	0.266667	0.548988
0	O	0.724344	0.997173	0.504299
0	O	0.485906	0.836382	0.751685
0	O	0.360535	0.429708	0.785746
0	O	0.473384	0.662169	0.0458748
0	O	0.654624	0.44784	0.0218663
0	O	0.302971	0.582572	0.238716
0	O	0.282685	0.447216	0.304027
0	O	0.192458	0.25693	0.0156795
0	O	0.266604	0.719123	0.983387
0	O	0.973693	0.054326	0.206221
0	O	0.852074	0.64719	0.264297
0	O	0.0450476	0.655391	0.541431
0	O	0.254542	0.365955	0.490328
0	O	0.0276095	0.552325	0.732748
0	O	0.934642	0.113156	0.795501
0	O	0.599611	0.180399	0.536588
0	O	0.770482	0.802007	0.485093
0	O	0.541018	0.0192161	0.731647
0	O	0.487353	0.481543	0.775625
0	O	0.578975	0.778925	0.0302248
0	O	0.6878	0.231174	0.00591445
0	O	0.385326	0.711935	0.217196
0	O	0.332014	0.256018	0.28379
0	C	0.201896	0.302123	0.99355
0	C	0.325152	0.684272	0.999694
0	C	0.0299173	0.0996862	0.22248
0	C	0.811265	0.721967	0.246448
0	C	0.0215048	0.595559	0.520464
0	C	0.296681	0.33727	0.51006
0	C	0.0702512	0.607237	0.751215
0	C	0.897064	0.18562	0.777019
0	C	0.570979	0.157918	0.514665
0	C	0.819873	0.755392	0.502812
0	C	0.597514	0.0538909	0.748396
0	C	0.462166	0.483803	0.753155
0	C	0.554621	0.728628	0.00888252
0	C	0.721057	0.176655	0.0258613
0	C	0.406242	0.808649	0.234836
0	C	0.308391	0.33	0.263766
0	H	0.0716239	0.233264	0.100216
0	H	0.16919	0.462031	0.948764
0	H	0.955957	0.197518	0.161315
0	H	0.922471	0.146326	0.300763
0	H	0.126125	0.0363506	0.605446
0	H	0.180766	0.118189	0.448612
0	H	0.95476	0.75397	0.688256
0	H	0.992496	0.622284	0.832267
0	H	0.651756	0.539427	0.619762
0	H	0.695479	0.596689	0.442923
0	H	0.449071	0.242378	0.688424
0	H	0.646859	0.20328	0.829918
0	H	0.614916	0.163818	0.102163
0	H	0.574214	0.0580946	0.96275
0	H	0.372333	0.762755	0.160345
0	H	0.34755	0.788792	0.333035
0	H	0.15158	0.133851	0.112043
0	H	0.142987	0.500823	0.921856
0	H	0.925455	0.11332	0.136994
0	H	0.959278	0.159777	0.327085
0	H	0.181601	0.931072	0.624467
0	H	0.185948	0.157714	0.420631
0	H	0.953469	0.682709	0.661981
0	H	0.0289008	0.637597	0.858747
0	H	0.696493	0.388183	0.632814
0	H	0.692836	0.652763	0.415929
0	H	0.441468	0.176947	0.661807
0	H	0.654559	0.301274	0.854381
0	H	0.667041	0.0454865	0.12005
0	H	0.591556	0.0903255	0.935026
0	H	0.419061	0.645156	0.141473
0	H	0.393988	0.829318	0.357899
0	H	0.168424	0.33165	0.0718313
0	H	0.259753	0.681043	0.950093
0	H	0.984009	0.950458	0.177004
0	H	0.00456827	0.364535	0.289035
0	H	0.185014	0.874389	0.575757
0	H	0.273608	0.316478	0.457655
0	H	0.0446991	0.557032	0.700786
0	H	0.0764941	0.842546	0.821005
0	H	0.71771	0.44887	0.584466
0	H	0.789093	0.794172	0.452505
0	H	0.543719	0.0448381	0.698264
0	H	0.635496	0.443583	0.809518
0	H	0.685634	0.0350942	0.0707502
0	H	0.698717	0.188366	0.972731
0	H	0.4451	0.634489	0.19034
0	H	0.439246	0.971557	0.314492
0	H	0.186396	0.391847	0.0980515
0	H	0.287464	0.552001	0.930281
0	H	0.037517	0.976057	0.154101
0	H	0.0633903	0.217344	0.299338
0	H	0.252604	0.990145	0.589286
0	H	0.316248	0.188593	0.439615
0	H	0.0857247	0.660398	0.679682
0	H	0.132826	0.689925	0.830275
0	H	0.784189	0.506845	0.604511
0	H	0.826931	0.6821	0.43173
0	H	0.579254	0.15806	0.677343
0	H	0.723334	0.435576	0.824309
0	H	0.747303	0.138557	0.0880071
0	H	0.722722	0.0441524	0.954835
0	H	0.508754	0.724362	0.171808
0	H	0.488987	0.820924	0.326647
0	H	0.273982	0.108625	0.0828766
0	H	0.180805	0.814514	0.917277
0	H	0.876134	0.804581	0.154223
0	H	0.0166044	0.457797	0.331453
0	H	0.234415	0.670869	0.606408
0	H	0.238987	0.475857	0.42256
0	H	0.000437921	0.364505	0.669765
0	H	0.0897218	0.932177	0.862931
0	H	0.739731	0.17498	0.604731
0	H	0.741197	0.974169	0.41997
0	H	0.495116	0.860217	0.66704
0	H	0.578364	0.582296	0.845844
0	H	0.728596	0.807914	0.0992626
0	H	0.699106	0.360559	0.937445
0	H	0.478447	0.400324	0.160916
0	H	0.470772	0.10408	0.353675
0	H	0.30047	0.236675	0.102827
0	H	0.251276	0.712644	0.901778
0	H	0.944631	0.794328	0.13417
0	H	0.103969	0.350124	0.329505
0	H	0.317584	0.789203	0.607107
0	H	0.315557	0.36544	0.410837
0	H	0.0779865	0.453398	0.655367
0	H	0.172748	0.81325	0.862263
0	H	0.828072	0.262009	0.612807
0	H	0.81714	0.878285	0.405849
0	H	0.564848	0.958886	0.651328
0	H	0.680126	0.612304	0.850179
0	H	0.810736	0.92769	0.102527
0	H	0.748971	0.208287	0.925672
0	H	0.56906	0.50111	0.161144
0	H	0.546001	0.968582	0.35402
0	H	0.327488	0.433883	0.0744823
0	H	0.361619	0.844379	0.918081
0	H	0.0464457	0.683693	0.162119
0	H	0.153818	0.499938	0.299407
0	H	0.337652	0.75951	0.567608
0	H	0.414212	0.466783	0.436003
0	H	0.177987	0.373636	0.681552
0	H	0.228441	0.952359	0.830676
0	H	0.862121	0.31556	0.573833
0	H	0.918701	0.968201	0.431421
0	H	0.675257	0.880023	0.675262
0	H	0.691788	0.740782	0.814454
0	H	0.837558	0.92337	0.0631388
0	H	0.86028	0.231362	0.951168
0	H	0.606899	0.398919	0.192961
0	H	0.599869	0.0606868	0.319138
0	H	0.388493	0.271364	0.0724641
0	H	0.28971	0.979726	0.910182
0	H	0.967268	0.570715	0.152898
0	H	0.130585	0.616097	0.321337
0	H	0.343162	0.587889	0.581647
0	H	0.361042	0.614162	0.423647
0	H	0.121983	0.220156	0.671866
0	H	0.216554	0.066268	0.853457
0	H	0.855542	0.12208	0.580607
0	H	0.861874	0.120037	0.421567
0	H	0.619251	0.723106	0.66674
0	H	0.624688	0.829826	0.831866
0	H	0.844129	0.745323	0.0758623
0	H	0.83822	0.411457	0.940676
0	H	0.533203	0.268332	0.186851
0	H	0.599189	0.198712	0.339368
0	H	0.344234	0.356411	0.036958
0	H	0.358544	0.020507	0.946448
0	H	0.974628	0.536708	0.190721
0	H	0.090636	0.709823	0.283675
0	H	0.267692	0.575432	0.546531
0	H	0.388564	0.646428	0.463121
0	H	0.151759	0.209147	0.710875
0	H	0.175467	0.185578	0.818124
0	H	0.794277	0.189636	0.54508
0	H	0.895285	0.130292	0.46066
0	H	0.660447	0.723231	0.705659
0	H	0.57824	0.809218	0.793339
0	H	0.778387	0.736513	0.0399554
0	H	0.868364	0.403049	0.979969
0	H	0.543475	0.409653	0.224948
0	H	0.557752	0.287933	0.30239
0	H	0.24278	0.345786	0.0444139
0	H	0.308151	0.860138	0.955888
0	H	0.984644	0.729107	0.195997
0	H	0.0168934	0.56849	0.283083
0	H	0.196265	0.701739	0.55615
0	H	0.327076	0.48981	0.468454
0	H	0.0972251	0.376093	0.71505
0	H	0.0985921	0.0518254	0.815544
0	H	0.723467	0.304175	0.557794
0	H	0.838095	0.966321	0.464912
0	H	0.600508	0.882774	0.709823
0	H	0.575227	0.613487	0.795515
0	H	0.700341	0.851119	0.0489399
0	H	0.780398	0.294624	0.984103
0	H	0.481954	0.544709	0.211995
0	H	0.472871	0.171328	0.303489
0	H	0.360312	0.0783159	0.0448538
0	H	0.222935	0.136524	0.93716
0	H	0.833595	0.573038	0.177837
0	H	0.0297415	0.817961	0.317598
0	H	0.234969	0.39859	0.578063
0	H	0.271001	0.783402	0.446893
0	H	0.028283	0.0804346	0.696979
0	H	0.113043	0.271244	0.853753
0	H	0.745383	0.965358	0.567553
0	H	0.770128	0.262661	0.446702
0	H	0.536656	0.578216	0.693538
0	H	0.478592	0.835814	0.823841
0	H	0.745774	0.550317	0.0704348
0	H	0.785599	0.615266	0.965195
0	H	0.444078	0.205842	0.215045
0	H	0.510543	0.419519	0.336647
0	H	0.304793	0.12842	0.0216211
0	H	0.247053	0.123382	0.964504
0	H	0.849766	0.608158	0.205362
0	H	0.972219	0.835512	0.294258
0	H	0.16444	0.414592	0.557282
0	H	0.263869	0.749135	0.474453
0	H	0.0249853	0.128309	0.724192
0	H	0.0604681	0.314887	0.830064
0	H	0.685121	0.0297612	0.546438
0	H	0.772298	0.222965	0.474224
0	H	0.541738	0.624851	0.720845
0	H	0.442562	0.760057	0.799744
0	H	0.680941	0.557245	0.0482953
0	H	0.769444	0.576745	0.99246
0	H	0.409187	0.339886	0.233669
0	H	0.455611	0.455548	0.313221
0	H	0.195529	0.877867	0.0972004
0	H	0.066603	0.731661	0.911878
0	H	0.796263	0.954457	0.134642
0	H	0.910986	0.33933	0.352948
0	H	0.128225	0.689274	0.639562
0	H	0.135762	0.40047	0.405567
0	H	0.898036	0.439276	0.652445
0	H	0.971828	0.8227	0.885318
0	H	0.633072	0.150777	0.636073
0	H	0.64258	0.915696	0.405677
0	H	0.387428	0.930444	0.652382
0	H	0.53389	0.412412	0.872924
0	H	0.608145	0.813889	0.132579
0	H	0.590654	0.357511	0.920376
0	H	0.398426	0.350005	0.145304
0	H	0.356843	0.0557709	0.379544
0	H	0.0982393	0.563291	0.0365536
0	H	0.870821	0.83082	0.927253
0	H	0.566756	0.0943211	0.170353
0	H	0.723646	0.700958	0.375303
0	H	0.909559	0.317904	0.621013
0	H	0.931097	0.637698	0.40516
0	H	0.681733	0.172588	0.656561
0	H	0.830528	0.285665	0.876548
0	H	0.410726	0.834734	0.611276
0	H	0.413815	0.138068	0.414603
0	H	0.179686	0.669618	0.658947
0	H	0.25341	0.386743	0.879967
0	H	0.441978	0.386757	0.122516
0	H	0.448694	0.674094	0.932458
0	H	0.241931	0.947498	0.169054
0	H	0.170953	0.476707	0.383391
0	H	0.200405	0.513374	0.0440901
0	H	0.856005	0.0287651	0.922893
0	H	0.540884	0.894953	0.172957
0	H	0.82422	0.737467	0.38468
0	H	0.00377511	0.247199	0.631789
0	H	0.97115	0.826501	0.409151
0	H	0.737257	0.0148909	0.6674
0	H	0.77767	0.205872	0.89962
0	H	0.502949	0.738121	0.618037
0	H	0.460251	0.313637	0.422771
0	H	0.231355	0.504632	0.669286
0	H	0.292732	0.570274	0.886207
0	H	0.527861	0.368079	0.104893
0	H	0.482377	0.779071	0.909479
0	H	0.177236	0.109512	0.165235
0	H	0.274213	0.529571	0.38768
0	H	0.178522	0.681788	0.0278377
0	H	0.89696	0.964255	0.947775
0	H	0.618395	0.983613	0.189072
0	H	0.792139	0.809375	0.358705
0	H	0.996154	0.297183	0.603533
0	H	0.964586	0.696523	0.430986
0	H	0.715408	0.176575	0.683908
0	H	0.880171	0.266051	0.902397
0	H	0.490625	0.818848	0.591594
0	H	0.458391	0.154331	0.440493
0	H	0.2178	0.668279	0.685912
0	H	0.264536	0.523589	0.858631
0	H	0.435022	0.446509	0.094645
0	H	0.511544	0.835082	0.935951
0	H	0.209701	0.995339	0.142936
0	H	0.23499	0.522672	0.360371
0	H	0.972271	0.457892	0.0323698
0	H	0.0259146	0.28944	0.99117
0	H	0.776169	0.522199	0.213032
0	H	0.783878	0.0311165	0.270981
0	H	0.998116	0.216552	0.565097
0	H	0.0248341	0.933359	0.480618
0	H	0.816216	0.880495	0.739031
0	H	0.868314	0.560611	0.790545
0	H	0.567533	0.775944	0.562576
0	H	0.467178	0.460095	0.476919
0	H	0.322872	0.365379	0.740011
0	H	0.443273	0.921711	0.783992
0	H	0.579521	0.321115	0.0450571
0	H	0.426624	0.957516	0.995169
0	H	0.149442	0.867611	0.219891
0	H	0.257086	0.690624	0.291893
0	H	0.966375	0.512133	0.0603699
0	H	0.947393	0.429005	0.988822
0	H	0.687167	0.40381	0.21453
0	H	0.753908	0.189664	0.254183
0	H	0.937796	0.071416	0.552861
0	H	0.949956	0.0754206	0.486264
0	H	0.730731	0.902535	0.72162
0	H	0.83869	0.736502	0.77829
0	H	0.481567	0.666908	0.553986
0	H	0.471079	0.60774	0.496743
0	H	0.2398	0.391872	0.721689
0	H	0.357035	0.0471819	0.781981
0	H	0.479782	0.297417	0.0561963
0	H	0.356828	0.109721	6.85895e-05
0	H	0.138767	0.898717	0.191524
0	H	0.179453	0.826735	0.285702
0	H	0.906783	0.357445	0.0504266
0	H	0.0190241	0.440561	0.0105286
0	H	0.77362	0.363325	0.230785
0	H	0.853133	0.116903	0.251912
0	H	0.0374653	0.107408	0.543064
0	H	0.0384466	0.0638885	0.502522
0	H	0.730956	0.760914	0.742379
0	H	0.938256	0.66426	0.774017
0	H	0.573034	0.663229	0.53862
0	H	0.552739	0.477653	0.494387
0	H	0.235721	0.248852	0.742231
0	H	0.448102	0.0930649	0.76857
0	H	0.506027	0.206062	0.0315377
0	H	0.446881	0.0942537	0.015804
0	H	0.0779578	0.759535	0.20437
0	H	0.271878	0.824736	0.270534
0	H	0.164054	0.399761	0.990455
0	H	0.363814	0.601177	0.991899
0	H	0.0776684	0.152039	0.213113
0	H	0.748289	0.691857	0.247071
0	H	0.0740522	0.624397	0.510552
0	H	0.335877	0.243493	0.505827
0	H	0.103631	0.702556	0.744731
0	H	0.83638	0.141703	0.776057
0	H	0.524459	0.237936	0.510546
0	H	0.85453	0.662949	0.495909
0	H	0.641009	0.125915	0.740322
0	H	0.404737	0.425221	0.750729
0	H	0.507538	0.802599	0.00308449
0	H	0.673366	0.121114	0.0347551
0	H	0.431426	0.907699	0.226922
0	H	0.259178	0.263264	0.257331
0	H	0.18767	0.209907	0.982565
0	H	0.293468	0.634269	0.0131546
0	H	0.999856	0.181455	0.232654
0	H	0.821941	0.843348	0.247002
0	H	0.967419	0.654477	0.515791
0	H	0.253802	0.305679	0.522367
0	H	0.0266671	0.642801	0.763301
0	H	0.89918	0.30832	0.778234
0	H	0.551785	0.0400999	0.513286
0	H	0.781763	0.716926	0.515843
0	H	0.566195	0.115131	0.760993
0	H	0.457964	0.603401	0.748854
0	H	0.535687	0.61016	0.00923323
0	H	0.747318	0.267808	0.0351789
0	H	0.353609	0.837771	0.244233
0	H	0.291218	0.44768	0.266142
0	H	0.26529	0.332532	0.992871
0	H	0.357976	0.785298	0.00435657
0	H	0.0506779	0.00322479	0.231688
0	H	0.843057	0.672889	0.232635
0	H	0.0138685	0.472941	0.520681
0	H	0.330463	0.43705	0.514685
0	H	0.109665	0.519828	0.757403
0	H	0.935338	0.147735	0.763771
0	H	0.626584	0.174186	0.505464
0	H	0.857715	0.848579	0.507913
0	H	0.624552	0.951212	0.754571
0	H	0.510861	0.425195	0.745023
0	H	0.610381	0.742016	0.999883
0	H	0.766575	0.0965283	0.0206654
0	H	0.450169	0.750913	0.244673
0	H	0.362354	0.321988	0.253614
