#******************************************
#
# CIF file created by Zeo++
# Zeo++ is an open source package to
# analyze microporous materials
#
#*******************************************

_cell_length_a		16.7939(0)
_cell_length_b		16.4444(0)
_cell_length_c		30.2647(0)
_cell_angle_alpha		90(0)
_cell_angle_beta		90(0)
_cell_angle_gamma		90(0)

_symmetry_space_group_name_H-M		'P1'
_symmetry_Int_Tables_number		1
_symmetry_cell_setting		Monoclinic

loop_
_symmetry_equiv_pos_as_xyz
'+x,+y,+z'

loop_
_atom_site_label
_atom_site_type_symbol
_atom_site_fract_x
_atom_site_fract_y
_atom_site_fract_z
0	C	0.86198	0.873707	0.311058
0	C	0.618686	0.127784	0.813617
0	C	0.120043	0.372609	0.201334
0	C	0.36385	0.627667	0.706908
0	C	0.120232	0.127566	0.706644
0	C	0.363741	0.872316	0.200418
0	C	0.862779	0.628402	0.816215
0	C	0.619187	0.373167	0.309741
0	C	0.836168	0.806036	0.286414
0	C	0.643515	0.1955	0.788742
0	C	0.145061	0.304611	0.225943
0	C	0.338286	0.695107	0.731782
0	C	0.145868	0.195132	0.731419
0	C	0.338554	0.804305	0.224958
0	C	0.837657	0.69658	0.791779
0	C	0.644831	0.305714	0.284903
0	H	0.874369	0.752484	0.284308
0	H	0.604814	0.248693	0.786724
0	H	0.10642	0.251364	0.227814
0	H	0.376552	0.748638	0.733961
0	H	0.107552	0.248576	0.733606
0	H	0.376915	0.7508	0.226648
0	H	0.876186	0.749958	0.790087
0	H	0.606646	0.25213	0.28279
0	C	0.762279	0.806541	0.265426
0	C	0.717194	0.195515	0.767504
0	C	0.218788	0.304468	0.247116
0	C	0.264466	0.694406	0.752868
0	C	0.21974	0.194624	0.752437
0	C	0.264988	0.804379	0.246315
0	C	0.764007	0.696759	0.770536
0	C	0.718573	0.3065	0.26374
0	H	0.742663	0.753812	0.246436
0	H	0.736235	0.248364	0.748438
0	H	0.237938	0.251419	0.265989
0	H	0.244957	0.746976	0.772035
0	H	0.239261	0.247283	0.771513
0	H	0.245737	0.751302	0.265135
0	H	0.744809	0.749928	0.751776
0	H	0.738099	0.253922	0.244589
0	C	0.712538	0.874465	0.269172
0	C	0.767505	0.128029	0.771195
0	C	0.268977	0.372091	0.243622
0	C	0.214667	0.626563	0.748966
0	C	0.269587	0.126804	0.748591
0	C	0.215089	0.872262	0.243101
0	C	0.713978	0.628969	0.773768
0	C	0.76827	0.374444	0.267558
0	H	0.654398	0.875004	0.253023
0	H	0.825476	0.127907	0.754859
0	H	0.326998	0.372105	0.259898
0	H	0.156578	0.625921	0.765176
0	H	0.327707	0.126255	0.764764
0	H	0.157213	0.872466	0.259538
0	H	0.65603	0.628956	0.757411
0	H	0.826306	0.375155	0.251287
0	C	0.737543	0.942037	0.29328
0	C	0.74343	0.0603878	0.795546
0	C	0.244709	0.439972	0.219533
0	C	0.239471	0.55919	0.724617
0	C	0.244759	0.0593426	0.724341
0	C	0.239496	0.940187	0.219085
0	C	0.73833	0.560907	0.797675
0	C	0.743411	0.441815	0.29189
0	H	0.698871	0.995244	0.296
0	H	0.782618	0.00756319	0.798238
0	H	0.283845	0.492862	0.216978
0	H	0.20072	0.50605	0.721782
0	H	0.283539	0.00621937	0.721542
0	H	0.200601	0.99329	0.216732
0	H	0.699329	0.507883	0.800021
0	H	0.782101	0.495016	0.294675
0	C	0.812561	0.942984	0.31386
0	C	0.668765	0.0589677	0.816468
0	C	0.169979	0.441556	0.198672
0	C	0.3144	0.558393	0.703956
0	C	0.169785	0.0583839	0.703718
0	C	0.314081	0.941525	0.198073
0	C	0.813003	0.559317	0.818608
0	C	0.668519	0.442544	0.312598
0	C	0.840704	0.0168261	0.337201
0	C	0.641622	0.985383	0.84042
0	C	0.14278	0.515369	0.174937
0	C	0.342506	0.484751	0.6804
0	C	0.141899	0.984606	0.680215
0	C	0.341485	0.0153838	0.174463
0	C	0.840292	0.485328	0.842144
0	C	0.640387	0.516191	0.33614
0	C	0.866108	0.0845555	0.314312
0	C	0.615951	0.916985	0.818277
0	C	0.117104	0.58364	0.197223
0	C	0.367721	0.416725	0.703091
0	C	0.116599	0.91668	0.702979
0	C	0.367184	0.0836012	0.196761
0	C	0.865907	0.417177	0.819754
0	C	0.615127	0.584225	0.313464
0	C	0.858247	0.106072	0.267192
0	C	0.623397	0.894266	0.771345
0	C	0.124543	0.606246	0.244188
0	C	0.359739	0.394901	0.750159
0	C	0.124473	0.894904	0.750062
0	C	0.359733	0.106129	0.24373
0	C	0.858416	0.394829	0.772757
0	C	0.623034	0.606126	0.2664
0	C	0.82625	0.0651122	0.231176
0	C	0.654974	0.934541	0.734992
0	C	0.156554	0.566158	0.280484
0	C	0.328091	0.435875	0.78627
0	C	0.156387	0.935721	0.786156
0	C	0.327996	0.0657774	0.280006
0	C	0.826555	0.435217	0.73652
0	C	0.654742	0.565283	0.230263
0	H	0.802956	0.00358094	0.234154
0	H	0.677813	0.99632	0.737495
0	H	0.180035	0.504628	0.277895
0	H	0.305468	0.497708	0.783462
0	H	0.179514	0.997337	0.783293
0	H	0.304849	0.00413217	0.277384
0	H	0.80322	0.496789	0.739202
0	H	0.677551	0.503523	0.233051
0	C	0.825457	0.103327	0.189599
0	C	0.65585	0.89521	0.693745
0	C	0.157085	0.605362	0.321783
0	C	0.326813	0.397238	0.82772
0	C	0.157326	0.897218	0.82765
0	C	0.32739	0.104841	0.32134
0	C	0.825985	0.396263	0.695154
0	C	0.655795	0.603937	0.188813
0	H	0.800037	0.0712293	0.161511
0	H	0.680948	0.926686	0.665374
0	H	0.18255	0.574018	0.350101
0	H	0.301626	0.429296	0.855884
0	H	0.182702	0.929192	0.855797
0	H	0.302166	0.0732825	0.349651
0	H	0.800669	0.427841	0.66687
0	H	0.681005	0.571977	0.160629
0	C	0.857588	0.180757	0.183965
0	C	0.624192	0.817418	0.688824
0	C	0.124636	0.682791	0.326842
0	C	0.358154	0.319419	0.833138
0	C	0.125417	0.819657	0.833138
0	C	0.359483	0.182414	0.326424
0	C	0.858192	0.318753	0.68998
0	C	0.624155	0.681639	0.18342
0	H	0.857155	0.209589	0.151506
0	H	0.624786	0.787652	0.656633
0	H	0.124841	0.712367	0.359089
0	H	0.357235	0.290184	0.86548
0	H	0.125985	0.790597	0.865534
0	H	0.359204	0.211939	0.358678
0	H	0.857935	0.289358	0.657684
0	H	0.624799	0.710844	0.151077
0	C	0.891457	0.222443	0.219881
0	C	0.59059	0.776542	0.725087
0	C	0.0907868	0.723573	0.29062
0	C	0.391853	0.277835	0.797145
0	C	0.0916064	0.778134	0.797157
0	C	0.393138	0.223408	0.290211
0	C	0.891883	0.27767	0.726149
0	C	0.590453	0.723125	0.219447
0	H	0.917573	0.28243	0.215167
0	H	0.564762	0.716318	0.720882
0	H	0.0644278	0.78355	0.294882
0	H	0.417466	0.217581	0.801694
0	H	0.0656493	0.718051	0.801758
0	H	0.419258	0.283485	0.294527
0	H	0.918072	0.21763	0.721801
0	H	0.564647	0.783301	0.214936
0	C	0.891122	0.185203	0.260921
0	C	0.590821	0.814845	0.765833
0	C	0.0914918	0.685447	0.249831
0	C	0.392015	0.315461	0.756214
0	C	0.0918035	0.81565	0.75619
0	C	0.392577	0.185414	0.249386
0	C	0.891243	0.315561	0.767005
0	C	0.590524	0.685476	0.260373
0	C	0.921821	0.218017	0.304064
0	C	0.560422	0.783198	0.809315
0	C	0.0612311	0.717263	0.206369
0	C	0.422727	0.282858	0.713013
0	C	0.0611161	0.783056	0.713002
0	C	0.422863	0.217305	0.205931
0	C	0.921391	0.283425	0.810423
0	C	0.559827	0.717976	0.303587
0	H	0.888656	0.273882	0.31347
0	H	0.593629	0.727601	0.819143
0	H	0.0944658	0.772934	0.196705
0	H	0.389366	0.227225	0.703402
0	H	0.0942342	0.727217	0.703507
0	H	0.389506	0.272874	0.196219
0	H	0.887889	0.227894	0.820023
0	H	0.593075	0.773689	0.313201
0	H	0.985677	0.234704	0.301887
0	H	0.49654	0.766476	0.807408
0	H	0.997329	0.733917	0.208205
0	H	0.486519	0.265912	0.715211
0	H	0.997252	0.766395	0.715158
0	H	0.486713	0.234163	0.207811
0	H	0.985204	0.266423	0.808563
0	H	0.49599	0.734771	0.301434
0	C	0.907676	0.14999	0.336917
0	C	0.574742	0.85215	0.841591
0	C	0.0758234	0.648547	0.174007
0	C	0.409005	0.351274	0.680335
0	C	0.0752507	0.851252	0.68025
0	C	0.408565	0.148501	0.173568
0	C	0.907153	0.352101	0.842869
0	C	0.573766	0.649586	0.336248
0	C	0.930921	0.143424	0.380494
0	C	0.551936	0.859988	0.885184
0	C	0.0531725	0.641079	0.13037
0	C	0.43239	0.358127	0.636795
0	C	0.0521718	0.857916	0.636651
0	C	0.431537	0.140851	0.129993
0	C	0.93004	0.359451	0.886475
0	C	0.550467	0.642719	0.379801
0	C	0.906651	0.0703617	0.403441
0	C	0.576758	0.933605	0.907453
0	C	0.0781769	0.567741	0.107932
0	C	0.408621	0.431609	0.614095
0	C	0.0764429	0.931081	0.613808
0	C	0.40677	0.0673616	0.107598
0	C	0.905161	0.432731	0.909014
0	C	0.574356	0.569266	0.402493
0	C	0.939626	0.0461888	0.445742
0	C	0.544514	0.959652	0.949595
0	C	0.046319	0.542259	0.0655991
0	C	0.442145	0.456283	0.572011
0	C	0.0437329	0.955218	0.571442
0	C	0.43927	0.0412901	0.065518
0	C	0.937204	0.458167	0.95132
0	C	0.540916	0.54456	0.444591
0	H	0.993012	0.078305	0.457209
0	H	0.491149	0.928295	0.961904
0	H	0.99301	0.573724	0.0532857
0	H	0.495551	0.424105	0.560587
0	H	0.990463	0.92305	0.559864
0	H	0.492759	0.0725819	0.0533327
0	H	0.990639	0.426784	0.963512
0	H	0.487512	0.576711	0.456048
0	C	0.9095	0.983826	0.469843
0	C	0.574923	0.0232643	0.972639
0	C	0.0770332	0.479087	0.0423473
0	C	0.412575	0.519192	0.548126
0	C	0.0739739	0.0175938	0.54739
0	C	0.408938	0.977717	0.0424138
0	C	0.906428	0.521203	0.974675
0	C	0.57052	0.481614	0.46844
0	H	0.937224	0.963883	0.500507
0	H	0.547278	0.0451623	0.00302335
0	H	0.0497116	0.457699	0.0117656
0	H	0.440782	0.53957	0.517675
0	H	0.0464845	0.0374513	0.516648
0	H	0.436798	0.955734	0.0121037
0	H	0.933867	0.542602	0.0052258
0	H	0.542328	0.461175	0.498879
0	C	0.837931	0.942857	0.455625
0	C	0.646739	0.0630676	0.957863
0	C	0.148815	0.439236	0.0571546
0	C	0.34103	0.560264	0.562304
0	C	0.145363	0.0586854	0.561791
0	C	0.336879	0.938101	0.056988
0	C	0.834452	0.560883	0.960018
0	C	0.642047	0.440565	0.454216
0	C	0.796984	0.888457	0.48408
0	C	0.688513	0.118193	0.985518
0	C	0.190952	0.384671	0.0293535
0	C	0.300644	0.615321	0.533988
0	C	0.186473	0.113093	0.533416
0	C	0.295169	0.883098	0.0292444
0	C	0.792212	0.615165	0.987935
0	C	0.682468	0.385452	0.482493
0	H	0.82316	0.873133	0.515901
0	H	0.662852	0.135147	0.0172134
0	H	0.165591	0.368173	0.997517
0	H	0.32722	0.631014	0.502321
0	H	0.160567	0.128292	0.501513
0	H	0.321076	0.86596	0.997635
0	H	0.817632	0.63162	0.0197712
0	H	0.655918	0.369707	0.514159
0	C	0.724602	0.855996	0.471524
0	C	0.761064	0.149357	0.972294
0	C	0.263497	0.35353	0.0426142
0	C	0.2283	0.647948	0.546503
0	C	0.258684	0.145721	0.546158
0	C	0.222345	0.852302	0.0422539
0	C	0.719506	0.646057	0.974799
0	C	0.754771	0.352814	0.469926
0	H	0.692886	0.814079	0.493083
0	H	0.793471	0.19176	0.993248
0	H	0.296132	0.311495	0.0215646
0	H	0.197019	0.690379	0.525047
0	H	0.290507	0.187649	0.524657
0	H	0.189967	0.810005	0.021227
0	H	0.686726	0.68781	0.995942
0	H	0.786052	0.310307	0.491339
0	C	0.691072	0.877591	0.430343
0	C	0.793906	0.125866	0.931254
0	C	0.296062	0.37662	0.0837931
0	C	0.194285	0.625883	0.58749
0	C	0.291895	0.124239	0.587437
0	C	0.189131	0.876025	0.0831644
0	C	0.68689	0.623088	0.933614
0	C	0.788721	0.374934	0.428928
0	H	0.632831	0.853557	0.421106
0	H	0.852182	0.149281	0.921358
0	H	0.354376	0.353354	0.093666
0	H	0.13611	0.650112	0.596696
0	H	0.350002	0.148432	0.596859
0	H	0.130635	0.853007	0.0928112
0	H	0.628463	0.646123	0.923879
0	H	0.846866	0.350663	0.419667
0	C	0.73159	0.928498	0.401801
0	C	0.752729	0.0740314	0.90353
0	C	0.25453	0.427942	0.111644
0	C	0.234244	0.574298	0.61591
0	C	0.251242	0.0732442	0.61587
0	C	0.230294	0.92765	0.111015
0	C	0.728517	0.5721	0.905639
0	C	0.748734	0.426569	0.400554
0	H	0.703949	0.945877	0.370634
0	H	0.779853	0.0549234	0.872519
0	H	0.281456	0.446865	0.142748
0	H	0.206281	0.556593	0.646936
0	H	0.278688	0.0558906	0.647098
0	H	0.202979	0.946918	0.14195
0	H	0.701599	0.55327	0.874516
0	H	0.776651	0.444303	0.36952
0	C	0.807363	0.960624	0.413141
0	C	0.676807	0.0431989	0.915565
0	C	0.178521	0.458573	0.0996142
0	C	0.309934	0.541961	0.604604
0	C	0.175612	0.0409954	0.604359
0	C	0.306469	0.958092	0.0991908
0	C	0.804648	0.541658	0.917572
0	C	0.673059	0.45891	0.411903
0	C	0.851181	0.0160049	0.384265
0	C	0.632115	0.98718	0.887525
0	C	0.133471	0.514032	0.127808
0	C	0.353245	0.485976	0.633355
0	C	0.131682	0.985525	0.633132
0	C	0.351177	0.0138666	0.127366
0	C	0.849725	0.486432	0.889269
0	C	0.629695	0.514921	0.383187
0	C	0.939292	0.86923	0.334716
0	C	0.54203	0.131654	0.837972
0	C	0.0431465	0.368708	0.17725
0	C	0.440791	0.632009	0.682896
0	C	0.0430785	0.131927	0.68283
0	C	0.440569	0.868428	0.176261
0	C	0.939769	0.632215	0.840197
0	C	0.542202	0.368687	0.333704
0	C	0.946253	0.821124	0.371957
0	C	0.535706	0.179794	0.875249
0	C	0.0366141	0.320662	0.13996
0	C	0.447397	0.680121	0.645641
0	C	0.03632	0.179965	0.645549
0	C	0.447267	0.820407	0.138972
0	C	0.946514	0.680223	0.877489
0	C	0.535493	0.320503	0.370924
0	C	0.889226	0.763823	0.392227
0	C	0.592829	0.237468	0.895171
0	C	0.0939258	0.263617	0.119692
0	C	0.390506	0.737999	0.625722
0	C	0.0934487	0.237213	0.625312
0	C	0.390308	0.762814	0.118852
0	C	0.889319	0.737275	0.897843
0	C	0.592345	0.262628	0.39088
0	C	0.810268	0.745078	0.38299
0	C	0.671356	0.25701	0.885338
0	C	0.172814	0.244833	0.129098
0	C	0.311995	0.757712	0.635512
0	C	0.172291	0.25618	0.634736
0	C	0.311629	0.743419	0.128405
0	C	0.810338	0.755941	0.888616
0	C	0.670924	0.243058	0.381193
0	H	0.776831	0.777594	0.357731
0	H	0.704308	0.225237	0.859593
0	H	0.205912	0.276923	0.154665
0	H	0.278816	0.725794	0.661115
0	H	0.205491	0.224043	0.660234
0	H	0.278367	0.775385	0.153959
0	H	0.77705	0.723683	0.863189
0	H	0.704196	0.275142	0.355684
0	C	0.772233	0.683452	0.407336
0	C	0.709692	0.318359	0.909757
0	C	0.211255	0.183816	0.104489
0	C	0.273992	0.819442	0.611231
0	C	0.210545	0.317469	0.610244
0	C	0.273562	0.681965	0.103947
0	C	0.772069	0.81708	0.91322
0	C	0.708841	0.181216	0.405435
0	H	0.710745	0.667636	0.399421
0	H	0.770906	0.334627	0.90146
0	H	0.272701	0.168015	0.11251
0	H	0.21281	0.835885	0.619501
0	H	0.271962	0.3334	0.618266
0	H	0.212274	0.665701	0.11208
0	H	0.710568	0.832843	0.90531
0	H	0.770084	0.164884	0.397246
0	C	0.81191	0.64222	0.441007
0	C	0.670758	0.358671	0.944014
0	C	0.172099	0.143208	0.0704112
0	C	0.31323	0.859929	0.577133
0	C	0.171194	0.358192	0.576275
0	C	0.312868	0.641505	0.0698722
0	C	0.81151	0.8579	0.947125
0	C	0.669435	0.140476	0.439377
0	H	0.781644	0.59397	0.459074
0	H	0.701297	0.4067	0.962145
0	H	0.202728	0.0954822	0.0521122
0	H	0.282964	0.908275	0.559115
0	H	0.201651	0.406133	0.558063
0	H	0.282529	0.593402	0.0517093
0	H	0.781022	0.905727	0.965415
0	H	0.699617	0.0920008	0.457344
0	C	0.890983	0.662239	0.451749
0	C	0.592095	0.337985	0.955266
0	C	0.0930664	0.163172	0.05957
0	C	0.391841	0.839009	0.565897
0	C	0.0922065	0.338064	0.565418
0	C	0.391656	0.662135	0.0588542
0	C	0.890633	0.838003	0.957816
0	C	0.590744	0.161269	0.45052
0	H	0.921597	0.630824	0.47832
0	H	0.561991	0.368701	0.982265
0	H	0.0627934	0.132225	0.0327139
0	H	0.422152	0.86982	0.538999
0	H	0.0618247	0.36912	0.538642
0	H	0.422026	0.63132	0.0319795
0	H	0.921106	0.869115	0.984547
0	H	0.560299	0.130252	0.477301
0	C	0.928464	0.722524	0.427476
0	C	0.55436	0.277911	0.930968
0	C	0.0551688	0.222823	0.0841062
0	C	0.429274	0.778557	0.590068
0	C	0.0545155	0.278093	0.589817
0	C	0.429177	0.722245	0.0832348
0	C	0.92835	0.778231	0.933286
0	C	0.553405	0.221834	0.426394
0	C	0.0120517	0.754029	0.432493
0	C	0.471185	0.245699	0.936601
0	C	0.971542	0.254111	0.0790185
0	C	0.512394	0.746135	0.584478
0	C	0.970952	0.24659	0.584712
0	C	0.512445	0.754406	0.077893
0	C	0.0120011	0.746909	0.938235
0	C	0.470238	0.254192	0.431913
0	H	0.0557513	0.704215	0.427609
0	H	0.426948	0.295205	0.9324
0	H	0.927956	0.204087	0.0835193
0	H	0.556741	0.795506	0.588944
0	H	0.927251	0.296465	0.589407
0	H	0.556622	0.704899	0.0822735
0	H	0.0555944	0.796883	0.933595
0	H	0.425915	0.204841	0.427351
0	H	0.0222051	0.77953	0.465919
0	H	0.462336	0.219405	0.969996
0	H	0.961677	0.280271	0.04567
0	H	0.521457	0.720248	0.551035
0	H	0.960971	0.22085	0.551328
0	H	0.521682	0.780638	0.0445107
0	H	0.0220591	0.720845	0.971589
0	H	0.461046	0.279968	0.465372
0	C	0.019847	0.818723	0.397039
0	C	0.462843	0.181392	0.901004
0	C	0.963268	0.318324	0.114669
0	C	0.520382	0.681597	0.619995
0	C	0.962924	0.182157	0.620289
0	C	0.520431	0.818765	0.113489
0	C	0.0200179	0.682563	0.90264
0	C	0.462374	0.318858	0.396454
0	C	0.0824526	0.870397	0.38804
0	C	0.400434	0.129175	0.892585
0	C	0.900526	0.369877	0.12355
0	C	0.582636	0.629269	0.628579
0	C	0.900296	0.130475	0.629211
0	C	0.582771	0.87095	0.122157
0	C	0.0826252	0.630894	0.893668
0	C	0.400124	0.371174	0.387855
0	C	0.0709004	0.926637	0.351834
0	C	0.411617	0.0727353	0.85644
0	C	0.911942	0.426507	0.159584
0	C	0.571426	0.573195	0.664905
0	C	0.911746	0.0741645	0.665396
0	C	0.57132	0.927169	0.15838
0	C	0.0710192	0.574351	0.857623
0	C	0.411422	0.427306	0.351562
0	C	0.122072	0.996714	0.345545
0	C	0.361105	0.00197241	0.850869
0	C	0.860943	0.49683	0.16542
0	C	0.62211	0.502662	0.670904
0	C	0.860753	0.0039025	0.67149
0	C	0.62192	0.997781	0.164312
0	C	0.121964	0.504017	0.851654
0	C	0.360771	0.497857	0.345526
0	H	0.164005	0.0117275	0.372112
0	H	0.319855	0.986992	0.877769
0	H	0.819135	0.511486	0.138724
0	H	0.663558	0.487391	0.644143
0	H	0.818903	0.989005	0.644866
0	H	0.663424	0.012967	0.137567
0	H	0.163756	0.489159	0.87833
0	H	0.31917	0.513072	0.372226
0	C	0.117445	0.0455102	0.309548
0	C	0.365602	0.952457	0.815156
0	C	0.865605	0.546296	0.201149
0	C	0.617538	0.453725	0.706861
0	C	0.865475	0.954779	0.707351
0	C	0.617188	0.0469221	0.20017
0	C	0.117295	0.454824	0.815832
0	C	0.365534	0.546869	0.309609
0	H	0.154523	0.0995815	0.306242
0	H	0.329106	0.897863	0.812422
0	H	0.828686	0.600549	0.204113
0	H	0.654156	0.399263	0.709931
0	H	0.828565	0.900558	0.710481
0	H	0.653747	0.101427	0.203182
0	H	0.154183	0.400562	0.812748
0	H	0.328943	0.601352	0.306528
0	C	0.0649418	0.0245354	0.273569
0	C	0.417086	0.97335	0.77872
0	C	0.917884	0.525766	0.237304
0	C	0.565763	0.475022	0.743114
0	C	0.917817	0.975622	0.743431
0	C	0.565335	0.025729	0.236393
0	C	0.0649907	0.475602	0.779726
0	C	0.417419	0.525622	0.273395
0	C	0.0689317	0.0673119	0.23287
0	C	0.412799	0.9296	0.738339
0	C	0.91386	0.569382	0.27774
0	C	0.569825	0.431872	0.783701
0	C	0.913931	0.932418	0.783999
0	C	0.569367	0.0689907	0.276939
0	C	0.0690753	0.432331	0.739188
0	C	0.413549	0.568814	0.232816
0	H	0.107029	0.120789	0.230334
0	H	0.375474	0.875446	0.736432
0	H	0.875962	0.623072	0.279877
0	H	0.607261	0.377838	0.785934
0	H	0.876146	0.87868	0.786341
0	H	0.606806	0.123015	0.279126
0	H	0.107077	0.378737	0.736917
0	H	0.376252	0.622949	0.23058
0	C	0.0257162	0.0408628	0.196849
0	C	0.454698	0.955975	0.701822
0	C	0.956758	0.543445	0.313995
0	C	0.527527	0.45864	0.819997
0	C	0.956858	0.958794	0.82015
0	C	0.52708	0.0422888	0.313246
0	C	0.0260847	0.458449	0.70301
0	C	0.455823	0.541942	0.196536
0	H	0.0282133	0.0736124	0.165573
0	H	0.45183	0.922577	0.670749
0	H	0.954197	0.576798	0.345084
0	H	0.530131	0.425631	0.851204
0	H	0.954408	0.925735	0.851332
0	H	0.529703	0.075343	0.344432
0	H	0.0287002	0.425357	0.671842
0	H	0.453353	0.574942	0.165324
0	C	0.978057	0.970375	0.200613
0	C	0.501461	0.0272178	0.704817
0	C	0.00416271	0.472704	0.310704
0	C	0.480645	0.52973	0.816586
0	C	0.00415512	0.0295798	0.816636
0	C	0.48023	0.971167	0.30989
0	C	0.978476	0.529015	0.706494
0	C	0.502509	0.470713	0.199956
0	H	0.946154	0.948332	0.171686
0	H	0.532345	0.0490845	0.675522
0	H	0.0358465	0.451107	0.339806
0	H	0.44945	0.551929	0.84571
0	H	0.0358344	0.0515438	0.845661
0	H	0.449045	0.949024	0.339028
0	H	0.946664	0.550719	0.677458
0	H	0.533631	0.44842	0.170828
0	C	0.971319	0.930216	0.240578
0	C	0.508622	0.0683033	0.744483
0	C	0.010975	0.431747	0.270981
0	C	0.473736	0.570223	0.776727
0	C	0.0108534	0.0701177	0.776781
0	C	0.473337	0.930563	0.270069
0	C	0.97163	0.569662	0.74631
0	C	0.509305	0.430207	0.239813
0	H	0.934851	0.875605	0.242424
0	H	0.544431	0.123425	0.745738
0	H	0.0473033	0.377003	0.269508
0	H	0.437847	0.625256	0.775145
0	H	0.0470753	0.124923	0.775117
0	H	0.437465	0.875507	0.268536
0	H	0.935128	0.624272	0.747925
0	H	0.545043	0.37507	0.241418
0	C	0.012314	0.957899	0.278781
0	C	0.468857	0.0408841	0.783132
0	C	0.970229	0.458784	0.232567
0	C	0.51383	0.542302	0.738284
0	C	0.970137	0.0425817	0.738462
0	C	0.513452	0.95838	0.231612
0	C	0.0125272	0.542449	0.784641
0	C	0.469219	0.458239	0.278237
0	C	0.00675278	0.917315	0.321746
0	C	0.474849	0.0824541	0.8258
0	C	0.975827	0.41733	0.189849
0	C	0.508003	0.583128	0.695397
0	C	0.975702	0.0835444	0.695602
0	C	0.507751	0.917335	0.188786
0	C	0.0070192	0.583642	0.827441
0	C	0.474936	0.417417	0.321128
0	C	0.979399	0.208368	0.405413
0	C	0.503601	0.795843	0.910767
0	C	0.00470041	0.705319	0.104935
0	C	0.48042	0.293142	0.611635
0	C	0.00391575	0.79296	0.611615
0	C	0.480027	0.205043	0.104529
0	C	0.978544	0.295136	0.911842
0	C	0.502341	0.707644	0.40495
0	C	0.0659142	0.177755	0.409983
0	C	0.41734	0.826858	0.915894
0	C	0.918509	0.674071	0.0999015
0	C	0.567105	0.323228	0.606947
0	C	0.917394	0.823474	0.606877
0	C	0.566331	0.174047	0.0996151
0	C	0.0647939	0.326278	0.916766
0	C	0.415716	0.677386	0.409661
0	H	0.0919703	0.165413	0.377442
0	H	0.390336	0.838244	0.88349
0	H	0.891686	0.662416	0.132323
0	H	0.593405	0.335313	0.639455
0	H	0.891172	0.835972	0.639359
0	H	0.593139	0.162813	0.132083
0	H	0.0914348	0.338038	0.884306
0	H	0.389375	0.665412	0.377153
0	H	0.0691702	0.12085	0.428867
0	H	0.414762	0.884339	0.934271
0	H	0.91608	0.616642	0.0814652
0	H	0.570632	0.380163	0.588091
0	H	0.914171	0.88026	0.587884
0	H	0.569035	0.116488	0.0813211
0	H	0.0673912	0.38361	0.935285
0	H	0.412324	0.620342	0.428427
0	H	0.103506	0.222572	0.426701
0	H	0.380173	0.782572	0.933319
0	H	0.881118	0.718263	0.082555
0	H	0.604351	0.278241	0.59014
0	H	0.879922	0.778525	0.590186
0	H	0.603587	0.218267	0.0821973
0	H	0.102228	0.281954	0.933983
0	H	0.378411	0.722215	0.426554
0	C	0.982612	0.2919	0.382287
0	C	0.499115	0.711844	0.888188
0	C	0.000341301	0.789176	0.127668
0	C	0.483392	0.209398	0.634544
0	C	0.000602349	0.709397	0.634703
0	C	0.484262	0.289056	0.12711
0	C	0.982686	0.211283	0.88911
0	C	0.499175	0.79135	0.381999
0	H	0.0123535	0.336957	0.403292
0	H	0.468436	0.667842	0.909445
0	H	0.969677	0.833361	0.106532
0	H	0.512944	0.164437	0.613401
0	H	0.971174	0.664307	0.61359
0	H	0.515353	0.332984	0.10599
0	H	0.0139792	0.167229	0.910047
0	H	0.46978	0.836354	0.403181
0	H	0.922734	0.315293	0.375214
0	H	0.558672	0.687169	0.88143
0	H	0.0599918	0.813677	0.134383
0	H	0.423452	0.186122	0.641599
0	H	0.0604182	0.686089	0.641986
0	H	0.424567	0.313831	0.133493
0	H	0.922893	0.186551	0.88289
0	H	0.559017	0.814609	0.374739
0	H	0.0166406	0.289915	0.351372
0	H	0.465268	0.713724	0.857213
0	H	0.966628	0.787181	0.158682
0	H	0.517518	0.211046	0.665431
0	H	0.966217	0.711326	0.665501
0	H	0.517567	0.287199	0.158262
0	H	0.0156458	0.213318	0.857851
0	H	0.464792	0.789589	0.3512
0	C	0.941833	0.224269	0.451327
0	C	0.542353	0.780563	0.956421
0	C	0.0431298	0.720957	0.0592265
0	C	0.442442	0.277867	0.565759
0	C	0.0417714	0.777164	0.565757
0	C	0.441613	0.220305	0.0587873
0	C	0.940257	0.27958	0.957599
0	C	0.540327	0.72308	0.450809
0	H	0.959355	0.178727	0.475873
0	H	0.52587	0.826774	0.980858
0	H	0.0258184	0.675427	0.0345741
0	H	0.459155	0.324109	0.541434
0	H	0.0242057	0.822616	0.541174
0	H	0.458266	0.174094	0.0343955
0	H	0.958066	0.324855	0.982283
0	H	0.523992	0.676643	0.475104
0	H	0.876627	0.223639	0.449398
0	H	0.60752	0.780529	0.953873
0	H	0.108309	0.720141	0.0615401
0	H	0.377243	0.277743	0.567957
0	H	0.106966	0.778016	0.567783
0	H	0.37643	0.22032	0.0611957
0	H	0.875071	0.280947	0.955404
0	H	0.605517	0.723689	0.448558
0	H	0.960025	0.283249	0.464735
0	H	0.524028	0.721923	0.970253
0	H	0.0253648	0.780061	0.0457636
0	H	0.461071	0.219377	0.551915
0	H	0.0238469	0.718106	0.552342
0	H	0.460009	0.278941	0.0449797
0	H	0.957609	0.220262	0.970955
0	H	0.521312	0.781402	0.464708
0	C	0.162722	0.868923	0.412778
0	C	0.320747	0.130168	0.91791
0	C	0.820262	0.368076	0.0988352
0	C	0.66229	0.629907	0.603233
0	C	0.820132	0.13194	0.604378
0	C	0.662641	0.870168	0.0970162
0	C	0.163007	0.632505	0.918276
0	C	0.320398	0.370475	0.413131
0	C	0.174983	0.794108	0.442911
0	C	0.308628	0.204907	0.948106
0	C	0.808145	0.293001	0.068896
0	C	0.67454	0.704425	0.572886
0	C	0.807864	0.206921	0.574367
0	C	0.674906	0.795788	0.0665918
0	C	0.175348	0.707493	0.948243
0	C	0.308129	0.295998	0.443507
0	H	0.235988	0.792715	0.455861
0	H	0.247891	0.205785	0.961482
0	H	0.747143	0.291458	0.0559184
0	H	0.735314	0.705248	0.559576
0	H	0.746818	0.208464	0.561487
0	H	0.735652	0.795184	0.0532114
0	H	0.236332	0.708768	0.96127
0	H	0.24734	0.295199	0.456797
0	H	0.16561	0.736947	0.425076
0	H	0.317258	0.26215	0.930239
0	H	0.817693	0.235988	0.0868558
0	H	0.665895	0.76179	0.590661
0	H	0.817392	0.263976	0.592284
0	H	0.666387	0.738323	0.0842465
0	H	0.166057	0.764547	0.930285
0	H	0.316783	0.238599	0.425779
0	H	0.135824	0.795724	0.471866
0	H	0.348373	0.20344	0.976819
0	H	0.847278	0.294611	0.0399247
0	H	0.634858	0.702896	0.544147
0	H	0.846895	0.205403	0.545359
0	H	0.635163	0.797519	0.0378788
0	H	0.136124	0.705995	0.977181
0	H	0.347792	0.297577	0.472256
0	C	0.231426	0.866134	0.378777
0	C	0.251299	0.132377	0.884389
0	C	0.751565	0.365482	0.132826
0	C	0.731663	0.632363	0.636822
0	C	0.751278	0.134397	0.638294
0	C	0.731854	0.867507	0.130681
0	C	0.231556	0.635043	0.884192
0	C	0.251157	0.367882	0.379469
0	H	0.288046	0.850291	0.394504
0	H	0.194883	0.14753	0.900542
0	H	0.69488	0.350055	0.117051
0	H	0.788117	0.647709	0.620779
0	H	0.694704	0.150289	0.62253
0	H	0.788393	0.852708	0.114565
0	H	0.288244	0.650895	0.899845
0	H	0.194614	0.352732	0.395473
0	H	0.241029	0.924266	0.361998
0	H	0.241979	0.0742039	0.86761
0	H	0.742306	0.423554	0.149722
0	H	0.741074	0.574269	0.65367
0	H	0.741665	0.0761117	0.654919
0	H	0.740968	0.925395	0.147783
0	H	0.240992	0.57682	0.867482
0	H	0.241889	0.425859	0.362476
0	H	0.219704	0.82083	0.352977
0	H	0.262009	0.177943	0.85859
0	H	0.763092	0.319941	0.15853
0	H	0.720678	0.677933	0.662595
0	H	0.762841	0.179509	0.664218
0	H	0.72102	0.821462	0.156209
0	H	0.219749	0.68024	0.858349
0	H	0.26218	0.322115	0.353806
0	C	0.16925	0.944483	0.442796
0	C	0.315461	0.0547618	0.948075
0	C	0.813791	0.443267	0.0685945
0	C	0.667353	0.554161	0.573275
0	C	0.813851	0.0565404	0.574231
0	C	0.668201	0.945898	0.0670995
0	C	0.169456	0.557233	0.948462
0	C	0.315141	0.446254	0.44306
0	H	0.119253	0.947645	0.465989
0	H	0.365918	0.0524924	0.971001
0	H	0.863745	0.445754	0.0453414
0	H	0.616658	0.551356	0.550538
0	H	0.863796	0.0537258	0.55099
0	H	0.617783	0.948566	0.0441625
0	H	0.119452	0.554679	0.97168
0	H	0.36564	0.449044	0.465935
0	H	0.169463	0.00139739	0.423811
0	H	0.315506	0.997632	0.929303
0	H	0.813943	0.500479	0.0873099
0	H	0.667627	0.497338	0.592337
0	H	0.813917	0.999503	0.593107
0	H	0.668303	0.00282074	0.086059
0	H	0.169353	0.500067	0.929708
0	H	0.315078	0.503059	0.423983
0	H	0.224137	0.943331	0.46236
0	H	0.260977	0.055397	0.967994
0	H	0.758886	0.442212	0.049057
0	H	0.721655	0.554738	0.553212
0	H	0.758919	0.0575818	0.554705
0	H	0.722709	0.945311	0.0472018
0	H	0.224329	0.558261	0.968029
0	H	0.260655	0.445736	0.462968
