#******************************************
#
# CIF file created by Zeo++
# Zeo++ is an open source package to
# analyze microporous materials
#
#*******************************************

_cell_length_a		23.6219(0)
_cell_length_b		23.6116(0)
_cell_length_c		20.1062(0)
_cell_angle_alpha		90(0)
_cell_angle_beta		90(0)
_cell_angle_gamma		120.405(0)

_symmetry_space_group_name_H-M		'P1'
_symmetry_Int_Tables_number		1
_symmetry_cell_setting		Monoclinic

loop_
_symmetry_equiv_pos_as_xyz
'+x,+y,+z'

loop_
_atom_site_label
_atom_site_type_symbol
_atom_site_fract_x
_atom_site_fract_y
_atom_site_fract_z
0	O	0.199169	0.847025	0.141842
0	O	0.174318	0.360534	0.151587
0	O	0.660009	0.818174	0.134278
0	O	0.8228	0.16984	0.863479
0	O	0.850658	0.65684	0.867999
0	O	0.357524	0.196174	0.867911
0	O	0.866701	0.17727	0.475158
0	O	0.84086	0.696524	0.474246
0	O	0.324629	0.151633	0.475408
0	O	0.485146	0.502354	0.198787
0	O	0.517137	0.991853	0.196379
0	O	0.0285401	0.533568	0.198215
0	O	0.535573	0.514565	0.809497
0	O	0.503872	0.0252114	0.811884
0	O	0.992391	0.483694	0.810761
0	O	0.154505	0.839957	0.532854
0	O	0.179516	0.320729	0.533502
0	O	0.696454	0.865856	0.533391
0	C	0.251468	0.883242	0.167972
0	C	0.137017	0.376713	0.173859
0	C	0.643992	0.76734	0.16328
0	C	0.769918	0.133459	0.838541
0	C	0.886409	0.641056	0.841071
0	C	0.374417	0.248177	0.841025
0	C	0.918703	0.213202	0.50194
0	C	0.805467	0.71273	0.501239
0	C	0.30781	0.0994796	0.501919
0	C	0.432954	0.466605	0.172255
0	C	0.552704	0.975281	0.170465
0	C	0.044908	0.58569	0.171828
0	C	0.587768	0.550322	0.836033
0	C	0.468187	0.0417456	0.837589
0	C	0.975962	0.431417	0.836821
0	C	0.102427	0.804031	0.506221
0	C	0.214848	0.304426	0.506531
0	C	0.713168	0.917841	0.506551
0	C	0.278749	0.953053	0.188431
0	C	0.0664867	0.333584	0.192006
0	C	0.686502	0.740961	0.185328
0	C	0.742124	0.0634167	0.818673
0	C	0.956056	0.684251	0.820058
0	C	0.332458	0.275589	0.820156
0	C	0.946095	0.282946	0.522501
0	C	0.735677	0.670121	0.522017
0	C	0.349627	0.0718313	0.522335
0	C	0.405022	0.396686	0.151785
0	C	0.622866	0.0175956	0.150561
0	C	0.00247021	0.61278	0.151603
0	C	0.615731	0.620264	0.85644
0	C	0.398023	0.999404	0.857436
0	C	0.0184125	0.404308	0.856969
0	C	0.0749453	0.734237	0.485796
0	C	0.284656	0.346974	0.485775
0	C	0.671282	0.945362	0.485983
0	C	0.33435	0.973808	0.224648
0	C	0.0451927	0.368267	0.227297
0	C	0.651233	0.68591	0.222405
0	C	0.68637	0.0427069	0.78274
0	C	0.976442	0.649494	0.783593
0	C	0.368144	0.330963	0.783654
0	C	0.00129076	0.303318	0.559293
0	C	0.715798	0.705229	0.558631
0	C	0.314084	0.0166985	0.559261
0	C	0.349609	0.376393	0.115405
0	C	0.642858	0.982407	0.114254
0	C	0.0375778	0.668346	0.115223
0	C	0.671171	0.640604	0.892802
0	C	0.377966	0.0345651	0.8937
0	C	0.983298	0.348684	0.893253
0	C	0.0197484	0.713869	0.449016
0	C	0.304464	0.311829	0.449127
0	C	0.706791	0.000460377	0.448996
0	C	0.3528	0.92066	0.231484
0	C	0.0982176	0.440532	0.234353
0	C	0.579404	0.667263	0.229182
0	C	0.668124	0.0960045	0.775942
0	C	0.923225	0.577264	0.77703
0	C	0.43985	0.349143	0.776856
0	C	0.0193961	0.249968	0.566342
0	C	0.769627	0.777185	0.565548
0	C	0.242478	0.998703	0.566261
0	C	0.331866	0.429996	0.10838
0	C	0.588714	0.91063	0.106854
0	C	0.109385	0.687047	0.107982
0	C	0.688888	0.586988	0.899926
0	C	0.432048	0.106385	0.90104
0	C	0.911448	0.32986	0.900354
0	C	0.00166615	0.767231	0.441902
0	C	0.250557	0.239915	0.442141
0	C	0.778424	0.0185348	0.442019
0	C	0.301221	0.862428	0.18856
0	C	0.156945	0.447799	0.192369
0	C	0.573182	0.718474	0.185818
0	C	0.719991	0.15426	0.818666
0	C	0.865123	0.57023	0.819931
0	C	0.44555	0.297348	0.819772
0	C	0.967913	0.191896	0.523174
0	C	0.827511	0.783704	0.522595
0	C	0.236656	0.0503399	0.523148
0	C	0.383925	0.488179	0.151048
0	C	0.530752	0.904213	0.149581
0	C	0.11589	0.63563	0.150714
0	C	0.636814	0.528777	0.857298
0	C	0.490024	0.112839	0.858312
0	C	0.904948	0.381319	0.857676
0	C	0.0532119	0.825339	0.485013
0	C	0.192734	0.233439	0.485182
0	C	0.78428	0.966909	0.485113
0	C	0.247869	0.990661	0.168238
0	C	0.0290155	0.26489	0.17095
0	C	0.755545	0.771941	0.165767
0	C	0.77281	0.0256921	0.839081
0	C	0.993891	0.753249	0.840082
0	C	0.263564	0.244828	0.84017
0	C	0.915791	0.321014	0.502002
0	C	0.697131	0.601194	0.501886
0	C	0.418259	0.101795	0.501642
0	C	0.435268	0.35852	0.17205
0	C	0.661523	0.0862948	0.171341
0	C	0.933702	0.581634	0.172054
0	C	0.585443	0.658383	0.836142
0	C	0.359357	0.930701	0.836683
0	C	0.0871606	0.435408	0.836454
0	C	0.105187	0.696156	0.506457
0	C	0.323272	0.415896	0.505912
0	C	0.602599	0.915282	0.506528
0	C	0.179685	0.963553	0.173987
0	C	0.0560174	0.223993	0.176085
0	C	0.797262	0.84018	0.171541
0	C	0.841019	0.0527314	0.833706
0	C	0.966923	0.794137	0.834422
0	C	0.221814	0.176534	0.834952
0	C	0.847658	0.294411	0.507381
0	C	0.723491	0.559746	0.507239
0	C	0.460913	0.169923	0.506838
0	C	0.50347	0.385412	0.166929
0	C	0.635292	0.127885	0.166588
0	C	0.892394	0.513272	0.166949
0	C	0.517255	0.631501	0.841397
0	C	0.385569	0.889091	0.841391
0	C	0.128593	0.503744	0.841616
0	C	0.173348	0.722791	0.501339
0	C	0.296995	0.457409	0.500503
0	C	0.560081	0.847133	0.501292
0	C	0.150809	0.999965	0.154509
0	C	0.019614	0.15848	0.15587
0	C	0.8631	0.869175	0.152787
0	C	0.869721	0.016235	0.853447
0	C	0.00353935	0.85989	0.853836
0	C	0.15618	0.147606	0.854397
0	C	0.819461	0.33146	0.487921
0	C	0.68621	0.494007	0.487966
0	C	0.526438	0.19778	0.487306
0	C	0.531855	0.348567	0.186456
0	C	0.672493	0.193315	0.186857
0	C	0.826837	0.48392	0.186751
0	C	0.488813	0.668286	0.821852
0	C	0.348324	0.823653	0.821173
0	C	0.1941	0.532988	0.82165
0	C	0.201501	0.685764	0.521021
0	C	0.334357	0.52316	0.519724
0	C	0.494487	0.819139	0.520619
0	C	0.189529	0.0632523	0.128701
0	C	0.95649	0.13352	0.129875
0	C	0.88756	0.830492	0.127804
0	C	0.830805	0.952926	0.879128
0	C	0.0668505	0.885088	0.879413
0	C	0.131927	0.186401	0.879577
0	C	0.858772	0.39481	0.462504
0	C	0.622799	0.469354	0.462853
0	C	0.549638	0.15813	0.462016
0	C	0.492622	0.285097	0.211611
0	C	0.735682	0.217488	0.212374
0	C	0.802257	0.522346	0.212167
0	C	0.527981	0.731688	0.796509
0	C	0.285109	0.799493	0.795741
0	C	0.218491	0.494466	0.796055
0	C	0.162125	0.62241	0.546399
0	C	0.397762	0.547756	0.544843
0	C	0.471067	0.858658	0.545759
0	C	0.25743	0.0903014	0.122691
0	C	0.929588	0.174216	0.124333
0	C	0.846104	0.762521	0.121876
0	C	0.76289	0.925954	0.884764
0	C	0.0937835	0.84444	0.885203
0	C	0.1734	0.254414	0.884978
0	C	0.926607	0.421293	0.456681
0	C	0.596502	0.510568	0.457149
0	C	0.507155	0.0902988	0.456375
0	C	0.424702	0.258243	0.216941
0	C	0.76192	0.176158	0.217214
0	C	0.843313	0.590428	0.217461
0	C	0.595894	0.758543	0.791039
0	C	0.258878	0.840832	0.790949
0	C	0.177319	0.426401	0.790752
0	C	0.0942625	0.595885	0.551924
0	C	0.423947	0.506451	0.550646
0	C	0.513421	0.926506	0.551468
0	C	0.286672	0.0543227	0.142199
0	C	0.965561	0.23966	0.144589
0	C	0.780327	0.733174	0.140629
0	C	0.733812	0.962018	0.86502
0	C	0.0576014	0.77875	0.865823
0	C	0.238981	0.283699	0.865494
0	C	0.955177	0.384685	0.476202
0	C	0.633359	0.576249	0.47649
0	C	0.441687	0.0620624	0.475938
0	C	0.395936	0.294654	0.197385
0	C	0.725139	0.110771	0.196962
0	C	0.908824	0.620167	0.197613
0	C	0.624707	0.722184	0.810629
0	C	0.29571	0.90623	0.811161
0	C	0.111854	0.396778	0.81072
0	C	0.0657292	0.632464	0.532186
0	C	0.387015	0.440762	0.531364
0	C	0.578954	0.954886	0.532085
0	C	0.374905	0.036975	0.25818
0	C	0.981671	0.344931	0.259955
0	C	0.673672	0.645897	0.256497
0	C	0.645523	0.979481	0.749428
0	C	0.0393755	0.672692	0.749707
0	C	0.34619	0.371612	0.75009
0	C	0.0414412	0.366499	0.592924
0	C	0.652694	0.682346	0.592069
0	C	0.336629	0.976532	0.592946
0	C	0.308541	0.313085	0.0822688
0	C	0.706198	0.00481312	0.0814535
0	C	0.0150507	0.708786	0.0821405
0	C	0.712308	0.704002	0.925738
0	C	0.314659	0.0121118	0.926584
0	C	0.00590004	0.308348	0.926434
0	C	0.979512	0.650639	0.415512
0	C	0.367571	0.334653	0.415718
0	C	0.684201	0.0405413	0.415214
0	C	0.345095	0.065644	0.294795
0	C	0.952734	0.286074	0.296578
0	C	0.732362	0.676197	0.293327
0	C	0.675074	0.950594	0.712732
0	C	0.0679163	0.731488	0.713022
0	C	0.287566	0.341887	0.713152
0	C	0.0110996	0.394728	0.62939
0	C	0.623706	0.623728	0.629065
0	C	0.395493	0.00695844	0.629521
0	C	0.337724	0.284061	0.0452018
0	C	0.73592	0.0633808	0.0443497
0	C	0.956565	0.678972	0.0449812
0	C	0.683179	0.7333	0.962446
0	C	0.285245	0.953771	0.964058
0	C	0.0643389	0.338324	0.963681
0	C	0.0097683	0.622373	0.378964
0	C	0.396712	0.393328	0.378816
0	C	0.625325	0.0100479	0.378677
0	C	0.383753	0.123783	0.329983
0	C	0.894403	0.265909	0.331326
0	C	0.751825	0.637936	0.328563
0	C	0.63619	0.892408	0.677718
0	C	0.125898	0.751613	0.677613
0	C	0.268509	0.380668	0.678293
0	C	0.0492946	0.453328	0.664026
0	C	0.565362	0.603846	0.66371
0	C	0.415445	0.96883	0.664253
0	C	0.298506	0.225636	0.0106616
0	C	0.794266	0.0826177	0.00996221
0	C	0.937241	0.717649	0.0103186
0	C	0.72246	0.791898	0.996696
0	C	0.227015	0.934602	0.998633
0	C	0.0837716	0.299788	0.998448
0	C	0.971496	0.563766	0.344379
0	C	0.455099	0.413169	0.344264
0	C	0.605325	0.0481021	0.343876
0	H	0.403572	0.939787	0.210478
0	H	0.0793176	0.471923	0.212738
0	H	0.547228	0.616279	0.208547
0	H	0.617455	0.0770616	0.797135
0	H	0.942295	0.545855	0.798255
0	H	0.472262	0.399925	0.797832
0	H	0.0702816	0.268896	0.54573
0	H	0.751092	0.809172	0.544675
0	H	0.209923	0.947851	0.545488
0	H	0.281196	0.411358	0.129603
0	H	0.606767	0.878186	0.127459
0	H	0.141651	0.737959	0.128806
0	H	0.739579	0.605593	0.87888
0	H	0.413881	0.138708	0.88037
0	H	0.879313	0.278993	0.879379
0	H	0.950809	0.748331	0.462573
0	H	0.269009	0.207823	0.462911
0	H	0.810946	0.0693838	0.462821
0	H	0.275139	0.816783	0.219603
0	H	0.202494	0.469036	0.223676
0	H	0.555152	0.745547	0.216993
0	H	0.745854	0.199905	0.787594
0	H	0.819654	0.550754	0.788736
0	H	0.46401	0.270706	0.788504
0	H	0.941363	0.146301	0.554242
0	H	0.872865	0.802654	0.553904
0	H	0.218089	0.0769882	0.55426
0	H	0.410572	0.533504	0.119642
0	H	0.485388	0.884979	0.118277
0	H	0.135042	0.609665	0.119396
0	H	0.610157	0.483472	0.888727
0	H	0.535424	0.132222	0.889584
0	H	0.885623	0.407132	0.888999
0	H	0.0797546	0.870907	0.45391
0	H	0.147349	0.21451	0.453927
0	H	0.802731	0.940192	0.453954
0	H	0.149354	0.91376	0.193073
0	H	0.105773	0.243833	0.195275
0	H	0.777943	0.870437	0.190124
0	H	0.871487	0.102536	0.814696
0	H	0.917133	0.77421	0.81548
0	H	0.241002	0.146172	0.816299
0	H	0.816858	0.244606	0.526185
0	H	0.773289	0.579232	0.525899
0	H	0.44257	0.200981	0.525544
0	H	0.534134	0.435298	0.148303
0	H	0.585615	0.108714	0.147697
0	H	0.91188	0.483257	0.148105
0	H	0.486637	0.581655	0.860128
0	H	0.435266	0.908262	0.860237
0	H	0.109216	0.533815	0.860587
0	H	0.204198	0.772595	0.482551
0	H	0.247198	0.437974	0.481842
0	H	0.578559	0.816159	0.482689
0	H	0.0980314	0.978939	0.159569
0	H	0.0405106	0.126833	0.160555
0	H	0.895336	0.922014	0.157762
0	H	0.922514	0.0372021	0.848654
0	H	0.982644	0.891513	0.848891
0	H	0.123935	0.0947295	0.849808
0	H	0.766722	0.310856	0.4927
0	H	0.706683	0.461982	0.492665
0	H	0.559459	0.250509	0.491939
0	H	0.584645	0.369419	0.1819
0	H	0.652156	0.225489	0.18262
0	H	0.794916	0.431012	0.182213
0	H	0.436038	0.647448	0.826535
0	H	0.368631	0.791452	0.825395
0	H	0.226115	0.585884	0.82618
0	H	0.254258	0.706374	0.516412
0	H	0.313932	0.555224	0.51499
0	H	0.461575	0.766395	0.515943
0	H	0.167146	0.0916082	0.113094
0	H	0.928117	0.0825833	0.113781
0	H	0.938711	0.852985	0.112736
0	H	0.853042	0.92448	0.894906
0	H	0.0953526	0.936187	0.89499
0	H	0.0809209	0.163962	0.895142
0	H	0.836863	0.423614	0.446983
0	H	0.593786	0.418248	0.447521
0	H	0.600572	0.179744	0.446453
0	H	0.514646	0.256418	0.2272
0	H	0.764645	0.268372	0.228566
0	H	0.751297	0.49955	0.227953
0	H	0.505906	0.760314	0.7809
0	H	0.256109	0.748604	0.779587
0	H	0.269402	0.517181	0.780108
0	H	0.183991	0.593604	0.562066
0	H	0.42684	0.598869	0.560137
0	H	0.420079	0.836936	0.561161
0	H	0.287693	0.139625	0.10244
0	H	0.880378	0.154876	0.103914
0	H	0.865092	0.732264	0.102255
0	H	0.732461	0.876598	0.904885
0	H	0.143206	0.864019	0.905154
0	H	0.154557	0.284751	0.904717
0	H	0.957326	0.470619	0.436556
0	H	0.547119	0.491447	0.437272
0	H	0.525104	0.0593083	0.436388
0	H	0.394034	0.208735	0.23665
0	H	0.811274	0.194977	0.237087
0	H	0.824196	0.620463	0.237355
0	H	0.626512	0.808001	0.771193
0	H	0.2095	0.822024	0.771162
0	H	0.196286	0.396291	0.770716
0	H	0.0634825	0.546523	0.571946
0	H	0.473306	0.525515	0.570572
0	H	0.495305	0.957395	0.571351
0	H	0.339552	0.0753028	0.136792
0	H	0.944706	0.271444	0.13952
0	H	0.747976	0.680238	0.135369
0	H	0.680919	0.941099	0.870171
0	H	0.0784663	0.746991	0.87111
0	H	0.271346	0.336667	0.870373
0	H	0.00801089	0.405202	0.471051
0	H	0.612921	0.608403	0.471523
0	H	0.408481	0.00920972	0.470925
0	H	0.343033	0.273838	0.202178
0	H	0.74548	0.0784862	0.201455
0	H	0.940887	0.673198	0.20236
0	H	0.677604	0.743012	0.805748
0	H	0.275359	0.938511	0.80671
0	H	0.0796853	0.343766	0.805924
0	H	0.0128801	0.611927	0.537118
0	H	0.407355	0.408528	0.536411
0	H	0.612052	0.00775607	0.53714
0	H	0.291686	0.0420913	0.296198
0	H	0.97625	0.256466	0.298326
0	H	0.762389	0.729649	0.294802
0	H	0.728472	0.974038	0.711144
0	H	0.0443899	0.761095	0.711766
0	H	0.257286	0.288464	0.711285
0	H	0.957651	0.370488	0.631043
0	H	0.647143	0.594078	0.631118
0	H	0.42532	0.0604649	0.631167
0	H	0.391089	0.307534	0.0430173
0	H	0.713004	0.0934898	0.0419616
0	H	0.926574	0.625548	0.0427636
0	H	0.629824	0.709912	0.964594
0	H	0.308281	0.923778	0.96656
0	H	0.0942085	0.39176	0.965869
0	H	0.0632164	0.6466	0.377212
0	H	0.373343	0.423042	0.376758
0	H	0.595513	0.956537	0.377109
0	H	0.360588	0.145133	0.359907
0	H	0.872837	0.221096	0.361238
0	H	0.796572	0.661459	0.358553
0	H	0.659156	0.870896	0.647719
0	H	0.147202	0.796404	0.647689
0	H	0.223828	0.357581	0.648187
0	H	0.0257268	0.474406	0.69371
0	H	0.543691	0.559153	0.693797
0	H	0.460329	0.992463	0.693976
0	H	0.321184	0.203973	0.980402
0	H	0.816396	0.12717	0.979647
0	H	0.892701	0.694487	0.979966
0	H	0.69979	0.813748	0.0267307
0	H	0.20507	0.890193	0.0291959
0	H	0.128314	0.323065	0.0286888
0	H	0.994979	0.542652	0.314609
0	H	0.476878	0.457893	0.31422
0	H	0.560426	0.0244114	0.314184
0	H	0.482182	0.199291	0.356069
0	H	0.818786	0.287949	0.356679
0	H	0.728556	0.53976	0.354642
0	H	0.537606	0.817038	0.651974
0	H	0.201344	0.729622	0.651292
0	H	0.292474	0.479224	0.653011
0	H	0.147408	0.529939	0.689551
0	H	0.490136	0.626493	0.688906
0	H	0.392816	0.870739	0.689955
0	H	0.199689	0.150079	0.986009
0	H	0.869105	0.0591379	0.985742
0	H	0.960469	0.816121	0.985574
0	H	0.821303	0.867505	0.0211698
0	H	0.152073	0.95793	0.0228742
0	H	0.0607858	0.201408	0.0233009
0	H	0.873328	0.487216	0.31896
0	H	0.530271	0.390401	0.319215
0	H	0.627906	0.146152	0.318037
0	H	0.535373	0.14988	0.289485
0	H	0.868611	0.391172	0.289958
0	H	0.625535	0.485693	0.287688
0	H	0.484853	0.866855	0.718631
0	H	0.152038	0.626326	0.717818
0	H	0.395363	0.532265	0.720183
0	H	0.201496	0.481167	0.623374
0	H	0.540151	0.729396	0.621637
0	H	0.289375	0.816437	0.623598
0	H	0.147534	0.200088	0.0534438
0	H	0.817837	0.956337	0.0533039
0	H	0.0631879	0.86939	0.0531878
0	H	0.873359	0.816926	0.954443
0	H	0.202748	0.0602654	0.95454
0	H	0.958172	0.14788	0.955536
0	H	0.819389	0.536033	0.3853
0	H	0.479952	0.287364	0.386245
0	H	0.731386	0.200583	0.384309
0	C	0.452216	0.154329	0.32788
0	C	0.863913	0.303507	0.328773
0	C	0.71361	0.569404	0.326371
0	C	0.56775	0.862041	0.680042
0	C	0.156413	0.714023	0.679576
0	C	0.307082	0.449155	0.681
0	C	0.117807	0.484683	0.661684
0	C	0.535077	0.641629	0.660914
0	C	0.37753	0.900279	0.661971
0	C	0.23009	0.195197	0.0138035
0	C	0.824	0.0443585	0.0133648
0	C	0.975336	0.786153	0.0134322
0	C	0.790872	0.822244	0.993606
0	C	0.197083	0.972674	0.99508
0	C	0.0458223	0.231268	0.995381
0	C	0.902993	0.532462	0.34683
0	C	0.48527	0.375283	0.347085
0	C	0.643221	0.116656	0.34606
0	C	0.482092	0.126492	0.290791
0	C	0.891969	0.361534	0.291602
0	C	0.655662	0.539039	0.289111
0	C	0.538121	0.890105	0.717171
0	C	0.128664	0.655959	0.716674
0	C	0.364972	0.478953	0.718387
0	C	0.148174	0.457189	0.624855
0	C	0.563234	0.699485	0.623472
0	C	0.319402	0.86981	0.625024
0	C	0.200814	0.223365	0.0513473
0	C	0.795167	0.986591	0.0509912
0	C	0.0330314	0.816045	0.0511009
0	C	0.820087	0.79378	0.95644
0	C	0.225565	0.0301564	0.957022
0	C	0.988192	0.201238	0.957627
0	C	0.872704	0.559982	0.383748
0	C	0.456938	0.317338	0.384395
0	C	0.701385	0.147207	0.382964
0	C	0.443726	0.0677177	0.256506
0	C	0.950941	0.38264	0.257736
0	C	0.635305	0.577017	0.254752
0	C	0.576726	0.948924	0.751316
0	C	0.0700239	0.634882	0.751162
0	C	0.384925	0.440448	0.75236
0	C	0.110283	0.398017	0.591048
0	C	0.622057	0.720114	0.589528
0	C	0.298656	0.907663	0.591022
0	C	0.239768	0.28236	0.0850746
0	C	0.736216	0.966484	0.0844999
0	C	0.0531937	0.777643	0.0849435
0	C	0.781078	0.734602	0.923044
0	C	0.28438	0.0501803	0.923272
0	C	0.96792	0.239485	0.92365
0	C	0.910676	0.619148	0.417547
0	C	0.398058	0.296745	0.418208
0	C	0.722174	0.109418	0.417019
0	C	0.352156	0.902407	0.303582
0	C	0.115905	0.458687	0.306475
0	C	0.561758	0.668315	0.301194
0	C	0.668604	0.114225	0.703867
0	C	0.904834	0.558969	0.705043
0	C	0.457619	0.348307	0.704853
0	C	0.0180551	0.231307	0.638405
0	C	0.788306	0.794969	0.637581
0	C	0.22486	0.999872	0.638237
0	C	0.332515	0.44836	0.0363375
0	C	0.570374	0.893477	0.0346887
0	C	0.126778	0.68633	0.0358518
0	C	0.688215	0.568616	0.971971
0	C	0.450391	0.123542	0.973208
0	C	0.893885	0.330397	0.97246
0	C	0.00286692	0.785816	0.369834
0	C	0.231841	0.222292	0.370085
0	C	0.79605	0.0174395	0.370031
0	C	0.298622	0.888432	0.344762
0	C	0.129736	0.419553	0.348231
0	C	0.601639	0.722308	0.342035
0	C	0.722079	0.128257	0.662568
0	C	0.89104	0.598261	0.663488
0	C	0.417854	0.294394	0.663882
0	C	0.964098	0.217059	0.679049
0	C	0.802471	0.755535	0.678502
0	C	0.26517	0.0536765	0.679109
0	C	0.386038	0.462405	0.995091
0	C	0.556299	0.933198	0.994113
0	C	0.0870217	0.632309	0.994991
0	C	0.634473	0.554049	0.0130827
0	C	0.464547	0.0838427	0.0137374
0	C	0.933658	0.384257	0.0135114
0	C	0.0567599	0.800093	0.32908
0	C	0.217947	0.261977	0.329241
0	C	0.755729	0.963678	0.329129
0	C	0.299909	0.874248	0.411993
0	C	0.143857	0.435754	0.415364
0	C	0.585964	0.721433	0.409152
0	C	0.720674	0.142499	0.595379
0	C	0.876651	0.582145	0.596367
0	C	0.433741	0.295382	0.596815
0	C	0.964449	0.20187	0.746119
0	C	0.817733	0.771599	0.745515
0	C	0.249292	0.0531989	0.746099
0	C	0.385018	0.477369	0.928052
0	C	0.541498	0.917794	0.92692
0	C	0.102521	0.633426	0.927783
0	C	0.635479	0.538952	0.0800847
0	C	0.47927	0.0991584	0.0809553
0	C	0.918002	0.383014	0.0806835
0	C	0.0562435	0.815195	0.262012
0	C	0.202668	0.246077	0.262211
0	C	0.771571	0.964225	0.262114
0	C	0.354425	0.87375	0.438408
0	C	0.144331	0.491015	0.441112
0	C	0.530405	0.666892	0.435755
0	C	0.666106	0.143008	0.569136
0	C	0.875715	0.526714	0.570446
0	C	0.4894	0.349957	0.570406
0	C	0.0184804	0.200719	0.772943
0	C	0.819039	0.827026	0.771965
0	C	0.193132	0.99924	0.772571
0	C	0.330726	0.478475	0.901901
0	C	0.540371	0.862594	0.900047
0	C	0.157812	0.688232	0.901169
0	C	0.689954	0.538236	0.106295
0	C	0.48017	0.15421	0.10794
0	C	0.862568	0.328213	0.1071
0	C	0.00212675	0.816249	0.235292
0	C	0.201037	0.190525	0.235662
0	C	0.827717	0.0181922	0.235632
0	C	0.407468	0.886908	0.397315
0	C	0.13121	0.530422	0.39946
0	C	0.490192	0.613389	0.395
0	C	0.613124	0.1298	0.610341
0	C	0.888655	0.487058	0.611922
0	C	0.529513	0.403376	0.611309
0	C	0.0719618	0.214256	0.73239
0	C	0.805583	0.866731	0.731158
0	C	0.152556	0.94591	0.73179
0	C	0.277645	0.465138	0.943011
0	C	0.553734	0.822613	0.940534
0	C	0.197893	0.741768	0.941955
0	C	0.743272	0.552137	0.0652921
0	C	0.466713	0.194154	0.0675135
0	C	0.822509	0.274826	0.0661511
0	C	0.94871	0.802704	0.275948
0	C	0.214169	0.150536	0.276385
0	C	0.868328	0.0714709	0.276464
0	C	0.406476	0.901225	0.330031
0	C	0.116988	0.514406	0.33226
0	C	0.505769	0.61394	0.327858
0	C	0.61423	0.115414	0.677586
0	C	0.90326	0.503066	0.679081
0	C	0.513736	0.402703	0.678401
0	C	0.0719289	0.229584	0.665266
0	C	0.790162	0.850803	0.664116
0	C	0.16831	0.946043	0.664782
0	C	0.278395	0.450069	0.0101045
0	C	0.568808	0.837937	0.00773243
0	C	0.182494	0.740991	0.00917334
0	C	0.742571	0.567379	0.998255
0	C	0.451795	0.178963	0.000268991
0	C	0.838033	0.275751	0.998944
0	C	0.948906	0.787448	0.343074
0	C	0.22962	0.16632	0.343452
0	C	0.852591	0.0712871	0.343483
0	C	0.330409	0.84986	0.127707
0	C	0.169253	0.488533	0.130631
0	C	0.529656	0.688654	0.126007
0	C	0.691039	0.166781	0.879733
0	C	0.851982	0.52771	0.8804
0	C	0.488436	0.326529	0.880117
0	C	0.996948	0.178891	0.462476
0	C	0.841369	0.826395	0.462138
0	C	0.19409	0.0212902	0.462571
0	C	0.354982	0.501731	0.211462
0	C	0.517163	0.86188	0.210275
0	C	0.158307	0.664963	0.211334
0	C	0.665751	0.515179	0.79692
0	C	0.503499	0.154991	0.797493
0	C	0.862682	0.352058	0.796953
0	C	0.0241118	0.838336	0.545663
0	C	0.178918	0.190708	0.545604
0	C	0.826953	0.995971	0.545628
0	C	0.369421	0.901107	0.0835148
0	C	0.117856	0.475287	0.0865276
0	C	0.540496	0.649332	0.0813575
0	C	0.652223	0.115532	0.923999
0	C	0.902875	0.539837	0.924766
0	C	0.477347	0.365615	0.924852
0	C	0.0354378	0.229689	0.417644
0	C	0.790894	0.814817	0.417459
0	C	0.206161	0.98322	0.417355
0	C	0.315656	0.451106	0.256123
0	C	0.567923	0.87382	0.254732
0	C	0.146693	0.704016	0.255606
0	C	0.705084	0.565784	0.752239
0	C	0.452647	0.143051	0.753176
0	C	0.874451	0.31314	0.752644
0	C	0.985724	0.78755	0.590548
0	C	0.229401	0.202301	0.590289
0	C	0.815002	0.0341272	0.59084
0	C	0.396847	0.888983	0.0276946
0	C	0.129743	0.514459	0.0302977
0	C	0.499671	0.621821	0.0261786
0	C	0.624701	0.127566	0.979802
0	C	0.890213	0.49951	0.980175
0	C	0.517947	0.392959	0.980228
0	C	0.0619845	0.216885	0.361539
0	C	0.804349	0.855054	0.361828
0	C	0.166248	0.956484	0.361437
0	C	0.288467	0.464214	0.311493
0	C	0.554877	0.833905	0.310542
0	C	0.186667	0.731368	0.311372
0	C	0.732195	0.552624	0.696844
0	C	0.465605	0.182799	0.697239
0	C	0.834549	0.285775	0.696841
0	C	0.958953	0.80028	0.646521
0	C	0.215981	0.161973	0.645838
0	C	0.854954	0.0608131	0.646748
0	C	0.385525	0.825766	0.0153002
0	C	0.19291	0.566887	0.0173129
0	C	0.447804	0.633222	0.0149946
0	C	0.635816	0.190711	0.992176
0	C	0.826816	0.446967	0.991991
0	C	0.569716	0.381461	0.991627
0	C	0.0506754	0.153573	0.349707
0	C	0.868047	0.907144	0.350225
0	C	0.113824	0.967031	0.350259
0	C	0.300257	0.527747	0.322918
0	C	0.49124	0.781955	0.322674
0	C	0.238441	0.720062	0.323563
0	C	0.720304	0.489055	0.685425
0	C	0.529255	0.234616	0.684869
0	C	0.782668	0.296916	0.684649
0	C	0.970011	0.863518	0.658225
0	C	0.152314	0.109802	0.657386
0	C	0.907282	0.0501149	0.657916
0	C	0.345759	0.774478	0.0585132
0	C	0.244386	0.579304	0.0603575
0	C	0.437586	0.673159	0.0587684
0	C	0.675464	0.242022	0.948931
0	C	0.775895	0.43558	0.948619
0	C	0.580076	0.341622	0.947845
0	C	0.0116528	0.102796	0.393709
0	C	0.91853	0.918101	0.394009
0	C	0.102271	0.00558364	0.394695
0	C	0.340289	0.578386	0.279196
0	C	0.440474	0.770701	0.279155
0	C	0.2494	0.680363	0.280185
0	C	0.680274	0.43844	0.729167
0	C	0.580117	0.245899	0.728278
0	C	0.771535	0.336472	0.728059
0	C	0.00896117	0.914288	0.61418
0	C	0.101826	0.0988579	0.61363
0	C	0.918698	0.0114671	0.613479
0	C	0.318161	0.786308	0.11451
0	C	0.232769	0.540335	0.116804
0	C	0.478339	0.700925	0.114094
0	C	0.703066	0.230263	0.892899
0	C	0.788256	0.475742	0.892998
0	C	0.539653	0.314155	0.89226
0	C	0.984657	0.115237	0.449802
0	C	0.905416	0.877831	0.449664
0	C	0.142372	0.0329366	0.450523
0	C	0.3677	0.5656	0.223674
0	C	0.453216	0.810462	0.223131
0	C	0.209486	0.65273	0.224299
0	C	0.652957	0.451283	0.784733
0	C	0.567467	0.206264	0.784386
0	C	0.811402	0.364139	0.783978
0	C	0.0361038	0.901911	0.55817
0	C	0.114907	0.139185	0.558026
0	C	0.878577	0.984178	0.557662
0	H	0.4675	0.0454575	0.228862
0	H	0.973388	0.42898	0.230111
0	H	0.589043	0.552885	0.227056
0	H	0.553138	0.971348	0.779007
0	H	0.0477838	0.588515	0.778727
0	H	0.431148	0.464124	0.780146
0	H	0.134458	0.376047	0.563634
0	H	0.644482	0.766167	0.561467
0	H	0.252372	0.883357	0.563366
0	H	0.216488	0.304809	0.113253
0	H	0.713199	0.920378	0.112519
0	H	0.0991858	0.801472	0.113135
0	H	0.804339	0.711873	0.895334
0	H	0.307051	0.0959865	0.894762
0	H	0.922005	0.21554	0.895328
0	H	0.886557	0.641144	0.445017
0	H	0.375495	0.250629	0.446166
0	H	0.768492	0.133777	0.444631
0	H	0.256358	0.889271	0.324426
0	H	0.128827	0.376207	0.328424
0	H	0.645157	0.764574	0.321533
0	H	0.764386	0.12742	0.682788
0	H	0.892228	0.641694	0.683441
0	H	0.374265	0.252086	0.684221
0	H	0.922209	0.218379	0.658362
0	H	0.801011	0.712122	0.658128
0	H	0.309141	0.0955164	0.658695
0	H	0.428131	0.461086	0.0152332
0	H	0.557473	0.976358	0.0148806
0	H	0.0437298	0.589786	0.0155273
0	H	0.592254	0.555093	0.992901
0	H	0.463474	0.0407506	0.992916
0	H	0.977063	0.42677	0.993118
0	H	0.0987212	0.79885	0.349683
0	H	0.2196	0.305457	0.3497
0	H	0.711768	0.921814	0.349526
0	H	0.258468	0.86381	0.44411
0	H	0.154215	0.405096	0.447913
0	H	0.61726	0.763169	0.44104
0	H	0.762063	0.152987	0.563156
0	H	0.866456	0.612995	0.563968
0	H	0.402542	0.253691	0.564817
0	H	0.922564	0.19094	0.77783
0	H	0.828489	0.740804	0.777432
0	H	0.280847	0.0948587	0.777991
0	H	0.426475	0.487941	0.895897
0	H	0.531098	0.948995	0.895206
0	H	0.0712835	0.591679	0.895868
0	H	0.593861	0.527988	0.112162
0	H	0.489737	0.0679711	0.112619
0	H	0.949219	0.424655	0.112728
0	H	0.0980687	0.826157	0.230206
0	H	0.191968	0.27703	0.230334
0	H	0.74001	0.922605	0.230233
0	H	0.355789	0.863698	0.4911
0	H	0.15435	0.503	0.493738
0	H	0.518831	0.665848	0.488354
0	H	0.664651	0.153101	0.516471
0	H	0.865497	0.514793	0.517839
0	H	0.501138	0.351095	0.517841
0	H	0.0191251	0.189878	0.825546
0	H	0.829918	0.838888	0.824499
0	H	0.18138	0.998479	0.825118
0	H	0.329548	0.489143	0.849348
0	H	0.529681	0.851091	0.847402
0	H	0.16933	0.689456	0.848494
0	H	0.691094	0.52744	0.158813
0	H	0.490764	0.165626	0.160615
0	H	0.85093	0.326894	0.159755
0	H	0.00135481	0.826995	0.182679
0	H	0.190145	0.178778	0.183117
0	H	0.839425	0.0189974	0.183069
0	H	0.449976	0.886387	0.417895
0	H	0.131745	0.573666	0.41953
0	H	0.44671	0.57087	0.415703
0	H	0.570578	0.130335	0.589891
0	H	0.887726	0.443666	0.591733
0	H	0.573076	0.445914	0.590746
0	H	0.114096	0.213218	0.753254
0	H	0.806757	0.910123	0.751735
0	H	0.108605	0.903809	0.752391
0	H	0.235305	0.466152	0.922616
0	H	0.552779	0.779455	0.919575
0	H	0.241183	0.7845	0.921194
0	H	0.785744	0.551409	0.0857413
0	H	0.467477	0.237193	0.0885526
0	H	0.779125	0.232082	0.0867578
0	H	0.906516	0.80367	0.255158
0	H	0.212722	0.10704	0.255741
0	H	0.912297	0.113574	0.255883
0	H	0.448154	0.911854	0.298112
0	H	0.106392	0.54508	0.299889
0	H	0.47458	0.571845	0.296202
0	H	0.572602	0.104756	0.709593
0	H	0.913825	0.472254	0.71129
0	H	0.544894	0.444693	0.710187
0	H	0.113997	0.240537	0.633806
0	H	0.779225	0.881668	0.63244
0	H	0.136722	0.90406	0.633182
0	H	0.236715	0.43942	0.0420113
0	H	0.579756	0.806866	0.0391541
0	H	0.213678	0.783094	0.0408501
0	H	0.784504	0.578667	0.966387
0	H	0.44092	0.210098	0.968925
0	H	0.806812	0.233784	0.967156
0	H	0.906877	0.776469	0.374614
0	H	0.240267	0.135203	0.375047
0	H	0.884193	0.113253	0.375112
0	H	0.378229	0.95046	0.0926562
0	H	0.0685329	0.434313	0.0960866
0	H	0.580968	0.640424	0.0896168
0	H	0.64357	0.066226	0.914895
0	H	0.952368	0.580867	0.91606
0	H	0.436901	0.374536	0.916477
0	H	0.0444479	0.279158	0.4265
0	H	0.741149	0.774231	0.426059
0	H	0.246837	0.974654	0.425815
0	H	0.306277	0.401459	0.247586
0	H	0.617565	0.914475	0.245822
0	H	0.106307	0.712891	0.246551
0	H	0.714349	0.615395	0.760684
0	H	0.402976	0.102523	0.762285
0	H	0.914889	0.304344	0.761729
0	H	0.97693	0.73814	0.581824
0	H	0.27913	0.242937	0.581719
0	H	0.774391	0.0427957	0.582402
0	H	0.427055	0.928769	0.993403
0	H	0.0897879	0.504201	0.996203
0	H	0.508235	0.591499	0.991429
0	H	0.594556	0.0877397	0.0140755
0	H	0.929713	0.508972	0.0145887
0	H	0.509274	0.423221	0.014956
0	H	0.0915593	0.25624	0.326584
0	H	0.765177	0.845939	0.327129
0	H	0.175864	0.927303	0.326176
0	H	0.258013	0.424917	0.346115
0	H	0.594296	0.843233	0.344991
0	H	0.177538	0.761569	0.345717
0	H	0.762616	0.591874	0.662161
0	H	0.426112	0.173449	0.662888
0	H	0.843788	0.255667	0.662476
0	H	0.929385	0.760903	0.681445
0	H	0.255159	0.171087	0.680538
0	H	0.845418	0.0900524	0.682012
0	H	0.40777	0.816849	0.972032
0	H	0.201653	0.59777	0.973756
0	H	0.415631	0.610872	0.972236
0	H	0.613497	0.199557	0.035421
0	H	0.817481	0.415177	0.0349132
0	H	0.601691	0.403627	0.034554
0	H	0.072468	0.144234	0.306321
0	H	0.877912	0.938933	0.307203
0	H	0.082159	0.944969	0.307098
0	H	0.278111	0.537391	0.365768
0	H	0.481635	0.75052	0.365941
0	H	0.269989	0.742357	0.366738
0	H	0.742355	0.479361	0.642524
0	H	0.538804	0.265902	0.641492
0	H	0.751175	0.274607	0.641447
0	H	0.948063	0.872814	0.701503
0	H	0.142483	0.07794	0.700342
0	H	0.93898	0.0721381	0.701068
0	H	0.335783	0.724895	0.0484413
0	H	0.293945	0.619291	0.0498343
0	H	0.397982	0.683163	0.0496592
0	H	0.685344	0.291574	0.95899
0	H	0.726186	0.395466	0.958257
0	H	0.619536	0.33147	0.957151
0	H	0.00177185	0.0530586	0.384251
0	H	0.968578	0.958108	0.384729
0	H	0.061895	0.0145998	0.385805
0	H	0.35059	0.628209	0.288451
0	H	0.390574	0.730982	0.28898
0	H	0.289034	0.670567	0.290027
0	H	0.669868	0.388589	0.71988
0	H	0.630017	0.285526	0.718281
0	H	0.731809	0.34613	0.718232
0	H	0.0186299	0.963974	0.623533
0	H	0.051789	0.0587951	0.622872
0	H	0.959009	0.00233755	0.622368
0	H	0.286715	0.74584	0.147654
0	H	0.273355	0.550115	0.149884
0	H	0.470366	0.732524	0.147697
0	H	0.734343	0.270727	0.859675
0	H	0.748092	0.466795	0.859683
0	H	0.547813	0.282726	0.858594
0	H	0.953659	0.0751385	0.483515
0	H	0.94526	0.886324	0.483204
0	H	0.13347	0.063595	0.484559
0	H	0.399293	0.605516	0.190052
0	H	0.413162	0.801597	0.189715
0	H	0.218043	0.621318	0.191032
0	H	0.621356	0.411384	0.818368
0	H	0.607596	0.215136	0.817704
0	H	0.8027	0.39544	0.817266
0	H	0.0669896	0.941989	0.524389
0	H	0.0750561	0.130665	0.524495
0	H	0.887364	0.953442	0.523629
