#******************************************
#
# CIF file created by Zeo++
# Zeo++ is an open source package to
# analyze microporous materials
#
#*******************************************

_cell_length_a		21.2939(0)
_cell_length_b		34.8136(0)
_cell_length_c		14.1417(0)
_cell_angle_alpha		90(0)
_cell_angle_beta		102.419(0)
_cell_angle_gamma		90(0)

_symmetry_space_group_name_H-M		'P1'
_symmetry_Int_Tables_number		1
_symmetry_cell_setting		Monoclinic

loop_
_symmetry_equiv_pos_as_xyz
'+x,+y,+z'

loop_
_atom_site_label
_atom_site_type_symbol
_atom_site_fract_x
_atom_site_fract_y
_atom_site_fract_z
0	C	0.242622	0.576556	0.4491
0	C	0.729244	0.597347	0.546452
0	C	0.757069	0.111107	0.423471
0	C	0.244421	0.058258	0.52163
0	C	0.21307	0.611667	0.419066
0	C	0.753346	0.63443	0.570977
0	C	0.733104	0.148617	0.41043
0	C	0.267479	0.0946105	0.555372
0	H	0.162393	0.612854	0.380943
0	H	0.804848	0.638713	0.601208
0	H	0.681515	0.153686	0.384141
0	H	0.314783	0.0978526	0.604224
0	C	0.248613	0.645725	0.436062
0	C	0.711375	0.665751	0.558628
0	C	0.775737	0.179558	0.43047
0	C	0.229476	0.127183	0.528332
0	H	0.225312	0.673028	0.412374
0	H	0.73016	0.694626	0.57878
0	H	0.75722	0.208982	0.419616
0	H	0.247602	0.155263	0.555317
0	C	0.313626	0.644691	0.481901
0	C	0.645553	0.66037	0.522218
0	C	0.841668	0.173293	0.462672
0	C	0.168472	0.123655	0.467952
0	H	0.341486	0.671162	0.494275
0	H	0.6128	0.684826	0.512792
0	H	0.874707	0.197537	0.478142
0	H	0.138436	0.148965	0.448251
0	C	0.343243	0.609502	0.511507
0	C	0.621526	0.62345	0.497949
0	C	0.865483	0.135745	0.475141
0	C	0.145694	0.0874889	0.433474
0	H	0.393986	0.608709	0.546867
0	H	0.570234	0.619256	0.469669
0	H	0.916951	0.130895	0.500014
0	H	0.0983629	0.0847264	0.385867
0	C	0.307879	0.575468	0.495498
0	C	0.663203	0.591987	0.509901
0	C	0.823257	0.104669	0.455964
0	C	0.183492	0.0548263	0.460171
0	H	0.330839	0.547944	0.517579
0	H	0.644665	0.563073	0.491918
0	H	0.841162	0.075248	0.465731
0	H	0.165174	0.0265801	0.434664
0	C	0.20467	0.53998	0.4299
0	C	0.773805	0.563428	0.559455
0	C	0.711576	0.0775864	0.40515
0	C	0.283634	0.0230855	0.554584
0	H	0.20329	0.523652	0.496557
0	H	0.781245	0.551642	0.490061
0	H	0.699002	0.0670734	0.472676
0	H	0.286861	0.00290776	0.495504
0	H	0.15515	0.544473	0.38571
0	H	0.820981	0.569304	0.609647
0	H	0.667002	0.0836986	0.349308
0	H	0.332299	0.029875	0.59874
0	O	0.237693	0.512485	0.379435
0	O	0.743298	0.530619	0.596717
0	O	0.743109	0.0433753	0.376159
0	O	0.249781	0.999217	0.612242
0	C	0.234825	0.519766	0.28248
0	C	0.746425	0.531232	0.695305
0	C	0.741471	0.039784	0.278419
0	C	0.248681	0.0125875	0.704011
0	O	0.196503	0.542193	0.23418
0	O	0.785145	0.551027	0.751409
0	O	0.708383	0.0603224	0.216705
0	O	0.286057	0.0366376	0.74718
0	N	0.281528	0.498612	0.251755
0	N	0.700066	0.507884	0.71993
0	N	0.781829	0.0110187	0.260335
0	N	0.199311	0.994416	0.735497
0	H	0.30313	0.475332	0.29226
0	H	0.679871	0.485408	0.675612
0	H	0.799799	0.989951	0.310163
0	H	0.176881	0.970702	0.697391
0	C	0.286687	0.501354	0.149312
0	C	0.694034	0.507957	0.82238
0	C	0.793243	0.00778149	0.160983
0	C	0.193667	0.998729	0.837391
0	H	0.258553	0.527272	0.115468
0	H	0.721439	0.533507	0.860073
0	H	0.770733	0.03358	0.117686
0	H	0.222742	0.0245131	0.869459
0	C	0.359024	0.507211	0.142677
0	C	0.621384	0.512957	0.828283
0	C	0.867551	0.00845765	0.162908
0	C	0.12146	0.00601836	0.842744
0	C	0.361916	0.51018	0.0353833
0	C	0.617091	0.513289	0.935236
0	C	0.875846	0.00861968	0.0577035
0	C	0.117953	0.00989414	0.949614
0	H	0.353642	0.482501	0.997478
0	H	0.625668	0.484931	0.969733
0	H	0.862218	0.981209	0.0202791
0	H	0.125374	0.982454	0.988764
0	H	0.409182	0.520259	0.0270127
0	H	0.569244	0.522355	0.943457
0	H	0.926024	0.0139092	0.054139
0	H	0.0706998	0.0205161	0.956656
0	H	0.326442	0.530538	0.995314
0	H	0.651573	0.533243	0.979012
0	H	0.847091	0.0311397	0.0140869
0	H	0.153654	0.0302236	0.989294
0	C	0.382938	0.54508	0.19402
0	C	0.597835	0.551856	0.782317
0	C	0.896305	0.0455674	0.213438
0	C	0.0994063	0.0438352	0.789748
0	H	0.433726	0.549996	0.193752
0	H	0.546973	0.556489	0.782572
0	H	0.948011	0.0473195	0.215737
0	H	0.0482727	0.0490542	0.786776
0	H	0.37886	0.545019	0.270027
0	H	0.602447	0.553672	0.706697
0	H	0.890704	0.0471253	0.288574
0	H	0.105546	0.0433757	0.714701
0	H	0.355523	0.569998	0.158835
0	H	0.625155	0.576046	0.821537
0	H	0.873772	0.071217	0.176039
0	H	0.126454	0.0687212	0.825759
0	C	0.400428	0.473486	0.190323
0	C	0.580794	0.480027	0.774796
0	C	0.901017	0.973325	0.216753
0	C	0.0788666	0.97272	0.795362
0	H	0.381123	0.445778	0.160351
0	H	0.60071	0.451869	0.800451
0	H	0.879432	0.946347	0.184921
0	H	0.0965123	0.944907	0.826772
0	H	0.403357	0.472281	0.268743
0	H	0.578351	0.480985	0.69653
0	H	0.897865	0.973008	0.293231
0	H	0.0770346	0.970948	0.717229
0	H	0.44973	0.475721	0.179672
0	H	0.531317	0.481087	0.785072
0	H	0.952116	0.972649	0.214664
0	H	0.0293364	0.976112	0.804165
0	C	0.256983	0.464938	0.0959194
0	C	0.723871	0.470918	0.872187
0	C	0.761014	0.971001	0.112575
0	C	0.2215	0.962374	0.893173
0	O	0.254679	0.434171	0.137961
0	O	0.72631	0.440762	0.827785
0	O	0.755973	0.941333	0.157505
0	O	0.221763	0.930954	0.853281
0	N	0.231018	0.46861	0.998271
0	N	0.749976	0.47368	0.970115
0	N	0.737467	0.973257	0.0136869
0	N	0.248872	0.966866	0.990182
0	H	0.232704	0.494106	0.961334
0	H	0.747707	0.498682	0.00880566
0	H	0.740134	0.998225	0.975169
0	H	0.247562	0.992701	0.0258933
0	C	0.199889	0.435565	0.941585
0	C	0.776212	0.439478	0.0264458
0	C	0.708233	0.939433	0.958228
0	C	0.279812	0.933854	0.0474614
0	H	0.187132	0.413637	0.994088
0	H	0.789129	0.417296	0.974572
0	H	0.695672	0.917675	0.0113048
0	H	0.292228	0.911868	0.99488
0	C	0.136184	0.447127	0.868403
0	C	0.839074	0.448191	0.104732
0	C	0.644513	0.949409	0.882925
0	C	0.343764	0.945427	0.120081
0	C	0.15048	0.4732	0.788131
0	C	0.825075	0.473595	0.186352
0	C	0.658215	0.975089	0.801534
0	C	0.329754	0.972332	0.198944
0	H	0.106392	0.480603	0.735743
0	H	0.868794	0.478913	0.24156
0	H	0.614137	0.980964	0.747476
0	H	0.37346	0.978924	0.252975
0	H	0.183235	0.459364	0.748281
0	H	0.789777	0.460302	0.22248
0	H	0.692486	0.961609	0.763817
0	H	0.29502	0.959629	0.23708
0	H	0.173522	0.500275	0.817749
0	H	0.805131	0.50166	0.158897
0	H	0.67898	0.0029354	0.82941
0	H	0.309161	0.999772	0.167978
0	C	0.0921203	0.468039	0.924468
0	C	0.887254	0.468156	0.0543552
0	C	0.598347	0.969858	0.93618
0	C	0.388354	0.965557	0.0633608
0	H	0.111539	0.496196	0.950824
0	H	0.870938	0.496979	0.0287774
0	H	0.616829	0.998044	0.963986
0	H	0.369499	0.993731	0.0361526
0	H	0.0852309	0.451456	0.987935
0	H	0.894751	0.451757	0.99093
0	H	0.589909	0.952936	0.998252
0	H	0.394972	0.94853	0.000429195
0	H	0.0440977	0.47308	0.878402
0	H	0.934555	0.471472	0.103791
0	H	0.551182	0.974873	0.887761
0	H	0.436414	0.970465	0.109166
0	C	0.103675	0.409918	0.824212
0	C	0.86653	0.409414	0.146412
0	C	0.614274	0.911443	0.839908
0	C	0.375597	0.908303	0.166009
0	H	0.0569838	0.415723	0.776066
0	H	0.913747	0.41284	0.195007
0	H	0.566054	0.915973	0.79514
0	H	0.42226	0.914125	0.214259
0	H	0.094899	0.389898	0.879901
0	H	0.872605	0.389301	0.0891563
0	H	0.609469	0.890623	0.896335
0	H	0.384338	0.887756	0.11142
0	H	0.132644	0.394546	0.781037
0	H	0.835422	0.395155	0.188071
0	H	0.642715	0.897473	0.793739
0	H	0.346178	0.893542	0.209563
0	C	0.249278	0.417626	0.889105
0	C	0.722815	0.423182	0.0734017
0	C	0.759022	0.921764	0.907757
0	C	0.2303	0.915989	0.0999344
0	O	0.284288	0.436009	0.847457
0	O	0.68944	0.442303	0.116434
0	O	0.794952	0.94047	0.868338
0	O	0.195685	0.934439	0.142088
0	N	0.249816	0.377632	0.890849
0	N	0.7147	0.383838	0.0611712
0	N	0.760479	0.881857	0.909604
0	N	0.228902	0.875972	0.0973765
0	H	0.224097	0.362473	0.933515
0	H	0.743655	0.367541	0.0262806
0	H	0.731517	0.866067	0.945606
0	H	0.25404	0.860784	0.0540262
0	C	0.300765	0.35591	0.85876
0	C	0.667432	0.362328	0.102084
0	C	0.808975	0.859709	0.872628
0	C	0.177398	0.854522	0.128934
0	H	0.322374	0.374803	0.808746
0	H	0.645244	0.382282	0.14901
0	H	0.830646	0.878779	0.823185
0	H	0.156259	0.873379	0.179528
0	C	0.356316	0.34273	0.945064
0	C	0.611873	0.344996	0.0217757
0	C	0.865173	0.844613	0.955712
0	C	0.121269	0.842175	0.0424176
0	C	0.385813	0.378648	0.000731314
0	C	0.577503	0.37824	0.960018
0	C	0.897516	0.879368	0.013502
0	C	0.0931983	0.878617	0.987765
0	H	0.352435	0.39197	0.0404089
0	H	0.609709	0.392966	0.920742
0	H	0.865572	0.893123	0.0548123
0	H	0.126939	0.891435	0.947896
0	H	0.398107	0.400683	0.952375
0	H	0.560061	0.399954	0.00423541
0	H	0.910834	0.901488	0.966213
0	H	0.0822669	0.900779	0.0369059
0	H	0.429636	0.371535	0.0540692
0	H	0.536146	0.367911	0.906047
0	H	0.941247	0.870919	0.0654273
0	H	0.0488157	0.872344	0.934762
0	C	0.330185	0.315688	0.0128593
0	C	0.638778	0.316537	0.957873
0	C	0.839304	0.816989	0.0226086
0	C	0.146364	0.814934	0.973993
0	H	0.307832	0.289962	0.975378
0	H	0.668377	0.294161	0.000212253
0	H	0.813128	0.792766	0.983039
0	H	0.167772	0.788864	0.0108274
0	H	0.293065	0.329802	0.0444743
0	H	0.669222	0.330969	0.914742
0	H	0.805853	0.831426	0.0605722
0	H	0.183936	0.828687	0.942658
0	H	0.368232	0.306266	0.0734557
0	H	0.600019	0.302185	0.906419
0	H	0.878287	0.805087	0.0784175
0	H	0.108018	0.80608	0.913149
0	C	0.407615	0.322286	0.901818
0	C	0.564245	0.324623	0.0726424
0	C	0.914297	0.82394	0.908379
0	C	0.0689922	0.822365	0.0848495
0	H	0.451501	0.316799	0.957883
0	H	0.519254	0.317406	0.0205901
0	H	0.958868	0.817497	0.962268
0	H	0.0252982	0.817104	0.0281786
0	H	0.422066	0.339406	0.845116
0	H	0.551046	0.342537	0.129005
0	H	0.928119	0.841283	0.851551
0	H	0.0543734	0.839824	0.140814
0	H	0.390852	0.294271	0.869608
0	H	0.583845	0.297619	0.107594
0	H	0.895797	0.796432	0.875114
0	H	0.0847901	0.794298	0.117606
0	C	0.26726	0.321721	0.800532
0	C	0.705313	0.330864	0.16611
0	C	0.77293	0.826575	0.812656
0	C	0.210073	0.819913	0.186426
0	O	0.226704	0.300379	0.820124
0	O	0.752595	0.313793	0.153575
0	O	0.728173	0.807778	0.828343
0	O	0.251195	0.798774	0.167751
0	O	0.290497	0.318214	0.718896
0	O	0.678075	0.325022	0.243125
0	O	0.799385	0.82078	0.734745
0	O	0.185284	0.815879	0.266537
0	C	0.259764	0.292368	0.636955
0	C	0.707302	0.298635	0.32462
0	C	0.770499	0.794013	0.653691
0	C	0.214393	0.789532	0.348387
0	C	0.264572	0.251056	0.672842
0	C	0.707547	0.25829	0.283577
0	C	0.773258	0.753357	0.693704
0	C	0.208844	0.748463	0.310735
0	H	0.314651	0.242753	0.704881
0	H	0.659185	0.248774	0.246746
0	H	0.822701	0.744703	0.728263
0	H	0.158734	0.740779	0.277067
0	H	0.246173	0.230895	0.613993
0	H	0.72597	0.237305	0.341263
0	H	0.754971	0.732226	0.636275
0	H	0.226165	0.727653	0.368647
0	H	0.236776	0.246742	0.72926
0	H	0.738482	0.256494	0.23059
0	H	0.743972	0.75055	0.74868
0	H	0.237267	0.74434	0.25501
0	C	0.190923	0.306031	0.601273
0	C	0.773979	0.313796	0.369637
0	C	0.702574	0.807841	0.61113
0	C	0.283374	0.802488	0.386577
0	H	0.16104	0.30029	0.654469
0	H	0.807797	0.309732	0.32142
0	H	0.66999	0.802865	0.660817
0	H	0.314153	0.796499	0.33487
0	H	0.168235	0.292116	0.532918
0	H	0.79427	0.299547	0.438608
0	H	0.682135	0.793386	0.542509
0	H	0.304757	0.788378	0.45528
0	H	0.188913	0.337102	0.587632
0	H	0.772918	0.344652	0.385222
0	H	0.701555	0.838753	0.595537
0	H	0.286069	0.833533	0.400724
0	C	0.302491	0.300448	0.565616
0	C	0.659739	0.303432	0.390267
0	C	0.816552	0.800417	0.586334
0	C	0.1706	0.797908	0.418043
0	H	0.298916	0.330696	0.541044
0	H	0.655571	0.333867	0.410557
0	H	0.818755	0.831045	0.566585
0	H	0.173614	0.828313	0.441345
0	H	0.288848	0.282277	0.501097
0	H	0.675092	0.286924	0.457277
0	H	0.801424	0.784039	0.519047
0	H	0.183604	0.780164	0.483393
0	H	0.353355	0.2955	0.598553
0	H	0.611245	0.294151	0.354558
0	H	0.865828	0.792041	0.620631
0	H	0.119974	0.792733	0.384053
0	C	0.00935664	0.244868	0.655821
0	C	0.976682	0.242535	0.317898
0	C	0.49972	0.743153	0.658511
0	C	0.481707	0.748447	0.328525
0	C	0.0614182	0.219664	0.660858
0	C	0.925486	0.216298	0.303807
0	C	0.548606	0.715597	0.665673
0	C	0.431626	0.721671	0.321263
0	H	0.10853	0.231023	0.656843
0	H	0.876814	0.22657	0.3018
0	H	0.597456	0.724711	0.664738
0	H	0.3833	0.73158	0.323094
0	C	0.0529697	0.180263	0.672121
0	C	0.936831	0.177294	0.291517
0	C	0.534759	0.676742	0.675055
0	C	0.443633	0.682632	0.310794
0	H	0.0933413	0.160672	0.675842
0	H	0.896986	0.156963	0.281271
0	H	0.57276	0.655368	0.680152
0	H	0.404692	0.661879	0.305107
0	C	0.992649	0.165904	0.67847
0	C	0.99924	0.164375	0.292952
0	C	0.472174	0.665295	0.677586
0	C	0.505635	0.670185	0.307755
0	H	0.986069	0.135167	0.687352
0	H	0.00809545	0.13392	0.283587
0	H	0.461373	0.634974	0.685009
0	H	0.51507	0.639709	0.299816
0	C	0.94075	0.190995	0.673399
0	C	0.050223	0.190539	0.306289
0	C	0.423478	0.692752	0.670933
0	C	0.555568	0.696848	0.315036
0	H	0.893717	0.17973	0.677936
0	H	0.0987131	0.180455	0.306617
0	H	0.374819	0.683779	0.673394
0	H	0.603826	0.687085	0.312567
0	C	0.948931	0.230449	0.66204
0	C	0.0391393	0.229616	0.318763
0	C	0.43708	0.731678	0.661473
0	C	0.543794	0.73597	0.325455
0	H	0.908338	0.249927	0.658553
0	H	0.079021	0.249955	0.328413
0	H	0.399066	0.753065	0.657285
0	H	0.5829	0.756674	0.330569
0	C	0.0191247	0.287326	0.645672
0	C	0.963607	0.284448	0.330608
0	C	0.515181	0.784914	0.648977
0	C	0.467875	0.790465	0.337899
0	H	0.0402551	0.294702	0.58302
0	H	0.940303	0.290033	0.392069
0	H	0.539362	0.790678	0.58854
0	H	0.447613	0.797049	0.401826
0	H	0.975345	0.304669	0.644519
0	H	0.00647357	0.302997	0.335542
0	H	0.473158	0.804121	0.644438
0	H	0.509518	0.80933	0.336084
0	O	0.0702529	0.299302	0.726999
0	O	0.913189	0.296561	0.248422
0	O	0.565554	0.79585	0.732481
0	O	0.413992	0.800795	0.259001
0	C	0.0511157	0.310598	0.810396
0	C	0.933929	0.308416	0.166714
0	C	0.544982	0.806711	0.815012
0	C	0.429874	0.809879	0.17169
0	O	0.995902	0.319997	0.810928
0	O	0.990336	0.315678	0.168485
0	O	0.48816	0.811296	0.815476
0	O	0.484004	0.819661	0.16575
0	N	0.104521	0.313317	0.88636
0	N	0.881488	0.313626	0.0906557
0	N	0.597992	0.814434	0.88901
0	N	0.374712	0.810443	0.0987312
0	H	0.149641	0.305892	0.873792
0	H	0.835283	0.309198	0.102277
0	H	0.643979	0.810643	0.875625
0	H	0.330552	0.803303	0.114918
0	C	0.0951908	0.306011	0.98569
0	C	0.889952	0.307316	0.99051
0	C	0.592303	0.806511	0.989887
0	C	0.381243	0.80265	0.998342
0	H	0.0426816	0.309798	0.986482
0	H	0.94242	0.310679	0.989162
0	H	0.540146	0.808573	0.994129
0	H	0.433539	0.805244	0.994945
0	C	0.115887	0.264154	0.0222068
0	C	0.86739	0.266054	0.951323
0	C	0.617829	0.765337	0.0256015
0	C	0.35771	0.761152	0.962728
0	C	0.186	0.256831	0.0168719
0	C	0.796807	0.259836	0.955736
0	C	0.689711	0.762169	0.0262323
0	C	0.286378	0.756276	0.96384
0	H	0.218712	0.277441	0.061296
0	H	0.765258	0.281438	0.913144
0	H	0.718343	0.782888	0.076148
0	H	0.256094	0.776654	0.914913
0	H	0.193759	0.259293	0.942676
0	H	0.789136	0.261484	0.029968
0	H	0.700048	0.767604	0.954466
0	H	0.276575	0.761023	0.0362356
0	H	0.201554	0.227982	0.0428573
0	H	0.779789	0.231555	0.927068
0	H	0.708175	0.733482	0.0490836
0	H	0.2694	0.727295	0.940916
0	C	0.0713187	0.235312	0.958023
0	C	0.910297	0.235996	0.0137567
0	C	0.579719	0.735221	0.956802
0	C	0.398359	0.731681	0.0305587
0	H	0.085288	0.20571	0.979164
0	H	0.895295	0.206811	0.989866
0	H	0.592536	0.706051	0.983307
0	H	0.385608	0.702308	0.0056907
0	H	0.0726444	0.237812	0.881238
0	H	0.908536	0.237607	0.090506
0	H	0.589567	0.736635	0.883858
0	H	0.390888	0.73347	0.104787
0	H	0.0208275	0.238697	0.96428
0	H	0.961108	0.238889	0.00868879
0	H	0.527678	0.738278	0.949527
0	H	0.449925	0.735205	0.0339911
0	C	0.107899	0.260248	0.127114
0	C	0.875531	0.262567	0.846371
0	C	0.606474	0.759117	0.12812
0	C	0.368344	0.755791	0.859522
0	H	0.113941	0.230351	0.151638
0	H	0.869419	0.232741	0.821217
0	H	0.614833	0.729071	0.150569
0	H	0.361049	0.725776	0.836403
0	H	0.0601672	0.269481	0.13634
0	H	0.923342	0.271828	0.837728
0	H	0.557174	0.766167	0.133902
0	H	0.417183	0.763727	0.852816
0	H	0.14359	0.277098	0.178215
0	H	0.839809	0.279488	0.795437
0	H	0.639152	0.776361	0.182653
0	H	0.334792	0.772932	0.806016
0	C	0.134909	0.336834	0.050323
0	C	0.850871	0.339199	0.92895
0	C	0.630866	0.838502	0.0516416
0	C	0.342302	0.834106	0.935058
0	O	0.185804	0.350087	0.0367046
0	O	0.803755	0.354591	0.950048
0	O	0.677557	0.854472	0.0305516
0	O	0.292047	0.847975	0.949388
0	N	0.108709	0.350248	0.125323
0	N	0.872858	0.350909	0.848575
0	N	0.609334	0.849433	0.132977
0	N	0.368694	0.847174	0.859918
0	H	0.0698649	0.337113	0.14484
0	H	0.909996	0.337228	0.825684
0	H	0.571683	0.835744	0.154589
0	H	0.407898	0.834138	0.841295
0	C	0.141397	0.381271	0.188341
0	C	0.839038	0.381995	0.78705
0	C	0.642594	0.880692	0.194662
0	C	0.337762	0.879078	0.798346
0	H	0.169275	0.399211	0.143823
0	H	0.811098	0.399455	0.832444
0	H	0.67035	0.898382	0.149499
0	H	0.310103	0.897048	0.842993
0	C	0.0926778	0.408767	0.223875
0	C	0.886747	0.410288	0.751774
0	C	0.594645	0.908663	0.230449
0	C	0.388487	0.905913	0.765727
0	C	0.0581512	0.388358	0.294206
0	C	0.922256	0.390521	0.681698
0	C	0.559895	0.888427	0.300816
0	C	0.422067	0.88525	0.694652
0	H	0.0921567	0.376323	0.356668
0	H	0.888872	0.377546	0.61997
0	H	0.593832	0.875608	0.362163
0	H	0.387522	0.875025	0.630398
0	H	0.0287483	0.364215	0.259176
0	H	0.953569	0.367245	0.717377
0	H	0.528956	0.865016	0.265004
0	H	0.448534	0.859792	0.727868
0	H	0.026188	0.407983	0.321795
0	H	0.952565	0.410853	0.652867
0	H	0.529342	0.90844	0.330143
0	H	0.456444	0.904063	0.670078
0	C	0.131607	0.443103	0.274057
0	C	0.846727	0.44421	0.701497
0	C	0.634297	0.942681	0.280962
0	C	0.352444	0.941488	0.717596
0	H	0.100145	0.465406	0.292834
0	H	0.877536	0.467437	0.685567
0	H	0.603235	0.965618	0.297641
0	H	0.385403	0.961815	0.694426
0	H	0.160507	0.456443	0.227422
0	H	0.81567	0.456397	0.746672
0	H	0.665065	0.955263	0.235832
0	H	0.328334	0.956878	0.767373
0	H	0.164894	0.43476	0.341382
0	H	0.815282	0.435808	0.632632
0	H	0.666073	0.934199	0.349492
0	H	0.315473	0.934296	0.653171
0	C	0.0431973	0.422962	0.135023
0	C	0.935297	0.424749	0.841344
0	C	0.545397	0.923066	0.141593
0	C	0.438471	0.918577	0.855861
0	H	0.0100938	0.400067	0.102748
0	H	0.968943	0.402089	0.873604
0	H	0.512153	0.900205	0.10928
0	H	0.470426	0.89497	0.886781
0	H	0.0665144	0.433971	0.0779247
0	H	0.911166	0.435123	0.898203
0	H	0.568875	0.933955	0.0845273
0	H	0.415593	0.929491	0.913532
0	H	0.0136361	0.446437	0.154339
0	H	0.964201	0.448746	0.823063
0	H	0.515978	0.946617	0.160712
0	H	0.46909	0.94168	0.838053
0	C	0.189578	0.363129	0.274
0	C	0.790931	0.363747	0.701531
0	C	0.690859	0.862385	0.279933
0	C	0.289522	0.861745	0.711403
0	O	0.177944	0.335955	0.322276
0	O	0.802466	0.336326	0.653896
0	O	0.679622	0.83443	0.326106
0	O	0.301664	0.835793	0.659873
0	N	0.24906	0.381532	0.293924
0	N	0.731371	0.381864	0.682403
0	N	0.749972	0.880993	0.300986
0	N	0.229132	0.879056	0.694618
0	H	0.26072	0.401433	0.245948
0	H	0.721002	0.403523	0.726925
0	H	0.760257	0.903254	0.258102
0	H	0.217185	0.898006	0.744477
0	C	0.303218	0.367296	0.368331
0	C	0.677448	0.369156	0.605428
0	C	0.803956	0.867267	0.376643
0	C	0.174838	0.864211	0.621256
0	H	0.284395	0.346686	0.417968
0	H	0.695372	0.347368	0.558176
0	H	0.785312	0.845957	0.424458
0	H	0.193699	0.84371	0.571539
0	C	0.355402	0.345631	0.324837
0	C	0.621493	0.35042	0.646524
0	C	0.857617	0.846775	0.333684
0	C	0.12374	0.842212	0.666481
0	C	0.385768	0.373131	0.262575
0	C	0.590902	0.380658	0.701555
0	C	0.889336	0.87573	0.276746
0	C	0.0944603	0.86948	0.730585
0	H	0.34921	0.385828	0.203852
0	H	0.627209	0.395074	0.757505
0	H	0.853402	0.891211	0.222508
0	H	0.13174	0.882388	0.788005
0	H	0.42024	0.358167	0.22829
0	H	0.555863	0.367623	0.738257
0	H	0.921786	0.861401	0.237489
0	H	0.0611914	0.854322	0.766785
0	H	0.410973	0.396996	0.305105
0	H	0.566081	0.40313	0.653354
0	H	0.917291	0.897404	0.324129
0	H	0.0681662	0.893205	0.688894
0	C	0.407184	0.329796	0.408791
0	C	0.570747	0.334287	0.561695
0	C	0.908245	0.829674	0.417261
0	C	0.070707	0.826512	0.58407
0	H	0.420733	0.350588	0.468081
0	H	0.559945	0.354246	0.50014
0	H	0.920908	0.849457	0.478962
0	H	0.0556368	0.847483	0.525611
0	H	0.451071	0.322212	0.384446
0	H	0.525409	0.328465	0.583846
0	H	0.952748	0.822806	0.393775
0	H	0.0277458	0.818592	0.610563
0	H	0.390978	0.303542	0.440033
0	H	0.586114	0.306972	0.53448
0	H	0.891664	0.802744	0.444773
0	H	0.0861933	0.800476	0.550974
0	C	0.322168	0.312139	0.262856
0	C	0.64971	0.317426	0.71477
0	C	0.825891	0.814221	0.26666
0	C	0.158062	0.808655	0.726975
0	H	0.290825	0.295713	0.300176
0	H	0.682915	0.299584	0.684325
0	H	0.792134	0.797532	0.298903
0	H	0.187747	0.791959	0.687451
0	H	0.357639	0.292034	0.244303
0	H	0.611607	0.298563	0.729807
0	H	0.862054	0.794139	0.250231
0	H	0.123191	0.788754	0.748079
0	H	0.29176	0.322321	0.19458
0	H	0.676901	0.328274	0.784762
0	H	0.798379	0.825405	0.197369
0	H	0.190155	0.818818	0.793837
0	C	0.331199	0.402605	0.428046
0	C	0.654411	0.405177	0.544706
0	C	0.829389	0.902782	0.437754
0	C	0.145216	0.899097	0.561379
0	O	0.336388	0.435248	0.400875
0	O	0.656212	0.438236	0.572142
0	O	0.827724	0.936056	0.412054
0	O	0.138994	0.931674	0.588189
0	O	0.350529	0.39073	0.52114
0	O	0.63106	0.393674	0.452279
0	O	0.854019	0.890489	0.529231
0	O	0.125245	0.886885	0.46859
0	C	0.369706	0.416972	0.606367
0	C	0.611371	0.420462	0.368065
0	C	0.876238	0.916588	0.614171
0	C	0.102702	0.91286	0.383746
0	C	0.42013	0.445366	0.588547
0	C	0.565441	0.450618	0.391567
0	C	0.924287	0.945324	0.590362
0	C	0.0503298	0.93933	0.4039
0	H	0.462294	0.430857	0.572483
0	H	0.523636	0.437698	0.412863
0	H	0.965231	0.931182	0.569427
0	H	0.0102265	0.923278	0.421991
0	H	0.436624	0.463875	0.651689
0	H	0.547641	0.469265	0.329085
0	H	0.943365	0.963957	0.652396
0	H	0.030873	0.957552	0.34126
0	H	0.400946	0.464194	0.526358
0	H	0.589055	0.469203	0.451879
0	H	0.901933	0.964121	0.529741
0	H	0.0688834	0.958516	0.465645
0	C	0.396865	0.387632	0.684715
0	C	0.578357	0.392144	0.290857
0	C	0.907031	0.887125	0.689986
0	C	0.0773799	0.88306	0.305702
0	H	0.438485	0.372526	0.6686
0	H	0.536698	0.378507	0.310948
0	H	0.946344	0.871675	0.667739
0	H	0.0376997	0.86638	0.323142
0	H	0.360619	0.365486	0.690308
0	H	0.611492	0.368807	0.280729
0	H	0.871627	0.865273	0.700946
0	H	0.115371	0.862243	0.298822
0	H	0.411576	0.401646	0.755399
0	H	0.561968	0.406633	0.221154
0	H	0.926297	0.901023	0.759674
0	H	0.0603961	0.896794	0.23516
0	C	0.307961	0.435703	0.620886
0	C	0.673275	0.436929	0.347814
0	C	0.816297	0.93497	0.636417
0	C	0.16201	0.933919	0.367336
0	H	0.292579	0.459234	0.569592
0	H	0.692887	0.459891	0.398766
0	H	0.797875	0.958261	0.585776
0	H	0.176452	0.957129	0.41999
0	H	0.31295	0.447035	0.694888
0	H	0.666209	0.44859	0.273813
0	H	0.825324	0.946836	0.710347
0	H	0.154548	0.946158	0.294011
0	H	0.268417	0.414803	0.610844
0	H	0.710526	0.414716	0.353613
0	H	0.777416	0.913904	0.632105
0	H	0.203182	0.91431	0.374132
0	C	0.31271	0.56569	0.783107
0	C	0.664001	0.564821	0.196867
0	C	0.818524	0.0655896	0.790912
0	C	0.164693	0.0665058	0.200489
0	C	0.337332	0.603113	0.79808
0	C	0.638208	0.602077	0.187703
0	C	0.846273	0.102324	0.797876
0	C	0.138735	0.103516	0.182244
0	H	0.30476	0.627543	0.780983
0	H	0.669652	0.626573	0.211168
0	H	0.816114	0.127286	0.773829
0	H	0.170087	0.128482	0.199607
0	C	0.402863	0.60883	0.835588
0	C	0.572955	0.607611	0.147786
0	C	0.912002	0.106741	0.836205
0	C	0.0734323	0.108122	0.141253
0	H	0.421869	0.637884	0.847976
0	H	0.55314	0.63656	0.139692
0	H	0.933502	0.135266	0.842139
0	H	0.053443	0.136818	0.125907
0	C	0.444075	0.577247	0.857327
0	C	0.533106	0.575971	0.117938
0	C	0.950235	0.0745138	0.866832
0	C	0.0338059	0.0758559	0.119338
0	H	0.495182	0.581724	0.887033
0	H	0.482207	0.580326	0.0865235
0	H	0.00148631	0.078026	0.897118
0	H	0.982952	0.0794624	0.0865567
0	C	0.419657	0.539969	0.841455
0	C	0.558676	0.538838	0.127813
0	C	0.92269	0.0378804	0.858893
0	C	0.0595568	0.039015	0.138375
0	H	0.451757	0.515371	0.858101
0	H	0.52767	0.514196	0.104554
0	H	0.952477	0.0127409	0.882159
0	H	0.0288164	0.0138458	0.121064
0	C	0.353937	0.534047	0.805047
0	C	0.624209	0.533136	0.166406
0	C	0.856755	0.0332985	0.821709
0	C	0.12508	0.0341944	0.178354
0	H	0.334923	0.504798	0.795211
0	H	0.644216	0.504031	0.171089
0	H	0.83522	0.00460582	0.81789
0	H	0.145383	0.00532962	0.190836
0	C	0.242013	0.559705	0.743851
0	C	0.734445	0.559204	0.238916
0	C	0.747713	0.060895	0.750387
0	C	0.235147	0.0617191	0.243789
0	H	0.226891	0.568373	0.666831
0	H	0.748053	0.567339	0.316385
0	H	0.734021	0.0679262	0.672301
0	H	0.24854	0.0721691	0.319435
0	H	0.225661	0.530112	0.755024
0	H	0.75179	0.52991	0.22714
0	H	0.729196	0.0321588	0.764905
0	H	0.253154	0.0320941	0.238121
0	O	0.204929	0.586827	0.789099
0	O	0.771988	0.587277	0.197201
0	O	0.71189	0.0901707	0.791076
0	O	0.271997	0.0882331	0.19621
0	C	0.20116	0.578458	0.883352
0	C	0.778779	0.579857	0.103929
0	C	0.703197	0.0829272	0.883674
0	C	0.277198	0.0783345	0.103499
0	O	0.213025	0.546677	0.920136
0	O	0.767123	0.548563	0.0644958
0	O	0.716307	0.0521272	0.924968
0	O	0.266232	0.0460258	0.0695685
0	N	0.180761	0.610292	0.926281
0	N	0.803443	0.611578	0.0660625
0	N	0.674344	0.114223	0.916868
0	N	0.298987	0.109417	0.0592395
0	H	0.164405	0.634685	0.887156
0	H	0.817709	0.635868	0.106972
0	H	0.659458	0.137683	0.872911
0	H	0.314194	0.134341	0.096626
0	C	0.182569	0.609173	0.0313006
0	C	0.800244	0.612378	0.960678
0	C	0.677927	0.117747	0.0219733
0	C	0.296508	0.107733	0.954231
0	H	0.202132	0.580273	0.0605349
0	H	0.779917	0.583967	0.928679
0	H	0.7022	0.0911209	0.059498
0	H	0.276808	0.0787768	0.926113
0	C	0.228198	0.64102	0.0882112
0	C	0.75492	0.645043	0.907485
0	C	0.718623	0.153453	0.0681638
0	C	0.250974	0.13949	0.896627
0	C	0.205279	0.681154	0.0516182
0	C	0.777444	0.684441	0.950017
0	C	0.688931	0.191053	0.0230227
0	C	0.273585	0.179773	0.932438
0	H	0.153948	0.685415	0.049808
0	H	0.828598	0.689275	0.951381
0	H	0.638803	0.194168	0.029982
0	H	0.324482	0.184508	0.931902
0	H	0.212425	0.686579	0.978203
0	H	0.771061	0.687721	0.0245052
0	H	0.688956	0.192989	0.945605
0	H	0.26809	0.185099	0.00664512
0	H	0.231631	0.703591	0.0984485
0	H	0.750385	0.707667	0.907187
0	H	0.715509	0.215973	0.0585088
0	H	0.245849	0.201968	0.886469
0	C	0.227423	0.637114	0.19607
0	C	0.756856	0.643755	0.799679
0	C	0.720557	0.153161	0.177311
0	C	0.251666	0.135451	0.788682
0	H	0.26512	0.654662	0.240941
0	H	0.719814	0.662303	0.75674
0	H	0.754682	0.174446	0.215615
0	H	0.214781	0.153634	0.74437
0	H	0.23566	0.607419	0.22247
0	H	0.748461	0.614754	0.768622
0	H	0.735646	0.125117	0.210512
0	H	0.242221	0.105889	0.762271
0	H	0.181732	0.646472	0.212909
0	H	0.803078	0.653519	0.785612
0	H	0.67378	0.159821	0.194232
0	H	0.297748	0.144045	0.771848
0	C	0.296831	0.633848	0.0738798
0	C	0.685995	0.637011	0.919372
0	C	0.787328	0.148916	0.0516651
0	C	0.182459	0.132142	0.911102
0	H	0.329837	0.656054	0.110415
0	H	0.653201	0.65987	0.885864
0	H	0.818185	0.172533	0.0856508
0	H	0.149295	0.154376	0.875177
0	H	0.299344	0.634338	0.997308
0	H	0.682863	0.635532	0.995609
0	H	0.788602	0.149033	0.974637
0	H	0.179998	0.132242	0.987709
0	H	0.315929	0.605892	0.103773
0	H	0.66689	0.609792	0.884839
0	H	0.80951	0.122081	0.082769
0	H	0.1636	0.104191	0.88067
0	C	0.113211	0.613477	0.045151
0	C	0.869493	0.616703	0.946292
0	C	0.608445	0.119514	0.0366066
0	C	0.365721	0.112143	0.939831
0	O	0.0721561	0.633051	0.991644
0	O	0.91092	0.636492	0.998308
0	O	0.56444	0.136834	0.982793
0	O	0.406606	0.132135	0.992358
0	N	0.0982623	0.59289	0.120817
0	N	0.883636	0.59543	0.87117
0	N	0.597389	0.0989051	0.114984
0	N	0.380392	0.0913774	0.864149
0	H	0.132585	0.577951	0.170159
0	H	0.848118	0.581851	0.820856
0	H	0.634827	0.0874156	0.166118
0	H	0.346677	0.0755996	0.816441
0	C	0.0334142	0.595773	0.141586
0	C	0.947916	0.597367	0.848292
0	C	0.533396	0.0989174	0.138988
0	C	0.44442	0.095431	0.841096
0	H	0.998309	0.602651	0.0707643
0	H	0.984249	0.603526	0.918383
0	H	0.496216	0.104346	0.0693637
0	H	0.4797	0.103213	0.911145
0	C	0.0110135	0.557349	0.182448
0	C	0.967758	0.558778	0.805035
0	C	0.516234	0.0598146	0.182741
0	C	0.468738	0.0573924	0.801163
0	C	0.937766	0.560015	0.172031
0	C	0.0407837	0.560426	0.811988
0	C	0.443796	0.0606595	0.181148
0	C	0.541799	0.0612839	0.811078
0	H	0.91261	0.563693	0.0963223
0	H	0.0674592	0.563632	0.887027
0	H	0.414827	0.064385	0.107614
0	H	0.567018	0.0662999	0.886294
0	H	0.923831	0.584075	0.21318
0	H	0.0546345	0.584361	0.770364
0	H	0.430943	0.0840129	0.225455
0	H	0.554307	0.085076	0.767699
0	H	0.918471	0.533866	0.1984
0	H	0.0581234	0.534053	0.783719
0	H	0.428073	0.0338095	0.209312
0	H	0.562438	0.0351319	0.786884
0	C	0.0436934	0.551561	0.289196
0	C	0.932895	0.553739	0.699001
0	C	0.554439	0.0546139	0.28703
0	C	0.436338	0.0508268	0.69462
0	H	0.0287372	0.524444	0.316781
0	H	0.942159	0.525333	0.671792
0	H	0.547499	0.0258873	0.314528
0	H	0.454729	0.0248075	0.666458
0	H	0.0319831	0.57466	0.335244
0	H	0.948008	0.575191	0.651675
0	H	0.540051	0.0754617	0.336557
0	H	0.44437	0.0748124	0.648344
0	H	0.0966476	0.550933	0.299398
0	H	0.88026	0.556751	0.690392
0	H	0.606398	0.0585754	0.29193
0	H	0.383725	0.0474934	0.685529
0	C	0.0272394	0.523384	0.122713
0	C	0.951546	0.524855	0.864869
0	C	0.531134	0.0264784	0.119958
0	C	0.454027	0.0231926	0.861595
0	H	0.0791732	0.517856	0.13631
0	H	0.899503	0.51991	0.852778
0	H	0.583008	0.0229536	0.12542
0	H	0.402342	0.0167285	0.847024
0	H	0.0104298	0.528264	0.044245
0	H	0.969535	0.529379	0.943228
0	H	0.508917	0.0307571	0.0426703
0	H	0.46982	0.0285917	0.940012
0	H	0.00426067	0.496654	0.140305
0	H	0.97334	0.497964	0.845655
0	H	0.512925	0.999028	0.142108
0	H	0.478626	0.996893	0.845411
0	C	0.034368	0.629595	0.212507
0	C	0.946927	0.631272	0.777757
0	C	0.532931	0.132665	0.209551
0	C	0.440825	0.129191	0.769142
0	O	0.0784055	0.63602	0.282333
0	O	0.902797	0.637962	0.708245
0	O	0.576717	0.139736	0.279304
0	O	0.395907	0.134795	0.700095
0	N	0.97996	0.652633	0.191776
0	N	0.00144633	0.654159	0.799399
0	N	0.477706	0.1549	0.186953
0	N	0.494116	0.153194	0.788964
0	H	0.944878	0.648903	0.128836
0	H	0.0364873	0.649939	0.862064
0	H	0.443388	0.150211	0.123717
0	H	0.529715	0.149676	0.851481
0	C	0.976463	0.688915	0.24401
0	C	0.00510089	0.690713	0.748534
0	C	0.47252	0.191504	0.23683
0	C	0.496649	0.189518	0.736452
0	H	0.0167197	0.689506	0.311008
0	H	0.964297	0.691949	0.682319
0	H	0.512396	0.193085	0.304173
0	H	0.456752	0.189717	0.669119
0	C	0.983213	0.725366	0.181412
0	C	0.999771	0.726665	0.813442
0	C	0.478151	0.227441	0.172007
0	C	0.488724	0.225972	0.798564
0	C	0.0513524	0.724897	0.161363
0	C	0.932338	0.726275	0.83615
0	C	0.545778	0.227037	0.149909
0	C	0.420567	0.225044	0.818336
0	H	0.0889469	0.724041	0.228398
0	H	0.893855	0.725908	0.770216
0	H	0.583995	0.226032	0.215937
0	H	0.383041	0.22427	0.751229
0	H	0.0604382	0.750659	0.121124
0	H	0.924395	0.751845	0.877825
0	H	0.55423	0.252866	0.109567
0	H	0.411132	0.250601	0.859106
0	H	0.0587616	0.699854	0.117771
0	H	0.925345	0.701037	0.879438
0	H	0.552495	0.202077	0.105543
0	H	0.413377	0.199772	0.861283
0	C	0.932954	0.724722	0.0859502
0	C	0.0514203	0.725233	0.90739
0	C	0.426873	0.225931	0.077655
0	C	0.538798	0.225655	0.894224
0	H	0.939192	0.69965	0.0411194
0	H	0.0449115	0.70034	0.952509
0	H	0.433463	0.200933	0.0329665
0	H	0.533904	0.200045	0.938043
0	H	0.936586	0.750291	0.042317
0	H	0.0499292	0.750936	0.951517
0	H	0.428671	0.251537	0.0333125
0	H	0.533741	0.250724	0.938748
0	H	0.883828	0.723365	0.0978964
0	H	0.0999567	0.723008	0.893304
0	H	0.37815	0.223868	0.0910926
0	H	0.587956	0.225522	0.882196
0	C	0.974236	0.761539	0.239481
0	C	0.00811343	0.763089	0.756002
0	C	0.469611	0.263895	0.229246
0	C	0.49742	0.262241	0.740599
0	H	0.924503	0.764642	0.249352
0	H	0.0579805	0.766477	0.746524
0	H	0.420211	0.266797	0.241022
0	H	0.546551	0.264846	0.728241
0	H	0.985433	0.787527	0.202609
0	H	0.996562	0.788896	0.793203
0	H	0.479534	0.289741	0.190739
0	H	0.487944	0.288232	0.778935
0	H	0.00558335	0.76142	0.311872
0	H	0.976919	0.762955	0.683497
0	H	0.501948	0.264296	0.300835
0	H	0.464807	0.262662	0.669261
0	C	0.91216	0.687391	0.276454
0	C	0.0688247	0.688957	0.71451
0	C	0.407981	0.189428	0.268413
0	C	0.561392	0.188914	0.705032
0	O	0.861422	0.674376	0.232665
0	O	0.119765	0.676054	0.757834
0	O	0.357617	0.176248	0.223844
0	O	0.612162	0.175901	0.748765
0	O	0.9224	0.70313	0.366177
0	O	0.0577099	0.704135	0.624123
0	O	0.417664	0.204872	0.358392
0	O	0.551786	0.205668	0.616486
0	C	0.880855	0.696866	0.437789
0	C	0.0987988	0.697339	0.552101
0	C	0.375693	0.198075	0.42917
0	C	0.594492	0.200563	0.545949
0	C	0.810409	0.70215	0.390283
0	C	0.169298	0.703109	0.598817
0	C	0.305382	0.203377	0.380685
0	C	0.664382	0.206865	0.595194
0	H	0.800483	0.730821	0.358603
0	H	0.178611	0.731742	0.631078
0	H	0.29603	0.231847	0.347479
0	H	0.672521	0.235454	0.628005
0	H	0.779649	0.697778	0.44235
0	H	0.199807	0.699275	0.546239
0	H	0.274234	0.199695	0.432355
0	H	0.6961	0.203613	0.544063
0	H	0.794638	0.681456	0.330844
0	H	0.185747	0.682312	0.657827
0	H	0.289899	0.182299	0.322023
0	H	0.6806	0.185991	0.654074
0	C	0.906488	0.728391	0.51085
0	C	0.0725789	0.728238	0.477636
0	C	0.400881	0.229364	0.503081
0	C	0.56806	0.232068	0.47325
0	H	0.958376	0.724465	0.541586
0	H	0.0207983	0.723847	0.446888
0	H	0.452658	0.225281	0.534614
0	H	0.515984	0.228072	0.444087
0	H	0.881318	0.728144	0.570751
0	H	0.0978873	0.727798	0.417865
0	H	0.375091	0.229081	0.562266
0	H	0.592216	0.23184	0.412241
0	H	0.900803	0.757063	0.476866
0	H	0.0775847	0.757148	0.510455
0	H	0.39572	0.258146	0.469556
0	H	0.574187	0.260771	0.507001
0	C	0.897674	0.656709	0.477868
0	C	0.0821994	0.656893	0.514093
0	C	0.392508	0.157783	0.468166
0	C	0.579767	0.160342	0.505012
0	H	0.875413	0.634299	0.427281
0	H	0.105527	0.634861	0.56504
0	H	0.370445	0.135549	0.416757
0	H	0.60306	0.138082	0.55526
0	H	0.882327	0.652083	0.546779
0	H	0.0966437	0.651904	0.44469
0	H	0.376743	0.1526	0.536449
0	H	0.595365	0.156305	0.436142
0	H	0.950233	0.652004	0.493411
0	H	0.0297745	0.65188	0.500422
0	H	0.445006	0.153116	0.483905
0	H	0.527508	0.154699	0.48921
