#******************************************
#
# CIF file created by Zeo++
# Zeo++ is an open source package to
# analyze microporous materials
#
#*******************************************

_cell_length_a		15.9183(0)
_cell_length_b		15.9146(0)
_cell_length_c		56.3513(0)
_cell_angle_alpha		90(0)
_cell_angle_beta		90(0)
_cell_angle_gamma		120.018(0)

_symmetry_space_group_name_H-M		'P1'
_symmetry_Int_Tables_number		1
_symmetry_cell_setting		Monoclinic

loop_
_symmetry_equiv_pos_as_xyz
'+x,+y,+z'

loop_
_atom_site_label
_atom_site_type_symbol
_atom_site_fract_x
_atom_site_fract_y
_atom_site_fract_z
0	O	0.256098	0.953759	0.0055651
0	O	0.045597	0.299064	0.00385855
0	O	0.699781	0.745278	0.0047758
0	O	0.956169	0.257369	0.493618
0	O	0.302332	0.0461682	0.493279
0	O	0.744325	0.700713	0.494472
0	O	0.745769	0.0478961	0.992404
0	O	0.955753	0.702443	0.993744
0	O	0.301623	0.256202	0.993182
0	O	0.0459285	0.744243	0.503956
0	O	0.700233	0.956169	0.504105
0	O	0.258171	0.302222	0.503851
0	O	0.923528	0.289122	0.337733
0	O	0.711484	0.635452	0.337556
0	O	0.366615	0.0785966	0.33772
0	O	0.623268	0.590319	0.826228
0	O	0.968269	0.37881	0.826273
0	O	0.411618	0.0338575	0.826384
0	O	0.411117	0.378701	0.327443
0	O	0.622941	0.0333449	0.32743
0	O	0.968052	0.590347	0.327561
0	O	0.712918	0.0785451	0.836561
0	O	0.366444	0.290205	0.836534
0	O	0.923488	0.635177	0.836537
0	O	0.590742	0.623088	0.670403
0	O	0.378811	0.968608	0.670289
0	O	0.0333307	0.41112	0.670253
0	O	0.288933	0.923059	0.161168
0	O	0.634975	0.71153	0.161344
0	O	0.0782282	0.366836	0.161336
0	O	0.078417	0.712664	0.660103
0	O	0.290206	0.366593	0.660129
0	O	0.634954	0.92309	0.660131
0	O	0.37861	0.41135	0.171512
0	O	0.0331304	0.622925	0.171605
0	O	0.590213	0.968247	0.171471
0	N	0.0268391	0.867571	0.0765948
0	N	0.137009	0.162625	0.0755198
0	N	0.840475	0.975748	0.0758515
0	N	0.865192	0.0245072	0.423065
0	N	0.160371	0.135873	0.422604
0	N	0.97734	0.840491	0.423771
0	N	0.975012	0.13447	0.921353
0	N	0.865087	0.83954	0.922078
0	N	0.161587	0.0260205	0.922021
0	N	0.137225	0.977532	0.574422
0	N	0.841195	0.865614	0.574885
0	N	0.0246726	0.160894	0.574388
0	N	0.690741	0.199421	0.408246
0	N	0.80268	0.49359	0.408156
0	N	0.508135	0.31133	0.4083
0	N	0.531994	0.357158	0.755673
0	N	0.82666	0.470337	0.755821
0	N	0.644754	0.175462	0.755915
0	N	0.644281	0.469585	0.256888
0	N	0.531976	0.175471	0.25694
0	N	0.826224	0.357464	0.256953
0	N	0.802733	0.311303	0.907068
0	N	0.508799	0.199467	0.907106
0	N	0.690985	0.493608	0.907168
0	N	0.357491	0.532305	0.740935
0	N	0.469871	0.826519	0.740762
0	N	0.175597	0.644488	0.740754
0	N	0.198979	0.690429	0.0906191
0	N	0.493056	0.802362	0.090695
0	N	0.310784	0.50822	0.0907123
0	N	0.310969	0.802601	0.58953
0	N	0.19904	0.508407	0.589505
0	N	0.493579	0.690686	0.589484
0	N	0.469786	0.644602	0.242035
0	N	0.175273	0.531519	0.241962
0	N	0.357095	0.826315	0.241935
0	O	0.342494	0.0507552	0.0365218
0	O	0.952915	0.293441	0.0353185
0	O	0.708698	0.659649	0.0361367
0	O	0.0497093	0.342077	0.462047
0	O	0.293775	0.951913	0.46191
0	O	0.659809	0.708241	0.462698
0	O	0.659395	0.950906	0.961451
0	O	0.0489798	0.708714	0.962337
0	O	0.293494	0.342032	0.961763
0	O	0.952401	0.659715	0.535545
0	O	0.708565	0.0500959	0.535534
0	O	0.342398	0.293304	0.5355
0	O	0.00909993	0.382563	0.369207
0	O	0.618761	0.627485	0.369192
0	O	0.374478	0.993079	0.369217
0	O	0.716036	0.675723	0.79467
0	O	0.961334	0.286193	0.794722
0	O	0.32601	0.0410614	0.794861
0	O	0.32607	0.285368	0.29592
0	O	0.716142	0.0411761	0.295912
0	O	0.960445	0.675693	0.296014
0	O	0.619139	0.992722	0.867966
0	O	0.374736	0.383368	0.868104
0	O	0.00908335	0.627436	0.868011
0	O	0.675765	0.7164	0.701931
0	O	0.285639	0.960831	0.701807
0	O	0.041645	0.326077	0.701778
0	O	0.382339	0.0089597	0.129722
0	O	0.627547	0.618954	0.129727
0	O	0.992659	0.374523	0.129849
0	O	0.992741	0.619212	0.628642
0	O	0.382898	0.37455	0.628486
0	O	0.627611	0.00882385	0.628615
0	O	0.28548	0.326006	0.203028
0	O	0.040965	0.716127	0.203114
0	O	0.675819	0.960905	0.202978
0	C	0.114268	0.945721	0.0819392
0	C	0.0587764	0.171795	0.0808222
0	C	0.831359	0.888421	0.081237
0	C	0.943559	0.111495	0.417515
0	C	0.169318	0.0576943	0.417085
0	C	0.890353	0.831788	0.418208
0	C	0.887635	0.0562515	0.916013
0	C	0.943478	0.83058	0.916827
0	C	0.17042	0.113257	0.916678
0	C	0.0590725	0.890486	0.58004
0	C	0.831868	0.943552	0.580443
0	C	0.111762	0.169945	0.579999
0	C	0.778015	0.277288	0.413837
0	C	0.724986	0.503222	0.413762
0	C	0.498851	0.22414	0.413921
0	C	0.610089	0.444279	0.750092
0	C	0.835412	0.392147	0.750186
0	C	0.557825	0.166723	0.750289
0	C	0.557068	0.391639	0.251304
0	C	0.610115	0.166617	0.251342
0	C	0.83524	0.44459	0.251398
0	C	0.724901	0.224039	0.912687
0	C	0.499363	0.277312	0.912695
0	C	0.778203	0.502972	0.912774
0	C	0.444771	0.610129	0.746542
0	C	0.391932	0.835664	0.746402
0	C	0.166368	0.557316	0.746368
0	C	0.277124	0.777552	0.0850584
0	C	0.502198	0.724304	0.0851604
0	C	0.223678	0.499157	0.0851262
0	C	0.223763	0.724597	0.583967
0	C	0.276981	0.499134	0.583948
0	C	0.502765	0.777861	0.583903
0	C	0.391964	0.557356	0.247667
0	C	0.166246	0.609506	0.247654
0	C	0.44415	0.835392	0.247584
0	H	0.120943	0.979193	0.0993886
0	H	0.0259113	0.146027	0.098378
0	H	0.858084	0.881822	0.0986924
0	H	0.97661	0.117266	0.400068
0	H	0.142208	0.0245819	0.399621
0	H	0.884434	0.858798	0.400731
0	H	0.880993	0.0228035	0.898562
0	H	0.976603	0.856608	0.899305
0	H	0.143582	0.119855	0.899239
0	H	0.0262924	0.884748	0.597521
0	H	0.858486	0.976324	0.59796
0	H	0.117681	0.143018	0.597487
0	H	0.78395	0.310582	0.431279
0	H	0.691918	0.476294	0.43124
0	H	0.525901	0.218243	0.431408
0	H	0.643194	0.450163	0.73262
0	H	0.80797	0.359129	0.732721
0	H	0.552304	0.194307	0.732836
0	H	0.551042	0.358547	0.233825
0	H	0.643323	0.194128	0.2339
0	H	0.807896	0.450495	0.233953
0	H	0.691801	0.218134	0.93015
0	H	0.526451	0.310497	0.930154
0	H	0.784212	0.476032	0.930262
0	H	0.450828	0.643145	0.764032
0	H	0.35892	0.808397	0.763871
0	H	0.193581	0.551473	0.763838
0	H	0.310486	0.783386	0.0676348
0	H	0.4749	0.690914	0.0677305
0	H	0.217768	0.526303	0.0676571
0	H	0.217827	0.691258	0.566531
0	H	0.310281	0.526354	0.566502
0	H	0.47563	0.783814	0.566434
0	H	0.359089	0.551405	0.265173
0	H	0.193517	0.64233	0.265146
0	H	0.449779	0.808012	0.265054
0	O	0.471485	0.989623	0.0395811
0	O	0.0124627	0.48291	0.0390545
0	O	0.518719	0.530368	0.0396158
0	O	0.98993	0.471959	0.458317
0	O	0.483596	0.0113128	0.458338
0	O	0.529326	0.518613	0.458773
0	O	0.530863	0.0126254	0.958439
0	O	0.989392	0.519256	0.95852
0	O	0.483548	0.47135	0.958454
0	O	0.0119305	0.529491	0.539182
0	O	0.518809	0.990513	0.539311
0	O	0.473037	0.483005	0.539429
0	O	0.140245	0.324122	0.373041
0	O	0.677931	0.817389	0.372831
0	O	0.185144	0.862279	0.373069
0	O	0.656883	0.80633	0.790968
0	O	0.150679	0.344882	0.791038
0	O	0.195234	0.851505	0.791107
0	O	0.195735	0.345107	0.292289
0	O	0.657186	0.851571	0.292136
0	O	0.150306	0.806445	0.292345
0	O	0.677819	0.861747	0.871793
0	O	0.184729	0.324186	0.871787
0	O	0.140018	0.817121	0.871701
0	O	0.806347	0.657035	0.705623
0	O	0.34453	0.150458	0.705537
0	O	0.851839	0.195283	0.705576
0	O	0.323811	0.139942	0.125849
0	O	0.817542	0.678104	0.126196
0	O	0.861958	0.184861	0.126135
0	O	0.861942	0.678102	0.624833
0	O	0.323679	0.184667	0.624817
0	O	0.81703	0.13962	0.624914
0	O	0.344807	0.195435	0.206696
0	O	0.851608	0.65744	0.206938
0	O	0.806822	0.150488	0.206711
0	C	0.193118	0.983924	0.0661346
0	C	0.0198552	0.211182	0.0648597
0	C	0.790883	0.809537	0.0654493
0	C	0.982419	0.190937	0.433133
0	C	0.210017	0.0190741	0.432743
0	C	0.810997	0.791381	0.433841
0	C	0.808783	0.0179647	0.931817
0	C	0.982225	0.791046	0.9328
0	C	0.210793	0.192073	0.932491
0	C	0.0200937	0.810955	0.564452
0	C	0.791419	0.982336	0.564762
0	C	0.191221	0.210565	0.564397
0	C	0.857629	0.315485	0.398271
0	C	0.686702	0.544356	0.398153
0	C	0.457954	0.144561	0.398337
0	C	0.648627	0.52382	0.765688
0	C	0.876353	0.353349	0.765721
0	C	0.478053	0.125641	0.765815
0	C	0.477589	0.353226	0.266908
0	C	0.648618	0.125477	0.266897
0	C	0.876372	0.524113	0.266999
0	C	0.68648	0.144363	0.897125
0	C	0.458202	0.315602	0.897089
0	C	0.857689	0.543846	0.89716
0	C	0.524257	0.648528	0.73094
0	C	0.353365	0.876751	0.730852
0	C	0.125216	0.477697	0.730801
0	C	0.315525	0.857194	0.100634
0	C	0.543335	0.686055	0.100789
0	C	0.144169	0.458303	0.100732
0	C	0.144192	0.686332	0.599549
0	C	0.315215	0.457966	0.599564
0	C	0.543705	0.857375	0.599509
0	C	0.353393	0.47779	0.232081
0	C	0.125253	0.648335	0.232148
0	C	0.523906	0.87653	0.232052
0	H	0.262882	0.0465017	0.071156
0	H	0.957474	0.218685	0.0698742
0	H	0.783319	0.739677	0.0705377
0	H	0.0451121	0.260314	0.427934
0	H	0.217038	0.956529	0.427574
0	H	0.741484	0.784278	0.428605
0	H	0.73905	0.955367	0.926794
0	H	0.0447245	0.783687	0.927821
0	H	0.218111	0.26186	0.927435
0	H	0.957558	0.741548	0.569701
0	H	0.784038	0.0446321	0.569972
0	H	0.260803	0.217889	0.569665
0	H	0.927376	0.377569	0.403544
0	H	0.62475	0.55221	0.403424
0	H	0.450457	0.0749032	0.403622
0	H	0.710956	0.593404	0.760425
0	H	0.883369	0.290938	0.760414
0	H	0.408603	0.118506	0.760496
0	H	0.407903	0.291063	0.261645
0	H	0.7109	0.118234	0.261612
0	H	0.883813	0.593763	0.261738
0	H	0.624416	0.0746565	0.902415
0	H	0.450484	0.377648	0.902349
0	H	0.927349	0.551369	0.902428
0	H	0.593988	0.710614	0.736217
0	H	0.291218	0.884179	0.736163
0	H	0.117599	0.408016	0.736107
0	H	0.377841	0.9268	0.095387
0	H	0.550781	0.623808	0.095574
0	H	0.074593	0.451001	0.0954782
0	H	0.0744933	0.624155	0.594293
0	H	0.377338	0.45035	0.594323
0	H	0.551107	0.927024	0.594259
0	H	0.291291	0.408117	0.237384
0	H	0.117976	0.71055	0.237501
0	H	0.593451	0.88392	0.237386
0	C	0.179688	0.939814	0.0438925
0	C	0.0630367	0.240528	0.0424732
0	C	0.760536	0.822733	0.0431373
0	C	0.938812	0.178722	0.455404
0	C	0.241023	0.0626543	0.455033
0	C	0.823256	0.760525	0.456186
0	C	0.822178	0.062027	0.954067
0	C	0.938713	0.761381	0.955143
0	C	0.241348	0.178892	0.954777
0	C	0.0633534	0.823119	0.542135
0	C	0.76107	0.939233	0.5424
0	C	0.178946	0.241289	0.54204
0	C	0.845291	0.27208	0.375968
0	C	0.729777	0.574875	0.375793
0	C	0.427248	0.156833	0.375981
0	C	0.605321	0.511642	0.788001
0	C	0.907702	0.39655	0.788034
0	C	0.489896	0.0942818	0.788126
0	C	0.489939	0.396447	0.289241
0	C	0.605309	0.0941736	0.2892
0	C	0.907456	0.511833	0.289305
0	C	0.729632	0.156615	0.874795
0	C	0.427459	0.272394	0.874751
0	C	0.845338	0.574482	0.874803
0	C	0.511877	0.605395	0.708596
0	C	0.396426	0.907755	0.708513
0	C	0.0943164	0.489896	0.708462
0	C	0.272	0.84504	0.122911
0	C	0.574398	0.729577	0.123086
0	C	0.156394	0.427385	0.123066
0	C	0.156526	0.729785	0.621846
0	C	0.271855	0.427101	0.621883
0	C	0.57456	0.845034	0.621839
0	C	0.396353	0.49006	0.209719
0	C	0.0941742	0.605422	0.209798
0	C	0.511927	0.907602	0.209718
0	C	0.0898946	0.859179	0.0380255
0	C	0.143726	0.231456	0.0366633
0	C	0.769374	0.912354	0.037241
0	C	0.857817	0.0894929	0.461454
0	C	0.232329	0.143414	0.461055
0	C	0.912453	0.768749	0.46223
0	C	0.911935	0.142728	0.959933
0	C	0.857847	0.770235	0.960899
0	C	0.232734	0.0893247	0.960632
0	C	0.144098	0.912415	0.536008
0	C	0.77005	0.858678	0.536355
0	C	0.0896334	0.232691	0.53594
0	C	0.755762	0.191505	0.369897
0	C	0.810181	0.565732	0.36971
0	C	0.436173	0.246308	0.369866
0	C	0.52453	0.422209	0.79406
0	C	0.899253	0.477366	0.794165
0	C	0.579108	0.10261	0.794237
0	C	0.579451	0.477103	0.295302
0	C	0.524482	0.102644	0.295277
0	C	0.898873	0.422424	0.295335
0	C	0.810114	0.24617	0.868682
0	C	0.436458	0.191871	0.86868
0	C	0.755812	0.565427	0.868705
0	C	0.422319	0.524856	0.702516
0	C	0.477041	0.898989	0.702393
0	C	0.103066	0.579318	0.702373
0	C	0.191201	0.75562	0.128963
0	C	0.565652	0.810296	0.129105
0	C	0.24581	0.436132	0.129146
0	C	0.246016	0.810483	0.627895
0	C	0.191194	0.435887	0.627917
0	C	0.565706	0.755544	0.627912
0	C	0.476864	0.579615	0.203606
0	C	0.102851	0.52479	0.203613
0	C	0.42259	0.898926	0.203586
0	H	0.0779077	0.823896	0.0206834
0	H	0.178687	0.253807	0.0192706
0	H	0.746068	0.924314	0.0199038
0	H	0.822473	0.0782769	0.47877
0	H	0.256066	0.178729	0.478371
0	H	0.923852	0.744776	0.479543
0	H	0.923925	0.178014	0.977277
0	H	0.822654	0.747648	0.97826
0	H	0.256146	0.0773459	0.977954
0	H	0.179154	0.92359	0.518655
0	H	0.746688	0.823588	0.519004
0	H	0.0782561	0.256515	0.518604
0	H	0.744266	0.155959	0.35261
0	H	0.845589	0.58938	0.352395
0	H	0.412534	0.257811	0.352526
0	H	0.48897	0.410609	0.811351
0	H	0.923363	0.512664	0.811479
0	H	0.590251	0.0783433	0.811531
0	H	0.591174	0.512667	0.312597
0	H	0.488964	0.0784526	0.312564
0	H	0.922975	0.41087	0.31261
0	H	0.845424	0.257601	0.851369
0	H	0.41266	0.156379	0.85138
0	H	0.744191	0.588973	0.851363
0	H	0.410586	0.489368	0.685211
0	H	0.512373	0.922959	0.685079
0	H	0.0790598	0.590792	0.685078
0	H	0.155631	0.744259	0.146238
0	H	0.589636	0.845991	0.146378
0	H	0.257337	0.412364	0.146468
0	H	0.25753	0.846069	0.645178
0	H	0.155577	0.411981	0.645201
0	H	0.589426	0.743969	0.645233
0	H	0.512185	0.591279	0.18628
0	H	0.0788855	0.489677	0.186275
0	H	0.411346	0.922967	0.186271
0	C	0.0153904	0.825092	0.0549919
0	C	0.178679	0.192462	0.0538008
0	C	0.80942	0.986909	0.0542257
0	C	0.823101	0.0142267	0.44467
0	C	0.191836	0.177956	0.444226
0	C	0.987617	0.80895	0.445409
0	C	0.986413	0.176933	0.942957
0	C	0.823057	0.80933	0.943749
0	C	0.192782	0.0148495	0.943629
0	C	0.17894	0.987789	0.552768
0	C	0.810283	0.823933	0.553208
0	C	0.0143713	0.192278	0.552729
0	C	0.680414	0.157285	0.386644
0	C	0.844524	0.524889	0.386507
0	C	0.476761	0.321621	0.386638
0	C	0.489947	0.346904	0.777284
0	C	0.85858	0.512174	0.77745
0	C	0.654608	0.143349	0.777522
0	C	0.654681	0.511593	0.27851
0	C	0.489892	0.143441	0.278538
0	C	0.858104	0.347175	0.278548
0	C	0.84454	0.321567	0.885422
0	C	0.477325	0.157534	0.885471
0	C	0.680582	0.524832	0.885493
0	C	0.347051	0.490404	0.719297
0	C	0.511674	0.858195	0.719124
0	C	0.143869	0.654688	0.719131
0	C	0.156819	0.680268	0.112213
0	C	0.52478	0.844553	0.112297
0	C	0.321048	0.47669	0.112359
0	C	0.321289	0.844794	0.611126
0	C	0.156879	0.476706	0.611108
0	C	0.525079	0.680315	0.611122
0	C	0.511507	0.654952	0.220377
0	C	0.143546	0.489912	0.220306
0	C	0.347097	0.858123	0.220301
0	H	0.943881	0.761959	0.051327
0	H	0.242019	0.184334	0.0501622
0	H	0.817417	0.0583092	0.050533
0	H	0.759758	0.943028	0.448521
0	H	0.18375	0.24119	0.448054
0	H	0.0587292	0.81666	0.449281
0	H	0.0578809	0.240143	0.946621
0	H	0.759571	0.817266	0.947336
0	H	0.184942	0.943485	0.947286
0	H	0.242099	0.0590468	0.548858
0	H	0.818543	0.760828	0.549341
0	H	0.943168	0.184279	0.548824
0	H	0.60897	0.0941827	0.382748
0	H	0.907497	0.516379	0.382607
0	H	0.485032	0.393011	0.382715
0	H	0.426569	0.275545	0.78114
0	H	0.850701	0.575518	0.781385
0	H	0.725796	0.151127	0.781442
0	H	0.726102	0.574871	0.282364
0	H	0.426544	0.151343	0.282429
0	H	0.850144	0.275836	0.282389
0	H	0.907558	0.393007	0.881481
0	H	0.485699	0.0944703	0.881571
0	H	0.60916	0.516446	0.881575
0	H	0.275582	0.427239	0.715425
0	H	0.574834	0.850031	0.715191
0	H	0.151945	0.726034	0.715239
0	H	0.0935651	0.608928	0.116104
0	H	0.516564	0.907745	0.116154
0	H	0.392382	0.484825	0.116261
0	H	0.392683	0.908015	0.615002
0	H	0.0936825	0.484902	0.61496
0	H	0.516845	0.608907	0.615006
0	H	0.574677	0.726398	0.216475
0	H	0.151558	0.426679	0.216327
0	H	0.275809	0.850067	0.216363
0	C	0.259445	0.978164	0.0260598
0	C	0.0234976	0.280596	0.0245586
0	C	0.719862	0.74258	0.0253915
0	C	0.97843	0.259431	0.472973
0	C	0.282171	0.0233273	0.472665
0	C	0.742443	0.720098	0.473748
0	C	0.742436	0.0235633	0.971904
0	C	0.978109	0.721199	0.973066
0	C	0.28192	0.258993	0.972539
0	C	0.0236709	0.742296	0.524597
0	C	0.720188	0.978755	0.524743
0	C	0.259869	0.282059	0.524516
0	C	0.926041	0.31152	0.358385
0	C	0.689782	0.615712	0.358246
0	C	0.38632	0.076084	0.358385
0	C	0.645174	0.592587	0.805544
0	C	0.948826	0.356814	0.805587
0	C	0.4091	0.0533221	0.805697
0	C	0.409024	0.356598	0.306781
0	C	0.645075	0.0531136	0.306761
0	C	0.948403	0.59263	0.30688
0	C	0.690271	0.0758837	0.857197
0	C	0.386417	0.312194	0.857204
0	C	0.92606	0.615477	0.857201
0	C	0.592819	0.645215	0.691063
0	C	0.356659	0.948826	0.690958
0	C	0.05331	0.409001	0.690916
0	C	0.311387	0.925755	0.140515
0	C	0.615392	0.689792	0.140652
0	C	0.075664	0.386461	0.140666
0	C	0.0758353	0.690293	0.639447
0	C	0.311855	0.386287	0.639436
0	C	0.61549	0.925722	0.639454
0	C	0.356519	0.409108	0.192181
0	C	0.0529848	0.645166	0.192268
0	C	0.592724	0.948661	0.192148
0	C	0.427597	0.0972065	0.0227539
0	C	0.905586	0.331903	0.0218285
0	C	0.669908	0.574179	0.0225162
0	C	0.0967261	0.427786	0.475578
0	C	0.332278	0.904963	0.47555
0	C	0.57392	0.669701	0.476142
0	C	0.574255	0.90456	0.975206
0	C	0.0962004	0.670111	0.975816
0	C	0.332048	0.427472	0.975389
0	C	0.905207	0.574	0.522019
0	C	0.669797	0.0969526	0.521961
0	C	0.428148	0.331959	0.521993
0	C	0.0946743	0.429674	0.355597
0	C	0.571615	0.665895	0.3556
0	C	0.336056	0.907387	0.355649
0	C	0.762984	0.761271	0.808289
0	C	0.999568	0.238971	0.808349
0	C	0.240478	0.00261039	0.808476
0	C	0.240475	0.238541	0.309518
0	C	0.763155	0.00265239	0.309515
0	C	0.998953	0.761251	0.309629
0	C	0.572172	0.907151	0.854344
0	C	0.336162	0.43029	0.85448
0	C	0.0946894	0.665829	0.854406
0	C	0.761349	0.763278	0.688328
0	C	0.238588	0.999279	0.688191
0	C	0.00298149	0.24046	0.688182
0	C	0.42938	0.0945522	0.143335
0	C	0.665859	0.571829	0.143367
0	C	0.90701	0.336062	0.143438
0	C	0.907152	0.572214	0.642249
0	C	0.430034	0.336102	0.642068
0	C	0.665858	0.0944705	0.642196
0	C	0.238629	0.240481	0.189399
0	C	0.00249982	0.763174	0.189504
0	C	0.761313	0.999298	0.189348
0	C	0.496789	0.0666094	0.0246716
0	C	0.935558	0.431506	0.0241109
0	C	0.57014	0.505015	0.0246324
0	C	0.066527	0.497207	0.47334
0	C	0.431904	0.934925	0.473406
0	C	0.504314	0.570123	0.473816
0	C	0.505254	0.935407	0.973295
0	C	0.0662413	0.570527	0.97349
0	C	0.431844	0.496649	0.973356
0	C	0.935307	0.504481	0.524188
0	C	0.570176	0.0668657	0.524207
0	C	0.497815	0.431523	0.524319
0	C	0.164612	0.400142	0.357884
0	C	0.601481	0.765498	0.357806
0	C	0.236518	0.837487	0.357932
0	C	0.733323	0.83112	0.806015
0	C	0.0990506	0.268546	0.806113
0	C	0.170459	0.903132	0.806165
0	C	0.17085	0.268501	0.307294
0	C	0.733485	0.903126	0.307228
0	C	0.098498	0.831139	0.307372
0	C	0.601817	0.837274	0.85662
0	C	0.236603	0.400462	0.856705
0	C	0.164577	0.765414	0.856617
0	C	0.831078	0.733462	0.690571
0	C	0.268245	0.0988137	0.69045
0	C	0.903463	0.170574	0.690491
0	C	0.399791	0.16446	0.141035
0	C	0.765439	0.601649	0.141212
0	C	0.837206	0.236463	0.141205
0	C	0.837349	0.601924	0.639958
0	C	0.400149	0.236503	0.639846
0	C	0.765421	0.16438	0.639978
0	C	0.268359	0.170677	0.191654
0	C	0.903038	0.733597	0.1918
0	C	0.831411	0.0987619	0.19164
0	C	0.5819	0.114811	0.01126
0	C	0.886762	0.468543	0.0109883
0	C	0.532823	0.419672	0.011307
0	C	0.115032	0.582772	0.486587
0	C	0.468612	0.88635	0.486759
0	C	0.418638	0.533144	0.487001
0	C	0.420019	0.887231	0.986659
0	C	0.114944	0.533379	0.986609
0	C	0.468939	0.581957	0.98669
0	C	0.886652	0.419008	0.510912
0	C	0.533177	0.115347	0.510927
0	C	0.58328	0.468528	0.511046
0	C	0.250032	0.448873	0.344599
0	C	0.55274	0.802096	0.34451
0	C	0.199642	0.751903	0.3447
0	C	0.782097	0.916694	0.819254
0	C	0.135805	0.219837	0.819375
0	C	0.0847376	0.866335	0.819337
0	C	0.0852908	0.219852	0.320538
0	C	0.782082	0.866171	0.320471
0	C	0.135298	0.916778	0.320593
0	C	0.553209	0.751817	0.843335
0	C	0.199963	0.449078	0.843372
0	C	0.250039	0.802097	0.843349
0	C	0.916573	0.782097	0.6773
0	C	0.219615	0.135691	0.677194
0	C	0.866526	0.0849154	0.677274
0	C	0.448414	0.249943	0.154312
0	C	0.801871	0.552856	0.154551
0	C	0.751637	0.199668	0.154432
0	C	0.751831	0.553228	0.653207
0	C	0.448857	0.199857	0.653138
0	C	0.802118	0.24995	0.65321
0	C	0.219623	0.0851258	0.178408
0	C	0.866109	0.782141	0.178538
0	C	0.917034	0.135449	0.178431
0	H	0.635368	0.0907888	0.0117687
0	H	0.910395	0.545939	0.0117369
0	H	0.455296	0.366359	0.0119155
0	H	0.0918835	0.636907	0.485815
0	H	0.545862	0.909284	0.486061
0	H	0.364557	0.455812	0.486233
0	H	0.366677	0.911418	0.986148
0	H	0.0913294	0.455995	0.985819
0	H	0.546494	0.635243	0.98616
0	H	0.909767	0.364834	0.511618
0	H	0.455914	0.0923149	0.511691
0	H	0.637447	0.545823	0.511836
0	H	0.304508	0.426253	0.345391
0	H	0.575627	0.879277	0.345216
0	H	0.122548	0.697485	0.345501
0	H	0.7593	0.970995	0.818398
0	H	0.212971	0.242796	0.818563
0	H	0.0302163	0.789281	0.818372
0	H	0.0312016	0.242909	0.319705
0	H	0.759079	0.788945	0.319585
0	H	0.212422	0.971236	0.319671
0	H	0.575917	0.697401	0.844116
0	H	0.122801	0.426203	0.844089
0	H	0.304435	0.879249	0.844087
0	H	0.970725	0.759126	0.678139
0	H	0.242597	0.212916	0.678056
0	H	0.789424	0.0304441	0.678241
0	H	0.425727	0.30437	0.153514
0	H	0.879048	0.575742	0.153893
0	H	0.697286	0.122511	0.153668
0	H	0.697439	0.575957	0.652404
0	H	0.425956	0.122675	0.65242
0	H	0.879237	0.304366	0.652463
0	H	0.242449	0.0308449	0.179253
0	H	0.788961	0.759205	0.179402
0	H	0.9716	0.212498	0.179374
0	C	0.598449	0.192841	0.996587
0	C	0.808517	0.407301	0.996336
0	C	0.593941	0.402775	0.996597
0	C	0.192546	0.599184	0.501442
0	C	0.407123	0.808849	0.501579
0	C	0.40206	0.594374	0.501765
0	C	0.40315	0.808968	0.0012853
0	C	0.193041	0.594499	0.00132005
0	C	0.407555	0.598851	0.00129915
0	C	0.808998	0.402703	0.496127
0	C	0.594394	0.192925	0.49609
0	C	0.599505	0.407364	0.49617
0	C	0.266026	0.526222	0.329736
0	C	0.475214	0.740606	0.329712
0	C	0.260918	0.735756	0.329852
0	C	0.859508	0.932966	0.834119
0	C	0.0743814	0.142302	0.834187
0	C	0.0685744	0.927507	0.834217
0	C	0.0688401	0.14227	0.335368
0	C	0.859459	0.927381	0.33534
0	C	0.0741181	0.93299	0.335457
0	C	0.475787	0.735674	0.828486
0	C	0.261353	0.526459	0.828518
0	C	0.26612	0.740638	0.828555
0	C	0.932857	0.859527	0.662435
0	C	0.142202	0.0744049	0.662348
0	C	0.927533	0.068699	0.662347
0	C	0.525765	0.266048	0.169186
0	C	0.740253	0.475289	0.169328
0	C	0.735392	0.261021	0.169227
0	C	0.735606	0.475733	0.668045
0	C	0.526346	0.261303	0.667957
0	C	0.740633	0.266086	0.667981
0	C	0.142155	0.0688041	0.163561
0	C	0.927335	0.85949	0.163653
0	C	0.933044	0.0741796	0.163551
0	C	0.530763	0.225458	0.995794
0	C	0.775977	0.307004	0.995337
0	C	0.694233	0.470436	0.995593
0	C	0.224809	0.531255	0.502513
0	C	0.306875	0.776476	0.50248
0	C	0.470042	0.694583	0.502874
0	C	0.470715	0.776206	0.00210425
0	C	0.225584	0.694791	0.00236231
0	C	0.307244	0.531203	0.00220692
0	C	0.776721	0.47064	0.495159
0	C	0.694653	0.225421	0.495087
0	C	0.531479	0.307176	0.495052
0	C	0.197979	0.558353	0.328699
0	C	0.443228	0.640453	0.328635
0	C	0.361118	0.803805	0.328796
0	C	0.891315	0.864664	0.83521
0	C	0.974281	0.110318	0.835182
0	C	0.136896	0.0275852	0.835313
0	C	0.136963	0.110246	0.336443
0	C	0.891506	0.0275349	0.336384
0	C	0.974037	0.864755	0.336497
0	C	0.443503	0.803607	0.827461
0	C	0.361485	0.55846	0.827426
0	C	0.198019	0.640428	0.827542
0	C	0.864666	0.891467	0.661362
0	C	0.110163	0.97425	0.661331
0	C	0.0276052	0.136945	0.661252
0	C	0.557982	0.198062	0.170233
0	C	0.640117	0.443314	0.170348
0	C	0.803477	0.361229	0.170285
0	C	0.803573	0.443508	0.669113
0	C	0.558352	0.36146	0.669048
0	C	0.640426	0.198033	0.66897
0	C	0.110274	0.137047	0.162485
0	C	0.0274307	0.891498	0.162596
0	C	0.864703	0.9741	0.162498
0	C	0.44442	0.176244	0.00884483
0	C	0.826089	0.269888	0.00801112
0	C	0.731684	0.557181	0.0084902
0	C	0.175488	0.444588	0.48959
0	C	0.269971	0.826013	0.489484
0	C	0.557074	0.731696	0.490125
0	C	0.557153	0.825351	0.989083
0	C	0.175596	0.732015	0.989678
0	C	0.270016	0.444467	0.989315
0	C	0.826261	0.557265	0.50809
0	C	0.731827	0.175929	0.508
0	C	0.444673	0.270028	0.507899
0	C	0.111233	0.508386	0.341575
0	C	0.493126	0.60368	0.341531
0	C	0.398169	0.890521	0.341706
0	C	0.841421	0.777769	0.822391
0	C	0.93741	0.160276	0.822348
0	C	0.223886	0.0645793	0.82254
0	C	0.223793	0.15997	0.323598
0	C	0.841725	0.064617	0.323563
0	C	0.937019	0.777827	0.323684
0	C	0.49331	0.890355	0.840357
0	C	0.398267	0.508617	0.840345
0	C	0.111394	0.603557	0.840473
0	C	0.777868	0.84171	0.674215
0	C	0.159996	0.937243	0.674161
0	C	0.0647547	0.223886	0.674064
0	C	0.508181	0.111308	0.157343
0	C	0.603529	0.493322	0.157425
0	C	0.890164	0.398228	0.157375
0	C	0.890381	0.493391	0.656255
0	C	0.508504	0.398277	0.65615
0	C	0.603548	0.111326	0.656065
0	C	0.160148	0.223935	0.175309
0	C	0.0644646	0.841692	0.175432
0	C	0.777769	0.937228	0.175289
0	H	0.390379	0.199635	0.00844393
0	H	0.803018	0.19252	0.00737544
0	H	0.809014	0.611502	0.00786703
0	H	0.198382	0.390198	0.490187
0	H	0.192659	0.803051	0.489969
0	H	0.61178	0.808879	0.490854
0	H	0.61105	0.801769	0.989489
0	H	0.198643	0.809372	0.990351
0	H	0.192678	0.390161	0.989863
0	H	0.803338	0.61164	0.507585
0	H	0.809159	0.198986	0.50744
0	H	0.389892	0.192874	0.50715
0	H	0.056503	0.530912	0.340963
0	H	0.470946	0.526497	0.340858
0	H	0.475557	0.94495	0.34118
0	H	0.863605	0.722849	0.823171
0	H	0.860182	0.137766	0.823049
0	H	0.278656	0.141814	0.823335
0	H	0.278493	0.137538	0.324346
0	H	0.864288	0.141856	0.324311
0	H	0.85982	0.723148	0.32444
0	H	0.470486	0.944876	0.839798
0	H	0.475409	0.530724	0.839645
0	H	0.0568803	0.526179	0.839983
0	H	0.723072	0.864011	0.673457
0	H	0.137421	0.859996	0.673439
0	H	0.141944	0.278585	0.673261
0	H	0.53091	0.0567191	0.157931
0	H	0.526386	0.471224	0.158069
0	H	0.944636	0.475619	0.157894
0	H	0.944989	0.470704	0.656872
0	H	0.53067	0.475453	0.656838
0	H	0.52616	0.0569008	0.656537
0	H	0.137857	0.278778	0.174555
0	H	0.141687	0.864203	0.174684
0	H	0.722957	0.860006	0.174521
0	C	0.688172	0.237451	0.981258
0	C	0.763494	0.452707	0.981261
0	C	0.548228	0.312462	0.981484
0	C	0.237015	0.68922	0.516686
0	C	0.452158	0.764299	0.516979
0	C	0.3117	0.548783	0.516875
0	C	0.313181	0.764231	0.0165254
0	C	0.23775	0.548914	0.0164428
0	C	0.453022	0.689138	0.016421
0	C	0.764271	0.312731	0.48086
0	C	0.549011	0.237501	0.480823
0	C	0.689511	0.453034	0.480932
0	C	0.355908	0.57065	0.314446
0	C	0.430564	0.786063	0.314517
0	C	0.215575	0.645838	0.314558
0	C	0.90415	0.023046	0.849332
0	C	0.119584	0.0975833	0.849459
0	C	0.978536	0.882197	0.849427
0	C	0.978732	0.0975452	0.350567
0	C	0.904053	0.882077	0.350626
0	C	0.119471	0.0230584	0.350669
0	C	0.431306	0.645724	0.813213
0	C	0.215718	0.570846	0.813299
0	C	0.356064	0.785865	0.813282
0	C	0.0228433	0.904171	0.647191
0	C	0.0974643	0.119601	0.647075
0	C	0.882051	0.97862	0.647138
0	C	0.57011	0.355911	0.184491
0	C	0.785652	0.430674	0.184552
0	C	0.645311	0.215704	0.184449
0	C	0.645566	0.431229	0.683279
0	C	0.570804	0.215741	0.683183
0	C	0.785797	0.356003	0.683274
0	C	0.0974024	0.978633	0.148382
0	C	0.881901	0.903971	0.148379
0	C	0.02296	0.1194	0.148296
0	H	0.698082	0.178356	0.973632
0	H	0.822266	0.522022	0.973665
0	H	0.478795	0.302003	0.974016
0	H	0.17782	0.699523	0.524097
0	H	0.521438	0.823472	0.524521
0	H	0.30119	0.479216	0.524314
0	H	0.303097	0.82323	0.0241436
0	H	0.178795	0.479575	0.0239829
0	H	0.52235	0.699612	0.023969
0	H	0.823327	0.302444	0.473348
0	H	0.479528	0.178359	0.473363
0	H	0.699702	0.522514	0.47352
0	H	0.366115	0.511389	0.307016
0	H	0.489734	0.855426	0.307021
0	H	0.14617	0.635607	0.307098
0	H	0.845143	0.0337612	0.856758
0	H	0.189194	0.156492	0.856956
0	H	0.967889	0.81278	0.857021
0	H	0.967955	0.156491	0.35802
0	H	0.845161	0.812522	0.358121
0	H	0.188984	0.0338197	0.358217
0	H	0.490474	0.635407	0.805779
0	H	0.146349	0.511522	0.805849
0	H	0.366304	0.855195	0.805763
0	H	0.0335188	0.845164	0.639738
0	H	0.156276	0.189144	0.639553
0	H	0.812495	0.967878	0.639628
0	H	0.510843	0.366164	0.191888
0	H	0.854956	0.489876	0.192066
0	H	0.634968	0.146298	0.191946
0	H	0.635244	0.49043	0.690702
0	H	0.511525	0.146346	0.690638
0	H	0.855114	0.366249	0.6908
0	H	0.156328	0.967855	0.14093
0	H	0.812226	0.844931	0.140946
0	H	0.0335017	0.188733	0.140674
0	H	0.678492	0.274449	0.965556
0	H	0.72632	0.406387	0.965517
0	H	0.594237	0.321454	0.965695
0	H	0.273602	0.679693	0.532481
0	H	0.405451	0.727724	0.532694
0	H	0.320812	0.594932	0.532627
0	H	0.322591	0.727074	0.0322336
0	H	0.274652	0.595102	0.032226
0	H	0.406739	0.680093	0.0321572
0	H	0.727404	0.32231	0.465132
0	H	0.595313	0.274082	0.465052
0	H	0.680071	0.406876	0.46516
0	H	0.346149	0.607087	0.298656
0	H	0.393625	0.739744	0.298772
0	H	0.261959	0.655731	0.298787
0	H	0.940552	0.0133951	0.865141
0	H	0.0732264	0.0610606	0.865212
0	H	0.988254	0.928751	0.865131
0	H	0.988327	0.0610168	0.366353
0	H	0.940528	0.928443	0.366377
0	H	0.0730756	0.0133757	0.366394
0	H	0.394853	0.655458	0.797421
0	H	0.261862	0.607628	0.79752
0	H	0.346276	0.739323	0.79755
0	H	0.0131007	0.940596	0.631406
0	H	0.0608517	0.0731631	0.631345
0	H	0.928305	0.988277	0.631386
0	H	0.606353	0.346032	0.200307
0	H	0.739281	0.393704	0.200285
0	H	0.65496	0.262135	0.200196
0	H	0.65517	0.394709	0.699076
0	H	0.607545	0.261968	0.698956
0	H	0.739199	0.346111	0.699
0	H	0.0608303	0.988141	0.132589
0	H	0.928039	0.940297	0.13258
0	H	0.0131199	0.0727245	0.13261
0	C	0.545602	0.964215	0.044647
0	C	0.0370941	0.581929	0.0445342
0	C	0.419197	0.456342	0.0447741
0	C	0.963967	0.545864	0.453408
0	C	0.583546	0.0372604	0.453574
0	C	0.455118	0.418914	0.453752
0	C	0.456678	0.0377926	0.953229
0	C	0.964481	0.420148	0.953059
0	C	0.582837	0.545734	0.953198
0	C	0.0373737	0.455225	0.544119
0	C	0.41873	0.964094	0.544074
0	C	0.547043	0.582943	0.544292
0	C	0.214123	0.297854	0.377637
0	C	0.704021	0.91746	0.377536
0	C	0.0851015	0.788548	0.377852
0	C	0.630568	0.880003	0.786163
0	C	0.250649	0.371052	0.786263
0	C	0.121321	0.751626	0.786228
0	C	0.121872	0.371164	0.287459
0	C	0.63072	0.75146	0.287386
0	C	0.250172	0.880534	0.287496
0	C	0.703877	0.787774	0.876492
0	C	0.0844982	0.29777	0.876349
0	C	0.213875	0.917228	0.876406
0	C	0.880055	0.630669	0.71035
0	C	0.370801	0.25052	0.710289
0	C	0.751806	0.121457	0.710346
0	C	0.297617	0.213809	0.12115
0	C	0.917585	0.704015	0.121558
0	C	0.788145	0.084798	0.121374
0	C	0.787922	0.704036	0.620084
0	C	0.297489	0.0845791	0.620103
0	C	0.916958	0.213578	0.620092
0	C	0.370957	0.121651	0.211522
0	C	0.751429	0.630743	0.211614
0	C	0.880746	0.250442	0.211517
0	H	0.505795	0.900463	0.0561714
0	H	0.100908	0.605487	0.0560187
0	H	0.395588	0.496705	0.0561909
0	H	0.898493	0.505249	0.442485
0	H	0.60835	0.102382	0.442515
0	H	0.495838	0.394152	0.442845
0	H	0.496471	0.1013	0.94163
0	H	0.900501	0.396626	0.941637
0	H	0.606648	0.505471	0.941807
0	H	0.102714	0.495535	0.555106
0	H	0.394177	0.898995	0.555127
0	H	0.506168	0.607863	0.555087
0	H	0.173371	0.23179	0.388369
0	H	0.769733	0.942504	0.388387
0	H	0.0605205	0.829211	0.388854
0	H	0.564917	0.838969	0.775314
0	H	0.275547	0.436886	0.77547
0	H	0.162067	0.726919	0.775312
0	H	0.162701	0.436662	0.276546
0	H	0.564914	0.726713	0.276611
0	H	0.274942	0.839825	0.276589
0	H	0.769557	0.828324	0.887363
0	H	0.0591441	0.231605	0.887046
0	H	0.173077	0.942346	0.88718
0	H	0.83914	0.565012	0.721205
0	H	0.436415	0.275274	0.721142
0	H	0.727206	0.162203	0.721295
0	H	0.231909	0.173172	0.110295
0	H	0.943087	0.770161	0.110845
0	H	0.828943	0.059847	0.110544
0	H	0.828549	0.769748	0.609226
0	H	0.231713	0.0595669	0.609282
0	H	0.941823	0.172848	0.609209
0	H	0.436498	0.16257	0.222415
0	H	0.726617	0.564819	0.222366
0	H	0.839945	0.275356	0.222342
0	H	0.605823	0.0239297	0.0540884
0	H	0.977258	0.581534	0.0541139
0	H	0.418674	0.396438	0.0543832
0	H	0.0223276	0.605059	0.44339
0	H	0.584721	0.978664	0.44375
0	H	0.396282	0.418506	0.44366
0	H	0.39654	0.977856	0.943825
0	H	0.0240934	0.420371	0.94341
0	H	0.582798	0.605245	0.943533
0	H	0.978706	0.396078	0.554077
0	H	0.417208	0.0225055	0.553901
0	H	0.605952	0.583796	0.554452
0	H	0.273395	0.355616	0.387799
0	H	0.646009	0.918776	0.387611
0	H	0.0836548	0.728871	0.387806
0	H	0.688483	0.939308	0.776062
0	H	0.251856	0.313145	0.776121
0	H	0.0620931	0.750587	0.776183
0	H	0.0625446	0.312976	0.277427
0	H	0.688452	0.749982	0.277241
0	H	0.251135	0.939736	0.277456
0	H	0.645769	0.728378	0.886549
0	H	0.0828324	0.355384	0.886532
0	H	0.273081	0.91861	0.886558
0	H	0.939483	0.688638	0.720411
0	H	0.312841	0.251905	0.720351
0	H	0.750412	0.0618971	0.720317
0	H	0.355635	0.273194	0.111069
0	H	0.918801	0.646185	0.111368
0	H	0.728879	0.0834658	0.111261
0	H	0.728671	0.64591	0.610001
0	H	0.355395	0.0832279	0.609987
0	H	0.918057	0.272804	0.610007
0	H	0.312887	0.0623009	0.221576
0	H	0.749742	0.688378	0.221767
0	H	0.939878	0.251578	0.22163
0	H	0.56953	0.945235	0.028305
0	H	0.0557243	0.625729	0.0283402
0	H	0.376244	0.431766	0.0284601
0	H	0.947602	0.571418	0.469861
0	H	0.625242	0.0542304	0.470076
0	H	0.428963	0.376773	0.470164
0	H	0.432638	0.0570615	0.969507
0	H	0.946026	0.376408	0.969259
0	H	0.625972	0.570815	0.969478
0	H	0.053817	0.429669	0.527676
0	H	0.377027	0.946964	0.527572
0	H	0.573114	0.624635	0.527815
0	H	0.239775	0.282483	0.361051
0	H	0.719881	0.958893	0.361004
0	H	0.0434244	0.763477	0.361343
0	H	0.614616	0.90579	0.802632
0	H	0.292186	0.386671	0.802757
0	H	0.0955123	0.709734	0.802672
0	H	0.0961985	0.387309	0.303923
0	H	0.615038	0.709938	0.30388
0	H	0.291933	0.906347	0.303954
0	H	0.719751	0.762312	0.859942
0	H	0.0435113	0.282494	0.85976
0	H	0.239629	0.958534	0.859857
0	H	0.905612	0.614686	0.693844
0	H	0.386748	0.292082	0.693794
0	H	0.710171	0.0961072	0.693861
0	H	0.281761	0.239299	0.137698
0	H	0.958732	0.719179	0.13812
0	H	0.762467	0.0433001	0.137897
0	H	0.762274	0.719863	0.636608
0	H	0.281723	0.0431264	0.636629
0	H	0.958606	0.239265	0.636593
0	H	0.387046	0.0959416	0.195059
0	H	0.710125	0.615123	0.195083
0	H	0.906691	0.292072	0.195039
