#******************************************
#
# CIF file created by Zeo++
# Zeo++ is an open source package to
# analyze microporous materials
#
#*******************************************

_cell_length_a		14.3502(0)
_cell_length_b		28.6014(0)
_cell_length_c		26.1978(0)
_cell_angle_alpha		90(0)
_cell_angle_beta		100.476(0)
_cell_angle_gamma		90(0)

_symmetry_space_group_name_H-M		'P1'
_symmetry_Int_Tables_number		1
_symmetry_cell_setting		Monoclinic

loop_
_symmetry_equiv_pos_as_xyz
'+x,+y,+z'

loop_
_atom_site_label
_atom_site_type_symbol
_atom_site_fract_x
_atom_site_fract_y
_atom_site_fract_z
0	C	0.925881	0.144843	0.553458
0	C	0.0309964	0.144802	0.979047
0	C	0.0311569	0.80992	0.479249
0	C	0.926631	0.811682	0.0514215
0	C	0.418619	0.634653	0.55177
0	C	0.538562	0.634193	0.980123
0	C	0.538301	0.320531	0.479734
0	C	0.41906	0.321742	0.0509924
0	C	0.986512	0.125181	0.519631
0	C	0.971478	0.124417	0.0129725
0	C	0.970378	0.829682	0.512907
0	C	0.986136	0.831969	0.0174434
0	C	0.479073	0.614423	0.518225
0	C	0.47962	0.613188	0.0139639
0	C	0.477834	0.340817	0.513247
0	C	0.47798	0.342763	0.0171611
0	C	0.899755	0.106575	0.516341
0	C	0.0579623	0.105863	0.0150893
0	C	0.057125	0.848296	0.516219
0	C	0.899645	0.850538	0.0152857
0	C	0.391644	0.596521	0.514626
0	C	0.566823	0.595411	0.0161965
0	C	0.565241	0.358727	0.516801
0	C	0.390754	0.360511	0.0149131
0	C	0.828939	0.0738329	0.493167
0	C	0.130144	0.0731232	0.0366947
0	C	0.127883	0.881163	0.53921
0	C	0.82736	0.883208	0.993652
0	C	0.318959	0.564739	0.491374
0	C	0.641023	0.56372	0.0378418
0	C	0.637943	0.390554	0.539946
0	C	0.316532	0.392194	0.993283
0	C	0.817228	0.0647228	0.439058
0	C	0.145522	0.0635678	0.0907909
0	C	0.139753	0.890391	0.593299
0	C	0.811864	0.892684	0.939535
0	C	0.308553	0.554618	0.437553
0	C	0.654883	0.552996	0.0916385
0	C	0.648482	0.400778	0.593749
0	C	0.302595	0.402939	0.939489
0	C	0.746978	0.0335216	0.416242
0	C	0.218279	0.0330984	0.112225
0	C	0.209996	0.921665	0.615974
0	C	0.739037	0.923109	0.918093
0	C	0.235635	0.524978	0.414366
0	C	0.730305	0.524203	0.113472
0	C	0.721481	0.430428	0.616827
0	C	0.227184	0.431758	0.917698
0	H	0.736324	0.027208	0.374561
0	H	0.231921	0.026643	0.153915
0	H	0.220798	0.928061	0.657646
0	H	0.72533	0.929522	0.876402
0	H	0.226208	0.51791	0.372885
0	H	0.742532	0.516879	0.154949
0	H	0.731042	0.437563	0.658299
0	H	0.214947	0.439108	0.876224
0	C	0.689448	0.0101254	0.445974
0	C	0.274611	0.0107184	0.0810623
0	C	0.26729	0.945032	0.586084
0	C	0.682676	0.94548	0.949243
0	C	0.173749	0.504231	0.443469
0	C	0.791364	0.504708	0.0830162
0	C	0.783245	0.451116	0.587604
0	C	0.16609	0.451201	0.948165
0	C	0.703089	0.0183205	0.499383
0	C	0.25685	0.0189871	0.0276186
0	C	0.253416	0.936746	0.53269
0	C	0.700526	0.937267	0.00269625
0	C	0.186109	0.513291	0.496684
0	C	0.775037	0.513899	0.0297463
0	C	0.770694	0.441985	0.534396
0	C	0.182472	0.441993	0.00142729
0	H	0.659917	0.999752	0.522971
0	H	0.298915	0.00102016	0.00300217
0	H	0.296384	0.955313	0.508975
0	H	0.658408	0.955233	0.0272853
0	H	0.139483	0.496643	0.519753
0	H	0.82066	0.498024	0.00561526
0	H	0.817182	0.458602	0.511223
0	H	0.136838	0.457821	0.0255777
0	C	0.771411	0.0502899	0.523366
0	C	0.186044	0.0502933	0.00507525
0	C	0.185127	0.904704	0.508855
0	C	0.771406	0.906014	0.0252585
0	C	0.257478	0.543533	0.521072
0	C	0.7012	0.543411	0.00677602
0	C	0.699298	0.411704	0.510126
0	C	0.256341	0.412479	0.024362
0	C	0.0773323	0.127506	0.5048
0	C	0.880623	0.126687	0.0277953
0	C	0.879312	0.827446	0.527478
0	C	0.0770337	0.829559	0.0027124
0	C	0.570752	0.615674	0.504077
0	C	0.388034	0.614403	0.0282155
0	C	0.386114	0.339525	0.527336
0	C	0.569574	0.341547	0.00292778
0	C	0.115204	0.17134	0.493846
0	C	0.842588	0.170504	0.0387219
0	C	0.841143	0.783648	0.538289
0	C	0.114936	0.785658	0.99197
0	C	0.609955	0.658717	0.491672
0	C	0.348651	0.65743	0.0405793
0	C	0.347048	0.296457	0.539754
0	C	0.608901	0.298514	0.990538
0	C	0.206055	0.173466	0.481681
0	C	0.750908	0.172718	0.049759
0	C	0.750044	0.781595	0.55015
0	C	0.206778	0.783291	0.981197
0	C	0.701192	0.659618	0.479867
0	C	0.256582	0.658474	0.0512335
0	C	0.255754	0.295471	0.551485
0	C	0.701015	0.297456	0.979962
0	H	0.23516	0.20729	0.472685
0	H	0.721828	0.206555	0.0587039
0	H	0.72078	0.747786	0.559077
0	H	0.235784	0.749393	0.972396
0	H	0.731234	0.692905	0.469851
0	H	0.226562	0.691754	0.0611886
0	H	0.225834	0.262155	0.561513
0	H	0.731001	0.264171	0.969975
0	C	0.259885	0.132698	0.48041
0	C	0.696356	0.132049	0.0497159
0	C	0.696212	0.822386	0.551181
0	C	0.261622	0.823878	0.981327
0	C	0.754122	0.618367	0.48023
0	C	0.202904	0.617358	0.04954
0	C	0.202602	0.336656	0.551009
0	C	0.754797	0.33855	0.981743
0	C	0.221024	0.089152	0.489502
0	C	0.735531	0.0884932	0.041
0	C	0.735344	0.865899	0.542196
0	C	0.222543	0.86751	0.98981
0	C	0.714138	0.575564	0.491022
0	C	0.243212	0.574529	0.0391268
0	C	0.242424	0.379493	0.540159
0	C	0.714517	0.381383	0.992164
0	H	0.261902	0.0574727	0.487288
0	H	0.694128	0.0568266	0.04234
0	H	0.694442	0.89761	0.544206
0	H	0.264151	0.899111	0.988505
0	H	0.754176	0.543347	0.490272
0	H	0.202621	0.542368	0.0389409
0	H	0.202177	0.411659	0.540793
0	H	0.755175	0.413533	0.992402
0	C	0.130034	0.0861376	0.501509
0	C	0.827366	0.085358	0.0302097
0	C	0.826595	0.868852	0.530535
0	C	0.130533	0.870807	0.000313902
0	C	0.623073	0.573844	0.503122
0	C	0.335203	0.572642	0.0283668
0	C	0.333546	0.381296	0.528145
0	C	0.622473	0.383291	0.00284275
0	C	0.911514	0.173767	0.589491
0	C	0.0443815	0.17406	0.943097
0	C	0.0455558	0.781233	0.442957
0	C	0.913083	0.782438	0.0873747
0	C	0.404441	0.663389	0.588083
0	C	0.551288	0.663445	0.944019
0	C	0.552405	0.291786	0.44342
0	C	0.406195	0.292437	0.0870349
0	C	0.853998	0.194052	0.624435
0	C	0.101458	0.194564	0.908115
0	C	0.103064	0.761355	0.407781
0	C	0.855722	0.761988	0.122253
0	C	0.347247	0.683333	0.623439
0	C	0.607739	0.683914	0.908619
0	C	0.609523	0.271886	0.408005
0	C	0.349478	0.271948	0.122286
0	C	0.942475	0.210772	0.627628
0	C	0.0129849	0.211233	0.905306
0	C	0.0146223	0.74457	0.404433
0	C	0.944198	0.745269	0.125233
0	C	0.436112	0.699636	0.626971
0	C	0.518857	0.700043	0.905702
0	C	0.520672	0.255577	0.404509
0	C	0.438385	0.255801	0.125342
0	C	0.0171701	0.241725	0.650136
0	C	0.937839	0.242128	0.883205
0	C	0.939928	0.713788	0.381499
0	C	0.0191549	0.714352	0.147558
0	C	0.512179	0.729738	0.649922
0	C	0.442361	0.730126	0.88328
0	C	0.444648	0.225504	0.38145
0	C	0.514805	0.225696	0.147849
0	C	0.995155	0.287124	0.666405
0	C	0.959025	0.287769	0.867291
0	C	0.961913	0.668483	0.364946
0	C	0.997826	0.668726	0.16345
0	C	0.492092	0.775207	0.666715
0	C	0.461687	0.775831	0.866829
0	C	0.464816	0.180092	0.36452
0	C	0.495379	0.179964	0.164164
0	C	0.0682406	0.316604	0.690061
0	C	0.885383	0.317153	0.844033
0	C	0.888843	0.639172	0.340922
0	C	0.0713308	0.639332	0.186872
0	C	0.566404	0.80396	0.690515
0	C	0.386874	0.804495	0.843409
0	C	0.390591	0.151401	0.340497
0	C	0.570087	0.151263	0.187641
0	H	0.050888	0.351544	0.701989
0	H	0.902139	0.352329	0.832532
0	H	0.906167	0.604299	0.328785
0	H	0.0544606	0.604157	0.198318
0	H	0.550409	0.838991	0.702826
0	H	0.402269	0.83973	0.831473
0	H	0.406643	0.116424	0.328071
0	H	0.554607	0.115993	0.199436
0	C	0.163162	0.302318	0.697827
0	C	0.790737	0.302446	0.836141
0	C	0.793957	0.653533	0.333087
0	C	0.166001	0.654044	0.195018
0	C	0.660703	0.788781	0.69805
0	C	0.292831	0.788918	0.83576
0	C	0.296278	0.166567	0.332923
0	C	0.664138	0.166855	0.195525
0	C	0.184585	0.258022	0.680597
0	C	0.770129	0.257891	0.852984
0	C	0.772551	0.697745	0.350548
0	C	0.186779	0.698607	0.178259
0	C	0.680275	0.744375	0.680347
0	C	0.274026	0.744276	0.853111
0	C	0.27661	0.2109	0.350781
0	C	0.683066	0.211533	0.178317
0	H	0.258405	0.247084	0.685567
0	H	0.696469	0.2466	0.847857
0	H	0.698769	0.70875	0.345506
0	H	0.260438	0.709936	0.183595
0	H	0.753709	0.732768	0.685125
0	H	0.200769	0.732345	0.848193
0	H	0.203162	0.222488	0.345988
0	H	0.756334	0.223475	0.183414
0	C	0.113318	0.227618	0.6566
0	C	0.841909	0.227685	0.876789
0	C	0.843836	0.727985	0.374892
0	C	0.115127	0.728787	0.154246
0	C	0.607785	0.714752	0.65612
0	C	0.346965	0.714832	0.877149
0	C	0.349028	0.240469	0.375215
0	C	0.610219	0.240988	0.154189
0	C	0.76364	0.193491	0.64003
0	C	0.191703	0.193894	0.892401
0	C	0.193262	0.762164	0.391988
0	C	0.7653	0.762637	0.137769
0	C	0.256959	0.681965	0.639222
0	C	0.697796	0.682712	0.892608
0	C	0.699661	0.273288	0.392057
0	C	0.259222	0.273127	0.138081
0	C	0.680093	0.186755	0.602628
0	C	0.275271	0.186207	0.92954
0	C	0.277026	0.76886	0.429257
0	C	0.68196	0.770258	0.100438
0	C	0.173221	0.675716	0.601816
0	C	0.781708	0.676111	0.929794
0	C	0.783609	0.279454	0.429334
0	C	0.175554	0.279787	0.100742
0	C	0.591721	0.186848	0.618267
0	C	0.363545	0.186145	0.913779
0	C	0.365203	0.768891	0.413403
0	C	0.593463	0.770313	0.115959
0	C	0.0851921	0.67365	0.61775
0	C	0.869545	0.673882	0.91366
0	C	0.871464	0.281492	0.413216
0	C	0.0875097	0.281979	0.116661
0	H	0.527779	0.181474	0.58952
0	H	0.427448	0.180164	0.942388
0	H	0.429327	0.774187	0.442047
0	H	0.529759	0.77627	0.0871961
0	H	0.0212175	0.668547	0.588951
0	H	0.933604	0.668568	0.942344
0	H	0.935631	0.286477	0.441907
0	H	0.0236421	0.287352	0.0878527
0	C	0.585198	0.193803	0.670422
0	C	0.369953	0.193785	0.861725
0	C	0.371313	0.762137	0.361161
0	C	0.586616	0.762662	0.167943
0	C	0.0789607	0.678001	0.670267
0	C	0.87536	0.678404	0.861107
0	C	0.877296	0.277261	0.360631
0	C	0.0812384	0.277331	0.169134
0	C	0.667951	0.199898	0.707562
0	C	0.287209	0.200777	0.824837
0	C	0.288373	0.756153	0.32415
0	C	0.669109	0.755685	0.20502
0	C	0.161749	0.684143	0.707361
0	C	0.792439	0.685038	0.82424
0	C	0.79431	0.271238	0.323666
0	C	0.163936	0.270633	0.206162
0	H	0.6631	0.204835	0.748183
0	H	0.29191	0.206288	0.784276
0	H	0.292901	0.751388	0.283458
0	H	0.664039	0.750141	0.245525
0	H	0.157223	0.687286	0.748224
0	H	0.796662	0.688445	0.783366
0	H	0.798527	0.268177	0.28276
0	H	0.159332	0.267127	0.246972
0	C	0.757087	0.199773	0.692943
0	C	0.198157	0.200822	0.83957
0	C	0.199411	0.756144	0.338986
0	C	0.758374	0.755695	0.190533
0	C	0.250519	0.686248	0.692387
0	C	0.703869	0.687308	0.839432
0	C	0.7057	0.269121	0.338827
0	C	0.252698	0.268425	0.191193
0	C	0.878398	0.0898356	0.405973
0	C	0.0851184	0.0875205	0.125145
0	C	0.0786417	0.865311	0.626433
0	C	0.872057	0.868604	0.905161
0	C	0.374015	0.5772	0.405096
0	C	0.589915	0.574134	0.125346
0	C	0.583049	0.378282	0.62627
0	C	0.36727	0.381695	0.905678
0	H	0.951231	0.0948747	0.429601
0	H	0.0109259	0.0910878	0.10271
0	H	0.00565886	0.860484	0.602894
0	H	0.946337	0.865109	0.927499
0	H	0.446486	0.580819	0.429594
0	H	0.516213	0.576092	0.101915
0	H	0.510532	0.374703	0.601815
0	H	0.440994	0.379541	0.929038
0	C	0.835712	0.1382	0.391268
0	C	0.124588	0.136691	0.13867
0	C	0.120961	0.816818	0.640831
0	C	0.832534	0.819395	0.891928
0	C	0.336649	0.626258	0.389065
0	C	0.623419	0.624002	0.140335
0	C	0.620296	0.329203	0.642297
0	C	0.333178	0.331928	0.890614
0	H	0.766348	0.135467	0.365138
0	H	0.19492	0.135319	0.164029
0	H	0.190437	0.819347	0.666895
0	H	0.762088	0.820702	0.866677
0	H	0.266701	0.624765	0.36329
0	H	0.694053	0.624086	0.165494
0	H	0.690242	0.330656	0.668084
0	H	0.262484	0.332055	0.865522
0	H	0.882191	0.159402	0.37172
0	H	0.0775695	0.157174	0.158594
0	H	0.0744011	0.795611	0.660314
0	H	0.879384	0.798825	0.87198
0	H	0.385038	0.645312	0.36873
0	H	0.574215	0.642127	0.160953
0	H	0.571823	0.310165	0.662593
0	H	0.382046	0.313685	0.869877
0	H	0.824465	0.157797	0.425672
0	H	0.132846	0.156267	0.103712
0	H	0.131903	0.79733	0.606296
0	H	0.824514	0.799941	0.927002
0	H	0.328095	0.647315	0.422951
0	H	0.628983	0.645046	0.105959
0	H	0.62883	0.308146	0.60841
0	H	0.327547	0.310861	0.924962
0	C	0.891631	0.0620391	0.357706
0	C	0.077508	0.0596014	0.174215
0	C	0.0659549	0.893003	0.674862
0	C	0.879288	0.896308	0.855894
0	C	0.386706	0.547905	0.357791
0	C	0.58297	0.544693	0.173435
0	C	0.570534	0.407631	0.673567
0	C	0.37432	0.411154	0.857617
0	H	0.916598	0.0264573	0.368008
0	H	0.0545013	0.0235997	0.164719
0	H	0.0411856	0.928647	0.664736
0	H	0.902769	0.93228	0.865173
0	H	0.407821	0.511992	0.369072
0	H	0.56428	0.508358	0.162885
0	H	0.549541	0.443552	0.662268
0	H	0.393751	0.447394	0.868237
0	H	0.94438	0.0789352	0.338378
0	H	0.0255264	0.0756335	0.19476
0	H	0.0132469	0.876136	0.694241
0	H	0.930733	0.880031	0.835164
0	H	0.442242	0.562918	0.339083
0	H	0.527927	0.558604	0.193293
0	H	0.514955	0.392686	0.692301
0	H	0.428866	0.397018	0.837552
0	H	0.825786	0.0593682	0.32919
0	H	0.145049	0.0581148	0.201499
0	H	0.131971	0.895501	0.703278
0	H	0.811483	0.89788	0.828843
0	H	0.321763	0.54623	0.32849
0	H	0.649462	0.544414	0.201645
0	H	0.635514	0.40927	0.702851
0	H	0.307646	0.411758	0.829564
0	C	0.615277	0.97621	0.418777
0	C	0.352256	0.977851	0.106856
0	C	0.341471	0.979046	0.613109
0	C	0.604831	0.978244	0.923455
0	C	0.0965117	0.472027	0.415846
0	C	0.872453	0.474011	0.10949
0	C	0.860588	0.483331	0.615107
0	C	0.0848119	0.481798	0.921724
0	H	0.592374	0.988297	0.37764
0	H	0.378875	0.990855	0.147303
0	H	0.36468	0.967021	0.654245
0	H	0.578747	0.965438	0.88288
0	H	0.0751419	0.484666	0.3748
0	H	0.897132	0.488006	0.149722
0	H	0.882249	0.47066	0.656123
0	H	0.0603958	0.46789	0.881429
0	C	0.659821	0.927556	0.417464
0	C	0.310466	0.92889	0.110779
0	C	0.29674	0.027659	0.614423
0	C	0.646108	0.0273818	0.920005
0	C	0.136626	0.422443	0.414216
0	C	0.836193	0.424032	0.114178
0	C	0.82045	0.532896	0.616853
0	C	0.120644	0.531888	0.917258
0	H	0.723208	0.928639	0.399614
0	H	0.25036	0.929683	0.131274
0	H	0.233307	0.0265055	0.632232
0	H	0.706191	0.0269733	0.899482
0	H	0.199292	0.422052	0.395714
0	H	0.775982	0.423341	0.134608
0	H	0.757719	0.53323	0.635305
0	H	0.180736	0.532818	0.89675
0	H	0.609866	0.902741	0.395486
0	H	0.363427	0.904737	0.131452
0	H	0.346574	0.0525059	0.636436
0	H	0.592863	0.0515267	0.899565
0	H	0.0842566	0.398487	0.392695
0	H	0.891559	0.401387	0.135339
0	H	0.872783	0.556819	0.638475
0	H	0.0650306	0.554494	0.896254
0	H	0.68158	0.913207	0.456684
0	H	0.28453	0.91392	0.0722439
0	H	0.275016	0.0420128	0.575201
0	H	0.671914	0.0420971	0.958682
0	H	0.158729	0.407908	0.453345
0	H	0.811836	0.408106	0.075945
0	H	0.798428	0.547514	0.577756
0	H	0.145025	0.547684	0.955558
0	C	0.526446	0.974487	0.443603
0	C	0.437294	0.976448	0.0789165
0	C	0.430053	0.980814	0.588073
0	C	0.51942	0.979125	0.951128
0	C	0.00739767	0.472488	0.440434
0	C	0.957827	0.474844	0.0818498
0	C	0.949449	0.482921	0.590305
0	C	0.999312	0.480631	0.949262
0	H	0.541184	0.959112	0.482565
0	H	0.418794	0.96073	0.0402444
0	H	0.414952	0.996037	0.549043
0	H	0.537263	0.99485	0.989826
0	H	0.0203086	0.456928	0.47931
0	H	0.94158	0.458065	0.0436583
0	H	0.936191	0.498392	0.551385
0	H	0.0151554	0.497471	0.98743
0	H	0.471108	0.953122	0.420212
0	H	0.495117	0.955559	0.100846
0	H	0.485365	0.00232914	0.611268
0	H	0.461296	0.999745	0.92907
0	H	0.95004	0.452443	0.416884
0	H	0.0185033	0.456052	0.10425
0	H	0.00686512	0.503069	0.613689
0	H	0.938389	0.499173	0.92677
0	H	0.497388	0.00954854	0.447038
0	H	0.464691	0.0116474	0.0741457
0	H	0.459299	0.945776	0.584739
0	H	0.49273	0.943767	0.95581
0	H	0.981872	0.508247	0.443906
0	H	0.980477	0.510767	0.0762238
0	H	0.975091	0.447179	0.586866
0	H	0.977225	0.444621	0.954919
0	C	0.784707	0.0576424	0.581715
0	C	0.168226	0.0578657	0.94667
0	C	0.171536	0.897304	0.450519
0	C	0.789146	0.898439	0.0836479
0	C	0.270188	0.551675	0.579262
0	C	0.684483	0.551934	0.948543
0	C	0.686364	0.403441	0.451947
0	C	0.273069	0.40394	0.0825998
0	H	0.822636	0.0915952	0.592257
0	H	0.129928	0.0919229	0.937311
0	H	0.134026	0.863195	0.44012
0	H	0.827626	0.864449	0.093047
0	H	0.304576	0.586695	0.588782
0	H	0.648881	0.586804	0.94013
0	H	0.652585	0.368271	0.442613
0	H	0.308926	0.369114	0.0910001
0	C	0.846886	0.0181544	0.609255
0	C	0.104344	0.0185592	0.920128
0	C	0.108541	0.936523	0.422996
0	C	0.85287	0.93783	0.110244
0	C	0.336761	0.514163	0.607622
0	C	0.617452	0.514218	0.920979
0	C	0.619012	0.440652	0.423624
0	C	0.339695	0.441718	0.110209
0	H	0.813244	0.983894	0.60156
0	H	0.138291	0.984247	0.926642
0	H	0.141774	0.970921	0.430563
0	H	0.818668	0.972079	0.10379
0	H	0.307357	0.478908	0.600456
0	H	0.647642	0.479085	0.927449
0	H	0.647826	0.47602	0.430646
0	H	0.309153	0.476804	0.103836
0	H	0.860961	0.0234637	0.651367
0	H	0.0869305	0.0242426	0.878119
0	H	0.0942626	0.931152	0.38092
0	H	0.87036	0.932083	0.15223
0	H	0.349805	0.520041	0.649611
0	H	0.602071	0.520354	0.879008
0	H	0.605824	0.434688	0.381627
0	H	0.35517	0.435528	0.15218
0	H	0.915454	0.0168495	0.596455
0	H	0.0374596	0.0170629	0.934648
0	H	0.0401467	0.937608	0.435973
0	H	0.919673	0.939459	0.0956672
0	H	0.40555	0.514785	0.595041
0	H	0.549694	0.514451	0.934663
0	H	0.55032	0.439725	0.436323
0	H	0.407467	0.441737	0.0965073
0	C	0.690016	0.0607685	0.600839
0	C	0.260342	0.0610751	0.924998
0	C	0.265989	0.894477	0.431127
0	C	0.697021	0.89511	0.105266
0	C	0.175928	0.55284	0.598965
0	C	0.776438	0.554008	0.926647
0	C	0.780423	0.402639	0.432029
0	C	0.181028	0.401614	0.104405
0	H	0.65194	0.0274463	0.597359
0	H	0.298369	0.0277599	0.927332
0	H	0.303853	0.927856	0.434721
0	H	0.6589	0.928396	0.103022
0	H	0.141201	0.518626	0.596568
0	H	0.812737	0.520161	0.928202
0	H	0.814957	0.436913	0.434683
0	H	0.144488	0.435389	0.102908
0	H	0.643417	0.0870972	0.578968
0	H	0.308351	0.0873986	0.94584
0	H	0.312874	0.868112	0.452743
0	H	0.649094	0.868807	0.0843072
0	H	0.126517	0.577891	0.576807
0	H	0.826071	0.579514	0.947803
0	H	0.830084	0.377515	0.453888
0	H	0.131622	0.376069	0.0831382
0	H	0.701485	0.0712599	0.641772
0	H	0.245309	0.0716792	0.88409
0	H	0.254268	0.884195	0.390127
0	H	0.711998	0.884399	0.146138
0	H	0.187268	0.564063	0.639669
0	H	0.761576	0.565257	0.885929
0	H	0.768888	0.39173	0.391219
0	H	0.195858	0.390265	0.145092
0	C	0.0580584	0.214829	0.494828
0	C	0.899788	0.214074	0.0386808
0	C	0.898121	0.740098	0.5374
0	C	0.0574222	0.742182	0.991904
0	C	0.553626	0.702635	0.490903
0	C	0.405038	0.701418	0.0423605
0	C	0.40349	0.252572	0.540553
0	C	0.552364	0.254568	0.988593
0	H	0.0948347	0.24643	0.485405
0	H	0.862881	0.245456	0.0486141
0	H	0.861153	0.708551	0.546798
0	H	0.0942971	0.710699	0.982215
0	H	0.591985	0.733861	0.481896
0	H	0.366433	0.732429	0.0517599
0	H	0.365273	0.221344	0.549678
0	H	0.590987	0.223508	0.979343
0	H	0.0391273	0.220162	0.53344
0	H	0.918859	0.220124	0.000271192
0	H	0.917109	0.734721	0.498804
0	H	0.0377547	0.736269	0.0301953
0	H	0.532125	0.708625	0.528771
0	H	0.426936	0.708078	0.00477075
0	H	0.424778	0.246551	0.502633
0	H	0.529979	0.247938	0.0260603
0	H	0.99047	0.212392	0.467111
0	H	0.967272	0.211402	0.0663837
0	H	0.965676	0.742473	0.565164
0	H	0.990236	0.744896	0.963963
0	H	0.487469	0.70028	0.462022
0	H	0.470928	0.698836	0.0713448
0	H	0.469762	0.255017	0.569339
0	H	0.486734	0.2572	0.95942
0	C	0.358553	0.135929	0.470114
0	C	0.596396	0.135297	0.0579051
0	C	0.597235	0.819263	0.561022
0	C	0.36172	0.820442	0.973425
0	C	0.853	0.620404	0.469992
0	C	0.102765	0.61947	0.0577302
0	C	0.103644	0.334536	0.561124
0	C	0.85494	0.336389	0.973577
0	H	0.364021	0.161438	0.439187
0	H	0.58833	0.161194	0.0880146
0	H	0.590686	0.793046	0.591069
0	H	0.369568	0.794982	0.942848
0	H	0.858898	0.644298	0.437634
0	H	0.0942954	0.643692	0.0893681
0	H	0.0971583	0.309834	0.592668
0	H	0.863046	0.312691	0.941417
0	H	0.385252	0.102606	0.457824
0	H	0.569011	0.102092	0.0700934
0	H	0.571227	0.85238	0.574262
0	H	0.389943	0.853734	0.962022
0	H	0.879714	0.58635	0.459872
0	H	0.0754127	0.585509	0.0676943
0	H	0.0775661	0.368367	0.572364
0	H	0.882861	0.370453	0.964379
0	H	0.407957	0.147518	0.504898
0	H	0.548992	0.146305	0.0221396
0	H	0.547947	0.808745	0.525733
0	H	0.40859	0.808702	0.00905257
0	H	0.902314	0.633459	0.504086
0	H	0.0553639	0.632061	0.0226874
0	H	0.0541788	0.322499	0.526578
0	H	0.902118	0.32308	0.00833209
0	C	0.0891005	0.0396767	0.511154
0	C	0.868069	0.0388206	0.0206472
0	C	0.867728	0.915277	0.520939
0	C	0.0898515	0.917421	0.00958223
0	C	0.581469	0.528419	0.515722
0	C	0.376813	0.527088	0.0161409
0	C	0.374944	0.426739	0.515422
0	C	0.580819	0.428844	0.0150231
0	H	0.0260228	0.0318573	0.481595
0	H	0.931412	0.0309254	0.0498912
0	H	0.931044	0.922971	0.550387
0	H	0.0270198	0.925366	0.980006
0	H	0.518397	0.519447	0.486691
0	H	0.440179	0.51827	0.044935
0	H	0.438349	0.435691	0.544226
0	H	0.517815	0.437763	0.986019
0	H	0.065619	0.0388438	0.548885
0	H	0.89093	0.0378585	0.982787
0	H	0.890848	0.916148	0.483112
0	H	0.066153	0.918466	0.0472142
0	H	0.558292	0.529948	0.5535
0	H	0.399439	0.528332	0.978241
0	H	0.397491	0.425242	0.477475
0	H	0.557577	0.427535	0.0527569
0	H	0.138988	0.0104742	0.511135
0	H	0.818041	0.0096862	0.0209447
0	H	0.818032	0.944531	0.521168
0	H	0.140157	0.946479	0.00956669
0	H	0.631178	0.498892	0.5177
0	H	0.327102	0.497579	0.0146598
0	H	0.325269	0.456256	0.513698
0	H	0.630691	0.458319	0.0168079
0	C	0.89452	0.306066	0.655874
0	C	0.0594761	0.30692	0.877775
0	C	0.0624827	0.649448	0.375527
0	C	0.897375	0.649591	0.15286
0	C	0.39198	0.794898	0.657081
0	C	0.561674	0.795683	0.876471
0	C	0.564921	0.160381	0.374282
0	C	0.395363	0.160156	0.154331
0	H	0.842585	0.276494	0.64849
0	H	0.111594	0.277356	0.883973
0	H	0.114505	0.678967	0.383212
0	H	0.845266	0.679153	0.146481
0	H	0.339199	0.765818	0.647746
0	H	0.6146	0.766519	0.884224
0	H	0.617718	0.189387	0.383836
0	H	0.342504	0.189364	0.146741
0	C	0.881728	0.336036	0.606498
0	C	0.0731737	0.335803	0.92793
0	C	0.0749151	0.619191	0.424677
0	C	0.883879	0.62056	0.102808
0	C	0.379777	0.827373	0.6097
0	C	0.575097	0.826702	0.925047
0	C	0.576619	0.127676	0.421471
0	C	0.381961	0.129403	0.105556
0	H	0.929061	0.366367	0.611007
0	H	0.0246396	0.365613	0.924853
0	H	0.0274587	0.588912	0.419878
0	H	0.932288	0.590692	0.106072
0	H	0.428811	0.857036	0.615773
0	H	0.524505	0.855693	0.921008
0	H	0.527594	0.0980475	0.41514
0	H	0.432122	0.100223	0.109544
0	H	0.808953	0.349477	0.596424
0	H	0.145507	0.349901	0.937434
0	H	0.147607	0.605648	0.434776
0	H	0.811516	0.60652	0.0932359
0	H	0.307717	0.841917	0.600971
0	H	0.646462	0.842127	0.932994
0	H	0.648687	0.113144	0.430369
0	H	0.31038	0.114239	0.0973105
0	H	0.895545	0.315526	0.573177
0	H	0.0618295	0.314275	0.961092
0	H	0.0609695	0.639514	0.458107
0	H	0.895515	0.641968	0.0696139
0	H	0.391773	0.808437	0.574981
0	H	0.566596	0.806344	0.959564
0	H	0.564255	0.146488	0.456207
0	H	0.391116	0.149876	0.0712428
0	C	0.870362	0.333543	0.702045
0	C	0.0825793	0.335669	0.832235
0	C	0.086786	0.622231	0.329229
0	C	0.874042	0.620972	0.198436
0	C	0.368693	0.819906	0.704999
0	C	0.583742	0.82242	0.829343
0	C	0.588443	0.135493	0.326316
0	C	0.373122	0.133201	0.20129
0	H	0.887402	0.313547	0.738294
0	H	0.0648721	0.316605	0.795408
0	H	0.0698983	0.642394	0.293086
0	H	0.891955	0.640048	0.23525
0	H	0.384976	0.79787	0.739806
0	H	0.566661	0.801558	0.793699
0	H	0.572469	0.157631	0.291589
0	H	0.390517	0.15384	0.237082
0	H	0.793658	0.341328	0.695564
0	H	0.159253	0.343537	0.838574
0	H	0.163472	0.614401	0.335745
0	H	0.797312	0.613255	0.192142
0	H	0.292287	0.828281	0.699026
0	H	0.660123	0.830864	0.8352
0	H	0.66483	0.127063	0.332408
0	H	0.296663	0.124949	0.195436
0	H	0.907919	0.36694	0.707871
0	H	0.0449569	0.3691	0.827705
0	H	0.0491983	0.58885	0.323159
0	H	0.911354	0.58746	0.202993
0	H	0.407656	0.852732	0.713234
0	H	0.544758	0.855388	0.822759
0	H	0.549413	0.102715	0.317871
0	H	0.411724	0.100111	0.207594
0	C	0.240113	0.335796	0.723003
0	C	0.71272	0.335452	0.811161
0	C	0.71698	0.620197	0.307643
0	C	0.243796	0.620971	0.220123
0	C	0.739271	0.821268	0.72356
0	C	0.213269	0.820914	0.81037
0	C	0.217798	0.13411	0.307271
0	C	0.743516	0.134758	0.220938
0	H	0.208215	0.36091	0.747871
0	H	0.744144	0.361799	0.787482
0	H	0.748877	0.595235	0.282611
0	H	0.212156	0.594786	0.243894
0	H	0.708342	0.847331	0.747804
0	H	0.243653	0.848084	0.787229
0	H	0.248851	0.108042	0.283087
0	H	0.712874	0.107512	0.243872
0	C	0.322031	0.31075	0.758158
0	C	0.633421	0.309925	0.774544
0	C	0.635146	0.645434	0.272636
0	C	0.323356	0.646416	0.256646
0	C	0.818305	0.795137	0.759671
0	C	0.136811	0.794364	0.77294
0	C	0.138963	0.160273	0.271054
0	C	0.819852	0.161123	0.258651
0	H	0.363184	0.289092	0.735879
0	H	0.591992	0.287341	0.795728
0	H	0.59398	0.666959	0.295041
0	H	0.364921	0.668851	0.23538
0	H	0.858814	0.772367	0.738162
0	H	0.0961345	0.770778	0.793455
0	H	0.0982848	0.183025	0.292492
0	H	0.860841	0.184741	0.238355
0	H	0.296068	0.287951	0.786271
0	H	0.662024	0.287931	0.746677
0	H	0.661155	0.668386	0.244677
0	H	0.295001	0.668538	0.284494
0	H	0.789481	0.773202	0.787532
0	H	0.168032	0.773184	0.745377
0	H	0.167989	0.182231	0.24329
0	H	0.788453	0.182239	0.286199
0	H	0.37096	0.336077	0.780175
0	H	0.58412	0.334923	0.752252
0	H	0.586195	0.620217	0.25045
0	H	0.372457	0.621358	0.278973
0	H	0.868478	0.819752	0.782008
0	H	0.0863237	0.818647	0.750306
0	H	0.0889122	0.135675	0.248606
0	H	0.870052	0.136711	0.281286
0	C	0.276401	0.36369	0.680553
0	C	0.672926	0.36144	0.853729
0	C	0.680605	0.59205	0.349872
0	C	0.283295	0.594725	0.177627
0	C	0.778669	0.847901	0.681286
0	C	0.170574	0.845746	0.852648
0	C	0.178067	0.107462	0.349422
0	C	0.786402	0.110051	0.178649
0	H	0.33153	0.388578	0.697233
0	H	0.617113	0.386025	0.837193
0	H	0.625377	0.567285	0.332992
0	H	0.338825	0.570021	0.19423
0	H	0.834774	0.872235	0.698107
0	H	0.113634	0.869652	0.835888
0	H	0.121942	0.083186	0.33248
0	H	0.843113	0.0860116	0.195383
0	H	0.219249	0.383373	0.6564
0	H	0.728228	0.381178	0.879238
0	H	0.737671	0.57219	0.37387
0	H	0.227783	0.575064	0.152179
0	H	0.723123	0.86802	0.656403
0	H	0.224225	0.866024	0.878674
0	H	0.233424	0.0872603	0.374337
0	H	0.732766	0.0899299	0.152436
0	H	0.306597	0.340598	0.654242
0	H	0.642547	0.337104	0.878737
0	H	0.650438	0.614974	0.376353
0	H	0.313941	0.618882	0.15254
0	H	0.808463	0.824	0.655604
0	H	0.140926	0.820709	0.877207
0	H	0.14823	0.131353	0.375092
0	H	0.816339	0.135149	0.154278
0	C	0.142152	0.180023	0.638807
0	C	0.813835	0.179921	0.894425
0	C	0.815013	0.775517	0.392867
0	C	0.143387	0.776528	0.136644
0	C	0.634681	0.667052	0.637713
0	C	0.320762	0.666976	0.895433
0	C	0.321933	0.288068	0.393823
0	C	0.636486	0.28886	0.135991
0	H	0.0840403	0.166122	0.608044
0	H	0.87169	0.166345	0.925544
0	H	0.873185	0.789417	0.423602
0	H	0.0854936	0.790214	0.105588
0	H	0.576184	0.653975	0.60666
0	H	0.379118	0.654226	0.926816
0	H	0.380497	0.301153	0.424864
0	H	0.578178	0.301634	0.104591
0	C	0.231477	0.182711	0.614407
0	C	0.723773	0.182119	0.918255
0	C	0.725797	0.772663	0.417355
0	C	0.233242	0.774228	0.112685
0	C	0.724298	0.669145	0.613455
0	C	0.23059	0.668578	0.91916
0	C	0.232478	0.28573	0.418154
0	C	0.726687	0.2873	0.11227
0	H	0.227007	0.211987	0.586581
0	H	0.72716	0.211406	0.94597
0	H	0.730289	0.743201	0.444943
0	H	0.229752	0.744869	0.0850626
0	H	0.720424	0.698295	0.585489
0	H	0.233409	0.697714	0.947062
0	H	0.236471	0.256435	0.445948
0	H	0.723949	0.258165	0.0844025
0	H	0.23964	0.150578	0.592699
0	H	0.715911	0.149902	0.939871
0	H	0.717779	0.804651	0.439338
0	H	0.241063	0.806384	0.0909541
0	H	0.731961	0.636861	0.591922
0	H	0.223155	0.636191	0.940574
0	H	0.224709	0.317891	0.43989
0	H	0.734039	0.31967	0.0908387
0	H	0.296196	0.187454	0.643414
0	H	0.659388	0.186504	0.888945
0	H	0.661003	0.768105	0.388366
0	H	0.29776	0.769884	0.141962
0	H	0.78893	0.673747	0.642513
0	H	0.16622	0.672871	0.889819
0	H	0.167776	0.28118	0.389103
0	H	0.791072	0.283048	0.141638
0	C	0.156344	0.145597	0.684488
0	C	0.80166	0.145495	0.84879
0	C	0.800507	0.810015	0.34725
0	C	0.155836	0.810875	0.18235
0	C	0.647164	0.632071	0.682855
0	C	0.310207	0.63201	0.850345
0	C	0.309055	0.323173	0.348793
0	C	0.64694	0.323799	0.18111
0	H	0.211538	0.157384	0.716442
0	H	0.746528	0.156839	0.816584
0	H	0.745168	0.798257	0.315358
0	H	0.21086	0.799368	0.214544
0	H	0.703311	0.642785	0.714863
0	H	0.254096	0.642298	0.818108
0	H	0.252829	0.312468	0.316822
0	H	0.702834	0.313444	0.213411
0	H	0.177137	0.111086	0.672192
0	H	0.781883	0.110754	0.860909
0	H	0.779733	0.844495	0.359651
0	H	0.17598	0.845585	0.170325
0	H	0.665679	0.597389	0.669941
0	H	0.292671	0.597133	0.86313
0	H	0.29039	0.357773	0.361872
0	H	0.664741	0.358657	0.168397
0	H	0.090898	0.141067	0.69995
0	H	0.867709	0.141673	0.83373
0	H	0.865793	0.814609	0.331648
0	H	0.0898158	0.814828	0.197408
0	H	0.581618	0.628353	0.698425
0	H	0.376237	0.628939	0.835119
0	H	0.374435	0.327081	0.333112
0	H	0.580771	0.326923	0.196198
0	C	0.684849	0.180271	0.546673
0	C	0.270776	0.178916	0.985376
0	C	0.27261	0.775143	0.485274
0	C	0.686884	0.777415	0.0446385
0	C	0.177741	0.671839	0.545583
0	C	0.777705	0.672124	0.986049
0	C	0.779456	0.283259	0.485618
0	C	0.179923	0.283851	0.0445405
0	H	0.716528	0.211243	0.530799
0	H	0.242711	0.210342	0.00233786
0	H	0.2422	0.743845	0.501239
0	H	0.714481	0.745817	0.0277659
0	H	0.208097	0.703919	0.531225
0	H	0.751035	0.704877	0.00101279
0	H	0.749798	0.251036	0.500066
0	H	0.206267	0.251039	0.0295357
0	H	0.615451	0.174454	0.521803
0	H	0.339814	0.171041	0.00985642
0	H	0.341945	0.781496	0.510017
0	H	0.61805	0.785526	0.0200462
0	H	0.108511	0.666093	0.52041
0	H	0.846659	0.664597	0.0108592
0	H	0.848723	0.289289	0.510653
0	H	0.111145	0.29159	0.0196479
0	H	0.730265	0.150306	0.54074
0	H	0.22273	0.149914	0.99082
0	H	0.22629	0.804689	0.491386
0	H	0.735439	0.806199	0.0392132
0	H	0.224299	0.642801	0.538176
0	H	0.728666	0.644205	0.993446
0	H	0.73247	0.312079	0.493125
0	H	0.229325	0.311658	0.0372904
0	C	0.490701	0.19508	0.686836
0	C	0.464293	0.1948	0.845094
0	C	0.465634	0.760816	0.344536
0	C	0.492047	0.761573	0.184316
0	C	0.984816	0.676404	0.687079
0	C	0.969229	0.676485	0.843995
0	C	0.9713	0.278725	0.343649
0	C	0.987152	0.279157	0.186005
0	H	0.479882	0.228506	0.705679
0	H	0.475873	0.228476	0.826945
0	H	0.477678	0.726637	0.327603
0	H	0.480166	0.727752	0.202083
0	H	0.970691	0.709194	0.706234
0	H	0.984256	0.709547	0.825638
0	H	0.986696	0.245185	0.326388
0	H	0.971922	0.246001	0.204114
0	H	0.484475	0.16709	0.714779
0	H	0.469335	0.167227	0.816472
0	H	0.470396	0.787507	0.314935
0	H	0.48688	0.788926	0.213162
0	H	0.981884	0.647918	0.714896
0	H	0.97085	0.648508	0.815409
0	H	0.973067	0.305915	0.314206
0	H	0.985295	0.307017	0.214704
0	H	0.431085	0.190858	0.654171
0	H	0.524004	0.189695	0.877531
0	H	0.52527	0.766852	0.376769
0	H	0.432579	0.766941	0.151808
0	H	0.925392	0.67105	0.654594
0	H	0.0286686	0.670123	0.876206
0	H	0.0305205	0.285842	0.375748
0	H	0.927921	0.28564	0.153714
0	C	0.844142	0.205575	0.733332
0	C	0.111052	0.207469	0.799426
0	C	0.112151	0.750418	0.298738
0	C	0.845177	0.749029	0.230893
0	C	0.337669	0.692199	0.732629
0	C	0.616463	0.693825	0.799508
0	C	0.61831	0.263217	0.298754
0	C	0.339828	0.261817	0.231294
0	H	0.889942	0.23394	0.723639
0	H	0.0674465	0.2368	0.809012
0	H	0.0677499	0.721206	0.307812
0	H	0.888373	0.719392	0.221655
0	H	0.382482	0.721079	0.72314
0	H	0.573793	0.723661	0.808777
0	H	0.574559	0.23374	0.307848
0	H	0.382044	0.231696	0.22231
0	H	0.887454	0.1736	0.737214
0	H	0.0655821	0.176244	0.796114
0	H	0.0674715	0.781894	0.29598
0	H	0.891174	0.780057	0.233999
0	H	0.381801	0.660513	0.735949
0	H	0.570372	0.662867	0.797024
0	H	0.573185	0.294523	0.296286
0	H	0.386465	0.292567	0.233628
0	H	0.828644	0.213807	0.772
0	H	0.12642	0.214795	0.76052
0	H	0.127322	0.743452	0.25972
0	H	0.829443	0.742117	0.269807
0	H	0.322481	0.699794	0.771498
0	H	0.631225	0.700367	0.760335
0	H	0.633107	0.256521	0.259618
0	H	0.324734	0.255635	0.270462
