#******************************************
#
# CIF file created by Zeo++
# Zeo++ is an open source package to
# analyze microporous materials
#
#*******************************************

_cell_length_a		35.735(0)
_cell_length_b		38.3471(0)
_cell_length_c		12.1427(0)
_cell_angle_alpha		90(0)
_cell_angle_beta		90(0)
_cell_angle_gamma		115.771(0)

_symmetry_space_group_name_H-M		'P1'
_symmetry_Int_Tables_number		1
_symmetry_cell_setting		Monoclinic

loop_
_symmetry_equiv_pos_as_xyz
'+x,+y,+z'

loop_
_atom_site_label
_atom_site_type_symbol
_atom_site_fract_x
_atom_site_fract_y
_atom_site_fract_z
0	C	0.0738436	0.565371	0.984844
0	C	0.416398	0.550928	0.00632766
0	C	0.461712	0.864198	0.0159892
0	C	0.888276	0.414946	0.158876
0	C	0.546294	0.509494	0.0399476
0	C	0.584918	0.14322	0.029154
0	C	0.717667	0.826559	0.280645
0	C	0.130043	0.904051	0.285111
0	C	0.144207	0.208475	0.398286
0	C	0.506874	0.74048	0.307116
0	C	0.246845	0.779858	0.448661
0	C	0.251049	0.486511	0.323483
0	C	0.51552	0.267537	0.808321
0	C	0.770827	0.195243	0.690608
0	C	0.770425	0.488367	0.806568
0	C	0.293607	0.134632	0.83253
0	C	0.932013	0.0818131	0.787969
0	C	0.85944	0.737475	0.726071
0	C	0.0597733	0.539107	0.072567
0	C	0.431407	0.56154	0.1195
0	C	0.44961	0.872708	0.123184
0	C	0.906297	0.440989	0.0718438
0	C	0.527484	0.50411	0.934198
0	C	0.592129	0.141005	0.911155
0	C	0.7221	0.824635	0.386113
0	C	0.137776	0.916754	0.398189
0	C	0.133384	0.219934	0.500808
0	C	0.515523	0.755315	0.198797
0	C	0.235194	0.771826	0.337796
0	C	0.256479	0.477287	0.215808
0	C	0.501573	0.252936	0.914411
0	C	0.781899	0.19807	0.802107
0	C	0.758948	0.495295	0.910358
0	C	0.287563	0.138646	0.729205
0	C	0.940074	0.118721	0.770891
0	C	0.869608	0.724406	0.628096
0	C	0.0388416	0.545698	0.16043
0	C	0.433738	0.53763	0.196865
0	C	0.475707	0.903487	0.182539
0	C	0.929073	0.434391	0.98954
0	C	0.549152	0.509132	0.837763
0	C	0.569171	0.112916	0.84048
0	C	0.721537	0.845589	0.472905
0	C	0.116286	0.894158	0.482688
0	C	0.164093	0.247151	0.568899
0	C	0.545875	0.750612	0.13611
0	C	0.246315	0.801348	0.260201
0	C	0.222018	0.451279	0.155061
0	C	0.46271	0.248054	0.951756
0	C	0.784406	0.167316	0.857125
0	C	0.788296	0.523572	0.979316
0	C	0.293013	0.123146	0.635808
0	C	0.938199	0.139234	0.671831
0	C	0.84005	0.708157	0.546773
0	C	0.031378	0.57921	0.156663
0	C	0.424068	0.49714	0.16493
0	C	0.516607	0.930153	0.134507
0	C	0.938143	0.402032	0.0026221
0	C	0.593107	0.526496	0.852191
0	C	0.53123	0.0796354	0.881724
0	C	0.705535	0.87391	0.436917
0	C	0.0830841	0.855412	0.45889
0	C	0.205349	0.26262	0.533235
0	C	0.563639	0.726902	0.178186
0	C	0.268476	0.840022	0.297951
0	C	0.182165	0.438493	0.202271
0	C	0.440247	0.263732	0.889753
0	C	0.771289	0.131943	0.79738
0	C	0.828171	0.547546	0.937707
0	C	0.311293	0.095882	0.663208
0	C	0.951169	0.178307	0.670793
0	C	0.799109	0.704636	0.566068
0	C	0.0452983	0.605194	0.0674272
0	C	0.410035	0.485865	0.0377725
0	C	0.528032	0.920598	0.0119826
0	C	0.924635	0.37854	0.0968331
0	C	0.61186	0.533087	0.957839
0	C	0.520469	0.0824863	0.0118364
0	C	0.711537	0.886942	0.330275
0	C	0.0667587	0.845909	0.355563
0	C	0.2169	0.251851	0.429011
0	C	0.554527	0.711039	0.285751
0	C	0.280452	0.847856	0.409322
0	C	0.177179	0.447129	0.313201
0	C	0.456149	0.282019	0.788905
0	C	0.758956	0.129022	0.68615
0	C	0.839272	0.541408	0.830126
0	C	0.309002	0.081458	0.767804
0	C	0.974082	0.203976	0.762584
0	C	0.788996	0.716829	0.665953
0	C	0.0674953	0.598506	0.979431
0	C	0.403125	0.514589	0.968268
0	C	0.497411	0.884586	0.961372
0	C	0.897228	0.3835	0.173599
0	C	0.58792	0.519553	0.0564752
0	C	0.547438	0.116166	0.0743956
0	C	0.723013	0.867001	0.239361
0	C	0.0868001	0.871031	0.258018
0	C	0.186744	0.226099	0.360205
0	C	0.527596	0.719666	0.35219
0	C	0.271025	0.817268	0.485611
0	C	0.211884	0.469909	0.377352
0	C	0.491722	0.280036	0.741793
0	C	0.759572	0.16159	0.628854
0	C	0.811207	0.510627	0.766679
0	C	0.297157	0.0973193	0.867772
0	C	0.972495	0.189268	0.863773
0	C	0.819867	0.734124	0.747804
0	C	0.0256122	0.519343	0.256575
0	C	0.448195	0.550576	0.309972
0	C	0.465367	0.91307	0.292798
0	C	0.943524	0.459824	0.891846
0	C	0.526729	0.496567	0.732661
0	C	0.580159	0.115395	0.72243
0	C	0.735991	0.84614	0.586445
0	C	0.125706	0.908755	0.596911
0	C	0.151704	0.258977	0.673462
0	C	0.567048	0.775068	0.039709
0	C	0.234503	0.792733	0.143447
0	C	0.226939	0.429933	0.0572228
0	C	0.443187	0.222211	0.0470853
0	C	0.804483	0.173177	0.966287
0	C	0.775914	0.527544	0.0933454
0	C	0.285204	0.131383	0.522336
0	C	0.921723	0.115932	0.57043
0	C	0.84924	0.694164	0.441439
0	C	0.994295	0.481452	0.245903
0	C	0.481938	0.545546	0.353496
0	C	0.472592	0.951377	0.31663
0	C	0.974335	0.497954	0.901824
0	C	0.490457	0.501625	0.715336
0	C	0.577703	0.0805432	0.666197
0	C	0.707038	0.830316	0.672062
0	C	0.153458	0.900212	0.660519
0	C	0.160004	0.297857	0.690937
0	C	0.603579	0.80911	0.0688966
0	C	0.208438	0.807619	0.0969665
0	C	0.228971	0.395444	0.091709
0	C	0.419055	0.18258	0.0176436
0	C	0.840767	0.167336	0.972292
0	C	0.783612	0.564723	0.132362
0	C	0.319019	0.147319	0.44906
0	C	0.88038	0.103238	0.536824
0	C	0.859095	0.66252	0.440884
0	H	0.980378	0.470655	0.165642
0	H	0.497199	0.531789	0.304017
0	H	0.485898	0.973707	0.253975
0	H	0.986658	0.509628	0.982787
0	H	0.480284	0.516138	0.777524
0	H	0.563092	0.053324	0.71084
0	H	0.67396	0.816951	0.653341
0	H	0.165507	0.880621	0.628077
0	H	0.175146	0.319281	0.627016
0	H	0.605162	0.820317	0.153859
0	H	0.197064	0.824359	0.148072
0	H	0.22843	0.389419	0.17967
0	H	0.423539	0.173425	0.934086
0	H	0.85079	0.156563	0.900354
0	H	0.797836	0.589692	0.0776915
0	H	0.350162	0.153342	0.477586
0	H	0.858936	0.110142	0.585851
0	H	0.863535	0.650544	0.518347
0	C	0.980695	0.457639	0.338644
0	C	0.495691	0.557938	0.460433
0	C	0.46308	0.960858	0.420474
0	C	0.989448	0.520799	0.80777
0	C	0.467267	0.487733	0.619382
0	C	0.592471	0.0826476	0.563457
0	C	0.720729	0.832292	0.780815
0	C	0.165327	0.916846	0.764676
0	C	0.148947	0.308972	0.790674
0	C	0.627959	0.834879	0.985939
0	C	0.197404	0.801404	0.986051
0	C	0.231409	0.369088	0.0167503
0	C	0.402612	0.154237	0.101166
0	C	0.86415	0.175365	0.0686117
0	C	0.773682	0.570208	0.239855
0	C	0.312735	0.155089	0.340184
0	C	0.866815	0.0820545	0.439171
0	C	0.862576	0.646313	0.340622
0	H	0.956047	0.428106	0.330397
0	H	0.521879	0.553969	0.494193
0	H	0.469118	0.990653	0.438927
0	H	0.014065	0.550367	0.815472
0	H	0.439186	0.491966	0.605568
0	H	0.590679	0.0570126	0.520375
0	H	0.698159	0.819652	0.846755
0	H	0.186924	0.910339	0.814124
0	H	0.155132	0.339099	0.804416
0	H	0.654052	0.862134	0.00847187
0	H	0.177194	0.812961	0.95054
0	H	0.232824	0.342806	0.0453606
0	H	0.38615	0.123587	0.0789345
0	H	0.891837	0.170093	0.0725793
0	H	0.780985	0.599338	0.269518
0	H	0.338944	0.166985	0.283336
0	H	0.834775	0.0724251	0.412605
0	H	0.869821	0.621508	0.339225
0	C	0.998464	0.471198	0.44175
0	C	0.475554	0.574822	0.524907
0	C	0.445817	0.932161	0.501045
0	C	0.97361	0.506106	0.703906
0	C	0.479703	0.468614	0.539846
0	C	0.613441	0.119688	0.501844
0	C	0.763205	0.850559	0.804472
0	C	0.149594	0.941937	0.805023
0	C	0.129823	0.281518	0.873178
0	C	0.617803	0.825459	0.875832
0	C	0.212584	0.780253	0.921234
0	C	0.231732	0.376497	0.903925
0	C	0.408165	0.165381	0.211454
0	C	0.852663	0.190764	0.159874
0	C	0.754272	0.538218	0.309423
0	C	0.272769	0.147492	0.304193
0	C	0.894231	0.0734808	0.375144
0	C	0.856452	0.661715	0.241609
0	H	0.987852	0.452562	0.513922
0	H	0.485915	0.583611	0.608838
0	H	0.437735	0.939549	0.581552
0	H	0.985506	0.523946	0.630622
0	H	0.461509	0.458044	0.464767
0	H	0.646424	0.125566	0.488664
0	H	0.774596	0.852972	0.890112
0	H	0.159815	0.955797	0.885863
0	H	0.121697	0.290518	0.951211
0	H	0.637145	0.844478	0.810861
0	H	0.20463	0.775922	0.834094
0	H	0.23357	0.356043	0.844197
0	H	0.39564	0.14359	0.276223
0	H	0.871839	0.198406	0.234
0	H	0.746168	0.542192	0.393542
0	H	0.267931	0.152721	0.218186
0	H	0.88371	0.0573185	0.298791
0	H	0.857496	0.647996	0.163869
0	C	0.0303861	0.508686	0.451952
0	C	0.441921	0.579788	0.481621
0	C	0.43875	0.894105	0.477842
0	C	0.942317	0.468313	0.694359
0	C	0.515611	0.463547	0.55737
0	C	0.609574	0.15487	0.551333
0	C	0.791991	0.86623	0.719244
0	C	0.121071	0.949664	0.743148
0	C	0.12078	0.242649	0.855002
0	C	0.581851	0.792305	0.848519
0	C	0.237807	0.764649	0.967458
0	C	0.229654	0.410206	0.86885
0	C	0.430203	0.2045	0.239282
0	C	0.81673	0.196395	0.155008
0	C	0.7448	0.501126	0.270516
0	C	0.239337	0.133127	0.377779
0	C	0.935534	0.0860775	0.408892
0	C	0.848865	0.69453	0.241942
0	H	0.0447023	0.519114	0.531862
0	H	0.425627	0.592326	0.532311
0	H	0.425488	0.871731	0.540935
0	H	0.929807	0.456728	0.613277
0	H	0.525538	0.44854	0.494108
0	H	0.640143	0.181077	0.548149
0	H	0.825671	0.881001	0.739295
0	H	0.108529	0.968936	0.775396
0	H	0.104842	0.221115	0.918312
0	H	0.573757	0.786667	0.761614
0	H	0.248294	0.747622	0.91541
0	H	0.229775	0.415302	0.780323
0	H	0.434292	0.212864	0.3262
0	H	0.809714	0.210368	0.225814
0	H	0.72789	0.476321	0.324069
0	H	0.208218	0.128549	0.34934
0	H	0.957189	0.079734	0.358806
0	H	0.845232	0.707062	0.164441
0	C	0.0439547	0.532773	0.359859
0	C	0.428391	0.568063	0.374189
0	C	0.448772	0.884495	0.374456
0	C	0.927021	0.445226	0.787682
0	C	0.539216	0.477333	0.652785
0	C	0.593531	0.149165	0.666773
0	C	0.778712	0.863834	0.610257
0	C	0.10882	0.932894	0.639296
0	C	0.13155	0.231245	0.755285
0	C	0.555792	0.767088	0.928694
0	C	0.248929	0.770631	0.078884
0	C	0.227703	0.437326	0.943982
0	C	0.447248	0.233053	0.157941
0	C	0.791542	0.186354	0.0602224
0	C	0.756674	0.495819	0.164077
0	C	0.2453	0.124817	0.486635
0	C	0.949162	0.107125	0.506207
0	C	0.845401	0.710919	0.341758
0	H	0.0685047	0.562163	0.367848
0	H	0.40226	0.572152	0.340223
0	H	0.444237	0.854939	0.358382
0	H	0.902758	0.415687	0.780092
0	H	0.567181	0.473107	0.665337
0	H	0.593136	0.175156	0.703559
0	H	0.801217	0.875836	0.543822
0	H	0.0862161	0.938409	0.591203
0	H	0.124259	0.20096	0.740857
0	H	0.484065	0.724218	0.95566
0	H	0.298736	0.771521	0.206147
0	H	0.198004	0.486161	0.87752
0	H	0.439597	0.281131	0.25814
0	H	0.720495	0.159886	0.0390639
0	H	0.750057	0.443453	0.0294297
0	H	0.219274	0.113416	0.544073
0	H	0.98192	0.117601	0.532591
0	H	0.838775	0.736072	0.342695
0	C	0.00847953	0.585842	0.249915
0	C	0.406049	0.466649	0.25007
0	C	0.550603	0.948083	0.216513
0	C	0.961787	0.394727	0.912258
0	C	0.619759	0.539303	0.752699
0	C	0.495719	0.0642111	0.803063
0	C	0.686263	0.889307	0.519521
0	C	0.0697744	0.8274	0.551623
0	C	0.238576	0.291943	0.601607
0	C	0.596011	0.72326	0.109313
0	C	0.279046	0.872737	0.219766
0	C	0.145063	0.415669	0.134195
0	C	0.399422	0.258067	0.934471
0	C	0.770216	0.0975419	0.856037
0	C	0.859596	0.580025	0.00156377
0	C	0.328868	0.0825861	0.570631
0	C	0.94108	0.198191	0.578238
0	C	0.767508	0.688444	0.47759
0	C	0.028882	0.61604	0.325001
0	C	0.373959	0.465695	0.318867
0	C	0.557243	0.925213	0.297472
0	C	0.940157	0.367224	0.830995
0	C	0.64508	0.521245	0.723369
0	C	0.481711	0.0894635	0.753816
0	C	0.710189	0.915124	0.601594
0	C	0.0441386	0.829495	0.636097
0	C	0.249965	0.281271	0.702096
0	C	0.585582	0.701876	0.0115203
0	C	0.308464	0.878942	0.136381
0	C	0.13525	0.434304	0.0471292
0	C	0.396276	0.284149	0.0101276
0	C	0.740484	0.080098	0.938934
0	C	0.878268	0.573193	0.0953623
0	C	0.303018	0.0526568	0.500739
0	C	0.967366	0.212956	0.487275
0	C	0.752786	0.712358	0.423246
0	H	0.0615855	0.635739	0.31282
0	H	0.362953	0.48801	0.310898
0	H	0.539319	0.893835	0.296174
0	H	0.907058	0.348679	0.841567
0	H	0.644369	0.497025	0.77174
0	H	0.496738	0.120395	0.775465
0	H	0.743564	0.923976	0.605013
0	H	0.0319636	0.851367	0.632469
0	H	0.234487	0.25133	0.730137
0	H	0.553004	0.686412	0.987023
0	H	0.322771	0.859195	0.127905
0	H	0.155627	0.464798	0.030015
0	H	0.42394	0.310266	0.0318958
0	H	0.718581	0.0918993	0.958968
0	H	0.868064	0.543768	0.126519
0	H	0.269705	0.0384042	0.516026
0	H	0.995141	0.208079	0.479449
0	H	0.763798	0.742509	0.447928
0	C	0.00726475	0.620692	0.415341
0	C	0.356185	0.436268	0.396703
0	C	0.586193	0.942662	0.381181
0	C	0.960958	0.364181	0.736846
0	C	0.671478	0.534641	0.63271
0	C	0.449491	0.0755724	0.676993
0	C	0.6911	0.9292	0.678625
0	C	0.0330155	0.803309	0.723757
0	C	0.281051	0.309244	0.766163
0	C	0.616972	0.70051	0.9459
0	C	0.318623	0.909948	0.0635028
0	C	0.100079	0.41395	0.982845
0	C	0.357801	0.277403	0.0554308
0	C	0.739585	0.0481594	0.996169
0	C	0.910086	0.604275	0.148697
0	C	0.320082	0.0415103	0.411646
0	C	0.958068	0.234283	0.407421
0	C	0.724177	0.697558	0.33733
0	H	0.0230098	0.644362	0.472986
0	H	0.331368	0.435863	0.450143
0	H	0.591005	0.924735	0.44427
0	H	0.94419	0.3431	0.673346
0	H	0.691674	0.520366	0.61167
0	H	0.43837	0.095255	0.63993
0	H	0.709737	0.949449	0.741832
0	H	0.0130171	0.805131	0.788882
0	H	0.290114	0.301016	0.844097
0	H	0.608935	0.683497	0.870148
0	H	0.341269	0.914603	0.99861
0	H	0.0923855	0.428385	0.915322
0	H	0.355673	0.297597	0.11558
0	H	0.716479	0.0346279	0.0604676
0	H	0.924982	0.59925	0.22137
0	H	0.299949	0.018159	0.357607
0	H	0.979178	0.246969	0.338416
0	H	0.712756	0.716181	0.29576
0	C	0.96551	0.595111	0.431731
0	C	0.370052	0.407491	0.407295
0	C	0.609082	0.982917	0.384131
0	C	0.0033972	0.38822	0.723608
0	C	0.672277	0.565419	0.569601
0	C	0.431122	0.0363761	0.648202
0	C	0.648235	0.917588	0.673957
0	C	0.0473943	0.774768	0.727634
0	C	0.300491	0.347731	0.73071
0	C	0.658853	0.720508	0.976875
0	C	0.299514	0.9348	0.0732978
0	C	0.0745606	0.374934	0.00490509
0	C	0.321833	0.245102	0.0226655
0	C	0.768292	0.0335205	0.971652
0	C	0.923547	0.641975	0.108896
0	C	0.362862	0.0601823	0.391634
0	C	0.922138	0.240017	0.416131
0	C	0.710227	0.658957	0.304646
0	H	0.948682	0.598639	0.502374
0	H	0.355694	0.384267	0.467176
0	H	0.631548	0.996439	0.449966
0	H	0.01947	0.386174	0.649319
0	H	0.693121	0.575933	0.499319
0	H	0.405379	0.0254486	0.589134
0	H	0.633264	0.928377	0.734285
0	H	0.0387794	0.754345	0.795843
0	H	0.324561	0.369621	0.781292
0	H	0.682986	0.719001	0.924352
0	H	0.307364	0.958928	0.0162733
0	H	0.0467113	0.359152	0.95551
0	H	0.29192	0.240684	0.056855
0	H	0.767666	0.00890078	0.0175473
0	H	0.949122	0.665877	0.149532
0	H	0.376055	0.0516135	0.321777
0	H	0.915376	0.257032	0.354003
0	H	0.688029	0.647463	0.237459
0	C	0.945219	0.564973	0.357132
0	C	0.402243	0.408531	0.340032
0	C	0.603507	0.00566883	0.301852
0	C	0.0252232	0.414505	0.806431
0	C	0.646018	0.582548	0.596403
0	C	0.445033	0.0110892	0.696745
0	C	0.62445	0.892154	0.591545
0	C	0.0728052	0.772404	0.643127
0	C	0.289085	0.358329	0.630523
0	C	0.669486	0.741473	0.0744901
0	C	0.269961	0.928475	0.155816
0	C	0.08462	0.356189	0.0906554
0	C	0.324253	0.219564	0.944544
0	C	0.797923	0.0508796	0.889158
0	C	0.904224	0.648953	0.0168249
0	C	0.388709	0.0898939	0.461458
0	C	0.895243	0.22429	0.505344
0	C	0.724882	0.635106	0.358479
0	H	0.912721	0.54517	0.36986
0	H	0.413189	0.386246	0.348016
0	H	0.621696	0.0369349	0.303168
0	H	0.058435	0.432707	0.797073
0	H	0.646098	0.606188	0.545777
0	H	0.430559	0.980493	0.674478
0	H	0.591176	0.883658	0.586896
0	H	0.0838305	0.750054	0.645736
0	H	0.3043	0.388361	0.603071
0	H	0.702038	0.755658	0.101247
0	H	0.254846	0.947735	0.162976
0	H	0.0646688	0.325734	0.107321
0	H	0.295902	0.195639	0.914097
0	H	0.82044	0.0396886	0.869681
0	H	0.914331	0.678384	0.98631
0	H	0.421967	0.104511	0.445575
0	H	0.86713	0.228559	0.512249
0	H	0.714205	0.605115	0.332158
0	C	0.966488	0.560444	0.265944
0	C	0.420292	0.437988	0.262147
0	C	0.574473	0.988416	0.218019
0	C	0.00458366	0.417684	0.900903
0	C	0.619747	0.569574	0.687768
0	C	0.477161	0.0248167	0.774255
0	C	0.643247	0.877859	0.514484
0	C	0.0840264	0.798546	0.555421
0	C	0.258215	0.330567	0.565729
0	C	0.638314	0.744381	0.141403
0	C	0.259582	0.89752	0.228845
0	C	0.119802	0.376412	0.155444
0	C	0.363265	0.224656	0.902157
0	C	0.798969	0.0828045	0.831357
0	C	0.871997	0.618183	0.964185
0	C	0.371872	0.101005	0.551119
0	C	0.904697	0.203579	0.586533
0	C	0.753294	0.649647	0.444986
0	H	0.950371	0.536836	0.206411
0	H	0.44527	0.438318	0.210062
0	H	0.570507	0.00665046	0.155161
0	H	0.0218218	0.438712	0.965753
0	H	0.599191	0.58277	0.708643
0	H	0.487689	0.00475504	0.810688
0	H	0.624364	0.858097	0.449884
0	H	0.10358	0.796546	0.489358
0	H	0.249397	0.338816	0.487602
0	H	0.645587	0.751618	0.22997
0	H	0.236392	0.892616	0.292855
0	H	0.127476	0.361952	0.222817
0	H	0.364171	0.210658	0.822739
0	H	0.822217	0.0962994	0.767446
0	H	0.856825	0.623634	0.892893
0	H	0.391834	0.12412	0.605601
0	H	0.884192	0.191959	0.657001
0	H	0.76497	0.631186	0.486533
0	C	0.0380613	0.640401	0.0595271
0	C	0.386366	0.443654	0.0155069
0	C	0.572707	0.933524	0.985526
0	C	0.94073	0.349513	0.119395
0	C	0.657027	0.559129	0.961854
0	C	0.475795	0.0641046	0.0443217
0	C	0.709027	0.923348	0.300246
0	C	0.0309793	0.807888	0.335308
0	C	0.261641	0.268551	0.399866
0	C	0.575278	0.687621	0.328319
0	C	0.301543	0.888769	0.446591
0	C	0.134596	0.43151	0.359637
0	C	0.437542	0.305393	0.734247
0	C	0.744214	0.0907227	0.631282
0	C	0.879798	0.56829	0.781581
0	C	0.316844	0.0469871	0.786664
0	C	9.34267e-05	0.245596	0.73988
0	C	0.74575	0.710902	0.68631
0	C	0.0645	0.674745	0.112931
0	C	0.34982	0.420606	0.0730061
0	C	0.595993	0.916577	0.0362785
0	C	0.920577	0.311682	0.0789921
0	C	0.687615	0.546356	0.941808
0	C	0.450751	0.0830436	0.0217803
0	C	0.745203	0.958537	0.304097
0	C	0.993993	0.797461	0.395526
0	C	0.286439	0.251861	0.443881
0	C	0.559887	0.648378	0.300263
0	C	0.343604	0.911747	0.423158
0	C	0.109653	0.450546	0.336898
0	C	0.462137	0.345567	0.724968
0	C	0.702026	0.0645992	0.637178
0	C	0.91613	0.564064	0.802625
0	C	0.284175	0.00975918	0.774057
0	C	0.0355669	0.256941	0.673165
0	C	0.733618	0.740265	0.662022
0	H	0.0887956	0.674996	0.169981
0	H	0.336366	0.434003	0.130031
0	H	0.581367	0.893517	0.0963161
0	H	0.891761	0.303015	0.0302952
0	H	0.679032	0.515608	0.931511
0	H	0.46388	0.110828	0.979157
0	H	0.774549	0.958902	0.32976
0	H	0.99206	0.817409	0.456438
0	H	0.27285	0.227096	0.499407
0	H	0.532454	0.63479	0.248059
0	H	0.361621	0.899346	0.379916
0	H	0.122026	0.476957	0.288182
0	H	0.49396	0.358222	0.755789
0	H	0.680186	0.0730555	0.67841
0	H	0.915135	0.540201	0.853104
0	H	0.253269	0.00651397	0.752422
0	H	0.042994	0.235158	0.632129
0	H	0.756369	0.768369	0.632633
0	C	0.0610843	0.709014	0.0915501
0	C	0.330743	0.380502	0.0579008
0	C	0.63801	0.929513	0.00994565
0	C	0.93677	0.285104	0.0997339
0	C	0.729227	0.57337	0.933344
0	C	0.409107	0.0662678	0.0543245
0	C	0.743664	0.99313	0.2755
0	C	0.960194	0.761651	0.378505
0	C	0.328447	0.266862	0.415719
0	C	0.579794	0.626521	0.339893
0	C	0.362135	0.950731	0.454307
0	C	0.0689558	0.435334	0.376398
0	C	0.445822	0.369122	0.677412
0	C	0.688362	0.0276573	0.591415
0	C	0.95398	0.590996	0.759357
0	C	0.291326	0.977127	0.789947
0	C	0.0621803	0.296213	0.660426
0	C	0.692037	0.733164	0.673946
0	H	0.0820658	0.735762	0.132047
0	H	0.302483	0.362905	0.103227
0	H	0.655999	0.916073	0.0489348
0	H	0.920998	0.255715	0.0675342
0	H	0.752763	0.56348	0.91312
0	H	0.38971	0.0812685	0.0374127
0	H	0.771867	0.0202801	0.277548
0	H	0.931593	0.753625	0.425637
0	H	0.347507	0.253504	0.448636
0	H	0.567836	0.595978	0.317853
0	H	0.394571	0.968702	0.43442
0	H	0.0496603	0.450161	0.358175
0	H	0.464821	0.400348	0.671937
0	H	0.655678	0.00715831	0.596946
0	H	0.982355	0.587772	0.775404
0	H	0.26598	0.94827	0.780243
0	H	0.0897575	0.304908	0.608969
0	H	0.682612	0.75585	0.653601
0	C	0.0312654	0.709169	0.0170971
0	C	0.347725	0.363079	0.984906
0	C	0.657212	0.95988	0.935384
0	C	0.973135	0.296235	0.161663
0	C	0.740684	0.612798	0.949061
0	C	0.392088	0.0304794	0.108144
0	C	0.705889	0.992902	0.244339
0	C	0.963033	0.735625	0.302106
0	C	0.34599	0.29884	0.345385
0	C	0.614793	0.643647	0.407312
0	C	0.339047	0.966796	0.509522
0	C	0.0530013	0.401241	0.438552
0	C	0.404898	0.352855	0.638567
0	C	0.716446	0.0167539	0.538799
0	C	0.955757	0.622291	0.696977
0	C	0.331048	0.981413	0.818305
0	C	0.0539389	0.32422	0.715129
0	C	0.662713	0.697093	0.711144
0	H	0.0293906	0.73614	0.998472
0	H	0.333151	0.331772	0.974191
0	H	0.690236	0.970549	0.916925
0	H	0.986001	0.275585	0.176571
0	H	0.773151	0.633599	0.942509
0	H	0.359346	0.0171482	0.131824
0	H	0.70452	0.019842	0.222428
0	H	0.936653	0.707557	0.289576
0	H	0.378738	0.310486	0.324057
0	H	0.630323	0.626531	0.4388
0	H	0.353644	0.997234	0.533993
0	H	0.0211042	0.389301	0.468298
0	H	0.392011	0.371317	0.602728
0	H	0.705749	0.987825	0.503538
0	H	0.985558	0.643807	0.666302
0	H	0.33668	0.955942	0.828938
0	H	0.0751965	0.354757	0.707364
0	H	0.630221	0.691415	0.718463
0	C	0.00396306	0.674677	0.966727
0	C	0.383332	0.386025	0.924552
0	C	0.634016	0.976824	0.884733
0	C	0.993062	0.333896	0.2036
0	C	0.710289	0.625433	0.973005
0	C	0.417028	0.0116023	0.130704
0	C	0.66988	0.958025	0.241559
0	C	0.999749	0.745723	0.242731
0	C	0.321397	0.315703	0.302596
0	C	0.630272	0.682895	0.434705
0	C	0.297109	0.94389	0.533181
0	C	0.0779607	0.382442	0.461895
0	C	0.380434	0.312956	0.647155
0	C	0.758415	0.0429459	0.532027
0	C	0.919308	0.626082	0.674248
0	C	0.363353	0.018396	0.832616
0	C	0.0184698	0.312888	0.78089
0	C	0.675103	0.66829	0.738886
0	H	0.980347	0.674457	0.909548
0	H	0.39625	0.372589	0.865953
0	H	0.649016	0.000508242	0.826429
0	H	0.0212998	0.34266	0.252584
0	H	0.719101	0.65612	0.986067
0	H	0.403715	0.983707	0.172969
0	H	0.640425	0.957954	0.217451
0	H	0.00209356	0.725182	0.184426
0	H	0.335194	0.340964	0.248829
0	H	0.658012	0.696302	0.486236
0	H	0.279114	0.956615	0.575584
0	H	0.065464	0.355783	0.510067
0	H	0.3484	0.300329	0.61757
0	H	0.780376	0.0344067	0.491379
0	H	0.920696	0.650484	0.625152
0	H	0.39416	0.0217751	0.856191
0	H	0.012101	0.334599	0.824717
0	H	0.652534	0.640318	0.769743
0	C	0.00696883	0.640217	0.988691
0	C	0.402422	0.426137	0.938988
0	C	0.591798	0.963459	0.908532
0	C	0.97708	0.360613	0.182455
0	C	0.668569	0.59881	0.978827
0	C	0.458843	0.0283384	0.0994293
0	C	0.671243	0.923213	0.269199
0	C	0.0335805	0.78179	0.258264
0	C	0.279172	0.300507	0.329036
0	C	0.610586	0.704917	0.395715
0	C	0.278323	0.904977	0.501973
0	C	0.118799	0.397545	0.422925
0	C	0.396665	0.289188	0.694399
0	C	0.77239	0.079823	0.578355
0	C	0.881303	0.598944	0.715368
0	C	0.356444	0.0512203	0.816587
0	C	0.991272	0.273753	0.792458
0	C	0.716533	0.675013	0.72611
0	H	0.985423	0.613312	0.95021
0	H	0.429628	0.443876	0.889776
0	H	0.573745	0.97598	0.866
0	H	0.992897	0.389976	0.214449
0	H	0.644818	0.608657	0.995859
0	H	0.477904	0.0135961	0.119594
0	H	0.643013	0.896208	0.267761
0	H	0.0620055	0.789531	0.2111
0	H	0.260033	0.313536	0.295119
0	H	0.622732	0.735411	0.417381
0	H	0.245561	0.887212	0.519468
0	H	0.138228	0.382955	0.441127
0	H	0.377399	0.258123	0.700675
0	H	0.805415	0.0999289	0.574897
0	H	0.852913	0.601868	0.697848
0	H	0.381749	0.0799417	0.826512
0	H	0.963666	0.265012	0.843698
0	H	0.725975	0.652203	0.745775
0	C	0.0864428	0.62593	0.887623
0	C	0.383433	0.502467	0.859186
0	C	0.501219	0.869158	0.852404
0	C	0.878786	0.355584	0.264644
0	C	0.601666	0.511825	0.164668
0	C	0.53889	0.121163	0.190125
0	C	0.758619	0.892631	0.171158
0	C	0.0629617	0.882596	0.175653
0	C	0.192767	0.212018	0.251351
0	C	0.524818	0.710632	0.472016
0	C	0.287935	0.824243	0.598972
0	C	0.210043	0.479111	0.498281
0	C	0.499091	0.287734	0.62205
0	C	0.748573	0.162212	0.512257
0	C	0.823625	0.500145	0.660544
0	C	0.271249	0.0687075	0.950995
0	C	0.991201	0.20756	0.968554
0	C	0.812621	0.749274	0.852591
0	C	0.116109	0.665383	0.917364
0	C	0.342955	0.468388	0.857264
0	C	0.535396	0.858901	0.830825
0	C	0.839702	0.321556	0.240431
0	C	0.64458	0.532384	0.203252
0	C	0.538045	0.157469	0.224668
0	C	0.799668	0.910468	0.225696
0	C	0.0168247	0.862891	0.177949
0	C	0.224681	0.201024	0.231147
0	C	0.495449	0.675271	0.514936
0	C	0.323997	0.819295	0.620362
0	C	0.181612	0.497092	0.524109
0	C	0.537097	0.313026	0.574697
0	C	0.721527	0.179238	0.48351
0	C	0.853692	0.485379	0.659182
0	C	0.230312	0.0457106	0.937696
0	C	0.031789	0.237049	0.975391
0	C	0.81381	0.78737	0.86237
0	H	0.123878	0.671327	0.00430748
0	H	0.328202	0.456831	0.936254
0	H	0.559671	0.866505	0.893126
0	H	0.826832	0.31988	0.158068
0	H	0.666194	0.5561	0.152925
0	H	0.53693	0.176619	0.15954
0	H	0.798294	0.910493	0.31644
0	H	0.00166279	0.845284	0.249475
0	H	0.247953	0.20503	0.294701
0	H	0.472483	0.654085	0.459736
0	H	0.338502	0.810451	0.554151
0	H	0.178027	0.514895	0.458502
0	H	0.563906	0.32893	0.627354
0	H	0.710651	0.192319	0.549117
0	H	0.865209	0.479657	0.737529
0	H	0.213787	0.0479576	0.864627
0	H	0.0488252	0.249848	0.899762
0	H	0.806109	0.801314	0.793325
0	C	0.132064	0.693067	0.840222
0	C	0.325449	0.451565	0.761847
0	C	0.536862	0.840968	0.736752
0	C	0.821664	0.293689	0.316218
0	C	0.656956	0.522778	0.298456
0	C	0.536289	0.165468	0.331734
0	C	0.831869	0.947652	0.17349
0	C	0.994784	0.868888	0.096293
0	C	0.226511	0.18395	0.130826
0	C	0.497271	0.666347	0.625086
0	C	0.340918	0.825627	0.72622
0	C	0.162475	0.493467	0.621587
0	C	0.540986	0.31811	0.460234
0	C	0.708064	0.178173	0.376695
0	C	0.868453	0.47847	0.56079
0	C	0.204986	0.0152642	0.0189574
0	C	0.0503241	0.250262	0.0779507
0	C	0.805433	0.797095	0.979099
0	H	0.15172	0.723097	0.862634
0	H	0.297252	0.424334	0.759512
0	H	0.562988	0.8343	0.71859
0	H	0.793068	0.267393	0.297003
0	H	0.688851	0.538504	0.327293
0	H	0.532969	0.191329	0.357477
0	H	0.848537	0.971874	0.228798
0	H	0.961055	0.85701	0.0972731
0	H	0.251125	0.174451	0.11806
0	H	0.475435	0.63802	0.657084
0	H	0.368681	0.821619	0.742812
0	H	0.143771	0.508972	0.638904
0	H	0.571209	0.337337	0.42595
0	H	0.685925	0.189944	0.356656
0	H	0.89166	0.466746	0.560072
0	H	0.186437	0.987463	0.9742
0	H	0.0817734	0.273466	0.0819469
0	H	0.799553	0.823483	0.98256
0	C	0.124473	0.685026	0.721056
0	C	0.34203	0.469766	0.654042
0	C	0.504173	0.829479	0.652022
0	C	0.839377	0.295226	0.427384
0	C	0.629039	0.49162	0.372356
0	C	0.538064	0.139865	0.422316
0	C	0.822961	0.957041	0.0569361
0	C	0.0165228	0.893392	0.00260345
0	C	0.197349	0.178366	0.0473289
0	C	0.527475	0.693244	0.698785
0	C	0.322028	0.836945	0.810845
0	C	0.164443	0.468186	0.710324
0	C	0.506957	0.29866	0.39006
0	C	0.72229	0.16165	0.288914
0	C	0.854824	0.486822	0.457815
0	C	0.22986	0.00905229	0.113633
0	C	0.0287197	0.233766	0.174712
0	C	0.776002	0.763734	0.0444742
0	H	0.113739	0.705055	0.681797
0	H	0.341328	0.448557	0.591074
0	H	0.518234	0.839545	0.566722
0	H	0.842542	0.268209	0.444032
0	H	0.632843	0.501947	0.458952
0	H	0.510077	0.13135	0.476862
0	H	0.838138	0.987051	0.0288534
0	H	0.996976	0.896513	0.937084
0	H	0.199486	0.165105	0.969494
0	H	0.538409	0.680862	0.768899
0	H	0.335119	0.841331	0.894772
0	H	0.136914	0.456151	0.763557
0	H	0.48105	0.346397	0.409575
0	H	0.699286	0.145965	0.223089
0	H	0.869149	0.482684	0.382412
0	H	0.226154	0.978599	0.118886
0	H	0.0431467	0.244255	0.255766
0	H	0.754646	0.768529	0.0996182
0	C	0.0985684	0.642191	0.689181
0	C	0.38237	0.507564	0.65488
0	C	0.46719	0.838883	0.676205
0	C	0.879017	0.332238	0.45505
0	C	0.583383	0.471668	0.336365
0	C	0.542355	0.103702	0.38368
0	C	0.786478	0.930514	0.00481085
0	C	0.0587862	0.900492	0.977853
0	C	0.165874	0.18975	0.0647493
0	C	0.556754	0.728824	0.652211
0	C	0.286303	0.842047	0.789734
0	C	0.187907	0.445406	0.691052
0	C	0.468988	0.273886	0.437364
0	C	0.750596	0.145793	0.319008
0	C	0.825191	0.500195	0.455041
0	C	0.274326	0.0370283	0.123575
0	C	0.988288	0.204338	0.169419
0	C	0.778284	0.729779	0.0354002
0	H	0.0778168	0.638337	0.618269
0	H	0.405605	0.507177	0.593679
0	H	0.455794	0.848963	0.604147
0	H	0.902923	0.326135	0.497537
0	H	0.561512	0.472116	0.400916
0	H	0.526036	0.0786847	0.438821
0	H	0.781582	0.934765	0.917449
0	H	0.0698055	0.904939	0.89229
0	H	0.14345	0.186531	0.999423
0	H	0.581879	0.749127	0.704679
0	H	0.271603	0.850763	0.856327
0	H	0.1768	0.416727	0.729567
0	H	0.441658	0.258083	0.385597
0	H	0.761609	0.132392	0.254476
0	H	0.81434	0.506935	0.375908
0	H	0.290564	0.0335124	0.19571
0	H	0.971238	0.191348	0.244644
0	H	0.759738	0.704032	0.0829992
0	C	0.0775034	0.615376	0.781093
0	C	0.401815	0.520467	0.764884
0	C	0.47055	0.861627	0.777198
0	C	0.897231	0.360348	0.364016
0	C	0.573348	0.483614	0.228778
0	C	0.53543	0.0938357	0.265487
0	C	0.754304	0.900057	0.0619826
0	C	0.0831123	0.888993	0.0602634
0	C	0.161918	0.205521	0.168092
0	C	0.554452	0.737959	0.542536
0	C	0.269053	0.835545	0.683986
0	C	0.211275	0.449883	0.585341
0	C	0.465228	0.26797	0.550988
0	C	0.763891	0.146991	0.426897
0	C	0.806018	0.505343	0.555956
0	C	0.29344	0.0649307	0.0487806
0	C	0.969	0.191498	0.0671317
0	C	0.80909	0.727553	0.956745
0	H	0.0543527	0.586472	0.758104
0	H	0.432176	0.545263	0.764807
0	H	0.446069	0.87106	0.789071
0	H	0.926857	0.385265	0.381317
0	H	0.540849	0.468234	0.203985
0	H	0.531462	0.0649841	0.242013
0	H	0.725264	0.883217	0.0185125
0	H	0.0921215	0.866542	0.0312998
0	H	0.144891	0.223823	0.168522
0	H	0.576801	0.765775	0.509297
0	H	0.241013	0.839226	0.667543
0	H	0.206603	0.421918	0.549164
0	H	0.435497	0.247655	0.585219
0	H	0.786207	0.135428	0.446882
0	H	0.796374	0.529357	0.553376
0	H	0.32606	0.0852951	0.0566217
0	H	0.9347	0.174422	0.0665694
0	H	0.808018	0.698484	0.948716
0	B	0.897589	0.475084	0.110068
0	B	0.500254	0.499295	0.0342987
0	B	0.534968	0.0514147	0.965455
0	B	0.0718126	0.507008	0.0348971
0	B	0.455831	0.496395	0.0765276
0	B	0.516988	0.955163	0.0327556
0	B	0.64433	0.793787	0.117126
0	B	0.170939	0.903627	0.205964
0	B	0.0899493	0.24611	0.403896
0	B	0.688496	0.826561	0.18869
0	B	0.124748	0.861037	0.226839
0	B	0.0855139	0.206118	0.491401
0	B	0.328724	0.140099	0.913164
0	B	0.953179	0.143995	0.878553
0	B	0.917086	0.735869	0.643649
0	B	0.369539	0.18244	0.963481
0	B	0.957525	0.136684	0.0177848
0	B	0.90238	0.760214	0.78469
0	H	0.0505099	0.473115	0.0255378
0	H	0.486859	0.529198	0.0507566
0	H	0.536955	0.0226753	0.993655
0	H	0.923804	0.506922	0.130347
0	H	0.467237	0.467472	0.0779838
0	H	0.517194	0.984312	0.999723
0	H	0.688775	0.817507	0.0881902
0	H	0.142318	0.869787	0.133973
0	H	0.0576474	0.245326	0.373286
0	H	0.651001	0.813864	0.222883
0	H	0.131209	0.837926	0.279
0	H	0.114836	0.274933	0.446341
0	H	0.364732	0.156735	0.869396
0	H	0.922723	0.132134	0.948885
0	H	0.926171	0.711199	0.675277
0	H	0.330273	0.151552	0.0115766
0	H	0.983522	0.13873	0.928453
0	H	0.940848	0.762979	0.59281
0	B	0.120234	0.52387	0.982249
0	B	0.472396	0.624577	0.988942
0	B	0.346979	0.766929	0.0237417
0	B	0.851024	0.468592	0.155595
0	B	0.502466	0.386554	0.371888
0	B	0.625273	0.167256	0.0998829
0	B	0.834193	0.886922	0.0404004
0	B	0.121191	0.930575	0.0882987
0	B	0.0791466	0.143656	0.155971
0	B	0.543015	0.826177	0.383062
0	B	0.177615	0.709761	0.549009
0	B	0.257846	0.47681	0.625574
0	B	0.526654	0.200221	0.76368
0	B	0.81491	0.280043	0.632662
0	B	0.710984	0.437935	0.519077
0	B	0.195387	0.0586909	0.188102
0	B	0.943702	0.0780027	0.033992
0	B	0.887976	0.758896	0.907973
0	H	0.12173	0.498353	0.913643
0	H	0.48936	0.658751	0.96372
0	H	0.336238	0.739083	0.0933136
0	H	0.850255	0.497058	0.197113
0	H	0.479315	0.36085	0.459891
0	H	0.627222	0.164918	0.197833
0	H	0.807813	0.867329	0.977585
0	H	0.133467	0.952281	0.999273
0	H	0.0714123	0.146631	0.0628837
0	H	0.533214	0.840575	0.459147
0	H	0.202801	0.710414	0.715389
0	H	0.273934	0.477222	0.714471
0	H	0.529618	0.162583	0.788362
0	H	0.772056	0.290654	0.512833
0	H	0.68994	0.439281	0.442373
0	H	0.199428	0.0881866	0.23045
0	H	0.948322	0.107262	0.0916642
0	H	0.933117	0.755714	0.754356
0	B	0.102133	0.552967	0.916395
0	B	0.420642	0.591579	0.966451
0	B	0.395099	0.781943	0.981789
0	B	0.862012	0.433244	0.215383
0	B	0.543876	0.391396	0.296705
0	B	0.605636	0.194136	0.0176041
0	B	0.854131	0.934934	0.0747571
0	B	0.0689683	0.927614	0.169735
0	B	0.119408	0.164779	0.23181
0	B	0.507414	0.779459	0.388918
0	B	0.21995	0.740089	0.496422
0	B	0.256427	0.511053	0.53015
0	B	0.568588	0.232718	0.698827
0	B	0.783197	0.237881	0.668908
0	B	0.763653	0.465619	0.581092
0	B	0.204689	0.0196268	0.201953
0	B	0.977656	0.0665963	0.957561
0	B	0.864492	0.798601	0.888761
0	H	0.0946925	0.544215	0.81232
0	H	0.449756	0.612114	0.892256
0	H	0.406664	0.778756	0.888413
0	H	0.858571	0.430312	0.326151
0	H	0.619343	0.436217	0.266971
0	H	0.591825	0.213156	0.064803
0	H	0.89264	0.955741	0.0585382
0	H	0.0847857	0.951542	0.255186
0	H	0.100883	0.0937448	0.137581
0	H	0.482727	0.760918	0.47093
0	H	0.228092	0.682029	0.463687
0	H	0.256236	0.517198	0.636151
0	H	0.564202	0.263758	0.66919
0	H	0.744238	0.270875	0.743047
0	H	0.748918	0.44243	0.469459
0	H	0.147233	0.0323089	0.00896704
0	H	0.0137149	0.0811292	0.936666
0	H	0.877926	0.832549	0.934761
0	B	0.139469	0.562222	0.811581
0	B	0.37959	0.598752	0.989897
0	B	0.423256	0.827349	0.992621
0	B	0.819978	0.402076	0.292107
0	B	0.536635	0.397712	0.166797
0	B	0.622475	0.184418	0.894738
0	B	0.827228	0.891965	0.169844
0	B	0.119157	0.96613	0.184701
0	B	0.0708986	0.17097	0.257529
0	B	0.464035	0.739387	0.35949
0	B	0.210083	0.72707	0.319586
0	B	0.284583	0.51322	0.405208
0	B	0.55986	0.27039	0.782614
0	B	0.789443	0.238787	0.848633
0	B	0.744519	0.458936	0.719328
0	B	0.172552	0.0301492	0.0728752
0	B	0.931053	0.0611289	0.898828
0	B	0.90021	0.801905	0.796612
0	H	0.145983	0.581823	0.728976
0	H	0.343651	0.583186	0.974476
0	H	0.44688	0.811813	0.152344
0	H	0.817269	0.37055	0.30844
0	H	0.559606	0.414667	0.0947559
0	H	0.641047	0.275947	0.775236
0	H	0.85956	0.895618	0.236651
0	H	0.102399	0.968198	0.385577
0	H	0.1101	0.244722	0.30624
0	H	0.436752	0.71037	0.39139
0	H	0.226448	0.713897	0.240526
0	H	0.264287	0.573559	0.439611
0	H	0.588299	0.301808	0.788997
0	H	0.766481	0.234852	0.937101
0	H	0.782106	0.416174	0.707803
0	H	0.195555	0.0695199	0.0822842
0	H	0.94822	0.0499042	0.635473
0	H	0.887477	0.812243	0.695649
0	B	0.175582	0.556305	0.00664991
0	B	0.465632	0.649744	0.109299
0	B	0.405564	0.839998	0.144518
0	B	0.764303	0.396982	0.154408
0	B	0.492232	0.356687	0.13393
0	B	0.674448	0.207218	0.871633
0	B	0.900376	0.908084	0.797036
0	B	0.168302	0.960469	0.398758
0	B	0.0509398	0.17682	0.386137
0	B	0.495195	0.782844	0.162737
0	B	0.153513	0.692846	0.295681
0	B	0.333995	0.526049	0.498884
0	B	0.543074	0.184333	0.873712
0	B	0.834264	0.285387	0.891537
0	B	0.70638	0.418184	0.653087
0	B	0.136796	0.130795	0.304473
0	B	0.897628	0.019695	0.83038
0	B	0.9573	0.850497	0.616683
0	H	0.197696	0.558516	0.0815859
0	H	0.47855	0.684546	0.137534
0	H	0.38897	0.83258	0.23645
0	H	0.746002	0.37713	0.0798832
0	H	0.486633	0.359672	0.0374458
0	H	0.68602	0.204812	0.687772
0	H	0.923504	0.929011	0.866603
0	H	0.154245	0.978243	0.480594
0	H	0.0694816	0.221238	0.552608
0	H	0.495558	0.787595	0.0644453
0	H	0.170209	0.729969	0.289437
0	H	0.287291	0.489253	0.178711
0	H	0.520377	0.243911	0.968144
0	H	0.833305	0.251265	0.876029
0	H	0.726669	0.479733	0.936687
0	H	0.12363	0.0994948	0.385922
0	H	0.892472	0.981162	0.821665
0	H	0.934968	0.833908	0.524674
0	B	0.153096	0.576269	0.944439
0	B	0.441174	0.604613	0.11163
0	B	0.374135	0.816467	0.0336269
0	B	0.811788	0.42527	0.176582
0	B	0.493361	0.385099	0.242832
0	B	0.657781	0.199751	0.00812059
0	B	0.928236	0.91807	0.661547
0	B	0.149878	0.939909	0.202203
0	B	0.102928	0.210073	0.341555
0	B	0.511128	0.814875	0.281463
0	B	0.157889	0.68894	0.426317
0	B	0.287983	0.485107	0.506973
0	B	0.564637	0.234489	0.846451
0	B	0.827533	0.294086	0.765443
0	B	0.71847	0.467798	0.623815
0	B	0.131366	0.129433	0.447106
0	B	0.931208	0.0479475	0.720854
0	B	0.923605	0.841331	0.717229
0	H	0.119254	0.515116	0.0816299
0	H	0.496521	0.610526	0.989779
0	H	0.318244	0.762025	0.95373
0	H	0.861873	0.474781	0.052414
0	H	0.506292	0.412458	0.432753
0	H	0.662483	0.16974	0.0487214
0	H	0.933734	0.951218	0.680505
0	H	0.185388	0.94162	0.162206
0	H	0.0426136	0.175786	0.216143
0	H	0.578672	0.833805	0.368392
0	H	0.145743	0.711357	0.502207
0	H	0.277921	0.453766	0.465566
0	H	0.491203	0.18994	0.7409
0	H	0.851767	0.290679	0.676386
0	H	0.704603	0.490896	0.622004
0	H	0.159247	0.137129	0.509981
0	H	0.906263	0.0619173	0.988157
0	H	0.938387	0.83447	0.810602
0	B	0.21048	0.483855	0.775952
0	B	0.497896	0.70332	0.798488
0	B	0.295678	0.734219	0.0419048
0	B	0.791046	0.455463	0.228203
0	B	0.515382	0.303736	0.262295
0	B	0.750269	0.200044	0.198937
0	B	0.851758	0.806677	0.023539
0	B	0.177542	0.0298377	0.311335
0	B	0.963725	0.0548003	0.106048
0	B	0.441905	0.794672	0.714844
0	B	0.164944	0.684503	0.661285
0	B	0.315661	0.492648	0.620901
0	B	0.591646	0.123517	0.39339
0	B	0.815726	0.306014	0.52622
0	B	0.635103	0.452196	0.365616
0	B	0.097962	0.111825	0.214383
0	B	0.885709	0.910953	0.0361948
0	B	0.0538678	0.937717	0.0498765
0	H	0.234196	0.514514	0.735374
0	H	0.46249	0.682289	0.780111
0	H	0.285573	0.704193	0.995446
0	H	0.810901	0.488851	0.255394
0	H	0.544854	0.297968	0.237461
0	H	0.764778	0.229426	0.250878
0	H	0.870373	0.827843	0.0998055
0	H	0.20378	0.0505666	0.373654
0	H	0.986785	0.0684529	0.18329
0	H	0.421534	0.783152	0.797184
0	H	0.196945	0.687453	0.736905
0	H	0.327536	0.524933	0.680915
0	H	0.61157	0.144377	0.320123
0	H	0.78272	0.314879	0.496129
0	H	0.664975	0.446526	0.387453
0	H	0.0660013	0.0865389	0.277734
0	H	0.910689	0.920615	0.962187
0	H	0.0387599	0.959314	0.0285046
0	B	0.197392	0.529411	0.916129
0	B	0.437371	0.676097	0.0793638
0	B	0.366332	0.793245	0.160032
0	B	0.741514	0.414729	0.247795
0	B	0.500546	0.312284	0.130824
0	B	0.68437	0.227364	0.753468
0	B	0.910854	0.889337	0.555371
0	B	0.139451	0.986794	0.390492
0	B	0.0585046	0.155661	0.507577
0	B	0.444076	0.776874	0.186457
0	B	0.189863	0.677906	0.303092
0	B	0.326901	0.557407	0.421148
0	B	0.611621	0.245043	0.777106
0	B	0.786403	0.280085	0.896116
0	B	0.737463	0.411561	0.548746
0	B	0.0893569	0.132289	0.474699
0	B	0.928935	0.00350667	0.772718
0	B	0.943006	0.871901	0.512249
0	H	0.230635	0.552423	0.88558
0	H	0.419224	0.682325	0.153926
0	H	0.333373	0.782349	0.215869
0	H	0.708642	0.407344	0.287634
0	H	0.523713	0.313644	0.0581799
0	H	0.707657	0.261532	0.745409
0	H	0.88181	0.887481	0.50468
0	H	0.148716	0.0210294	0.4157
0	H	0.0252661	0.141117	0.552811
0	H	0.406937	0.751579	0.14562
0	H	0.199833	0.653692	0.275474
0	H	0.321552	0.578536	0.499124
0	H	0.573403	0.220948	0.609073
0	H	0.762341	0.289079	0.93906
0	H	0.742355	0.387449	0.497986
0	H	0.0843356	0.148108	0.572157
0	H	0.93527	0.982891	0.707459
0	H	0.963034	0.884175	0.430903
0	B	0.139561	0.637211	0.660873
0	B	0.363546	0.536648	0.613174
0	B	0.473472	0.784462	0.640169
0	B	0.85487	0.348712	0.533915
0	B	0.584233	0.429756	0.330889
0	B	0.575334	0.166322	0.500228
0	B	0.870485	0.883863	0.141967
0	B	0.104679	0.96567	0.0459498
0	B	0.0515777	0.11332	0.260263
0	B	0.513618	0.733682	0.893106
0	B	0.274943	0.751232	0.133702
0	B	0.235094	0.475347	0.882255
0	B	0.463633	0.275922	0.199294
0	B	0.748943	0.188841	0.0696782
0	B	0.750071	0.452784	0.143214
0	B	0.145172	0.0156554	0.197952
0	B	0.949432	0.0203982	0.0226301
0	B	0.855052	0.76185	0.989575
0	H	0.145806	0.608932	0.666238
0	H	0.379472	0.570311	0.634114
0	H	0.475747	0.762534	0.573351
0	H	0.864225	0.379684	0.571242
0	H	0.603089	0.426469	0.427496
0	H	0.575969	0.196539	0.532997
0	H	0.873177	0.854216	0.162799
0	H	0.118309	0.998612	0.00806319
0	H	0.0152769	0.0933341	0.237423
0	H	0.499391	0.740937	0.796538
0	H	0.251633	0.719822	0.17433
0	H	0.266483	0.503398	0.900701
0	H	0.460336	0.295135	0.103876
0	H	0.750086	0.217044	0.0198479
0	H	0.713358	0.430754	0.134074
0	H	0.1147	0.0212983	0.208501
0	H	0.920899	0.988491	0.0339894
0	H	0.859171	0.77263	0.0871227
0	B	0.157737	0.534167	0.873275
0	B	0.413302	0.628314	0.0690731
0	B	0.408772	0.786835	0.116561
0	B	0.783269	0.415585	0.302186
0	B	0.526548	0.349753	0.226839
0	B	0.635359	0.215918	0.787215
0	B	0.913392	0.877995	0.743121
0	B	0.163947	0.98259	0.267053
0	B	0.0663122	0.14131	0.370994
0	B	0.465521	0.778912	0.297229
0	B	0.20758	0.698138	0.435932
0	B	0.280239	0.553243	0.463522
0	B	0.593526	0.208992	0.874308
0	B	0.776907	0.267697	0.754295
0	B	0.76037	0.428636	0.667154
0	B	0.121498	0.163394	0.369716
0	B	0.951047	0.0269857	0.88375
0	B	0.953463	0.89343	0.640621
0	H	0.191516	0.500623	0.969257
0	H	0.451639	0.699269	0.00462633
0	H	0.358234	0.83291	0.979483
0	H	0.775926	0.455534	0.0484456
0	H	0.458385	0.347934	0.183665
0	H	0.686388	0.230295	0.0307511
0	H	0.865371	0.903549	0.784327
0	H	0.205055	0.973607	0.407841
0	H	0.0199099	0.181248	0.381998
0	H	0.525255	0.819447	0.174395
0	H	0.124491	0.682602	0.234734
0	H	0.349279	0.577438	0.351406
0	H	0.523489	0.169637	0.953925
0	H	0.862232	0.2999	0.95528
0	H	0.675938	0.392705	0.688195
0	H	0.171646	0.136272	0.282806
0	H	0.862329	0.0145601	0.828326
0	H	0.989133	0.847274	0.618001
