#******************************************
#
# CIF file created by Zeo++
# Zeo++ is an open source package to
# analyze microporous materials
#
#*******************************************

_cell_length_a		30.5739(0)
_cell_length_b		33.5782(0)
_cell_length_c		19.5428(0)
_cell_angle_alpha		90(0)
_cell_angle_beta		90(0)
_cell_angle_gamma		90(0)

_symmetry_space_group_name_H-M		'P1'
_symmetry_Int_Tables_number		1
_symmetry_cell_setting		Monoclinic

loop_
_symmetry_equiv_pos_as_xyz
'+x,+y,+z'

loop_
_atom_site_label
_atom_site_type_symbol
_atom_site_fract_x
_atom_site_fract_y
_atom_site_fract_z
0	Cl	0.0904037	0.254186	0.740805
0	Cl	0.946561	0.67733	0.756062
0	Cl	0.310911	0.881984	0.352975
0	Cl	0.728292	0.0171632	0.360922
0	Cl	0.437104	0.256996	0.115194
0	Cl	0.563737	0.679926	0.101686
0	Cl	0.215186	0.87925	0.506504
0	Cl	0.801163	0.0301638	0.502959
0	Cl	0.579749	0.740698	0.249317
0	Cl	0.445624	0.18492	0.263713
0	Cl	0.808126	0.400756	0.855934
0	Cl	0.216321	0.516649	0.845648
0	Cl	0.942502	0.74176	0.609911
0	Cl	0.0687182	0.189051	0.591731
0	Cl	0.710683	0.397253	0.00476144
0	Cl	0.297795	0.508728	0.985885
0	Cl	0.996304	0.133123	0.872319
0	Cl	0.0398775	0.801982	0.881062
0	Cl	0.164135	0.955422	0.231726
0	Cl	0.868947	0.97113	0.199093
0	Cl	0.526019	0.131982	0.98442
0	Cl	0.483019	0.805672	0.962343
0	Cl	0.356541	0.96069	0.629249
0	Cl	0.657961	0.971163	0.649819
0	Cl	0.493823	0.618447	0.38877
0	Cl	0.537951	0.311161	0.385668
0	Cl	0.662125	0.469565	0.726404
0	Cl	0.357087	0.459339	0.692968
0	Cl	0.0340119	0.618365	0.479651
0	Cl	0.979435	0.314741	0.465707
0	Cl	0.854271	0.464897	0.141265
0	Cl	0.157627	0.45577	0.143059
0	Cl	0.0440699	0.411202	0.095244
0	Cl	0.96605	0.526694	0.102525
0	Cl	0.464577	0.91859	0.991596
0	Cl	0.54932	0.0132677	0.0100068
0	Cl	0.468017	0.406726	0.75464
0	Cl	0.545635	0.524201	0.75431
0	Cl	0.0553076	0.92023	0.862505
0	Cl	0.972599	0.0127373	0.850931
0	Cl	0.565186	0.895257	0.605531
0	Cl	0.461547	0.0389379	0.615073
0	Cl	0.96401	0.420782	0.498008
0	Cl	0.0479649	0.507196	0.484496
0	Cl	0.962565	0.890174	0.248536
0	Cl	0.0583768	0.042839	0.237687
0	Cl	0.552552	0.417644	0.365316
0	Cl	0.47036	0.509692	0.344482
0	Cl	0.975951	0.283468	0.240887
0	Cl	0.0463779	0.643735	0.259017
0	Cl	0.323793	0.983943	0.853776
0	Cl	0.680976	0.948945	0.849303
0	Cl	0.54558	0.282559	0.611967
0	Cl	0.475481	0.642888	0.591114
0	Cl	0.195969	0.988691	0.996868
0	Cl	0.842854	0.947098	0.0110233
0	Cl	0.477964	0.778795	0.753944
0	Cl	0.537954	0.15811	0.769189
0	Cl	0.828127	0.486523	0.348796
0	Cl	0.183492	0.439695	0.333639
0	Cl	0.044183	0.769136	0.104865
0	Cl	0.980038	0.159583	0.0825786
0	Cl	0.688235	0.486201	0.512701
0	Cl	0.335624	0.446211	0.501428
0	O	0.991635	0.203551	0.77134
0	O	0.0465018	0.726986	0.785446
0	O	0.245786	0.96849	0.328489
0	O	0.796805	0.943142	0.298499
0	O	0.53553	0.20573	0.0786342
0	O	0.469596	0.733528	0.0599273
0	O	0.277887	0.969652	0.529049
0	O	0.734662	0.950201	0.551226
0	O	0.483882	0.68821	0.288962
0	O	0.545149	0.238167	0.289018
0	O	0.742509	0.485762	0.82228
0	O	0.280435	0.438248	0.791522
0	O	0.0414063	0.690072	0.57769
0	O	0.970236	0.243028	0.562862
0	O	0.775643	0.48138	0.0440665
0	O	0.236276	0.430498	0.0569015
0	O	0.0508405	0.167388	0.731489
0	O	0.990631	0.763902	0.736639
0	O	0.210491	0.914025	0.373808
0	O	0.830858	0.99751	0.349458
0	O	0.479944	0.170522	0.129795
0	O	0.527413	0.766779	0.111615
0	O	0.314564	0.91411	0.489415
0	O	0.70136	0.00468832	0.500728
0	O	0.54265	0.654106	0.244063
0	O	0.487089	0.272593	0.242209
0	O	0.706675	0.43249	0.870287
0	O	0.317601	0.490584	0.841931
0	O	0.982922	0.65606	0.623687
0	O	0.0298253	0.275861	0.608892
0	O	0.810805	0.428248	0.994273
0	O	0.202795	0.477996	0.987764
0	O	0.0852421	0.233448	0.960422
0	O	0.949015	0.705614	0.971826
0	O	0.275694	0.883385	0.138838
0	O	0.745323	0.0407782	0.140207
0	O	0.436018	0.229957	0.895808
0	O	0.569647	0.703565	0.881798
0	O	0.245874	0.885102	0.719447
0	O	0.777045	0.0429786	0.723703
0	O	0.582795	0.717794	0.471673
0	O	0.449166	0.214725	0.475624
0	O	0.773761	0.394534	0.642081
0	O	0.239686	0.534044	0.624853
0	O	0.942688	0.714185	0.391711
0	O	0.0681327	0.218621	0.376144
0	O	0.742153	0.390831	0.223328
0	O	0.272044	0.532458	0.210467
0	O	0.992346	0.334086	0.896743
0	O	0.0372983	0.602964	0.911442
0	O	0.388111	0.969817	0.185091
0	O	0.638974	0.94864	0.187646
0	O	0.525405	0.333892	0.951689
0	O	0.475339	0.604982	0.938365
0	O	0.133213	0.969072	0.664456
0	O	0.884047	0.952917	0.670315
0	O	0.496109	0.823382	0.412152
0	O	0.536945	0.109813	0.422776
0	O	0.886645	0.478923	0.68862
0	O	0.129973	0.446119	0.671721
0	O	0.0300128	0.820121	0.446487
0	O	0.983264	0.111707	0.42827
0	O	0.629537	0.474061	0.171505
0	O	0.374772	0.457159	0.134511
0	O	0.944837	0.219805	0.00521246
0	O	0.0909953	0.701992	0.0554583
0	O	0.253272	0.00916466	0.100888
0	O	0.767383	0.918929	0.074578
0	O	0.576714	0.220957	0.841232
0	O	0.430166	0.706661	0.792504
0	O	0.262768	0.0128412	0.762537
0	O	0.75759	0.918694	0.78647
0	O	0.442495	0.711815	0.524177
0	O	0.590157	0.214474	0.554417
0	O	0.760294	0.521268	0.578828
0	O	0.256424	0.410074	0.555608
0	O	0.0836073	0.70978	0.330866
0	O	0.925915	0.216083	0.300265
0	O	0.751955	0.518907	0.288857
0	O	0.274829	0.405386	0.289981
0	O	0.0736556	0.281781	0.0695164
0	O	0.952992	0.656715	0.0803421
0	O	0.32258	0.894361	0.0231463
0	O	0.691038	0.0349013	0.0292655
0	O	0.445838	0.276973	0.782363
0	O	0.565425	0.654188	0.77423
0	O	0.196555	0.896022	0.832174
0	O	0.830794	0.0350652	0.834387
0	O	0.575334	0.765619	0.581262
0	O	0.451506	0.168985	0.583953
0	O	0.822784	0.400813	0.527693
0	O	0.187801	0.528176	0.511058
0	O	0.94843	0.760567	0.280516
0	O	0.0660219	0.173642	0.266653
0	O	0.692343	0.397888	0.336936
0	O	0.327569	0.529491	0.321485
0	O	0.00951446	0.379147	0.236561
0	O	0.000585861	0.552169	0.246469
0	O	0.428282	0.955053	0.853456
0	O	0.576906	0.979268	0.867811
0	O	0.50574	0.376055	0.614854
0	O	0.515196	0.550451	0.607652
0	O	0.0911842	0.960328	0.999604
0	O	0.945364	0.976226	0.992769
0	O	0.524751	0.869744	0.746648
0	O	0.494121	0.0671199	0.759116
0	O	0.931024	0.453433	0.355644
0	O	0.0787098	0.471936	0.341957
0	O	0.998836	0.860477	0.107319
0	O	0.0271139	0.0703491	0.0931355
0	O	0.584615	0.453466	0.507778
0	O	0.440577	0.479916	0.487726
0	O	0.957188	0.360435	0.156827
0	O	0.0582216	0.566785	0.173758
0	O	0.406893	0.000883033	0.936332
0	O	0.603393	0.93106	0.942726
0	O	0.558754	0.360896	0.696234
0	O	0.457846	0.567932	0.679458
0	O	0.113599	0.00385409	0.913887
0	O	0.917914	0.929901	0.915308
0	O	0.470431	0.85613	0.666487
0	O	0.552642	0.0815756	0.687831
0	O	0.9104	0.502509	0.43339
0	O	0.0997847	0.424953	0.422641
0	O	0.0548911	0.847022	0.18463
0	O	0.966705	0.0839009	0.161041
0	O	0.606199	0.501295	0.428176
0	O	0.417602	0.428687	0.416183
0	N	0.148809	0.193746	0.829874
0	N	0.888763	0.740691	0.831758
0	N	0.249253	0.824567	0.271899
0	N	0.775272	0.0895064	0.281786
0	N	0.376847	0.193686	0.0420817
0	N	0.628786	0.737252	0.0205043
0	N	0.278702	0.826436	0.586903
0	N	0.746937	0.0961616	0.585254
0	N	0.642419	0.680112	0.330394
0	N	0.388159	0.247363	0.33857
0	N	0.746842	0.340981	0.782071
0	N	0.270997	0.583905	0.767596
0	N	0.882682	0.681154	0.526214
0	N	0.128788	0.248404	0.50993
0	N	0.769485	0.336548	0.0821081
0	N	0.244681	0.578602	0.0623115
0	N	0.0994708	0.12954	0.8936
0	N	0.935828	0.805374	0.898342
0	N	0.171296	0.860855	0.213448
0	N	0.851015	0.0650041	0.201529
0	N	0.422488	0.128011	0.976359
0	N	0.586728	0.803777	0.951292
0	N	0.354288	0.865705	0.64746
0	N	0.670335	0.0654925	0.656498
0	N	0.597042	0.61712	0.403824
0	N	0.433963	0.313233	0.403297
0	N	0.670992	0.374579	0.713217
0	N	0.345164	0.554091	0.689405
0	N	0.929461	0.616413	0.459616
0	N	0.0836662	0.314505	0.444377
0	N	0.845202	0.369524	0.152304
0	N	0.170351	0.550544	0.142163
0	N	0.9576	0.283348	0.957781
0	N	0.0732201	0.650966	0.977272
0	N	0.326224	0.000126324	0.137824
0	N	0.697334	0.923353	0.124074
0	N	0.561497	0.282126	0.895212
0	N	0.443363	0.654277	0.870174
0	N	0.19352	0.000743213	0.713803
0	N	0.825779	0.9256	0.73163
0	N	0.459073	0.77213	0.46847
0	N	0.572659	0.159793	0.484484
0	N	0.827621	0.509396	0.633484
0	N	0.188652	0.418177	0.611782
0	N	0.0667153	0.769255	0.388745
0	N	0.94567	0.161587	0.36928
0	N	0.687757	0.505338	0.2273
0	N	0.333088	0.420836	0.216375
0	N	0.118101	0.352681	0.157303
0	N	0.898536	0.592878	0.163681
0	N	0.401991	0.854429	0.918884
0	N	0.6114	0.0780695	0.937897
0	N	0.399498	0.346262	0.683298
0	N	0.617879	0.584874	0.690758
0	N	0.119169	0.856895	0.933763
0	N	0.910628	0.0772977	0.92376
0	N	0.628748	0.826948	0.669384
0	N	0.393345	0.107808	0.664423
0	N	0.898507	0.356289	0.430179
0	N	0.112444	0.570951	0.415479
0	N	0.89525	0.823701	0.189435
0	N	0.126061	0.112415	0.187131
0	N	0.617389	0.355001	0.437466
0	N	0.407435	0.574831	0.415891
0	N	0.0832069	0.285565	0.234396
0	N	0.941101	0.651939	0.24994
0	N	0.325706	0.88844	0.851986
0	N	0.683349	0.0445759	0.859375
0	N	0.440495	0.280685	0.609705
0	N	0.58042	0.647079	0.605173
0	N	0.194058	0.891905	0.0026986
0	N	0.839398	0.0433723	0.00316892
0	N	0.582534	0.766886	0.74828
0	N	0.433609	0.167771	0.751396
0	N	0.824687	0.391142	0.357734
0	N	0.185192	0.536488	0.340192
0	N	0.937724	0.760546	0.112779
0	N	0.0843167	0.173835	0.105425
0	N	0.692213	0.390659	0.506538
0	N	0.334487	0.541061	0.492122
0	C	0.235749	0.120539	0.869832
0	C	0.80005	0.812943	0.863999
0	C	0.183188	0.736476	0.226753
0	C	0.828556	0.185678	0.243899
0	C	0.288074	0.119904	0.0207434
0	C	0.722841	0.803367	0.984401
0	C	0.351799	0.741545	0.621768
0	C	0.686765	0.188364	0.62654
0	C	0.730084	0.605634	0.354918
0	C	0.298963	0.320061	0.362904
0	C	0.681555	0.25117	0.74531
0	C	0.336538	0.675024	0.74167
0	C	0.792805	0.612191	0.481749
0	C	0.220244	0.316173	0.46893
0	C	0.834598	0.246359	0.116917
0	C	0.187188	0.672549	0.101353
0	H	0.27082	0.116657	0.862769
0	H	0.765258	0.816713	0.853424
0	H	0.184795	0.7041	0.229618
0	H	0.823727	0.217581	0.252009
0	H	0.253547	0.116317	0.0330338
0	H	0.758138	0.804729	0.992758
0	H	0.353268	0.709424	0.613778
0	H	0.689816	0.22055	0.620708
0	H	0.76368	0.60015	0.339122
0	H	0.264743	0.324243	0.34902
0	H	0.682484	0.219076	0.754339
0	H	0.336967	0.706389	0.756829
0	H	0.757546	0.609238	0.488433
0	H	0.255498	0.318609	0.476902
0	H	0.833048	0.214213	0.108539
0	H	0.189732	0.704415	0.0912063
0	C	0.215608	0.155321	0.849175
0	C	0.821437	0.778797	0.843707
0	C	0.217775	0.7592	0.249097
0	C	0.798098	0.158684	0.266642
0	C	0.309437	0.154961	0.0364166
0	C	0.699059	0.770736	0.00581501
0	C	0.315296	0.762663	0.60271
0	C	0.719418	0.163516	0.603924
0	C	0.709342	0.640594	0.337064
0	C	0.320481	0.285357	0.346312
0	C	0.715442	0.274815	0.767056
0	C	0.302291	0.650762	0.759664
0	C	0.814449	0.645223	0.506182
0	C	0.197765	0.283251	0.491727
0	C	0.800527	0.270198	0.0958561
0	C	0.218658	0.64671	0.0776746
0	H	0.234082	0.179769	0.826587
0	H	0.804456	0.754612	0.817546
0	H	0.247405	0.745607	0.269929
0	H	0.768761	0.168025	0.294516
0	H	0.292542	0.179737	0.0606501
0	H	0.714511	0.7456	0.0315403
0	H	0.286758	0.748084	0.580309
0	H	0.74894	0.174948	0.579243
0	H	0.726108	0.663895	0.308582
0	H	0.304053	0.260836	0.320588
0	H	0.744086	0.262578	0.79314
0	H	0.274096	0.66182	0.788655
0	H	0.797168	0.669416	0.531908
0	H	0.214215	0.258598	0.517306
0	H	0.771814	0.25812	0.0699596
0	H	0.246932	0.656813	0.0486772
0	C	0.16945	0.159493	0.856339
0	C	0.867141	0.774992	0.855819
0	C	0.21471	0.801375	0.245827
0	C	0.805181	0.117424	0.254666
0	C	0.354936	0.158784	0.0216101
0	C	0.652941	0.769858	0.995191
0	C	0.314918	0.804658	0.611135
0	C	0.714511	0.121649	0.612164
0	C	0.664398	0.645941	0.354348
0	C	0.365948	0.281689	0.36112
0	C	0.712906	0.316639	0.756552
0	C	0.30402	0.609632	0.74281
0	C	0.860635	0.647977	0.498658
0	C	0.151631	0.281351	0.483087
0	C	0.803232	0.312051	0.107049
0	C	0.213658	0.605071	0.0898889
0	C	0.145281	0.127659	0.887214
0	C	0.890126	0.806716	0.889028
0	C	0.17596	0.819277	0.217902
0	C	0.843003	0.105173	0.216809
0	C	0.377141	0.126378	0.989483
0	C	0.63245	0.80272	0.961597
0	C	0.352144	0.82413	0.640481
0	C	0.676319	0.106521	0.645789
0	C	0.642388	0.61518	0.39138
0	C	0.388184	0.313952	0.393696
0	C	0.675768	0.333301	0.722596
0	C	0.340636	0.594695	0.704708
0	C	0.883587	0.616172	0.465272
0	C	0.129491	0.313845	0.450514
0	C	0.840621	0.328228	0.141079
0	C	0.176873	0.591335	0.128318
0	C	0.167014	0.0926013	0.909623
0	C	0.866902	0.841041	0.911373
0	C	0.141047	0.794822	0.194665
0	C	0.874227	0.133798	0.194525
0	C	0.354078	0.0910387	0.972224
0	C	0.657765	0.835794	0.939313
0	C	0.388898	0.801237	0.661502
0	C	0.643007	0.133059	0.668363
0	C	0.665291	0.580527	0.412725
0	C	0.364584	0.348471	0.413963
0	C	0.641736	0.3078	0.698793
0	C	0.374838	0.620912	0.684645
0	C	0.860108	0.583185	0.438372
0	C	0.153816	0.346856	0.425205
0	C	0.875024	0.302786	0.162657
0	C	0.14522	0.618745	0.152808
0	H	0.147569	0.068693	0.933036
0	H	0.884898	0.864855	0.937686
0	H	0.111895	0.809472	0.173101
0	H	0.903143	0.123312	0.166425
0	H	0.371832	0.0667909	0.946823
0	H	0.641202	0.860557	0.913448
0	H	0.416586	0.817291	0.684619
0	H	0.613875	0.120517	0.693458
0	H	0.647727	0.557888	0.442866
0	H	0.381867	0.372502	0.441152
0	H	0.613852	0.321381	0.672106
0	H	0.402299	0.608585	0.655192
0	H	0.878267	0.559536	0.411658
0	H	0.136161	0.37117	0.399316
0	H	0.903296	0.316336	0.188475
0	H	0.117318	0.607089	0.182206
0	C	0.211365	0.0891877	0.900288
0	C	0.822821	0.843925	0.898654
0	C	0.144681	0.754157	0.199455
0	C	0.867079	0.173239	0.20922
0	C	0.310531	0.0880215	0.988266
0	C	0.70206	0.83596	0.951075
0	C	0.388569	0.760683	0.651787
0	C	0.64822	0.173219	0.657809
0	C	0.708177	0.575879	0.393799
0	C	0.32099	0.351412	0.397886
0	C	0.644793	0.267482	0.71046
0	C	0.372932	0.660225	0.704088
0	C	0.815596	0.581242	0.447202
0	C	0.198355	0.347871	0.435046
0	C	0.871945	0.262722	0.150139
0	C	0.150395	0.658477	0.138862
0	H	0.228312	0.062182	0.916129
0	H	0.804676	0.87019	0.915114
0	H	0.118088	0.734804	0.182013
0	H	0.891346	0.195706	0.194906
0	H	0.292383	0.060949	0.976383
0	H	0.721898	0.861344	0.935027
0	H	0.416414	0.742536	0.667574
0	H	0.622639	0.194186	0.673178
0	H	0.726075	0.549067	0.40812
0	H	0.302507	0.378106	0.411288
0	H	0.618972	0.24742	0.692736
0	H	0.399572	0.680583	0.691663
0	H	0.797292	0.555886	0.427198
0	H	0.217361	0.373192	0.4165
0	H	0.898266	0.24249	0.166197
0	H	0.125849	0.680152	0.155735
0	C	0.106117	0.194318	0.834502
0	C	0.931229	0.740502	0.840548
0	C	0.24343	0.863172	0.268669
0	C	0.784437	0.0521633	0.268941
0	C	0.418957	0.194197	0.0302878
0	C	0.586454	0.739288	0.0110498
0	C	0.282241	0.865133	0.592213
0	C	0.739798	0.0581013	0.593968
0	C	0.600284	0.680847	0.341239
0	C	0.430531	0.24793	0.347227
0	C	0.741128	0.379275	0.773358
0	C	0.276969	0.546028	0.754938
0	C	0.925306	0.680345	0.520983
0	C	0.0861634	0.250351	0.504578
0	C	0.775299	0.374669	0.0917637
0	C	0.237074	0.540894	0.0743299
0	C	0.0813152	0.161493	0.86786
0	C	0.955184	0.773532	0.874208
0	C	0.204022	0.881607	0.237941
0	C	0.822503	0.0400024	0.226555
0	C	0.442051	0.160576	0.996764
0	C	0.565198	0.77323	0.975519
0	C	0.320299	0.885079	0.624031
0	C	0.701222	0.0427004	0.631764
0	C	0.57727	0.648357	0.378232
0	C	0.453896	0.281615	0.379726
0	C	0.702488	0.396336	0.738402
0	C	0.314776	0.531018	0.714711
0	C	0.949098	0.647191	0.487061
0	C	0.0632386	0.28399	0.471037
0	C	0.813737	0.391627	0.127407
0	C	0.199591	0.52668	0.115747
0	C	0.0720262	0.222721	0.805036
0	C	0.9656	0.711331	0.815603
0	C	0.271541	0.897102	0.295018
0	C	0.762114	0.0138644	0.29051
0	C	0.454134	0.223451	0.0529873
0	C	0.549669	0.712547	0.036097
0	C	0.252725	0.897664	0.564474
0	C	0.765107	0.0217806	0.569897
0	C	0.564795	0.709015	0.315507
0	C	0.465514	0.21949	0.321391
0	C	0.768889	0.414055	0.796615
0	C	0.251577	0.509524	0.777343
0	C	0.960038	0.708908	0.54743
0	C	0.0507406	0.222604	0.531005
0	C	0.74818	0.409752	0.0676164
0	C	0.262722	0.503962	0.0553027
0	C	0.0337631	0.171688	0.859967
0	C	0.00304837	0.762874	0.869529
0	C	0.210556	0.925921	0.243706
0	C	0.820581	0.995334	0.221231
0	C	0.489882	0.171089	0.997658
0	C	0.516725	0.765128	0.977317
0	C	0.311843	0.929052	0.617331
0	C	0.705482	0.998052	0.632228
0	C	0.529329	0.657715	0.374397
0	C	0.501951	0.271954	0.374577
0	C	0.708492	0.44095	0.74023
0	C	0.310351	0.486359	0.712296
0	C	0.996972	0.657007	0.492954
0	C	0.0150673	0.275077	0.477167
0	C	0.808053	0.436192	0.125912
0	C	0.204317	0.48223	0.122242
0	C	0.0346859	0.190956	0.784906
0	C	0.00384149	0.741981	0.794814
0	C	0.234247	0.928379	0.317364
0	C	0.803538	0.984601	0.296705
0	C	0.492094	0.192423	0.071668
0	C	0.513474	0.745711	0.0529404
0	C	0.289287	0.929849	0.54273
0	C	0.725607	0.991165	0.556835
0	C	0.527659	0.676859	0.298957
0	C	0.501988	0.251295	0.29982
0	C	0.731156	0.445402	0.814189
0	C	0.291115	0.478845	0.787502
0	C	0.997942	0.677746	0.567047
0	C	0.0139214	0.25457	0.551666
0	C	0.786292	0.440802	0.0510819
0	C	0.22489	0.471239	0.0491361
0	C	0.986022	0.239836	0.732404
0	C	0.0507468	0.68939	0.749318
0	C	0.287312	0.976662	0.361755
0	C	0.760925	0.928105	0.339232
0	C	0.543824	0.243259	0.113358
0	C	0.461637	0.697919	0.100546
0	C	0.23672	0.977228	0.494544
0	C	0.772194	0.938872	0.510648
0	C	0.474342	0.72556	0.25543
0	C	0.55113	0.201296	0.251461
0	C	0.782026	0.494928	0.86026
0	C	0.249449	0.426753	0.843939
0	C	0.0494592	0.728534	0.608583
0	C	0.961152	0.204305	0.592249
0	C	0.736333	0.491267	0.00576291
0	C	0.272206	0.415919	0.0153025
0	H	0.951117	0.23898	0.719088
0	H	0.0855413	0.688796	0.735736
0	H	0.283735	0.00804582	0.37652
0	H	0.768747	0.896248	0.342796
0	H	0.578469	0.240846	0.127844
0	H	0.426375	0.699301	0.110326
0	H	0.240545	0.00810842	0.477496
0	H	0.767566	0.906643	0.505617
0	H	0.438974	0.722963	0.246115
0	H	0.584867	0.203781	0.232865
0	H	0.777912	0.526775	0.871216
0	H	0.254579	0.394459	0.847203
0	H	0.0841564	0.726517	0.622732
0	H	0.927456	0.207878	0.610803
0	H	0.739894	0.523458	0.997801
0	H	0.267363	0.383648	0.0157289
0	H	0.00726759	0.239543	0.686473
0	H	0.0293775	0.688768	0.703672
0	H	0.291875	0.957218	0.406769
0	H	0.760152	0.942338	0.390209
0	H	0.522534	0.246691	0.158604
0	H	0.481074	0.69853	0.148045
0	H	0.232635	0.956737	0.451049
0	H	0.771809	0.954214	0.460528
0	H	0.493193	0.728294	0.207421
0	H	0.527556	0.199089	0.208902
0	H	0.783849	0.47696	0.907337
0	H	0.256749	0.441948	0.892909
0	H	0.0283375	0.73291	0.65377
0	H	0.983641	0.196973	0.634259
0	H	0.735334	0.474691	0.957044
0	H	0.270856	0.427999	0.963125
0	H	0.993324	0.265868	0.764828
0	H	0.0424338	0.664605	0.784051
0	H	0.314143	0.972883	0.324651
0	H	0.729881	0.932859	0.311744
0	H	0.538644	0.267668	0.0767425
0	H	0.470273	0.671623	0.0697952
0	H	0.20969	0.974458	0.531225
0	H	0.802525	0.945486	0.538762
0	H	0.481496	0.750471	0.290203
0	H	0.54748	0.176117	0.287126
0	H	0.810576	0.489671	0.82738
0	H	0.216228	0.433614	0.82657
0	H	0.0441054	0.752196	0.570648
0	H	0.962834	0.181556	0.551754
0	H	0.707569	0.48449	0.0373845
0	H	0.303005	0.42416	0.0404256
0	C	0.0241426	0.132229	0.717091
0	C	0.0160264	0.800133	0.724685
0	C	0.167337	0.932388	0.382475
0	C	0.869089	0.972543	0.362934
0	C	0.505924	0.134923	0.142419
0	C	0.503894	0.803368	0.126615
0	C	0.357215	0.933258	0.480107
0	C	0.65997	0.983989	0.48893
0	C	0.51524	0.620466	0.225085
0	C	0.507745	0.3111	0.231144
0	C	0.666169	0.454502	0.881889
0	C	0.357267	0.467229	0.851714
0	C	0.0078633	0.620144	0.639582
0	C	0.00748383	0.313338	0.623522
0	C	0.852228	0.449315	0.98555
0	C	0.162799	0.4553	0.977655
0	H	0.989297	0.139081	0.721029
0	H	0.0509868	0.794938	0.733466
0	H	0.168533	0.964493	0.372587
0	H	0.86377	0.941619	0.34697
0	H	0.540707	0.140774	0.133303
0	H	0.46846	0.798011	0.126979
0	H	0.355046	0.965575	0.486779
0	H	0.661475	0.952759	0.505457
0	H	0.480652	0.628935	0.225902
0	H	0.543476	0.308822	0.236853
0	H	0.670287	0.486114	0.869385
0	H	0.352869	0.436478	0.833688
0	H	0.0429791	0.625778	0.636705
0	H	0.971904	0.309486	0.621924
0	H	0.849022	0.480718	0.000114545
0	H	0.166994	0.424647	0.995645
0	H	0.0342039	0.10891	0.753082
0	H	0.00261253	0.823518	0.75809
0	H	0.144536	0.916558	0.348319
0	H	0.896267	0.986585	0.335153
0	H	0.49382	0.111099	0.109367
0	H	0.512926	0.826185	0.0889776
0	H	0.379986	0.919202	0.516295
0	H	0.634884	0.00110286	0.516819
0	H	0.521693	0.595979	0.260569
0	H	0.493699	0.332695	0.267191
0	H	0.640608	0.440597	0.850899
0	H	0.383453	0.482486	0.823729
0	H	0.997514	0.596751	0.604069
0	H	0.0190807	0.335756	0.586703
0	H	0.876733	0.433829	0.0164863
0	H	0.136617	0.470533	0.00529301
0	H	0.0334442	0.124533	0.664748
0	H	0.00916952	0.806624	0.670788
0	H	0.159444	0.926089	0.436051
0	H	0.87304	0.975224	0.418365
0	H	0.498969	0.128489	0.196291
0	H	0.516528	0.811081	0.177494
0	H	0.366166	0.925465	0.427666
0	H	0.655646	0.986446	0.433393
0	H	0.526531	0.613454	0.173263
0	H	0.498242	0.318071	0.178208
0	H	0.659786	0.450209	0.936501
0	H	0.362375	0.468451	0.907275
0	H	0.9973	0.613413	0.691837
0	H	0.0191802	0.320293	0.675286
0	H	0.859372	0.446154	0.930978
0	H	0.158215	0.457057	0.922155
0	C	0.0451186	0.244807	0.861055
0	C	0.990681	0.690753	0.875071
0	C	0.291072	0.921879	0.235223
0	C	0.739806	0.993716	0.228046
0	C	0.477696	0.243945	0.992425
0	C	0.525319	0.692022	0.976398
0	C	0.231306	0.92264	0.621991
0	C	0.786187	0.999555	0.63125
0	C	0.541061	0.730692	0.374555
0	C	0.491066	0.199324	0.380113
0	C	0.788857	0.436163	0.734648
0	C	0.229525	0.489319	0.714816
0	C	0.984772	0.729705	0.487865
0	C	0.0254643	0.202507	0.471455
0	C	0.727505	0.43163	0.129318
0	C	0.284731	0.487712	0.120507
0	H	0.0209942	0.264929	0.835292
0	H	0.0148342	0.669361	0.852599
0	H	0.312887	0.945471	0.25675
0	H	0.721519	0.966982	0.245896
0	H	0.50264	0.264862	0.014156
0	H	0.499219	0.672406	0.998197
0	H	0.209287	0.945402	0.598512
0	H	0.805732	0.974028	0.611268
0	H	0.516266	0.751431	0.351814
0	H	0.515668	0.178332	0.357914
0	H	0.810493	0.460405	0.754201
0	H	0.209628	0.463837	0.733467
0	H	0.0088802	0.751292	0.509936
0	H	0.00114368	0.180982	0.492637
0	H	0.705923	0.455736	0.109189
0	H	0.305787	0.462578	0.102749
0	C	0.0221757	0.209583	0.901412
0	C	0.0139271	0.725939	0.914982
0	C	0.249295	0.93971	0.198534
0	C	0.779768	0.982291	0.179976
0	C	0.49967	0.207906	0.952608
0	C	0.505311	0.727842	0.933391
0	C	0.271869	0.941846	0.660239
0	C	0.745628	0.985142	0.675622
0	C	0.518779	0.695532	0.416458
0	C	0.513398	0.235195	0.419685
0	C	0.747626	0.452942	0.694593
0	C	0.269828	0.475032	0.66947
0	C	0.00773345	0.694106	0.448416
0	C	0.00295772	0.238366	0.432048
0	C	0.768403	0.448721	0.169968
0	C	0.245198	0.472297	0.166456
0	H	0.985847	0.212533	0.900188
0	H	0.0501015	0.722341	0.916452
0	H	0.249147	0.972935	0.199943
0	H	0.782958	0.949444	0.17308
0	H	0.536013	0.210672	0.951826
0	H	0.469068	0.726156	0.929977
0	H	0.270705	0.974988	0.658664
0	H	0.743932	0.952092	0.679762
0	H	0.482467	0.69821	0.416892
0	H	0.549593	0.232368	0.421049
0	H	0.747746	0.486091	0.691764
0	H	0.27067	0.442001	0.663642
0	H	0.0439285	0.697528	0.447519
0	H	0.966821	0.235495	0.430669
0	H	0.768353	0.481865	0.172053
0	H	0.245614	0.439367	0.173088
0	C	0.0705878	0.266736	0.918165
0	C	0.962319	0.671341	0.931028
0	C	0.313405	0.898154	0.177271
0	C	0.711784	0.0212292	0.181563
0	C	0.450502	0.26417	0.935984
0	C	0.553303	0.670436	0.922874
0	C	0.208449	0.898858	0.679369
0	C	0.812072	0.0256383	0.682384
0	C	0.568992	0.751464	0.429576
0	C	0.46306	0.180007	0.435999
0	C	0.811248	0.409923	0.680246
0	C	0.204108	0.516379	0.664402
0	C	0.95617	0.748921	0.431473
0	C	0.0548667	0.183856	0.415846
0	C	0.704863	0.405668	0.184013
0	C	0.308069	0.517523	0.169058
0	H	0.0992966	0.284262	0.904017
0	H	0.932851	0.65534	0.915566
0	H	0.33384	0.872653	0.191073
0	H	0.692201	0.0444522	0.206074
0	H	0.421502	0.281115	0.951233
0	H	0.581476	0.653259	0.941116
0	H	0.188764	0.872861	0.665272
0	H	0.83186	0.0500828	0.662065
0	H	0.598453	0.767498	0.413085
0	H	0.433623	0.16369	0.420141
0	H	0.83061	0.3844	0.697842
0	H	0.184578	0.54071	0.685961
0	H	0.926624	0.765142	0.446549
0	H	0.0844214	0.168002	0.431701
0	H	0.685938	0.379873	0.166461
0	H	0.324979	0.543053	0.146244
0	C	0.0429448	0.214737	0.974145
0	C	0.992199	0.722016	0.987715
0	C	0.253459	0.921153	0.125522
0	C	0.767824	0.0057004	0.113478
0	C	0.478395	0.211944	0.880542
0	C	0.528014	0.721873	0.8625
0	C	0.267036	0.923364	0.73295
0	C	0.754915	0.00658016	0.74543
0	C	0.540018	0.700976	0.488263
0	C	0.492028	0.231588	0.491975
0	C	0.752704	0.432169	0.623798
0	C	0.261422	0.497772	0.601325
0	C	0.985721	0.697421	0.376198
0	C	0.0250003	0.234923	0.359828
0	C	0.762872	0.42872	0.241005
0	C	0.253755	0.494678	0.234246
0	H	0.0488683	0.187781	0.00452398
0	H	0.986532	0.749529	0.0166415
0	H	0.223099	0.915124	0.0974103
0	H	0.794703	0.0157319	0.0802377
0	H	0.472195	0.184744	0.850976
0	H	0.536179	0.748637	0.832764
0	H	0.29699	0.917793	0.762215
0	H	0.726771	0.0148762	0.777555
0	H	0.545414	0.674262	0.519652
0	H	0.486233	0.259212	0.520664
0	H	0.722836	0.425239	0.594792
0	H	0.289667	0.50672	0.569806
0	H	0.980779	0.669835	0.347072
0	H	0.0308897	0.262581	0.331318
0	H	0.792484	0.422206	0.270936
0	H	0.225747	0.50167	0.267385
0	C	0.0357732	0.287203	0.966018
0	C	0.994691	0.649765	0.980948
0	C	0.33292	0.929172	0.126011
0	C	0.688865	0.994288	0.127282
0	C	0.483205	0.284667	0.885558
0	C	0.521781	0.64982	0.871217
0	C	0.187405	0.930055	0.729014
0	C	0.834144	0.996701	0.734534
0	C	0.537173	0.773654	0.479173
0	C	0.494325	0.159071	0.487527
0	C	0.83239	0.438307	0.626885
0	C	0.181959	0.48924	0.609794
0	C	0.988402	0.770221	0.380657
0	C	0.0239138	0.16238	0.363946
0	C	0.683163	0.434397	0.236438
0	C	0.333561	0.491698	0.222173
0	C	0.995001	0.305795	0.934215
0	C	0.0351787	0.63038	0.950788
0	C	0.35407	0.96674	0.154644
0	C	0.670306	0.954669	0.151807
0	C	0.523557	0.30471	0.916172
0	C	0.47961	0.632181	0.899037
0	C	0.166336	0.966924	0.697366
0	C	0.852793	0.95777	0.706682
0	C	0.497376	0.794255	0.447914
0	C	0.534826	0.1385	0.459481
0	C	0.853897	0.475918	0.654808
0	C	0.161987	0.45064	0.636382
0	C	0.028459	0.791103	0.410591
0	C	0.984314	0.140711	0.392342
0	C	0.661764	0.471602	0.206639
0	C	0.352929	0.455431	0.186163
0	C	0.968678	0.247765	0.994677
0	C	0.064207	0.683135	0.0232925
0	C	0.285973	0.98918	0.104655
0	C	0.734968	0.937727	0.0876715
0	C	0.551249	0.246879	0.856479
0	C	0.455321	0.686138	0.824975
0	C	0.232217	0.991022	0.752403
0	C	0.788576	0.938694	0.770599
0	C	0.468319	0.737485	0.509179
0	C	0.563149	0.193479	0.527309
0	C	0.789034	0.498781	0.595257
0	C	0.226381	0.430747	0.573276
0	C	0.0572903	0.734339	0.348787
0	C	0.953686	0.195377	0.326303
0	C	0.725291	0.495432	0.268369
0	C	0.297527	0.430106	0.262422
0	C	0.0175998	0.249958	0.00863508
0	C	0.0140727	0.685755	0.0257582
0	C	0.290073	0.945097	0.0875688
0	C	0.729195	0.982389	0.079178
0	C	0.502141	0.247285	0.844215
0	C	0.505472	0.68634	0.824567
0	C	0.229385	0.946799	0.768681
0	C	0.793442	0.983333	0.780513
0	C	0.517217	0.737463	0.522623
0	C	0.513302	0.195867	0.530983
0	C	0.790533	0.453813	0.585322
0	C	0.223104	0.475674	0.564853
0	C	0.00802204	0.733343	0.338785
0	C	0.00356014	0.198718	0.321178
0	C	0.724737	0.450458	0.278105
0	C	0.29461	0.475077	0.268504
0	C	0.912375	0.29529	0.945297
0	C	0.117132	0.637615	0.957656
0	C	0.336739	0.0406523	0.159155
0	C	0.688838	0.881439	0.137126
0	C	0.606264	0.294579	0.908616
0	C	0.398412	0.642069	0.88503
0	C	0.184128	0.0409358	0.689563
0	C	0.834606	0.884022	0.715516
0	C	0.414763	0.782906	0.448793
0	C	0.616813	0.147695	0.464573
0	C	0.837193	0.550006	0.654179
0	C	0.180771	0.376815	0.629443
0	C	0.111558	0.781045	0.404658
0	C	0.902059	0.147752	0.390196
0	C	0.679365	0.545672	0.203516
0	C	0.339523	0.379292	0.196669
0	C	0.896731	0.330704	0.974619
0	C	0.129629	0.598524	0.973327
0	C	0.378642	0.0559001	0.145705
0	C	0.648621	0.865106	0.11675
0	C	0.619011	0.333513	0.892081
0	C	0.385864	0.602922	0.870037
0	C	0.142445	0.0573792	0.700019
0	C	0.87628	0.868279	0.729055
0	C	0.396787	0.818593	0.472983
0	C	0.63126	0.109146	0.479858
0	C	0.87618	0.568105	0.632795
0	C	0.140332	0.35916	0.614332
0	C	0.127052	0.818126	0.382191
0	C	0.890212	0.108267	0.376491
0	C	0.641741	0.565847	0.225094
0	C	0.375401	0.357922	0.221522
0	H	0.917816	0.349097	0.00604915
0	H	0.108576	0.579345	0.00376208
0	H	0.40277	0.0382389	0.118274
0	H	0.625155	0.882945	0.0885115
0	H	0.595526	0.354868	0.871958
0	H	0.408224	0.582463	0.844661
0	H	0.117002	0.0405315	0.726043
0	H	0.901422	0.886572	0.752742
0	H	0.416079	0.838849	0.504268
0	H	0.61073	0.0886311	0.508738
0	H	0.899201	0.552186	0.600468
0	H	0.114298	0.376297	0.590347
0	H	0.105708	0.838554	0.354752
0	H	0.912031	0.0885615	0.348342
0	H	0.618553	0.551804	0.259741
0	H	0.400531	0.372242	0.252209
0	C	0.853324	0.341708	0.963255
0	C	0.169679	0.584426	0.948961
0	C	0.389168	0.0942297	0.1683
0	C	0.639023	0.825605	0.133403
0	C	0.662659	0.344675	0.901777
0	C	0.344036	0.590066	0.888763
0	C	0.133952	0.0958889	0.676442
0	C	0.885261	0.828846	0.711226
0	C	0.353389	0.827723	0.456701
0	C	0.67234	0.0969353	0.456431
0	C	0.884957	0.607184	0.65371
0	C	0.134003	0.318906	0.630163
0	C	0.170548	0.828146	0.395159
0	C	0.850078	0.0942382	0.400395
0	C	0.634447	0.604596	0.201321
0	C	0.37822	0.316962	0.207516
0	H	0.840443	0.369209	0.98513
0	H	0.179818	0.55388	0.960207
0	H	0.421537	0.106578	0.158226
0	H	0.607812	0.812544	0.118538
0	H	0.673401	0.37456	0.887188
0	H	0.333743	0.559483	0.878036
0	H	0.101912	0.10942	0.684793
0	H	0.917574	0.816185	0.721215
0	H	0.338534	0.854988	0.476605
0	H	0.684013	0.0666922	0.467106
0	H	0.915107	0.621823	0.637762
0	H	0.10269	0.304627	0.618868
0	H	0.183493	0.856686	0.377236
0	H	0.840547	0.0633604	0.390026
0	H	0.605463	0.621045	0.217762
0	H	0.405557	0.299603	0.227345
0	C	0.825666	0.317615	0.923871
0	C	0.196964	0.609311	0.91035
0	C	0.358361	0.117076	0.204058
0	C	0.669335	0.802403	0.169502
0	C	0.692928	0.31747	0.928551
0	C	0.31508	0.616399	0.921345
0	C	0.166303	0.117676	0.642243
0	C	0.853089	0.805271	0.680336
0	C	0.328495	0.801785	0.416272
0	C	0.698728	0.123142	0.418898
0	C	0.855174	0.627883	0.694941
0	C	0.16774	0.296622	0.659841
0	C	0.198139	0.801821	0.429877
0	C	0.822176	0.119522	0.437064
0	C	0.66423	0.622809	0.15673
0	C	0.345367	0.297839	0.169313
0	H	0.791756	0.326151	0.915513
0	H	0.228026	0.597913	0.890626
0	H	0.366862	0.146696	0.222407
0	H	0.66141	0.771928	0.183473
0	H	0.726912	0.326237	0.935768
0	H	0.282802	0.605931	0.936723
0	H	0.159096	0.147503	0.623406
0	H	0.860526	0.774626	0.665768
0	H	0.294604	0.808683	0.404434
0	H	0.730235	0.113095	0.399397
0	H	0.862166	0.658194	0.710687
0	H	0.163457	0.265048	0.669503
0	H	0.232327	0.809642	0.438844
0	H	0.791003	0.108344	0.456559
0	H	0.658097	0.652783	0.138371
0	H	0.34733	0.2662	0.160035
0	C	0.841829	0.282227	0.895133
0	C	0.184514	0.648663	0.897123
0	C	0.316322	0.101739	0.215821
0	C	0.71005	0.818714	0.187373
0	C	0.679524	0.278818	0.945643
0	C	0.327833	0.655766	0.934094
0	C	0.207889	0.101005	0.632609
0	C	0.81142	0.821005	0.668462
0	C	0.347267	0.766581	0.391278
0	C	0.684303	0.161968	0.405806
0	C	0.816227	0.609455	0.715633
0	C	0.207584	0.314861	0.67608
0	C	0.182051	0.765077	0.452737
0	C	0.834247	0.159084	0.449284
0	C	0.701917	0.602306	0.136014
0	C	0.310024	0.31988	0.143938
0	H	0.82039	0.263678	0.864428
0	H	0.206076	0.668058	0.86762
0	H	0.292259	0.11968	0.243113
0	H	0.733662	0.800498	0.214714
0	H	0.703071	0.257834	0.966609
0	H	0.305121	0.676179	0.958683
0	H	0.233148	0.11805	0.606403
0	H	0.786399	0.802446	0.644625
0	H	0.327933	0.746849	0.359256
0	H	0.704992	0.182437	0.377022
0	H	0.793159	0.625586	0.74745
0	H	0.233461	0.29763	0.700282
0	H	0.203551	0.744797	0.480261
0	H	0.812339	0.178644	0.477789
0	H	0.72509	0.61652	0.101801
0	H	0.284463	0.305131	0.115134
0	C	0.885304	0.270948	0.905425
0	C	0.144344	0.663112	0.920402
0	C	0.305199	0.0635289	0.193283
0	C	0.72021	0.858183	0.170921
0	C	0.636053	0.267059	0.935729
0	C	0.369738	0.668926	0.916206
0	C	0.217107	0.0626147	0.656277
0	C	0.801718	0.86034	0.686249
0	C	0.3905	0.756813	0.407622
0	C	0.643174	0.174541	0.428447
0	C	0.807068	0.570319	0.695509
0	C	0.214327	0.355127	0.66126
0	C	0.138625	0.754434	0.440301
0	C	0.87441	0.173565	0.426105
0	C	0.709639	0.563551	0.159287
0	C	0.306733	0.360702	0.157873
0	H	0.897738	0.243538	0.883294
0	H	0.134614	0.693676	0.909349
0	H	0.272215	0.052013	0.201378
0	H	0.752096	0.870494	0.183608
0	H	0.625826	0.236802	0.948394
0	H	0.379573	0.699536	0.926769
0	H	0.249801	0.0501104	0.649926
0	H	0.768957	0.872286	0.678108
0	H	0.404683	0.729093	0.389186
0	H	0.631916	0.204726	0.417496
0	H	0.776725	0.556117	0.711262
0	H	0.245499	0.369248	0.673342
0	H	0.126307	0.725664	0.457295
0	H	0.88384	0.204314	0.436218
0	H	0.739023	0.547797	0.143508
0	H	0.278412	0.377439	0.140198
0	C	0.0580206	0.312924	0.0227843
0	C	0.967916	0.625089	0.0339368
0	C	0.358512	0.907776	0.0674588
0	C	0.658874	0.018337	0.077306
0	C	0.46003	0.308921	0.828159
0	C	0.548058	0.623579	0.820113
0	C	0.161072	0.909221	0.787329
0	C	0.863538	0.019614	0.786684
0	C	0.562453	0.797651	0.534467
0	C	0.466621	0.13598	0.540926
0	C	0.858338	0.415288	0.571265
0	C	0.153945	0.512375	0.556432
0	C	0.962427	0.793456	0.324619
0	C	0.052354	0.140209	0.309854
0	C	0.657001	0.412221	0.292868
0	C	0.361599	0.514902	0.274983
0	H	0.0861209	0.331172	0.00815803
0	H	0.93896	0.609131	0.0157149
0	H	0.37818	0.881581	0.0805831
0	H	0.639916	0.0431551	0.0982828
0	H	0.431026	0.326118	0.842729
0	H	0.575944	0.606671	0.840258
0	H	0.141394	0.883038	0.774281
0	H	0.882654	0.0449648	0.768085
0	H	0.592354	0.813088	0.518179
0	H	0.437494	0.120099	0.522505
0	H	0.877481	0.389363	0.587744
0	H	0.134425	0.53754	0.574945
0	H	0.933167	0.809671	0.340766
0	H	0.0820164	0.125221	0.327523
0	H	0.637428	0.386358	0.277443
0	H	0.38003	0.540782	0.256461
0	C	0.0316305	0.261352	0.0829204
0	C	0.995842	0.674036	0.0983639
0	C	0.30038	0.93288	0.0121913
0	C	0.712963	0.997673	0.00842717
0	C	0.488051	0.257778	0.76999
0	C	0.524442	0.673171	0.753844
0	C	0.218726	0.934606	0.843098
0	C	0.808802	0.997363	0.852326
0	C	0.53214	0.748823	0.595858
0	C	0.493799	0.186128	0.602755
0	C	0.801326	0.43875	0.512168
0	C	0.209951	0.490951	0.492961
0	C	0.991728	0.742973	0.265383
0	C	0.0224728	0.189529	0.248644
0	C	0.714083	0.435813	0.351546
0	C	0.307241	0.491538	0.339932
0	H	0.0388502	0.236608	0.118153
0	H	0.989375	0.698514	0.134425
0	H	0.272216	0.927184	0.978656
0	H	0.73791	0.00590434	0.970661
0	H	0.48261	0.232579	0.735193
0	H	0.532422	0.696939	0.717275
0	H	0.246578	0.928988	0.877234
0	H	0.783329	0.00462513	0.889851
0	H	0.53652	0.724168	0.63204
0	H	0.487588	0.211636	0.636494
0	H	0.773423	0.432413	0.478581
0	H	0.236413	0.498361	0.457371
0	H	0.986063	0.717455	0.231155
0	H	0.0279492	0.215175	0.214529
0	H	0.741875	0.429516	0.385323
0	H	0.28053	0.49786	0.375573
0	C	0.0213931	0.33317	0.0668884
0	C	0.000487702	0.601743	0.0802614
0	C	0.380156	0.94071	0.0228144
0	C	0.634652	0.987966	0.0303117
0	C	0.495096	0.330181	0.784234
0	C	0.515849	0.601112	0.773283
0	C	0.139237	0.942585	0.830582
0	C	0.887343	0.988108	0.831108
0	C	0.529651	0.821257	0.578846
0	C	0.497286	0.113262	0.589741
0	C	0.88068	0.446127	0.524464
0	C	0.13141	0.481723	0.509127
0	C	0.995753	0.815696	0.278172
0	C	0.0213823	0.116598	0.261972
0	C	0.635067	0.443684	0.339146
0	C	0.385924	0.484709	0.321618
0	H	0.995926	0.348214	0.0359289
0	H	0.0255575	0.584775	0.051461
0	H	0.397936	0.963529	0.0530748
0	H	0.617959	0.963974	0.0592655
0	H	0.519931	0.346528	0.814763
0	H	0.489309	0.585541	0.801351
0	H	0.121548	0.965009	0.799375
0	H	0.903649	0.964431	0.801002
0	H	0.505816	0.839027	0.548833
0	H	0.522852	0.0955545	0.563396
0	H	0.898602	0.469675	0.5529
0	H	0.113917	0.457958	0.537605
0	H	0.0204704	0.833327	0.306569
0	H	0.996319	0.0985447	0.288733
0	H	0.617102	0.46704	0.310205
0	H	0.402959	0.461056	0.292263
0	C	0.0380756	0.362465	0.122979
0	C	0.978048	0.573848	0.133457
0	C	0.411101	0.925911	0.964945
0	C	0.601452	0.00531501	0.977636
0	C	0.477712	0.358262	0.727296
0	C	0.536951	0.571661	0.721556
0	C	0.10851	0.928539	0.88924
0	C	0.920801	0.00451759	0.884049
0	C	0.550677	0.84825	0.634556
0	C	0.47367	0.0866805	0.64341
0	C	0.911329	0.428977	0.46859
0	C	0.100149	0.498511	0.453677
0	C	0.974424	0.842199	0.221859
0	C	0.0459797	0.0902457	0.208598
0	C	0.604614	0.427086	0.395816
0	C	0.417852	0.502033	0.375689
0	C	0.000382788	0.355651	0.179226
0	C	0.0150379	0.575631	0.192084
0	C	0.402984	0.96181	0.911683
0	C	0.605956	0.970811	0.920705
0	C	0.516333	0.353396	0.672573
0	C	0.501607	0.574799	0.661539
0	C	0.116711	0.965189	0.941189
0	C	0.916139	0.969366	0.93949
0	C	0.512457	0.84672	0.690508
0	C	0.508686	0.0897223	0.703955
0	C	0.905137	0.462885	0.412147
0	C	0.105475	0.463893	0.398039
0	C	0.0119726	0.838411	0.164276
0	C	0.0107793	0.0926568	0.147552
0	C	0.610556	0.461913	0.450901
0	C	0.412897	0.468822	0.434222
0	C	0.0094937	0.308933	0.184439
0	C	0.0116855	0.622909	0.199331
0	C	0.351502	0.953238	0.908615
0	C	0.657118	0.978617	0.91051
0	C	0.510083	0.306076	0.667861
0	C	0.507898	0.621741	0.653481
0	C	0.167914	0.956411	0.945027
0	C	0.865179	0.97769	0.950184
0	C	0.514626	0.799227	0.69642
0	C	0.504883	0.137093	0.707838
0	C	0.853454	0.456189	0.407736
0	C	0.157057	0.470954	0.390785
0	C	0.00820758	0.791029	0.161535
0	C	0.0133265	0.139931	0.144279
0	C	0.662352	0.455098	0.45566
0	C	0.36141	0.475659	0.441313
0	C	0.00257475	0.296393	0.108837
0	C	0.0212234	0.636432	0.124929
0	C	0.338858	0.958779	0.984556
0	C	0.673655	0.971568	0.984379
0	C	0.51598	0.293711	0.743708
0	C	0.497746	0.636402	0.727042
0	C	0.180309	0.960945	0.868789
0	C	0.848222	0.971187	0.876228
0	C	0.506748	0.786536	0.620969
0	C	0.517381	0.148831	0.633408
0	C	0.840174	0.463675	0.483164
0	C	0.171441	0.46479	0.466206
0	C	0.0172783	0.779823	0.237171
0	C	1.19183e-05	0.151494	0.218386
0	C	0.675601	0.461421	0.379895
0	C	0.34705	0.467304	0.366726
0	H	0.967104	0.291838	0.0992124
0	H	0.0572386	0.63857	0.11804
0	H	0.334571	0.99093	0.995424
0	H	0.679082	0.939239	0.992266
0	H	0.551506	0.290392	0.754291
0	H	0.46177	0.640029	0.732098
0	H	0.184644	0.993036	0.856724
0	H	0.842807	0.938854	0.867671
0	H	0.471096	0.784987	0.610796
0	H	0.553594	0.150286	0.629151
0	H	0.836319	0.496227	0.491223
0	H	0.176263	0.432405	0.475138
0	H	0.0531896	0.777823	0.245593
0	H	0.963759	0.152237	0.222478
0	H	0.679652	0.493877	0.370718
0	H	0.343718	0.434506	0.36046
0	C	0.981406	0.372749	0.295918
0	C	0.0256115	0.555541	0.309706
0	C	0.419995	0.981013	0.795073
0	C	0.581295	0.955386	0.806095
0	C	0.535431	0.372615	0.556717
0	C	0.488979	0.553601	0.545497
0	C	0.099934	0.988198	0.0557026
0	C	0.942717	0.948899	0.0509436
0	C	0.49905	0.864462	0.808788
0	C	0.519842	0.0708711	0.821645
0	C	0.925725	0.479283	0.296119
0	C	0.0787311	0.441692	0.288262
0	C	0.021194	0.852214	0.0425945
0	C	0.00498229	0.0755534	0.0272586
0	C	0.590548	0.479853	0.566426
0	C	0.437349	0.456045	0.549875
0	H	0.998431	0.35216	0.330179
0	H	0.00770704	0.576003	0.34303
0	H	0.396198	0.965877	0.762303
0	H	0.604196	0.97062	0.772334
0	H	0.520029	0.35252	0.519834
0	H	0.502997	0.577308	0.513772
0	H	0.123919	0.974389	0.0898877
0	H	0.920777	0.961976	0.0886794
0	H	0.514351	0.840721	0.83867
0	H	0.503133	0.0924431	0.854248
0	H	0.902358	0.464597	0.261856
0	H	0.102954	0.450764	0.250133
0	H	0.00319321	0.828661	0.0160141
0	H	0.0225072	0.0985839	0.998766
0	H	0.614473	0.465761	0.600349
0	H	0.414405	0.471336	0.583937
0	H	0.949315	0.361392	0.280873
0	H	0.0589399	0.565907	0.300072
0	H	0.408241	0.0102844	0.811594
0	H	0.592233	0.925221	0.817895
0	H	0.567833	0.362015	0.571977
0	H	0.454431	0.55938	0.557586
0	H	0.111603	0.0169658	0.036047
0	H	0.931352	0.919339	0.035211
0	H	0.464792	0.858047	0.797282
0	H	0.553519	0.0798544	0.810946
0	H	0.914569	0.509216	0.310914
0	H	0.0860241	0.411887	0.308642
0	H	0.0554704	0.844364	0.0510706
0	H	0.970501	0.0831432	0.034388
0	H	0.601154	0.509648	0.55041
0	H	0.426508	0.425577	0.538569
0	H	0.978217	0.402591	0.318394
0	H	0.0263633	0.525045	0.329867
0	H	0.452197	0.983494	0.770883
0	H	0.548097	0.955064	0.785456
0	H	0.537505	0.403159	0.53702
0	H	0.492822	0.52419	0.521568
0	H	0.0678719	0.991578	0.0800792
0	H	0.976438	0.947654	0.0692879
0	H	0.502237	0.893359	0.834198
0	H	0.519045	0.0409047	0.843322
0	H	0.958793	0.480703	0.274261
0	H	0.0451441	0.442719	0.268309
0	H	0.0184431	0.880576	0.0151482
0	H	0.00830302	0.0463859	0.00279572
0	H	0.557877	0.481181	0.589318
0	H	0.470889	0.456041	0.569837
0	C	0.944591	0.401473	0.142636
0	C	0.0675203	0.524707	0.162757
0	C	0.451047	0.0148873	0.949943
0	C	0.56025	0.915952	0.958941
0	C	0.56854	0.402762	0.709124
0	C	0.447096	0.526562	0.694589
0	C	0.0697554	0.018559	0.90042
0	C	0.96078	0.914145	0.898773
0	C	0.460166	0.898269	0.659239
0	C	0.563067	0.0402367	0.67312
0	C	0.955242	0.514569	0.446962
0	C	0.0553138	0.415007	0.443437
0	C	0.0665066	0.889133	0.186633
0	C	0.95584	0.0420733	0.16977
0	C	0.562278	0.515022	0.412384
0	C	0.462049	0.415645	0.403015
0	H	0.946789	0.405882	0.0872334
0	H	0.0645117	0.518853	0.107971
0	H	0.459506	0.00642588	0.00232019
0	H	0.550435	0.927096	0.00889501
0	H	0.563533	0.408104	0.763802
0	H	0.4469	0.523451	0.750322
0	H	0.0585331	0.00572159	0.852168
0	H	0.969759	0.924464	0.847574
0	H	0.475889	0.90977	0.613249
0	H	0.554525	0.0338654	0.620156
0	H	0.962067	0.507887	0.500773
0	H	0.052585	0.421788	0.498163
0	H	0.055419	0.901632	0.235376
0	H	0.961441	0.0339345	0.223268
0	H	0.557014	0.509833	0.357784
0	H	0.469339	0.422775	0.349674
0	H	0.964921	0.423049	0.170456
0	H	0.0458225	0.505489	0.192819
0	H	0.474488	0.00271418	0.912947
0	H	0.536928	0.924014	0.919082
0	H	0.548269	0.422529	0.677585
0	H	0.470143	0.505817	0.670529
0	H	0.0473039	0.0117318	0.942623
0	H	0.984942	0.922719	0.937512
0	H	0.470124	0.914861	0.704712
0	H	0.546328	0.0202751	0.708427
0	H	0.977668	0.499501	0.411431
0	H	0.0312318	0.431355	0.41241
0	H	0.0524574	0.905366	0.143037
0	H	0.974521	0.0230789	0.134718
0	H	0.537601	0.500155	0.444089
0	H	0.484413	0.42986	0.439476
0	H	0.910556	0.402735	0.160898
0	H	0.101613	0.521831	0.180162
0	H	0.447802	0.0473715	0.944495
0	H	0.565206	0.883711	0.959991
0	H	0.603248	0.405237	0.694724
0	H	0.414056	0.523201	0.672825
0	H	0.0749969	0.0508603	0.896159
0	H	0.95538	0.881758	0.89954
0	H	0.424365	0.897876	0.654345
0	H	0.598601	0.0393008	0.680886
0	H	0.954883	0.546916	0.437565
0	H	0.053159	0.3827	0.433778
0	H	0.102501	0.888178	0.183302
0	H	0.920668	0.041564	0.157157
0	H	0.563987	0.547075	0.424142
0	H	0.460498	0.383347	0.411897
0	C	0.076524	0.344007	0.159498
0	C	0.941146	0.596015	0.168505
0	C	0.390697	0.891787	0.925691
0	C	0.620992	0.0400797	0.938726
0	C	0.441124	0.338093	0.687962
0	C	0.575721	0.591455	0.686894
0	C	0.129279	0.894654	0.928647
0	C	0.901451	0.0392222	0.923353
0	C	0.586046	0.824808	0.671366
0	C	0.435714	0.110256	0.673379
0	C	0.889502	0.394348	0.432136
0	C	0.121279	0.532763	0.415867
0	C	0.937741	0.81942	0.187507
0	C	0.0836139	0.114238	0.17865
0	C	0.626519	0.393068	0.433818
0	C	0.397262	0.536969	0.413241
0	C	0.0586002	0.309754	0.198838
0	C	0.962622	0.626706	0.211915
0	C	0.352042	0.909121	0.890899
0	C	0.657049	0.0231821	0.897149
0	C	0.462006	0.30479	0.649936
0	C	0.556808	0.623204	0.642771
0	C	0.167297	0.912512	0.964448
0	C	0.865641	0.0220834	0.96514
0	C	0.56265	0.793991	0.711743
0	C	0.456073	0.141439	0.716829
0	C	0.85221	0.411982	0.394156
0	C	0.157866	0.515175	0.376151
0	C	0.959311	0.787119	0.147962
0	C	0.0625489	0.145763	0.136678
0	C	0.664035	0.411091	0.470722
0	C	0.360708	0.519924	0.453998
0	C	0.128285	0.293723	0.2323
0	C	0.895454	0.648991	0.246592
0	C	0.336561	0.848052	0.844173
0	C	0.674722	0.0856214	0.859297
0	C	0.395372	0.288743	0.603634
0	C	0.625834	0.640559	0.607971
0	C	0.184279	0.851168	0.00908345
0	C	0.847761	0.0844766	0.00321838
0	C	0.628479	0.768401	0.746964
0	C	0.38791	0.165162	0.743984
0	C	0.833066	0.349947	0.355483
0	C	0.177532	0.577787	0.340469
0	C	0.892028	0.764318	0.11381
0	C	0.129847	0.172901	0.113975
0	C	0.684263	0.349445	0.509295
0	C	0.343801	0.582029	0.494126
0	C	0.157591	0.267658	0.267084
0	C	0.869843	0.675748	0.286602
0	C	0.309477	0.82394	0.801652
0	C	0.703003	0.11109	0.821221
0	C	0.369698	0.264103	0.559957
0	C	0.653512	0.665178	0.567411
0	C	0.211797	0.827093	0.0506632
0	C	0.81968	0.109592	0.0419198
0	C	0.652304	0.739206	0.784407
0	C	0.361265	0.192675	0.780471
0	C	0.80428	0.325432	0.316562
0	C	0.207318	0.603106	0.305008
0	C	0.866365	0.736272	0.0769837
0	C	0.155297	0.203656	0.0836323
0	C	0.714574	0.325011	0.54552
0	C	0.31614	0.607023	0.53403
0	H	0.143911	0.24221	0.294914
0	H	0.886875	0.696914	0.320172
0	H	0.280455	0.837452	0.778033
0	H	0.731138	0.0980392	0.7948
0	H	0.385934	0.239393	0.533127
0	H	0.638372	0.688276	0.535295
0	H	0.240268	0.840757	0.0761027
0	H	0.792349	0.0962948	0.0704434
0	H	0.633977	0.716946	0.814084
0	H	0.377198	0.213904	0.815292
0	H	0.776241	0.339359	0.290712
0	H	0.235052	0.589566	0.278019
0	H	0.88337	0.712719	0.0479477
0	H	0.138582	0.226166	0.0516705
0	H	0.743237	0.339141	0.569185
0	H	0.288176	0.593585	0.56038
0	C	0.202004	0.274926	0.264328
0	C	0.824719	0.674507	0.281528
0	C	0.320613	0.784614	0.791379
0	C	0.694203	0.151356	0.818797
0	C	0.325698	0.271896	0.552755
0	C	0.698121	0.659502	0.569879
0	C	0.202289	0.787136	0.0587523
0	C	0.827448	0.150159	0.0431995
0	C	0.697327	0.739268	0.781395
0	C	0.316653	0.192333	0.770562
0	C	0.812558	0.28521	0.312548
0	C	0.200674	0.643692	0.306143
0	C	0.82125	0.739225	0.0783282
0	C	0.199967	0.204619	0.0950572
0	C	0.70707	0.284607	0.54929
0	C	0.325439	0.647087	0.538287
0	H	0.22486	0.255029	0.289653
0	H	0.804849	0.694689	0.311623
0	H	0.3008	0.765865	0.758387
0	H	0.715385	0.171334	0.790171
0	H	0.305543	0.253305	0.519541
0	H	0.719664	0.67803	0.538919
0	H	0.222581	0.768442	0.0913066
0	H	0.806366	0.169988	0.0725034
0	H	0.716171	0.717033	0.809334
0	H	0.295754	0.213303	0.797854
0	H	0.791112	0.265855	0.282824
0	H	0.223446	0.663554	0.280246
0	H	0.801084	0.717877	0.0509541
0	H	0.21985	0.228272	0.0734125
0	H	0.73014	0.265406	0.575974
0	H	0.304561	0.666631	0.568392
0	C	0.218651	0.308277	0.228149
0	C	0.804037	0.647018	0.236541
0	C	0.358421	0.768117	0.822788
0	C	0.657243	0.167406	0.853146
0	C	0.305878	0.304248	0.588014
0	C	0.716586	0.629522	0.612382
0	C	0.165665	0.7699	0.0245662
0	C	0.863324	0.166709	0.00611472
0	C	0.719972	0.768235	0.741923
0	C	0.297123	0.164612	0.724627
0	C	0.849284	0.26818	0.346352
0	C	0.163929	0.660418	0.340283
0	C	0.800487	0.770189	0.11652
0	C	0.220318	0.174832	0.136399
0	C	0.669087	0.267465	0.519221
0	C	0.362422	0.663377	0.504276
0	H	0.253777	0.313574	0.229043
0	H	0.768506	0.647409	0.23282
0	H	0.366751	0.736942	0.812298
0	H	0.650236	0.199269	0.848764
0	H	0.271028	0.309746	0.580732
0	H	0.751994	0.625963	0.613428
0	H	0.15883	0.738194	0.0321262
0	H	0.869188	0.198735	0.00823855
0	H	0.755513	0.767192	0.740385
0	H	0.261923	0.165633	0.717203
0	H	0.855611	0.236238	0.340588
0	H	0.158856	0.692698	0.339093
0	H	0.764918	0.771619	0.116828
0	H	0.255378	0.176739	0.144987
0	H	0.663295	0.235484	0.524968
0	H	0.369763	0.695123	0.509849
0	C	0.191348	0.333779	0.193396
0	C	0.827931	0.62024	0.198745
0	C	0.384896	0.790662	0.86465
0	C	0.629787	0.143602	0.891017
0	C	0.329847	0.328561	0.630543
0	C	0.690522	0.605051	0.651671
0	C	0.13881	0.792494	0.983551
0	C	0.890945	0.14296	0.968368
0	C	0.697719	0.797068	0.705778
0	C	0.322014	0.136972	0.690062
0	C	0.877263	0.291205	0.384808
0	C	0.134396	0.636617	0.37413
0	C	0.82462	0.797808	0.152278
0	C	0.1965	0.14413	0.16453
0	C	0.639401	0.290429	0.48388
0	C	0.389566	0.639843	0.465085
0	H	0.203698	0.359331	0.164446
0	H	0.812135	0.598574	0.164879
0	H	0.414058	0.778166	0.888834
0	H	0.601057	0.15597	0.917063
0	H	0.315129	0.353778	0.657241
0	H	0.704376	0.581589	0.683634
0	H	0.110774	0.779483	0.957116
0	H	0.918955	0.155575	0.941199
0	H	0.714661	0.819444	0.675406
0	H	0.307312	0.11529	0.655595
0	H	0.905445	0.278383	0.411084
0	H	0.105559	0.649247	0.399337
0	H	0.809232	0.821901	0.181084
0	H	0.21189	0.120746	0.1947
0	H	0.60995	0.277581	0.46122
0	H	0.418411	0.65221	0.439755
0	C	0.145473	0.326868	0.194603
0	C	0.874274	0.620423	0.20306
0	C	0.374509	0.831497	0.876285
0	C	0.638438	0.102031	0.896059
0	C	0.375346	0.32103	0.639358
0	C	0.644313	0.610044	0.650232
0	C	0.147225	0.833866	0.975386
0	C	0.883495	0.101221	0.965361
0	C	0.651175	0.797813	0.707806
0	C	0.368145	0.136427	0.699783
0	C	0.869626	0.332898	0.390325
0	C	0.141136	0.594729	0.376312
0	C	0.870975	0.795533	0.151704
0	C	0.150476	0.142659	0.154602
0	C	0.646848	0.332074	0.47708
0	C	0.380389	0.598499	0.458204
