#******************************************
#
# CIF file created by Zeo++
# Zeo++ is an open source package to
# analyze microporous materials
#
#*******************************************

_cell_length_a		22.5713(0)
_cell_length_b		21.2949(0)
_cell_length_c		21.9746(0)
_cell_angle_alpha		90(0)
_cell_angle_beta		90(0)
_cell_angle_gamma		90(0)

_symmetry_space_group_name_H-M		'P1'
_symmetry_Int_Tables_number		1
_symmetry_cell_setting		Monoclinic

loop_
_symmetry_equiv_pos_as_xyz
'+x,+y,+z'

loop_
_atom_site_label
_atom_site_type_symbol
_atom_site_fract_x
_atom_site_fract_y
_atom_site_fract_z
0	P	0.862805	0.334182	0.214178
0	P	0.192952	0.785911	0.216256
0	P	0.190519	0.333431	0.868419
0	P	0.863817	0.785926	0.870319
0	P	0.210092	0.895727	0.317714
0	P	0.207314	0.22292	0.767626
0	P	0.846958	0.22381	0.315302
0	P	0.847937	0.896464	0.769401
0	P	0.303159	0.238974	0.877296
0	P	0.750866	0.238617	0.205792
0	P	0.30554	0.880494	0.207588
0	P	0.751726	0.881238	0.878765
0	P	0.818491	0.395428	0.736715
0	P	0.237796	0.724289	0.738445
0	P	0.819364	0.724605	0.347675
0	P	0.237435	0.393835	0.3471
0	P	0.351891	0.743793	0.826789
0	P	0.704857	0.743346	0.259699
0	P	0.704164	0.376454	0.824826
0	P	0.351364	0.374831	0.258444
0	P	0.726424	0.838371	0.373244
0	P	0.725787	0.281388	0.711324
0	P	0.330658	0.838148	0.712735
0	P	0.33071	0.280358	0.372596
0	O	0.822762	0.396513	0.247135
0	O	0.233216	0.723427	0.248622
0	O	0.231099	0.395432	0.835625
0	O	0.823542	0.723806	0.837277
0	O	0.240944	0.84696	0.374196
0	O	0.237858	0.271394	0.710724
0	O	0.815881	0.272072	0.372082
0	O	0.81713	0.848184	0.712495
0	O	0.356331	0.280043	0.834131
0	O	0.697252	0.278658	0.249221
0	O	0.358987	0.839772	0.25064
0	O	0.698347	0.840858	0.835304
0	O	0.87187	0.348737	0.773769
0	O	0.184245	0.771472	0.774651
0	O	0.872819	0.771524	0.311023
0	O	0.183891	0.346505	0.310995
0	O	0.312721	0.782794	0.884935
0	O	0.743686	0.78203	0.201086
0	O	0.743381	0.338029	0.883332
0	O	0.312026	0.335822	0.200434
0	O	0.756575	0.899667	0.329004
0	O	0.756149	0.220164	0.755504
0	O	0.300152	0.899582	0.756579
0	O	0.300415	0.218621	0.328992
0	N	0.801007	0.296949	0.180645
0	N	0.25468	0.822945	0.182324
0	N	0.252086	0.296295	0.902609
0	N	0.802099	0.823187	0.904029
0	N	0.172953	0.83561	0.27744
0	N	0.170305	0.283299	0.807655
0	N	0.883406	0.284378	0.275082
0	N	0.884468	0.835897	0.809563
0	N	0.267396	0.202258	0.815275
0	N	0.787155	0.202256	0.267683
0	N	0.269851	0.916815	0.269858
0	N	0.787957	0.917736	0.816911
0	N	0.785001	0.333383	0.695616
0	N	0.271555	0.785989	0.697084
0	N	0.785779	0.786522	0.388859
0	N	0.271329	0.332143	0.388335
0	N	0.290146	0.704557	0.79519
0	N	0.766836	0.704461	0.29121
0	N	0.765849	0.415651	0.793041
0	N	0.28967	0.413932	0.290348
0	N	0.686606	0.802518	0.313223
0	N	0.685994	0.317133	0.771426
0	N	0.370343	0.802739	0.773108
0	N	0.370054	0.315871	0.312042
0	C	0.783051	0.327181	0.121995
0	C	0.272312	0.792521	0.123663
0	C	0.269864	0.327026	0.961087
0	C	0.783873	0.792558	0.962408
0	C	0.114953	0.818511	0.305927
0	C	0.112289	0.300235	0.779111
0	C	0.941418	0.301797	0.303341
0	C	0.942251	0.818324	0.780886
0	C	0.297227	0.142524	0.79678
0	C	0.757479	0.14264	0.286829
0	C	0.299603	0.976578	0.288385
0	C	0.758203	0.977329	0.797821
0	C	0.820815	0.313954	0.641452
0	C	0.235831	0.80503	0.642728
0	C	0.821861	0.806161	0.442769
0	C	0.235238	0.312375	0.442206
0	C	0.275045	0.645734	0.829171
0	C	0.782269	0.645782	0.257141
0	C	0.781533	0.474079	0.82742
0	C	0.274169	0.47264	0.256349
0	C	0.633623	0.840373	0.294773
0	C	0.633271	0.278992	0.790105
0	C	0.422718	0.841265	0.792145
0	C	0.422573	0.277585	0.292989
0	H	0.79436	0.378709	0.122401
0	H	0.260737	0.741033	0.124165
0	H	0.25804	0.378455	0.960492
0	H	0.795392	0.741074	0.96187
0	H	0.11631	0.827265	0.356513
0	H	0.114048	0.292531	0.728379
0	H	0.939977	0.294121	0.354069
0	H	0.940596	0.826356	0.730197
0	H	0.345476	0.143693	0.809762
0	H	0.709167	0.143555	0.274026
0	H	0.347829	0.975573	0.275257
0	H	0.709959	0.976466	0.810905
0	H	0.869033	0.326203	0.648324
0	H	0.187573	0.792965	0.649623
0	H	0.870086	0.794113	0.435619
0	H	0.186998	0.324344	0.43506
0	H	0.290485	0.649246	0.877867
0	H	0.768741	0.650084	0.207915
0	H	0.767917	0.469622	0.876608
0	H	0.287896	0.468456	0.207162
0	H	0.638323	0.890705	0.310285
0	H	0.63813	0.228692	0.774543
0	H	0.417583	0.891569	0.776682
0	H	0.417804	0.227362	0.308809
0	H	0.733851	0.326105	0.11603
0	H	0.321484	0.793268	0.117497
0	H	0.319061	0.326558	0.967084
0	H	0.734635	0.793375	0.968078
0	H	0.106344	0.766962	0.301926
0	H	0.10304	0.351566	0.784092
0	H	0.950232	0.353208	0.298289
0	H	0.950844	0.76684	0.785551
0	H	0.29782	0.137531	0.746097
0	H	0.757081	0.138028	0.337551
0	H	0.300338	0.981499	0.339066
0	H	0.757505	0.981806	0.747088
0	H	0.820915	0.261764	0.635772
0	H	0.23586	0.857166	0.636612
0	H	0.821784	0.858351	0.448409
0	H	0.235387	0.260174	0.447793
0	H	0.225975	0.639484	0.832824
0	H	0.83134	0.638657	0.255416
0	H	0.830625	0.480976	0.829261
0	H	0.225086	0.479596	0.254444
0	H	0.629887	0.843972	0.244157
0	H	0.629792	0.275331	0.840732
0	H	0.425977	0.844819	0.8428
0	H	0.425583	0.273693	0.242344
0	C	0.812452	0.295579	0.0672565
0	C	0.242858	0.824215	0.0690113
0	C	0.240783	0.295336	0.0159404
0	C	0.812816	0.824062	0.0174548
0	C	0.0631485	0.854681	0.27782
0	C	0.0607114	0.262874	0.806179
0	C	0.993121	0.264841	0.275984
0	C	0.994251	0.854849	0.808176
0	C	0.267547	0.0848853	0.824966
0	C	0.78724	0.084899	0.258937
0	C	0.269631	0.0340957	0.260309
0	C	0.788153	0.0351219	0.825412
0	C	0.798739	0.344545	0.582691
0	C	0.257966	0.773846	0.58428
0	C	0.8002	0.775496	0.501657
0	C	0.256855	0.343004	0.501132
0	C	0.30217	0.587393	0.799669
0	C	0.75318	0.58756	0.284881
0	C	0.752707	0.532534	0.79987
0	C	0.302994	0.530924	0.284251
0	C	0.576115	0.813357	0.320642
0	C	0.575525	0.30572	0.764521
0	C	0.480758	0.815052	0.76677
0	C	0.480614	0.304306	0.317869
0	H	0.794614	0.314708	0.0244421
0	H	0.259904	0.804406	0.0261242
0	H	0.254722	0.318355	0.0586312
0	H	0.796176	0.803311	0.0600942
0	H	0.0208779	0.840875	0.299188
0	H	0.0181893	0.278424	0.786512
0	H	0.0357241	0.283689	0.292167
0	H	0.036636	0.837829	0.789519
0	H	0.295657	0.0427394	0.819377
0	H	0.759382	0.0426495	0.265099
0	H	0.297392	0.0764492	0.266236
0	H	0.760149	0.0773214	0.819609
0	H	0.830028	0.335273	0.545182
0	H	0.226724	0.78276	0.546651
0	H	0.83145	0.785257	0.539086
0	H	0.225529	0.333334	0.538494
0	H	0.297046	0.545964	0.829516
0	H	0.765839	0.545014	0.259411
0	H	0.764048	0.574714	0.826605
0	H	0.293385	0.572975	0.25658
0	H	0.538786	0.845375	0.311108
0	H	0.538419	0.273356	0.773941
0	H	0.517639	0.847535	0.77671
0	H	0.517514	0.271728	0.308342
0	H	0.804343	0.244808	0.0661626
0	H	0.251785	0.874816	0.0674805
0	H	0.253248	0.245724	0.0199189
0	H	0.802983	0.874452	0.0196779
0	H	0.0584167	0.845223	0.228992
0	H	0.0570537	0.269289	0.85556
0	H	0.994139	0.267834	0.226166
0	H	0.997011	0.849259	0.857712
0	H	0.225093	0.0738503	0.803028
0	H	0.829913	0.0743207	0.280649
0	H	0.226967	0.0446324	0.282053
0	H	0.830554	0.0458281	0.8032
0	H	0.755729	0.325733	0.568171
0	H	0.301006	0.792513	0.569669
0	H	0.75701	0.793837	0.516177
0	H	0.299974	0.324545	0.515742
0	H	0.28055	0.575438	0.756456
0	H	0.767012	0.579792	0.332159
0	H	0.767944	0.541437	0.753241
0	H	0.28622	0.5408	0.330136
0	H	0.564626	0.767923	0.300292
0	H	0.56377	0.350943	0.785155
0	H	0.492588	0.769727	0.787153
0	H	0.492367	0.349303	0.296774
0	H	0.860559	0.302185	0.0665778
0	H	0.194648	0.818492	0.0689155
0	H	0.19232	0.297108	0.0141576
0	H	0.861122	0.819313	0.0174402
0	H	0.0677479	0.905587	0.28295
0	H	0.0646501	0.212338	0.797972
0	H	0.991638	0.214894	0.287645
0	H	0.991549	0.905306	0.799075
0	H	0.258857	0.0904725	0.87368
0	H	0.795551	0.0901113	0.210108
0	H	0.26124	0.0286552	0.21152
0	H	0.797005	0.029873	0.87414
0	H	0.793589	0.395482	0.586851
0	H	0.263105	0.722951	0.588922
0	H	0.795588	0.724489	0.497651
0	H	0.261597	0.393996	0.497104
0	H	0.349531	0.5928	0.790209
0	H	0.704736	0.590255	0.284846
0	H	0.704319	0.529269	0.798233
0	H	0.351229	0.526809	0.287789
0	H	0.578319	0.806164	0.369942
0	H	0.577569	0.313229	0.715256
0	H	0.479082	0.807937	0.717438
0	H	0.479023	0.312199	0.367092
0	C	0.856482	0.448632	0.261346
0	C	0.199866	0.670916	0.262294
0	C	0.198329	0.448277	0.8217
0	C	0.856884	0.671431	0.823061
0	C	0.255924	0.877951	0.427294
0	C	0.252893	0.240119	0.657814
0	C	0.800997	0.240887	0.425076
0	C	0.80223	0.879344	0.659497
0	C	0.406523	0.296992	0.866209
0	C	0.646946	0.295261	0.217174
0	C	0.409129	0.823007	0.218398
0	C	0.648001	0.824167	0.86724
0	C	0.921695	0.380226	0.793795
0	C	0.134444	0.740186	0.795023
0	C	0.9225	0.740031	0.290625
0	C	0.134301	0.377965	0.290322
0	C	0.346627	0.80119	0.934145
0	C	0.709549	0.800273	0.151997
0	C	0.709366	0.319641	0.932463
0	C	0.345588	0.317663	0.150898
0	C	0.775426	0.951399	0.361621
0	C	0.775129	0.168499	0.72288
0	C	0.281307	0.95103	0.723543
0	C	0.281913	0.167078	0.362087
0	C	0.865427	0.461117	0.324005
0	C	0.191164	0.657714	0.324861
0	C	0.189848	0.461306	0.759076
0	C	0.865825	0.65896	0.760405
0	C	0.31714	0.885429	0.439574
0	C	0.314116	0.232599	0.645589
0	C	0.739786	0.233264	0.437361
0	C	0.741011	0.886929	0.64721
0	C	0.414847	0.362007	0.877066
0	C	0.638243	0.36021	0.2063
0	C	0.417393	0.758037	0.207222
0	C	0.639317	0.759181	0.877954
0	C	0.929233	0.384465	0.857662
0	C	0.127034	0.736417	0.858932
0	C	0.929637	0.735846	0.226708
0	C	0.127046	0.381415	0.226381
0	C	0.352391	0.866753	0.943353
0	C	0.703287	0.86578	0.142852
0	C	0.703389	0.25411	0.941664
0	C	0.351709	0.252152	0.141637
0	C	0.837333	0.962285	0.363114
0	C	0.837072	0.157908	0.7212
0	C	0.219371	0.961577	0.721432
0	C	0.220052	0.156058	0.364186
0	C	0.83806	0.419242	0.372036
0	C	0.218266	0.699355	0.373268
0	C	0.216561	0.419213	0.710828
0	C	0.838721	0.700947	0.712313
0	C	0.363017	0.858786	0.396456
0	C	0.359984	0.259665	0.68848
0	C	0.693859	0.260034	0.394366
0	C	0.695066	0.860031	0.690107
0	C	0.371711	0.409501	0.851236
0	C	0.681448	0.40797	0.231582
0	C	0.374138	0.710562	0.232876
0	C	0.682443	0.711429	0.852517
0	C	0.884402	0.35553	0.900615
0	C	0.171798	0.765967	0.901565
0	C	0.884574	0.764917	0.184101
0	C	0.17141	0.350709	0.184093
0	C	0.322023	0.912863	0.901154
0	C	0.733531	0.912177	0.184848
0	C	0.733844	0.207825	0.899715
0	C	0.322075	0.205745	0.184076
0	C	0.879507	0.919381	0.329234
0	C	0.879176	0.20113	0.754794
0	C	0.177114	0.918557	0.755056
0	C	0.177493	0.198824	0.330674
0	H	0.825886	0.372797	0.350877
0	H	0.230257	0.746014	0.352445
0	H	0.228849	0.372785	0.731963
0	H	0.826304	0.747295	0.7335
0	H	0.342124	0.851028	0.350498
0	H	0.339125	0.267717	0.734404
0	H	0.714758	0.268051	0.34845
0	H	0.715918	0.852017	0.736036
0	H	0.32802	0.3857	0.842008
0	H	0.725012	0.384133	0.24127
0	H	0.330631	0.734598	0.242435
0	H	0.725996	0.735262	0.842722
0	H	0.842986	0.343537	0.874407
0	H	0.212881	0.778539	0.875057
0	H	0.843284	0.776793	0.210561
0	H	0.212391	0.337978	0.210701
0	H	0.307116	0.887442	0.858816
0	H	0.748869	0.886981	0.227134
0	H	0.748991	0.233047	0.857372
0	H	0.307158	0.231003	0.226489
0	H	0.855667	0.874586	0.317057
0	H	0.855136	0.245769	0.767095
0	H	0.201048	0.873881	0.767473
0	H	0.201193	0.243569	0.318031
0	C	0.880776	0.406159	0.424841
0	C	0.175495	0.711825	0.426167
0	C	0.173273	0.406155	0.658522
0	C	0.881803	0.714214	0.659871
0	C	0.415898	0.903161	0.387873
0	C	0.413028	0.215576	0.69731
0	C	0.640973	0.215738	0.38551
0	C	0.642029	0.904133	0.698895
0	C	0.360223	0.46443	0.894776
0	C	0.693341	0.462109	0.187219
0	C	0.362014	0.655942	0.189167
0	C	0.694432	0.657241	0.896797
0	C	0.867072	0.400884	0.951909
0	C	0.190062	0.720859	0.952687
0	C	0.866982	0.719824	0.132703
0	C	0.190125	0.394786	0.132331
0	C	0.363573	0.96618	0.881568
0	C	0.691605	0.965139	0.20451
0	C	0.692235	0.154543	0.880179
0	C	0.364359	0.152954	0.203389
0	C	0.933797	0.901764	0.367652
0	C	0.933076	0.219024	0.715939
0	C	0.123221	0.900656	0.716174
0	C	0.123776	0.216615	0.36989
0	H	0.864953	0.365553	0.451053
0	H	0.191393	0.752011	0.452941
0	H	0.1887	0.365443	0.632229
0	H	0.866321	0.755066	0.633806
0	H	0.441796	0.888612	0.347995
0	H	0.43912	0.230765	0.736828
0	H	0.615341	0.23032	0.345453
0	H	0.616141	0.88915	0.738632
0	H	0.322811	0.492955	0.877901
0	H	0.732594	0.488751	0.201999
0	H	0.323336	0.628899	0.205053
0	H	0.733278	0.630174	0.881484
0	H	0.82531	0.385439	0.97306
0	H	0.231392	0.737381	0.974032
0	H	0.825493	0.735882	0.111368
0	H	0.229995	0.375983	0.109648
0	H	0.343047	0.993106	0.844072
0	H	0.712112	0.992461	0.241762
0	H	0.71284	0.127364	0.842897
0	H	0.34474	0.126294	0.24158
0	H	0.958499	0.863465	0.345297
0	H	0.957387	0.257923	0.737786
0	H	0.0996302	0.860943	0.737345
0	H	0.100972	0.257336	0.349777
0	H	0.884248	0.446031	0.456023
0	H	0.171949	0.671531	0.45683
0	H	0.169626	0.445968	0.627303
0	H	0.885346	0.674529	0.628479
0	H	0.445525	0.902965	0.427276
0	H	0.442443	0.215343	0.657745
0	H	0.611071	0.216026	0.424685
0	H	0.612432	0.904068	0.659479
0	H	0.398672	0.495494	0.898661
0	H	0.656097	0.494916	0.184833
0	H	0.399545	0.623557	0.186331
0	H	0.65697	0.62476	0.899722
0	H	0.900713	0.403147	0.987805
0	H	0.156363	0.717429	0.988438
0	H	0.90076	0.717173	0.0969783
0	H	0.155552	0.399869	0.0977089
0	H	0.372632	0.99897	0.918745
0	H	0.681972	0.997672	0.167255
0	H	0.68291	0.121962	0.917463
0	H	0.372902	0.119778	0.166382
0	H	0.964202	0.941327	0.373482
0	H	0.96393	0.179811	0.710427
0	H	0.0917805	0.939477	0.71165
0	H	0.0917184	0.178241	0.373297
0	H	0.92569	0.395054	0.408553
0	H	0.130611	0.723253	0.410023
0	H	0.128483	0.395278	0.675289
0	H	0.926673	0.724985	0.676528
0	H	0.401497	0.951898	0.380218
0	H	0.398826	0.166897	0.705646
0	H	0.655319	0.166965	0.377988
0	H	0.656198	0.952889	0.706887
0	H	0.348848	0.447847	0.94076
0	H	0.70197	0.444765	0.140826
0	H	0.352363	0.672776	0.142844
0	H	0.703775	0.674559	0.943044
0	H	0.860142	0.44872	0.934766
0	H	0.198228	0.673402	0.935271
0	H	0.85943	0.672097	0.149794
0	H	0.20108	0.441655	0.149472
0	H	0.405947	0.948085	0.865057
0	H	0.649506	0.946654	0.221396
0	H	0.649989	0.172696	0.863385
0	H	0.40696	0.171541	0.218799
0	H	0.920842	0.885186	0.412841
0	H	0.91977	0.234885	0.670619
0	H	0.136467	0.885995	0.670453
0	H	0.137111	0.229656	0.416062
0	C	0.78035	0.449144	0.395029
0	C	0.276063	0.669655	0.396288
0	C	0.274017	0.448987	0.68702
0	C	0.781266	0.670907	0.688834
0	C	0.383171	0.794249	0.419763
0	C	0.379942	0.324062	0.664635
0	C	0.673658	0.324424	0.418018
0	C	0.675028	0.795616	0.66638
0	C	0.395752	0.433053	0.789946
0	C	0.657508	0.432675	0.292467
0	C	0.39819	0.68641	0.293928
0	C	0.658307	0.686721	0.79171
0	C	0.909241	0.293812	0.926191
0	C	0.146385	0.827311	0.927383
0	C	0.909196	0.826764	0.158592
0	C	0.145267	0.289392	0.158987
0	C	0.266318	0.938883	0.932331
0	C	0.788847	0.938618	0.153251
0	C	0.789353	0.181772	0.931272
0	C	0.266458	0.179006	0.153276
0	C	0.898555	0.95059	0.26939
0	C	0.89877	0.170169	0.814579
0	C	0.157512	0.949652	0.814773
0	C	0.157746	0.167471	0.271135
0	H	0.750827	0.460715	0.356557
0	H	0.305848	0.658686	0.357841
0	H	0.303828	0.461178	0.725097
0	H	0.751556	0.659034	0.727054
0	H	0.3446	0.763372	0.427612
0	H	0.341254	0.354681	0.656373
0	H	0.712227	0.355163	0.426411
0	H	0.713672	0.765021	0.657868
0	H	0.40574	0.393167	0.759508
0	H	0.647607	0.393366	0.32364
0	H	0.409097	0.725995	0.324407
0	H	0.648908	0.725995	0.760343
0	H	0.924152	0.26278	0.888959
0	H	0.131329	0.858378	0.890232
0	H	0.924247	0.857704	0.195851
0	H	0.130245	0.258754	0.196472
0	H	0.237447	0.90022	0.9479
0	H	0.81809	0.90016	0.13795
0	H	0.818352	0.22042	0.946645
0	H	0.237136	0.217268	0.137706
0	H	0.859501	0.964566	0.24236
0	H	0.859943	0.156045	0.841882
0	H	0.196325	0.963688	0.842145
0	H	0.196498	0.153878	0.243468
0	H	0.788173	0.49213	0.420951
0	H	0.268432	0.62638	0.421792
0	H	0.265909	0.491594	0.660602
0	H	0.789415	0.628063	0.662804
0	H	0.408083	0.797473	0.462272
0	H	0.404985	0.320537	0.62223
0	H	0.648404	0.320913	0.460293
0	H	0.649706	0.799109	0.624152
0	H	0.43619	0.460731	0.795167
0	H	0.617026	0.460183	0.286817
0	H	0.438054	0.657882	0.288376
0	H	0.617498	0.65977	0.797443
0	H	0.946786	0.301384	0.956717
0	H	0.108855	0.819248	0.9578
0	H	0.946581	0.819365	0.127821
0	H	0.10755	0.29761	0.128855
0	H	0.276839	0.968197	0.971706
0	H	0.777861	0.967376	0.113646
0	H	0.77856	0.152841	0.970824
0	H	0.277088	0.149671	0.113962
0	H	0.925779	0.992316	0.276802
0	H	0.926135	0.12857	0.807072
0	H	0.130246	0.991309	0.807181
0	H	0.130985	0.1255	0.278971
0	H	0.755968	0.415782	0.424119
0	H	0.300072	0.702909	0.42581
0	H	0.298269	0.415313	0.65814
0	H	0.756947	0.704275	0.659695
0	H	0.411089	0.770713	0.38551
0	H	0.407634	0.348097	0.69876
0	H	0.646046	0.348321	0.383714
0	H	0.647536	0.771579	0.70069
0	H	0.362323	0.462052	0.766537
0	H	0.690962	0.462177	0.315217
0	H	0.364327	0.658059	0.317474
0	H	0.691403	0.656672	0.769122
0	H	0.874624	0.267997	0.951245
0	H	0.180736	0.853309	0.952654
0	H	0.874391	0.852611	0.133813
0	H	0.179185	0.262914	0.133573
0	H	0.240063	0.967111	0.900031
0	H	0.81485	0.967524	0.185183
0	H	0.815558	0.153125	0.899273
0	H	0.240672	0.150583	0.185804
0	H	0.923965	0.917171	0.241262
0	H	0.9242	0.20376	0.842488
0	H	0.131958	0.916134	0.842657
0	H	0.131626	0.200654	0.243446
0	C	0.897612	0.514612	0.340333
0	C	0.159402	0.603787	0.340688
0	C	0.158803	0.515602	0.742919
0	C	0.897676	0.605262	0.74403
0	C	0.333833	0.915018	0.493732
0	C	0.33083	0.202726	0.591591
0	C	0.723142	0.203581	0.491477
0	C	0.72437	0.916594	0.593084
0	C	0.46572	0.38115	0.908268
0	C	0.587108	0.37898	0.17534
0	C	0.468227	0.739071	0.17588
0	C	0.588197	0.740335	0.908909
0	C	0.980309	0.41355	0.880119
0	C	0.0761157	0.707261	0.881672
0	C	0.980522	0.706677	0.203915
0	C	0.0765707	0.411227	0.203394
0	C	0.384199	0.887757	0.99404
0	C	0.671152	0.886606	0.0923142
0	C	0.671273	0.233198	0.99218
0	C	0.38321	0.231363	0.0906621
0	C	0.85807	0.0152746	0.394108
0	C	0.857949	0.104975	0.690222
0	C	0.198631	0.0142058	0.689883
0	C	0.199628	0.103222	0.395635
0	H	0.904846	0.525144	0.38826
0	H	0.152351	0.59265	0.38852
0	H	0.151905	0.526515	0.695019
0	H	0.904929	0.5948	0.696094
0	H	0.380669	0.921082	0.504138
0	H	0.377668	0.196635	0.581218
0	H	0.676315	0.197398	0.50185
0	H	0.677538	0.92278	0.582727
0	H	0.472842	0.430886	0.917222
0	H	0.579616	0.42866	0.166424
0	H	0.475336	0.689397	0.166659
0	H	0.580708	0.690626	0.917688
0	H	0.986899	0.417228	0.929085
0	H	0.0696731	0.703821	0.930676
0	H	0.986792	0.70297	0.154909
0	H	0.0703007	0.414579	0.154359
0	H	0.38902	0.937978	0.00199834
0	H	0.665895	0.936803	0.0844927
0	H	0.666235	0.182983	5.56898e-05
0	H	0.388347	0.181171	0.0827251
0	H	0.905463	0.024685	0.395788
0	H	0.905378	0.0957884	0.688394
0	H	0.151207	0.0233167	0.687699
0	H	0.152257	0.0937596	0.397743
0	C	0.920249	0.554854	0.295832
0	C	0.136922	0.563881	0.295818
0	C	0.136882	0.556125	0.787553
0	C	0.919955	0.564747	0.788478
0	C	0.291146	0.936522	0.534839
0	C	0.288169	0.180989	0.550577
0	C	0.765863	0.182181	0.53261
0	C	0.767083	0.937947	0.551924
0	C	0.507887	0.33732	0.927453
0	C	0.545177	0.334827	0.156299
0	C	0.510375	0.783026	0.156895
0	C	0.546285	0.784425	0.928131
0	C	0.0230409	0.437544	0.840444
0	C	0.0333399	0.682919	0.842244
0	C	0.0234824	0.682626	0.243305
0	C	0.0339925	0.43633	0.242612
0	C	0.409445	0.845046	0.0347523
0	C	0.646163	0.84378	0.0515694
0	C	0.646007	0.275957	0.0328218
0	C	0.407767	0.274225	0.0496709
0	C	0.818665	0.056409	0.422662
0	C	0.818642	0.0636074	0.661853
0	C	0.238072	0.055346	0.661376
0	C	0.239315	0.0623497	0.424131
0	H	0.946114	0.595911	0.309083
0	H	0.111318	0.522521	0.308714
0	H	0.111918	0.597838	0.774429
0	H	0.945569	0.523537	0.775197
0	H	0.304661	0.960703	0.576366
0	H	0.301714	0.156625	0.509167
0	H	0.752398	0.158017	0.574157
0	H	0.753605	0.962053	0.510341
0	H	0.547056	0.35272	0.952369
0	H	0.505772	0.349933	0.131589
0	H	0.549526	0.767778	0.131861
0	H	0.506931	0.769252	0.952893
0	H	0.0623471	0.460902	0.858417
0	H	0.994144	0.659534	0.860429
0	H	0.0626669	0.659272	0.225067
0	H	0.995148	0.460213	0.224224
0	H	0.434527	0.861938	0.0739141
0	H	0.620885	0.860542	0.0124942
0	H	0.620705	0.259117	0.0718455
0	H	0.432584	0.257501	0.0102747
0	H	0.835423	0.0970371	0.447531
0	H	0.835504	0.0229954	0.637026
0	H	0.221314	0.0956679	0.636043
0	H	0.222803	0.0218723	0.449405
0	C	0.909191	0.54316	0.234489
0	C	0.147758	0.576308	0.234562
0	C	0.14748	0.543849	0.848873
0	C	0.908858	0.576399	0.849817
0	C	0.2312	0.926333	0.523311
0	C	0.228213	0.191228	0.562027
0	C	0.825787	0.192514	0.521078
0	C	0.827011	0.927632	0.563457
0	C	0.500531	0.27394	0.913591
0	C	0.553074	0.271458	0.169937
0	C	0.503048	0.846352	0.171047
0	C	0.554135	0.847824	0.914589
0	C	0.0159066	0.431127	0.777741
0	C	0.0402565	0.689077	0.779489
0	C	0.0167469	0.689013	0.306056
0	C	0.0406042	0.430207	0.305411
0	C	0.401723	0.780716	0.0260835
0	C	0.654439	0.779508	0.0600983
0	C	0.654046	0.340261	0.0242503
0	C	0.399689	0.338498	0.0583993
0	C	0.757758	0.0462866	0.418723
0	C	0.757699	0.0734619	0.665941
0	C	0.298992	0.0455993	0.665945
0	C	0.300171	0.0726014	0.419654
0	H	0.926363	0.575602	0.200324
0	H	0.130752	0.544094	0.200117
0	H	0.130858	0.576511	0.883135
0	H	0.925742	0.543746	0.883949
0	H	0.198364	0.942169	0.556324
0	H	0.195393	0.175234	0.529075
0	H	0.858653	0.17678	0.554107
0	H	0.859866	0.9433	0.530388
0	H	0.534539	0.240403	0.927223
0	H	0.519332	0.237652	0.156231
0	H	0.53705	0.879946	0.157528
0	H	0.520399	0.881594	0.928408
0	H	0.0500238	0.449574	0.747369
0	H	0.00606644	0.670451	0.749308
0	H	0.0510387	0.670523	0.336196
0	H	0.00649296	0.449283	0.335423
0	H	0.42093	0.747994	0.0588543
0	H	0.635467	0.74669	0.0272862
0	H	0.634856	0.373027	0.0569817
0	H	0.418379	0.371347	0.0254331
0	H	0.727594	0.0795141	0.440435
0	H	0.727626	0.0400631	0.644345
0	H	0.329172	0.0788179	0.644243
0	H	0.33055	0.0396038	0.441369
0	C	0.875969	0.490788	0.215982
0	C	0.180547	0.629153	0.216496
0	C	0.179501	0.490588	0.867239
0	C	0.875989	0.62901	0.868364
0	C	0.212433	0.89561	0.470163
0	C	0.209424	0.222264	0.614998
0	C	0.844522	0.223282	0.467933
0	C	0.845758	0.896936	0.616636
0	C	0.450474	0.252649	0.881752
0	C	0.603352	0.250525	0.201621
0	C	0.453002	0.867484	0.203002
0	C	0.604356	0.868835	0.882854
0	C	0.965855	0.401367	0.753113
0	C	0.0901837	0.718826	0.754564
0	C	0.966883	0.718831	0.331025
0	C	0.090099	0.399871	0.330568
0	C	0.369209	0.757451	0.976517
0	C	0.68723	0.756443	0.109564
0	C	0.686858	0.36342	0.974844
0	C	0.367491	0.361541	0.10828
0	C	0.734781	0.994556	0.386959
0	C	0.734594	0.125114	0.697728
0	C	0.321956	0.994238	0.698287
0	C	0.322813	0.12418	0.387399
0	C	0.86097	0.482794	0.149156
0	C	0.19526	0.638053	0.149703
0	C	0.193911	0.481844	0.934107
0	C	0.861096	0.637012	0.935213
0	C	0.147313	0.880417	0.462031
0	C	0.144324	0.237674	0.622955
0	C	0.909625	0.238642	0.459845
0	C	0.910866	0.881611	0.624722
0	C	0.446894	0.184277	0.862934
0	C	0.607618	0.182093	0.220127
0	C	0.449225	0.935788	0.222047
0	C	0.608452	0.937263	0.864301
0	C	0.96187	0.392092	0.68486
0	C	0.0939067	0.728007	0.686276
0	C	0.9633	0.728135	0.399306
0	C	0.0933826	0.390391	0.398842
0	C	0.358157	0.687438	0.971515
0	C	0.698829	0.686519	0.114448
0	C	0.698402	0.433362	0.970031
0	C	0.356236	0.4315	0.113477
0	C	0.668297	0.987715	0.379738
0	C	0.66812	0.131673	0.705256
0	C	0.388397	0.987816	0.706235
0	C	0.389217	0.131259	0.37976
0	H	0.828288	0.443068	0.143671
0	H	0.228116	0.677716	0.144674
0	H	0.226427	0.441905	0.939413
0	H	0.828559	0.676872	0.940772
0	H	0.141458	0.849839	0.420462
0	H	0.1385	0.268596	0.664292
0	H	0.915375	0.26966	0.418574
0	H	0.916613	0.850641	0.666032
0	H	0.4076	0.17732	0.831935
0	H	0.647077	0.175413	0.250972
0	H	0.409809	0.942516	0.252957
0	H	0.647933	0.944031	0.833504
0	H	0.921746	0.362454	0.673836
0	H	0.133736	0.758045	0.675125
0	H	0.923665	0.75846	0.410438
0	H	0.132956	0.360014	0.410097
0	H	0.328656	0.67754	0.931113
0	H	0.728947	0.676923	0.15442
0	H	0.728328	0.443053	0.929919
0	H	0.326478	0.441078	0.15375
0	H	0.658515	0.946365	0.349062
0	H	0.658355	0.172934	0.736054
0	H	0.398058	0.946793	0.737369
0	H	0.398653	0.172385	0.348694
0	C	0.830688	0.542345	0.124723
0	C	0.225135	0.578754	0.124181
0	C	0.224149	0.540967	0.959569
0	C	0.830651	0.577574	0.959695
0	C	0.124744	0.842468	0.516873
0	C	0.121915	0.275207	0.567767
0	C	0.932255	0.275972	0.515076
0	C	0.933497	0.844214	0.569538
0	C	0.502408	0.166124	0.82635
0	C	0.552401	0.163116	0.256793
0	C	0.504539	0.954059	0.258896
0	C	0.553231	0.956035	0.827533
0	C	0.0157902	0.355578	0.66112
0	C	0.0395232	0.763863	0.662696
0	C	0.0178869	0.763621	0.422937
0	C	0.0386103	0.35477	0.421809
0	C	0.324411	0.663374	0.0275256
0	C	0.73189	0.662662	0.0579193
0	C	0.731762	0.457058	0.0264367
0	C	0.322827	0.455909	0.0573821
0	C	0.641444	0.0454973	0.348228
0	C	0.641626	0.0737386	0.736809
0	C	0.414625	0.0460309	0.737551
0	C	0.416138	0.0733589	0.348542
0	H	0.786822	0.548499	0.145293
0	H	0.268273	0.570904	0.14577
0	H	0.267435	0.548339	0.938143
0	H	0.786703	0.571634	0.939248
0	H	0.155384	0.8037	0.527601
0	H	0.152573	0.313871	0.556829
0	H	0.901624	0.314596	0.52627
0	H	0.902848	0.805605	0.558355
0	H	0.513456	0.202863	0.792781
0	H	0.541449	0.199219	0.291007
0	H	0.515152	0.917631	0.292905
0	H	0.542152	0.919659	0.793641
0	H	0.0194929	0.309787	0.683645
0	H	0.0353345	0.80958	0.685302
0	H	0.0221265	0.809499	0.400681
0	H	0.0342972	0.309253	0.398844
0	H	0.280972	0.686256	0.0312381
0	H	0.775413	0.685303	0.0538865
0	H	0.77524	0.434263	0.0302356
0	H	0.279302	0.433328	0.0533914
0	H	0.659493	0.0513071	0.302247
0	H	0.660055	0.0678083	0.782616
0	H	0.395938	0.052232	0.783217
0	H	0.397991	0.0672326	0.302642
0	H	0.825102	0.540354	0.0749895
0	H	0.232116	0.582387	0.0747756
0	H	0.230924	0.537453	0.00900558
0	H	0.82522	0.579542	0.00945145
0	H	0.0810075	0.822231	0.507853
0	H	0.0781417	0.295499	0.576498
0	H	0.976	0.296309	0.506238
0	H	0.977219	0.823867	0.578411
0	H	0.495875	0.121974	0.801821
0	H	0.559229	0.118547	0.280539
0	H	0.497967	0.998508	0.282937
0	H	0.560143	0.000360472	0.803391
0	H	0.0123903	0.347136	0.612043
0	H	0.0426974	0.772393	0.613612
0	H	0.0149137	0.771771	0.4721
0	H	0.0413782	0.345829	0.470854
0	H	0.317167	0.612612	0.0247465
0	H	0.738842	0.611828	0.0601926
0	H	0.738857	0.507869	0.0241986
0	H	0.31582	0.506705	0.0603346
0	H	0.593252	0.0409406	0.344199
0	H	0.593458	0.0781562	0.741247
0	H	0.462776	0.0417475	0.742308
0	H	0.464302	0.0780331	0.344358
0	H	0.856349	0.585053	0.134545
0	H	0.198324	0.536478	0.131829
0	H	0.19775	0.583535	0.951632
0	H	0.856092	0.534731	0.949753
0	H	0.120981	0.871488	0.557839
0	H	0.118259	0.245868	0.527001
0	H	0.936068	0.246466	0.555715
0	H	0.937354	0.873669	0.528871
0	H	0.541259	0.160374	0.855707
0	H	0.513396	0.157678	0.227598
0	H	0.543642	0.959404	0.229817
0	H	0.514267	0.961869	0.856715
0	H	0.0577265	0.38089	0.669076
0	H	0.997897	0.738007	0.670704
0	H	0.0594106	0.737683	0.414596
0	H	0.997206	0.380982	0.413708
0	H	0.348317	0.672503	0.070403
0	H	0.707605	0.672301	0.0153728
0	H	0.707606	0.447434	0.0690705
0	H	0.346796	0.446834	0.0145591
0	H	0.650364	0.0893565	0.373274
0	H	0.650454	0.0299832	0.711554
0	H	0.405845	0.0895669	0.711942
0	H	0.407373	0.0296511	0.373863
0	C	0.916645	0.467141	0.112057
0	C	0.139604	0.654472	0.112882
0	C	0.137919	0.466036	0.970637
0	C	0.91692	0.65244	0.972176
0	C	0.110675	0.940381	0.453206
0	C	0.10754	0.177873	0.63216
0	C	0.946352	0.178834	0.45042
0	C	0.947645	0.941395	0.634092
0	C	0.439375	0.141442	0.918513
0	C	0.615381	0.139598	0.164332
0	C	0.441699	0.978851	0.166629
0	C	0.615997	0.97991	0.920026
0	C	0.955712	0.45533	0.652034
0	C	0.100567	0.664825	0.653455
0	C	0.956272	0.664989	0.432127
0	C	0.100261	0.453354	0.432
0	C	0.416491	0.651632	0.962639
0	C	0.64083	0.650329	0.124176
0	C	0.640367	0.469581	0.960665
0	C	0.414482	0.467349	0.122867
0	C	0.638529	0.976169	0.441492
0	C	0.638019	0.143225	0.643679
0	C	0.418854	0.975837	0.64492
0	C	0.419148	0.143535	0.441294
0	H	0.90516	0.452523	0.0656589
0	H	0.151162	0.669712	0.0666694
0	H	0.14905	0.451378	0.0170901
0	H	0.905593	0.667394	0.0185058
0	H	0.0645183	0.929257	0.442275
0	H	0.0614838	0.189217	0.64334
0	H	0.992482	0.190196	0.439576
0	H	0.993689	0.929979	0.645275
0	H	0.431481	0.0927626	0.904653
0	H	0.624652	0.0911126	0.177955
0	H	0.433428	0.0274079	0.180692
0	H	0.625097	0.0283965	0.906288
0	H	0.947288	0.448699	0.603398
0	H	0.108682	0.671544	0.604767
0	H	0.947885	0.67176	0.480759
0	H	0.10864	0.446307	0.480598
0	H	0.408316	0.602312	0.951312
0	H	0.649477	0.601267	0.1362
0	H	0.648965	0.518701	0.948839
0	H	0.406174	0.516488	0.134817
0	H	0.591579	0.964516	0.436024
0	H	0.591116	0.15495	0.649433
0	H	0.465823	0.964583	0.650995
0	H	0.465943	0.15571	0.435551
0	H	0.942097	0.428862	0.132728
0	H	0.11423	0.692516	0.134047
0	H	0.112655	0.427769	0.949706
0	H	0.942602	0.690413	0.951268
0	H	0.12818	0.969438	0.416182
0	H	0.125166	0.148852	0.669143
0	H	0.928916	0.150112	0.413133
0	H	0.930035	0.970355	0.671123
0	H	0.401992	0.156068	0.94698
0	H	0.651962	0.155332	0.135324
0	H	0.404547	0.964085	0.137917
0	H	0.652609	0.964408	0.949103
0	H	0.919033	0.483153	0.670495
0	H	0.137618	0.637421	0.671724
0	H	0.919277	0.63767	0.413633
0	H	0.137229	0.480844	0.413673
0	H	0.442947	0.671871	0.925683
0	H	0.614365	0.670915	0.160946
0	H	0.613817	0.449171	0.92387
0	H	0.441011	0.446703	0.15955
0	H	0.659429	0.937264	0.466093
0	H	0.658821	0.182089	0.618929
0	H	0.398467	0.936512	0.620497
0	H	0.397938	0.182339	0.465772
0	H	0.946467	0.507577	0.108661
0	H	0.109664	0.614189	0.108893
0	H	0.108013	0.506428	0.973831
0	H	0.946475	0.611795	0.97572
0	H	0.110726	0.969617	0.494247
0	H	0.10725	0.148536	0.591193
0	H	0.946387	0.149183	0.491178
0	H	0.948001	0.970807	0.593175
0	H	0.478785	0.14198	0.947626
0	H	0.575544	0.139111	0.135845
0	H	0.481247	0.978788	0.137715
0	H	0.576128	0.980324	0.948476
0	H	0.99587	0.483871	0.656559
0	H	0.0607251	0.63583	0.658197
0	H	0.996061	0.635872	0.427643
0	H	0.0604214	0.482413	0.427669
0	H	0.443999	0.652745	0.00369888
0	H	0.61312	0.650552	0.0832484
0	H	0.612767	0.46916	0.00166845
0	H	0.441995	0.46685	0.0818005
0	H	0.641323	0.017607	0.470916
0	H	0.640581	0.101772	0.614263
0	H	0.416096	0.0169225	0.615047
0	H	0.416883	0.102263	0.470969
