#******************************************
#
# CIF file created by Zeo++
# Zeo++ is an open source package to
# analyze microporous materials
#
#*******************************************

_cell_length_a		34.1649(0)
_cell_length_b		13.2311(0)
_cell_length_c		23.503(0)
_cell_angle_alpha		90(0)
_cell_angle_beta		95.0324(0)
_cell_angle_gamma		90(0)

_symmetry_space_group_name_H-M		'P1'
_symmetry_Int_Tables_number		1
_symmetry_cell_setting		Monoclinic

loop_
_symmetry_equiv_pos_as_xyz
'+x,+y,+z'

loop_
_atom_site_label
_atom_site_type_symbol
_atom_site_fract_x
_atom_site_fract_y
_atom_site_fract_z
0	O	0.963326	0.266814	0.0248643
0	O	0.980092	0.263956	0.464717
0	O	0.97598	0.803369	0.959938
0	O	0.95859	0.805635	0.520802
0	O	0.463712	0.7652	0.025914
0	O	0.479945	0.760643	0.465137
0	O	0.475179	0.304762	0.95931
0	O	0.458672	0.308681	0.520556
0	O	0.00324521	0.463056	0.0349619
0	O	0.936672	0.456647	0.452806
0	O	0.935815	0.607445	0.949962
0	O	0.00234168	0.613915	0.532786
0	O	0.502334	0.963267	0.0364567
0	O	0.437738	0.956052	0.452456
0	O	0.436446	0.106793	0.948699
0	O	0.501259	0.114184	0.533242
0	O	0.927165	0.494128	0.103705
0	O	0.014325	0.495772	0.384093
0	O	0.0118213	0.576563	0.88151
0	O	0.924476	0.573582	0.601216
0	O	0.426064	0.998088	0.105494
0	O	0.51603	0.000530628	0.38232
0	O	0.512715	0.0721955	0.879912
0	O	0.422883	0.0686748	0.603021
0	O	0.940869	0.382546	0.175154
0	O	0.000935104	0.37636	0.316831
0	O	0.998242	0.686475	0.809207
0	O	0.937938	0.694691	0.667457
0	O	0.440392	0.881946	0.174416
0	O	0.501998	0.876736	0.317768
0	O	0.498464	0.187189	0.810354
0	O	0.436841	0.193553	0.666912
0	C	0.931556	0.205383	0.0302708
0	C	0.0131298	0.206813	0.459997
0	C	0.00771153	0.865072	0.954834
0	C	0.92553	0.862709	0.525489
0	C	0.432431	0.701978	0.0310528
0	C	0.512897	0.703633	0.459503
0	C	0.506472	0.367976	0.954226
0	C	0.425709	0.365712	0.526042
0	N	0.00680854	0.570187	0.131412
0	N	0.934439	0.567006	0.357998
0	N	0.932178	0.500071	0.853607
0	N	0.00436444	0.502743	0.627235
0	N	0.505745	0.0728665	0.132369
0	N	0.435736	0.0684711	0.358161
0	N	0.43304	0.997054	0.852873
0	N	0.503173	0.0011469	0.62728
0	N	0.974748	0.0919971	0.0989231
0	N	0.972296	0.0888324	0.391376
0	N	0.964495	0.97856	0.886313
0	N	0.966366	0.98081	0.594036
0	N	0.476181	0.59251	0.101012
0	N	0.47177	0.588655	0.389525
0	N	0.462726	0.477508	0.88432
0	N	0.466836	0.480988	0.595849
0	O	0.999632	0.842043	0.117726
0	O	0.947156	0.840025	0.369717
0	O	0.939312	0.228378	0.867297
0	O	0.99162	0.22963	0.61569
0	O	0.497724	0.346389	0.121831
0	O	0.447603	0.342248	0.367189
0	O	0.441005	0.723742	0.863721
0	O	0.49109	0.727382	0.618306
0	C	0.870516	0.0680426	0.0417593
0	C	0.0766219	0.0767362	0.449556
0	C	0.0686281	0.00298295	0.943938
0	C	0.862075	0.993	0.535722
0	C	0.372665	0.560964	0.0417212
0	C	0.575991	0.57307	0.447831
0	C	0.566216	0.509107	0.943723
0	C	0.362675	0.496685	0.537283
0	H	0.847231	0.0127879	0.0448959
0	H	0.100923	0.024616	0.44647
0	H	0.0918605	0.0584891	0.941069
0	H	0.837791	0.0452132	0.538692
0	H	0.349881	0.504262	0.0445252
0	H	0.600144	0.520645	0.444397
0	H	0.588989	0.565876	0.941021
0	H	0.338547	0.549278	0.540496
0	O	0.0519478	0.284816	0.133086
0	O	0.89274	0.275344	0.357251
0	O	0.887154	0.786049	0.852297
0	O	0.0460369	0.794702	0.628329
0	O	0.551817	0.78903	0.135315
0	O	0.39364	0.778762	0.355409
0	O	0.38702	0.281283	0.849801
0	O	0.545115	0.291338	0.630086
0	C	0.907832	0.0493409	0.0685327
0	C	0.0397094	0.0530368	0.42297
0	C	0.0313361	0.0216141	0.917071
0	C	0.898989	0.016738	0.562308
0	C	0.409852	0.545003	0.0695656
0	C	0.539084	0.550841	0.42075
0	C	0.529045	0.52505	0.915842
0	C	0.399584	0.519002	0.564341
0	H	0.913192	0.980261	0.0934668
0	H	0.0355935	0.982737	0.398798
0	H	0.02595	0.0908569	0.892297
0	H	0.903121	0.0871491	0.586371
0	H	0.41561	0.476419	0.0949229
0	H	0.534823	0.481379	0.395717
0	H	0.523287	0.593652	0.8905
0	H	0.403867	0.588695	0.589157
0	C	0.0968028	0.596135	0.0169244
0	C	0.8419	0.585133	0.468714
0	C	0.842253	0.474542	0.968218
0	C	0.0968071	0.484268	0.51644
0	C	0.595417	0.0977113	0.0172998
0	C	0.343207	0.0854878	0.468816
0	C	0.343358	0.97245	0.967924
0	C	0.59559	0.984024	0.516448
0	O	0.0573981	0.553278	0.240548
0	O	0.884375	0.556295	0.248308
0	O	0.881849	0.517914	0.744291
0	O	0.0547385	0.512849	0.736546
0	O	0.556045	0.0542691	0.241713
0	O	0.385793	0.0539988	0.24862
0	O	0.383091	0.0164713	0.743295
0	O	0.553276	0.0150632	0.736647
0	C	0.956923	0.356347	0.988122
0	C	0.984449	0.355738	0.499974
0	C	0.982316	0.713809	0.996669
0	C	0.954314	0.713975	0.485451
0	C	0.456729	0.854536	0.989209
0	C	0.484674	0.852608	0.50018
0	C	0.482149	0.215261	0.995881
0	C	0.454034	0.216788	0.485453
0	H	0.937857	0.409148	0.00988024
0	H	0.00210959	0.410535	0.477127
0	H	0.00126962	0.660863	0.974806
0	H	0.936685	0.659008	0.508221
0	H	0.437093	0.906017	0.0107984
0	H	0.502966	0.906297	0.477666
0	H	0.501691	0.163748	0.974136
0	H	0.435818	0.162898	0.507953
0	H	0.943291	0.331993	0.94564
0	H	0.998788	0.335396	0.54265
0	H	0.996031	0.738023	0.0391277
0	H	0.939983	0.734387	0.44278
0	H	0.443509	0.829891	0.946583
0	H	0.498517	0.832017	0.543107
0	H	0.495461	0.239661	0.0384952
0	H	0.440151	0.237382	0.442547
0	C	0.863158	0.157201	0.0102625
0	C	0.0822712	0.166998	0.480553
0	C	0.0760437	0.913555	0.975169
0	C	0.856404	0.902581	0.504898
0	C	0.364752	0.649085	0.00948603
0	C	0.581871	0.662206	0.47984
0	C	0.574137	0.420883	0.975876
0	C	0.356756	0.407201	0.505608
0	C	0.99782	0.0100143	0.0745812
0	C	0.949951	0.0055195	0.415887
0	C	0.94139	0.0605503	0.910598
0	C	0.988712	0.0640994	0.569539
0	C	0.500323	0.512334	0.0769142
0	C	0.448729	0.506823	0.414212
0	C	0.438567	0.557599	0.90846
0	C	0.489876	0.562854	0.57122
0	H	0.025641	0.0355256	0.057005
0	H	0.922769	0.0300023	0.435599
0	H	0.913619	0.0349884	0.928292
0	H	0.0158926	0.0396057	0.54981
0	H	0.528447	0.539238	0.0609725
0	H	0.421524	0.532585	0.433324
0	H	0.410446	0.530645	0.924383
0	H	0.517076	0.537124	0.552072
0	H	0.980545	0.971989	0.0378996
0	H	0.968314	0.965627	0.450913
0	H	0.958679	0.0988054	0.947191
0	H	0.970359	0.104017	0.53452
0	H	0.484097	0.474744	0.0392224
0	H	0.466598	0.46692	0.449685
0	H	0.454787	0.595129	0.946187
0	H	0.472007	0.602819	0.535754
0	C	0.182147	0.621616	0.894496
0	C	0.754242	0.612727	0.587592
0	C	0.75691	0.449468	0.0906731
0	C	0.184566	0.456421	0.397772
0	C	0.679893	0.119138	0.893539
0	C	0.256066	0.110076	0.588416
0	C	0.258949	0.951438	0.0917889
0	C	0.682726	0.959359	0.396847
0	C	0.101437	0.644779	0.0697993
0	C	0.837788	0.634357	0.415981
0	C	0.837589	0.425766	0.915391
0	C	0.10086	0.43467	0.569067
0	C	0.599942	0.147719	0.0697671
0	C	0.339318	0.136156	0.416522
0	C	0.338832	0.92236	0.915487
0	C	0.599477	0.933171	0.568687
0	H	0.12734	0.691002	0.0816297
0	H	0.811455	0.678343	0.403109
0	H	0.811678	0.379542	0.903624
0	H	0.127082	0.390148	0.581757
0	H	0.625678	0.194908	0.0810287
0	H	0.313221	0.181405	0.404179
0	H	0.313106	0.875139	0.904263
0	H	0.625545	0.887735	0.58094
0	C	0.126405	0.606482	0.974934
0	C	0.811564	0.5947	0.50963
0	C	0.812646	0.464365	0.0102111
0	C	0.127136	0.474681	0.475519
0	C	0.624898	0.107543	0.975108
0	C	0.312859	0.0944751	0.509718
0	C	0.313882	0.962714	0.0101294
0	C	0.625914	0.975008	0.475509
0	C	0.0393832	0.57564	0.0965663
0	C	0.901079	0.56987	0.391463
0	C	0.899624	0.494777	0.888499
0	C	0.0377291	0.499787	0.593792
0	C	0.538198	0.0779306	0.0972924
0	C	0.402383	0.0708752	0.39163
0	C	0.400571	0.992083	0.887927
0	C	0.5365	0.998748	0.593776
0	C	0.951469	0.454313	0.137101
0	C	0.99014	0.452476	0.352061
0	C	0.987561	0.615731	0.847782
0	C	0.948687	0.617472	0.632933
0	C	0.450566	0.956779	0.13791
0	C	0.491617	0.955198	0.351708
0	C	0.488239	0.113028	0.847243
0	C	0.447263	0.114422	0.633483
0	O	0.0268264	0.689693	0.273174
0	O	0.917113	0.690533	0.217013
0	O	0.911698	0.379942	0.712115
0	O	0.0216229	0.379653	0.768263
0	O	0.527415	0.194626	0.273149
0	O	0.416433	0.191963	0.217641
0	O	0.41107	0.874828	0.712294
0	O	0.522259	0.877885	0.76785
0	C	0.893872	0.225548	0.00438905
0	C	0.0503233	0.231738	0.485918
0	C	0.0453859	0.844924	0.980755
0	C	0.888329	0.837704	0.499639
0	C	0.394843	0.719443	0.00405939
0	C	0.550122	0.72727	0.485819
0	C	0.544062	0.35046	0.981212
0	C	0.388475	0.341924	0.499832
0	H	0.887986	0.293903	0.979133
0	H	0.0549164	0.301066	0.51069
0	H	0.051294	0.776336	0.00579541
0	H	0.883715	0.768267	0.474995
0	H	0.388621	0.787048	0.978318
0	H	0.554849	0.795673	0.511365
0	H	0.550282	0.282744	0.00685814
0	H	0.383721	0.273272	0.474514
0	C	0.0357417	0.523762	0.0426579
0	C	0.904014	0.516416	0.444899
0	C	0.903313	0.546766	0.942382
0	C	0.0348474	0.553545	0.540452
0	C	0.534639	0.0249318	0.0438022
0	C	0.405192	0.0165103	0.444695
0	C	0.40414	0.0451563	0.9414
0	C	0.533699	0.0533036	0.540766
0	C	0.939032	0.11771	0.064375
0	C	0.00738708	0.11796	0.426392
0	C	0.00019834	0.952953	0.920925
0	C	0.931281	0.951681	0.55901
0	C	0.440417	0.615372	0.0658324
0	C	0.50697	0.616167	0.424789
0	C	0.498491	0.454621	0.919492
0	C	0.431654	0.453446	0.560551
0	C	0.0634963	0.535263	0.00321052
0	C	0.875417	0.525492	0.483266
0	C	0.875575	0.535407	0.981862
0	C	0.0633959	0.544359	0.502021
0	C	0.562269	0.0360348	0.0041516
0	C	0.376564	0.0251111	0.483034
0	C	0.376504	0.0341584	0.981043
0	C	0.562269	0.0446039	0.502343
0	H	0.0592197	0.499233	0.961421
0	H	0.879223	0.488502	0.524833
0	H	0.879871	0.571542	0.0236224
0	H	0.0596505	0.581638	0.460541
0	H	0.558012	0.998971	0.962603
0	H	0.380228	0.987171	0.524379
0	H	0.380752	0.0713167	0.0225647
0	H	0.558609	0.0826506	0.461035
0	C	0.218305	0.729578	0.828996
0	C	0.717702	0.724169	0.65092
0	C	0.720855	0.341397	0.156175
0	C	0.221233	0.344981	0.33453
0	C	0.715733	0.222332	0.82542
0	C	0.219949	0.218261	0.653902
0	C	0.223251	0.848381	0.160087
0	C	0.719035	0.851168	0.33158
0	C	0.0728937	0.634824	0.108894
0	C	0.867311	0.627504	0.37825
0	C	0.866103	0.435614	0.876243
0	C	0.0714037	0.441711	0.606898
0	C	0.571559	0.137888	0.10909
0	C	0.368748	0.129193	0.37867
0	C	0.367205	0.932151	0.876141
0	C	0.570084	0.940173	0.606603
0	H	0.0779465	0.674029	0.149963
0	H	0.862729	0.667711	0.337402
0	H	0.861029	0.396314	0.835211
0	H	0.0759802	0.401353	0.647676
0	H	0.576605	0.177495	0.150007
0	H	0.364217	0.169631	0.337927
0	H	0.362162	0.892501	0.835248
0	H	0.574626	0.899602	0.647298
0	C	0.194237	0.599802	0.951836
0	C	0.743199	0.588739	0.530234
0	C	0.744826	0.471291	0.0333342
0	C	0.195568	0.480065	0.455194
0	C	0.692566	0.102472	0.951214
0	C	0.244607	0.0896854	0.530758
0	C	0.246251	0.968108	0.0341266
0	C	0.694194	0.979425	0.454544
0	H	0.225362	0.589039	0.964974
0	H	0.7123	0.577311	0.516103
0	H	0.713705	0.482153	0.0202124
0	H	0.226466	0.491118	0.46944
0	H	0.723832	0.093804	0.964055
0	H	0.213607	0.0796508	0.516834
0	H	0.214983	0.976932	0.0213424
0	H	0.725201	0.98918	0.468508
0	C	0.213345	0.830438	0.838994
0	C	0.723074	0.824548	0.640115
0	C	0.725908	0.240585	0.146146
0	C	0.215924	0.244553	0.345275
0	C	0.711025	0.323696	0.834103
0	C	0.225325	0.319049	0.644259
0	C	0.228111	0.74703	0.151553
0	C	0.713912	0.750368	0.341474
0	C	0.997675	0.399879	0.983743
0	C	0.942785	0.393362	0.503948
0	C	0.941519	0.670632	0.00117069
0	C	0.996004	0.676546	0.481423
0	C	0.497245	0.899773	0.985354
0	C	0.443161	0.891826	0.503284
0	C	0.441605	0.170255	0.999813
0	C	0.49558	0.177854	0.482227
0	H	0.0208103	0.341153	0.986499
0	H	0.920803	0.331752	0.500311
0	H	0.918452	0.729539	0.998451
0	H	0.0179282	0.738315	0.48475
0	H	0.520688	0.841826	0.98846
0	H	0.420859	0.83097	0.498894
0	H	0.4182	0.2283	0.996731
0	H	0.517809	0.238915	0.48632
0	H	0.99849	0.448658	0.945191
0	H	0.940573	0.440954	0.54262
0	H	0.940685	0.621895	0.0397318
0	H	0.998164	0.628564	0.442892
0	H	0.498037	0.948508	0.9468
0	H	0.440756	0.939049	0.542051
0	H	0.440795	0.121501	0.0383506
0	H	0.497931	0.130325	0.443571
0	C	0.00636365	0.642763	0.178847
0	C	0.93558	0.641597	0.311636
0	C	0.932508	0.427459	0.806178
0	C	0.00319198	0.428117	0.673557
0	C	0.505492	0.145282	0.179892
0	C	0.436499	0.14238	0.311413
0	C	0.433248	0.924602	0.805362
0	C	0.502382	0.92715	0.673964
0	H	0.9752	0.650366	0.19044
0	H	0.966956	0.64964	0.301106
0	H	0.963653	0.419625	0.794535
0	H	0.971832	0.42022	0.684163
0	H	0.474379	0.152576	0.191767
0	H	0.467772	0.150516	0.300506
0	H	0.46436	0.917158	0.793497
0	H	0.47111	0.919045	0.68486
0	H	0.012945	0.720906	0.162377
0	H	0.928879	0.719074	0.328841
0	H	0.925863	0.349369	0.822645
0	H	0.00982205	0.350608	0.656325
0	H	0.511838	0.223751	0.163591
0	H	0.42982	0.220267	0.328151
0	H	0.426836	0.846183	0.821663
0	H	0.509047	0.849278	0.657195
0	C	0.995638	0.46604	0.147228
0	C	0.946038	0.463795	0.340994
0	C	0.943382	0.604157	0.837699
0	C	0.992762	0.605924	0.644268
0	C	0.494653	0.968838	0.148326
0	C	0.447506	0.965453	0.341251
0	C	0.44415	0.10105	0.836858
0	C	0.491357	0.104092	0.644246
0	H	0.00616234	0.444318	0.191963
0	H	0.936225	0.444038	0.295729
0	H	0.932844	0.625776	0.79295
0	H	0.00242614	0.625508	0.68961
0	H	0.505028	0.947492	0.193173
0	H	0.43746	0.945151	0.296137
0	H	0.433756	0.122349	0.792005
0	H	0.501228	0.124176	0.689451
0	H	0.00936865	0.407729	0.120012
0	H	0.932018	0.403983	0.366903
0	H	0.929687	0.662582	0.86488
0	H	0.00691525	0.665818	0.618561
0	H	0.508586	0.910196	0.121544
0	H	0.433824	0.905334	0.367361
0	H	0.430242	0.15975	0.863628
0	H	0.505157	0.164342	0.618362
0	C	0.211876	0.631487	0.852801
0	C	0.723823	0.625187	0.62798
0	C	0.727183	0.439541	0.132355
0	C	0.215042	0.443932	0.357477
0	C	0.709022	0.125806	0.850786
0	C	0.226096	0.120426	0.629623
0	C	0.229849	0.944845	0.134579
0	C	0.712728	0.949078	0.35568
0	C	0.00688312	0.932076	0.121314
0	C	0.939582	0.929996	0.36836
0	C	0.932202	0.138259	0.863781
0	C	0.999097	0.139605	0.61707
0	C	0.508306	0.434174	0.123797
0	C	0.438549	0.431175	0.366683
0	C	0.430585	0.635826	0.861605
0	C	0.50006	0.638395	0.618809
0	O	0.0464311	0.190483	0.052868
0	O	0.900738	0.184696	0.438714
0	O	0.893025	0.879736	0.932774
0	O	0.0379611	0.884995	0.546759
0	O	0.547569	0.69312	0.0557579
0	O	0.400383	0.686267	0.436271
0	O	0.391464	0.376415	0.929685
0	O	0.538234	0.383409	0.549072
0	C	0.823153	0.18011	0.982615
0	C	0.12177	0.194884	0.508186
0	C	0.116043	0.890767	0.00287563
0	C	0.816898	0.874697	0.477298
0	C	0.324819	0.667961	0.980454
0	C	0.621468	0.687821	0.507953
0	C	0.61406	0.402099	0.0049588
0	C	0.317135	0.38149	0.477621
0	H	0.813657	0.256933	0.993133
0	H	0.130194	0.271967	0.496486
0	H	0.125339	0.813391	0.993191
0	H	0.808636	0.797245	0.488519
0	H	0.314157	0.744363	0.989427
0	H	0.630493	0.764851	0.497094
0	H	0.624435	0.324999	0.997043
0	H	0.308371	0.303941	0.487829
0	H	0.800687	0.12714	0.994815
0	H	0.145134	0.143613	0.497268
0	H	0.1386	0.942817	0.989961
0	H	0.793475	0.925377	0.48869
0	H	0.302867	0.613658	0.99285
0	H	0.644459	0.635654	0.496637
0	H	0.636172	0.455143	0.991675
0	H	0.294056	0.432749	0.489643
0	H	0.822864	0.176973	0.935699
0	H	0.12172	0.193927	0.555147
0	H	0.116436	0.895634	0.0497585
0	H	0.816832	0.87668	0.430328
0	H	0.325175	0.662695	0.933698
0	H	0.621293	0.685486	0.554879
0	H	0.613827	0.409555	0.0516392
0	H	0.317108	0.385267	0.430697
0	C	0.166531	0.592815	0.991829
0	C	0.771673	0.580281	0.491448
0	C	0.772525	0.478142	0.993321
0	C	0.16703	0.488678	0.493861
0	C	0.665207	0.097423	0.991823
0	C	0.272853	0.0826243	0.491537
0	C	0.273573	0.972961	0.99346
0	C	0.665933	0.98654	0.493736
0	H	0.175973	0.576169	0.0365322
0	H	0.76303	0.562202	0.446687
0	H	0.763079	0.494733	0.948612
0	H	0.175604	0.506616	0.538657
0	H	0.675184	0.0852873	0.0368638
0	H	0.263843	0.0678864	0.446447
0	H	0.263559	0.98502	0.948419
0	H	0.674933	0.00110634	0.538847
0	C	0.193633	0.893826	0.878381
0	C	0.743065	0.886055	0.600203
0	C	0.745695	0.177376	0.106766
0	C	0.195971	0.182726	0.385085
0	C	0.691274	0.389078	0.872454
0	C	0.245346	0.382057	0.605051
0	C	0.247957	0.681642	0.113319
0	C	0.694201	0.687067	0.380884
0	H	0.173593	0.948779	0.855684
0	H	0.764954	0.93699	0.622404
0	H	0.765822	0.122579	0.129419
0	H	0.174159	0.131711	0.362777
0	H	0.670688	0.441643	0.848838
0	H	0.266698	0.433577	0.627948
0	H	0.268593	0.629299	0.137011
0	H	0.672885	0.635288	0.358124
0	H	0.215435	0.939338	0.904993
0	H	0.721757	0.935576	0.575375
0	H	0.723958	0.131675	0.0801853
0	H	0.21732	0.133239	0.409874
0	H	0.712887	0.437006	0.897721
0	H	0.223996	0.430765	0.579858
0	H	0.226411	0.633472	0.0881017
0	H	0.715771	0.638573	0.405851
0	H	0.176448	0.849566	0.907106
0	H	0.758248	0.840038	0.569849
0	H	0.762786	0.221769	0.0779825
0	H	0.180703	0.228458	0.415468
0	H	0.674611	0.346204	0.902465
0	H	0.261184	0.337191	0.574914
0	H	0.26458	0.724501	0.0832571
0	H	0.678389	0.731613	0.411193
0	C	0.998205	0.175351	0.126095
0	C	0.947905	0.170474	0.364054
0	C	0.941033	0.895093	0.859263
0	C	0.990745	0.899118	0.621349
0	C	0.498586	0.677975	0.12789
0	C	0.448119	0.671876	0.362415
0	C	0.440329	0.392051	0.857411
0	C	0.49049	0.397711	0.622936
0	H	0.0098773	0.145766	0.16933
0	H	0.936203	0.139718	0.321101
0	H	0.929337	0.924502	0.816005
0	H	0.00237986	0.92977	0.664353
0	H	0.509794	0.650693	0.17174
0	H	0.436649	0.642765	0.319074
0	H	0.42913	0.419369	0.813566
0	H	0.501905	0.42673	0.666331
0	H	0.978444	0.240585	0.13426
0	H	0.967016	0.236748	0.355127
0	H	0.960775	0.829806	0.851168
0	H	0.97163	0.832763	0.630161
0	H	0.478176	0.742544	0.13467
0	H	0.46773	0.73758	0.354357
0	H	0.460732	0.327478	0.850638
0	H	0.470889	0.331904	0.630901
0	C	0.11452	0.628767	0.917585
0	C	0.822478	0.618142	0.567117
0	C	0.824534	0.442084	0.0675635
0	C	0.116274	0.451706	0.417966
0	C	0.612499	0.125508	0.917413
0	C	0.324127	0.11466	0.567511
0	C	0.326314	0.944743	0.0678166
0	C	0.61465	0.955155	0.417683
0	H	0.0831428	0.640202	0.904072
0	H	0.853722	0.629936	0.581555
0	H	0.855911	0.430539	0.0810605
0	H	0.0850247	0.440386	0.403374
0	H	0.580985	0.135176	0.904089
0	H	0.35549	0.124847	0.581851
0	H	0.357832	0.934968	0.0810984
0	H	0.583281	0.945246	0.403281
0	O	0.0248211	0.97376	0.169675
0	O	0.919826	0.973619	0.321907
0	O	0.914327	0.0962938	0.815471
0	O	0.0187509	0.0958934	0.663577
0	O	0.529596	0.474168	0.17012
0	O	0.416892	0.474299	0.321646
0	O	0.409541	0.595713	0.815115
0	O	0.521616	0.595095	0.663888
0	N	0.238286	0.743459	0.777122
0	N	0.69791	0.740097	0.702772
0	N	0.700853	0.32729	0.208006
0	N	0.241034	0.329246	0.282667
0	N	0.735601	0.233505	0.773336
0	N	0.20032	0.232064	0.706025
0	N	0.203331	0.837228	0.212122
0	N	0.738652	0.837338	0.279441
0	C	0.14218	0.636932	0.877546
0	C	0.794043	0.627622	0.605905
0	C	0.796874	0.434033	0.10761
0	C	0.144767	0.442115	0.379268
0	C	0.639764	0.131727	0.876746
0	C	0.295962	0.122927	0.606724
0	C	0.299078	0.938659	0.108524
0	C	0.642824	0.946887	0.378475
0	H	0.132857	0.654787	0.833051
0	H	0.802619	0.646283	0.650502
0	H	0.806199	0.416145	0.152107
0	H	0.136245	0.423839	0.334608
0	H	0.630059	0.145626	0.831921
0	H	0.304773	0.138698	0.651596
0	H	0.308803	0.924722	0.153336
0	H	0.634016	0.931419	0.333575
0	C	0.0332568	0.620137	0.231949
0	C	0.909196	0.621237	0.257695
0	C	0.905633	0.450281	0.753083
0	C	0.0297003	0.448401	0.727387
0	C	0.532635	0.122701	0.232734
0	C	0.409839	0.120847	0.257927
0	C	0.406168	0.947356	0.752482
0	C	0.529066	0.948585	0.72745
0	C	0.0332502	0.214035	0.0970687
0	C	0.912891	0.207433	0.393644
0	C	0.906022	0.856456	0.888395
0	C	0.0258077	0.8623	0.591838
0	C	0.533792	0.71722	0.0994378
0	C	0.413053	0.709531	0.391638
0	C	0.40513	0.352712	0.885857
0	C	0.525591	0.360238	0.593741
0	C	0.899077	0.356584	0.17552
0	C	0.042967	0.352807	0.316506
0	C	0.040006	0.712831	0.80901
0	C	0.89588	0.718002	0.667773
0	C	0.39868	0.855326	0.174731
0	C	0.543978	0.85351	0.316819
0	C	0.540162	0.214015	0.810144
0	C	0.39483	0.216609	0.667682
0	H	0.883266	0.379747	0.134273
0	H	0.0581199	0.372805	0.358761
0	H	0.0558547	0.689	0.850104
0	H	0.880903	0.699639	0.625168
0	H	0.383088	0.87646	0.132967
0	H	0.559108	0.871318	0.359403
0	H	0.555752	0.192783	0.851895
0	H	0.379907	0.199935	0.624817
0	H	0.888795	0.401704	0.211004
0	H	0.0534592	0.401613	0.282688
0	H	0.05029	0.668456	0.773243
0	H	0.885202	0.667872	0.70085
0	H	0.387968	0.901508	0.209521
0	H	0.554532	0.903899	0.283735
0	H	0.550915	0.168012	0.775314
0	H	0.384078	0.165328	0.700191
0	C	0.898337	0.243852	0.185632
0	C	0.0443869	0.241302	0.303049
0	C	0.0406808	0.825757	0.799587
0	C	0.894496	0.828934	0.682639
0	C	0.398377	0.74302	0.186402
0	C	0.5453	0.742772	0.301477
0	C	0.540415	0.326367	0.798614
0	C	0.39349	0.326911	0.683969
0	H	0.868932	0.218208	0.194031
0	H	0.0737168	0.21864	0.29257
0	H	0.0701402	0.851902	0.791832
0	H	0.865172	0.851038	0.693418
0	H	0.3689	0.717278	0.194589
0	H	0.574895	0.720811	0.291632
0	H	0.569932	0.352384	0.790828
0	H	0.363869	0.348517	0.693872
0	H	0.918872	0.2224	0.222309
0	H	0.0233548	0.22216	0.266524
0	H	0.0203758	0.84769	0.762754
0	H	0.915537	0.846668	0.719407
0	H	0.418624	0.724071	0.223917
0	H	0.52478	0.726217	0.263881
0	H	0.520357	0.345311	0.760899
0	H	0.413931	0.342457	0.721804
0	H	0.907104	0.201279	0.148588
0	H	0.0367895	0.194503	0.339168
0	H	0.0315758	0.867537	0.836701
0	H	0.902106	0.877164	0.647107
0	H	0.407841	0.699088	0.150253
0	H	0.536874	0.694092	0.336398
0	H	0.530695	0.370091	0.834672
0	H	0.402008	0.376519	0.649508
0	N	0.267717	0.571001	0.803021
0	N	0.667231	0.56881	0.67748
0	N	0.671298	0.499616	0.182177
0	N	0.271654	0.500588	0.308111
0	N	0.76261	0.0584169	0.798452
0	N	0.171195	0.0591076	0.681229
0	N	0.176213	0.0121111	0.186865
0	N	0.767566	0.0107192	0.304053
0	C	0.0882556	0.331019	0.115371
0	C	0.856095	0.31856	0.375547
0	C	0.850873	0.739868	0.870117
0	C	0.0826327	0.751334	0.609947
0	C	0.588371	0.835104	0.11836
0	C	0.356882	0.822536	0.372947
0	C	0.350523	0.234918	0.866749
0	C	0.581817	0.247458	0.612426
0	H	0.0799055	0.374147	0.0759378
0	H	0.863975	0.360243	0.415626
0	H	0.859302	0.696407	0.909407
0	H	0.0747254	0.709991	0.569762
0	H	0.5804	0.879189	0.0791597
0	H	0.364501	0.865344	0.412714
0	H	0.35856	0.190694	0.90588
0	H	0.574152	0.205004	0.572542
0	H	0.108369	0.269151	0.106073
0	H	0.836545	0.254944	0.38394
0	H	0.830836	0.801729	0.879701
0	H	0.102264	0.81488	0.601726
0	H	0.60844	0.773135	0.108986
0	H	0.337243	0.759244	0.381675
0	H	0.330409	0.296698	0.876238
0	H	0.601516	0.310716	0.603855
0	C	0.236309	0.857394	0.78762
0	C	0.700401	0.853629	0.691412
0	C	0.702893	0.213384	0.197432
0	C	0.238607	0.215678	0.293951
0	C	0.734484	0.347827	0.78277
0	C	0.202505	0.346019	0.695808
0	C	0.204595	0.72288	0.202823
0	C	0.736735	0.723427	0.289925
0	H	0.216319	0.893361	0.752381
0	H	0.720643	0.889742	0.726283
0	H	0.722846	0.177406	0.232712
0	H	0.218381	0.179563	0.259067
0	H	0.715155	0.383679	0.746723
0	H	0.222504	0.381254	0.731327
0	H	0.223898	0.687272	0.238985
0	H	0.716814	0.687623	0.25453
0	C	0.0330688	0.907378	0.219832
0	C	0.910084	0.909921	0.271065
0	C	0.905945	0.162457	0.765241
0	C	0.0284578	0.159561	0.714455
0	C	0.536177	0.412893	0.222493
0	C	0.408158	0.41483	0.269024
0	C	0.403097	0.656965	0.762703
0	C	0.530315	0.65443	0.716576
0	H	0.0583417	0.8597	0.211067
0	H	0.882126	0.872134	0.27808
0	H	0.88065	0.210042	0.774034
0	H	0.0564528	0.197265	0.707533
0	H	0.567669	0.392857	0.224722
0	H	0.375967	0.403947	0.266608
0	H	0.371659	0.677524	0.760427
0	H	0.562512	0.665216	0.719087
0	H	0.00693379	0.859957	0.224679
0	H	0.93356	0.853211	0.267773
0	H	0.932033	0.209974	0.760243
0	H	0.00499299	0.216326	0.717694
0	H	0.518017	0.34351	0.218766
0	H	0.423236	0.34075	0.272716
0	H	0.421429	0.726047	0.76641
0	H	0.515254	0.728523	0.712897
0	C	0.26653	0.402684	0.825729
0	C	0.667063	0.400106	0.655376
0	C	0.672337	0.667984	0.15957
0	C	0.271749	0.669225	0.330366
0	C	0.75975	0.891272	0.823652
0	C	0.172286	0.890988	0.65767
0	C	0.179019	0.179265	0.161663
0	C	0.766376	0.178799	0.32769
0	H	0.275203	0.324424	0.825459
0	H	0.657648	0.322419	0.656026
0	H	0.663618	0.746206	0.159941
0	H	0.281156	0.746908	0.329851
0	H	0.767247	0.812269	0.823645
0	H	0.163773	0.812667	0.65838
0	H	0.171515	0.258269	0.161721
0	H	0.77486	0.257145	0.327038
0	C	0.270437	0.924901	0.796214
0	C	0.666562	0.922098	0.682654
0	C	0.668816	0.145767	0.188685
0	C	0.272474	0.14729	0.302684
0	C	0.768904	0.413984	0.792414
0	C	0.168648	0.4142	0.686726
0	C	0.170299	0.656349	0.19311
0	C	0.770717	0.655728	0.299269
0	C	0.287446	0.48395	0.798773
0	C	0.646814	0.482936	0.682047
0	C	0.651507	0.586548	0.186513
0	C	0.292037	0.586541	0.303625
0	C	0.780412	0.968943	0.793304
0	C	0.152282	0.97133	0.686881
0	C	0.158389	0.101557	0.192018
0	C	0.786425	0.0985922	0.298446
0	C	0.0517598	0.682473	0.327873
0	C	0.893076	0.685985	0.161474
0	C	0.886874	0.387324	0.657342
0	C	0.0457712	0.38414	0.823702
0	C	0.552901	0.188308	0.327418
0	C	0.391715	0.187678	0.162677
0	C	0.385692	0.88139	0.657945
0	C	0.546995	0.882021	0.822809
0	H	0.0825271	0.689848	0.317727
0	H	0.862208	0.696379	0.170456
0	H	0.856086	0.380002	0.667379
0	H	0.0766268	0.373928	0.814606
0	H	0.583279	0.200848	0.316535
0	H	0.361393	0.204066	0.172503
0	H	0.355271	0.869231	0.66873
0	H	0.577341	0.866017	0.812965
0	H	0.0467773	0.606807	0.346083
0	H	0.897224	0.609928	0.143261
0	H	0.891913	0.462992	0.639168
0	H	0.0416037	0.460121	0.841998
0	H	0.549748	0.111198	0.344894
0	H	0.393716	0.110005	0.14554
0	H	0.389006	0.95842	0.640445
0	H	0.544871	0.959551	0.840101
0	C	0.234632	0.443489	0.848844
0	C	0.699276	0.43872	0.632106
0	C	0.704222	0.627388	0.136325
0	C	0.239525	0.630458	0.353532
0	C	0.729658	0.936449	0.848949
0	C	0.203077	0.932864	0.632425
0	C	0.209081	0.134122	0.136279
0	C	0.735582	0.136778	0.352864
0	C	0.234729	0.553299	0.836971
0	C	0.700158	0.548712	0.643744
0	C	0.704241	0.51756	0.14817
0	C	0.238693	0.520499	0.341794
0	C	0.730771	0.0454501	0.835142
0	C	0.203206	0.0423843	0.645307
0	C	0.208024	0.0251251	0.150131
0	C	0.735532	0.0272602	0.339949
0	C	0.30028	0.923359	0.755924
0	C	0.637438	0.924157	0.724021
0	C	0.638882	0.146978	0.228827
0	C	0.301587	0.14531	0.261305
0	C	0.800095	0.410214	0.754409
0	C	0.138247	0.413735	0.726075
0	C	0.138931	0.660038	0.230803
0	C	0.801191	0.656062	0.260054
0	H	0.328265	0.895985	0.778784
0	H	0.608619	0.899747	0.702395
0	H	0.610837	0.17363	0.20581
0	H	0.330433	0.1695	0.282966
0	H	0.827458	0.38426	0.779594
0	H	0.109899	0.391516	0.702148
0	H	0.11159	0.685373	0.205331
0	H	0.829567	0.677566	0.284238
0	H	0.307637	0.00106747	0.743171
0	H	0.631654	0.00274985	0.736934
0	H	0.631727	0.0691811	0.241666
0	H	0.307291	0.066733	0.248272
0	H	0.807701	0.487396	0.740964
0	H	0.1324	0.491536	0.740351
0	H	0.131422	0.582866	0.244387
0	H	0.806863	0.578262	0.245605
0	H	0.294895	0.876914	0.717331
0	H	0.642758	0.877604	0.762553
0	H	0.644036	0.193707	0.267349
0	H	0.296316	0.192034	0.222839
0	H	0.795931	0.361555	0.716546
0	H	0.142262	0.364362	0.763628
0	H	0.142835	0.70907	0.268543
0	H	0.79743	0.705864	0.222677
0	C	0.0420192	0.980085	0.268785
0	C	0.906765	0.983808	0.221884
0	C	0.896974	0.0894697	0.71643
0	C	0.031665	0.0856078	0.763611
0	C	0.525753	0.481647	0.27023
0	C	0.421605	0.479498	0.221455
0	C	0.413349	0.587882	0.71502
0	C	0.516788	0.58967	0.764045
0	H	0.017431	0.0317693	0.274068
0	H	0.93399	0.0270923	0.219135
0	H	0.921536	0.0376242	0.711278
0	H	0.0042676	0.0431742	0.766637
0	H	0.49487	0.507329	0.263997
0	H	0.452611	0.502979	0.230316
0	H	0.444191	0.561811	0.721207
0	H	0.485697	0.566805	0.755282
0	H	0.0681704	0.0262121	0.262645
0	H	0.882864	0.0382613	0.225609
0	H	0.870798	0.0434899	0.722646
0	H	0.0552586	0.0303803	0.759622
0	H	0.544342	0.549158	0.274084
0	H	0.404066	0.54835	0.214523
0	H	0.394654	0.520575	0.711273
0	H	0.534098	0.520388	0.770691
0	H	0.0481087	0.938346	0.309416
0	H	0.900622	0.943395	0.180855
0	H	0.890928	0.130935	0.675702
0	H	0.0381982	0.125852	0.804622
0	H	0.529223	0.441859	0.311863
0	H	0.419678	0.437314	0.180582
0	H	0.409937	0.62753	0.673354
0	H	0.518913	0.631483	0.805032
0	F	0.292158	0.673981	0.727944
0	F	0.645115	0.671527	0.75436
0	F	0.646984	0.396455	0.257252
0	F	0.293887	0.398047	0.231246
0	F	0.787006	0.157974	0.721755
0	F	0.148462	0.160412	0.758347
0	F	0.151824	0.912526	0.263562
0	F	0.790398	0.909442	0.227014
0	F	0.308095	0.718331	0.816193
0	F	0.627199	0.717774	0.667218
0	F	0.631018	0.352108	0.169006
0	F	0.3117	0.351664	0.318399
0	F	0.805613	0.201135	0.809449
0	F	0.129696	0.205281	0.671141
0	F	0.133317	0.869157	0.175854
0	F	0.809228	0.864916	0.314271
0	C	0.103156	0.396707	0.165241
0	C	0.8407	0.385664	0.326542
0	C	0.835804	0.674583	0.820159
0	C	0.0979441	0.683755	0.658786
0	C	0.603015	0.899295	0.168937
0	C	0.341843	0.888154	0.32316
0	C	0.335914	0.170847	0.816114
0	C	0.596806	0.181368	0.662033
0	H	0.121047	0.459838	0.151187
0	H	0.824368	0.450719	0.341796
0	H	0.819043	0.609442	0.834376
0	H	0.114318	0.618883	0.643405
0	H	0.624191	0.956573	0.156697
0	H	0.321697	0.946909	0.336581
0	H	0.315271	0.112343	0.828496
0	H	0.616653	0.122103	0.648374
0	H	0.121001	0.355054	0.198411
0	H	0.821195	0.345786	0.294535
0	H	0.816798	0.715718	0.788099
0	H	0.117382	0.723338	0.691008
0	H	0.617214	0.854871	0.20425
0	H	0.32641	0.84513	0.288257
0	H	0.321116	0.215066	0.781189
0	H	0.612549	0.223918	0.696867
0	H	0.0787007	0.431758	0.186103
0	H	0.864816	0.418089	0.303911
0	H	0.86017	0.64236	0.797885
0	H	0.0737852	0.651017	0.681201
0	H	0.5787	0.941299	0.18629
0	H	0.366042	0.928763	0.304696
0	H	0.360338	0.130273	0.798142
0	H	0.572549	0.14133	0.680679
0	B	0.276773	0.682257	0.780086
0	B	0.659204	0.680108	0.701321
0	B	0.662334	0.388306	0.205082
0	B	0.279718	0.38932	0.284244
0	B	0.773037	0.168464	0.774773
0	B	0.162177	0.169936	0.705087
0	B	0.16584	0.902051	0.210574
0	B	0.776701	0.899892	0.28029
0	C	0.037939	0.768197	0.363401
0	C	0.908805	0.770257	0.126726
0	C	0.900721	0.301602	0.621832
0	C	0.0301323	0.299674	0.858389
0	C	0.537715	0.270226	0.364381
0	C	0.408964	0.267089	0.126139
0	C	0.400797	0.799214	0.621077
0	C	0.529844	0.802161	0.859161
0	H	0.0531983	0.768069	0.406483
0	H	0.893152	0.773837	0.08395
0	H	0.885569	0.301928	0.578686
0	H	0.045767	0.296099	0.901173
0	H	0.555119	0.274673	0.405854
0	H	0.390868	0.277293	0.0856202
0	H	0.38345	0.79489	0.579561
0	H	0.547835	0.792199	0.899791
0	H	0.00603653	0.764279	0.367922
0	H	0.940392	0.761221	0.121194
0	H	0.932646	0.305406	0.617479
0	H	0.998526	0.308483	0.863865
0	H	0.506645	0.258257	0.37239
0	H	0.439107	0.248486	0.116092
0	H	0.431904	0.81084	0.613171
0	H	0.499595	0.820169	0.868989
0	H	0.0430946	0.842621	0.34408
0	H	0.905762	0.844816	0.147011
0	H	0.895458	0.227156	0.641045
0	H	0.0332578	0.225198	0.838053
0	H	0.538641	0.345466	0.344044
0	H	0.411285	0.341315	0.14782
0	H	0.399703	0.724035	0.641437
0	H	0.527814	0.727962	0.83744
0	C	0.324432	0.470357	0.771966
0	C	0.609645	0.472137	0.708749
0	C	0.614509	0.599878	0.213336
0	C	0.329182	0.5976	0.276899
0	C	0.814668	0.947257	0.761511
0	C	0.117263	0.954713	0.717924
0	C	0.124096	0.123174	0.223764
0	C	0.821387	0.115475	0.267315
0	H	0.347003	0.526906	0.787294
0	H	0.587645	0.529926	0.693196
0	H	0.592005	0.543139	0.198043
0	H	0.351183	0.539667	0.292242
0	H	0.834871	0.01275	0.758566
0	H	0.0972269	0.0209444	0.716998
0	H	0.103978	0.0575458	0.226843
0	H	0.841432	0.0492661	0.268008
0	H	0.320176	0.479059	0.725145
0	H	0.613852	0.481101	0.755567
0	H	0.618805	0.591268	0.260163
0	H	0.324932	0.589085	0.230063
0	H	0.805194	0.924354	0.717272
0	H	0.125773	0.937961	0.763344
0	H	0.133542	0.146446	0.267948
0	H	0.812799	0.13254	0.221955
0	H	0.337717	0.395458	0.781251
0	H	0.595667	0.398006	0.699553
0	H	0.601128	0.674659	0.204025
0	H	0.34318	0.67165	0.286292
0	H	0.832637	0.885067	0.781487
0	H	0.099508	0.890539	0.699905
0	H	0.106051	0.185091	0.20364
0	H	0.839155	0.17955	0.285427
0	C	0.204789	0.389582	0.878596
0	C	0.728523	0.383054	0.602089
0	C	0.733921	0.681619	0.10645
0	C	0.210211	0.685881	0.383554
0	C	0.700565	0.887538	0.882426
0	C	0.231702	0.880836	0.599489
0	C	0.238083	0.183124	0.102675
0	C	0.706895	0.188616	0.385782
0	H	0.200134	0.311761	0.862128
0	H	0.732526	0.304833	0.618218
0	H	0.73907	0.758727	0.123766
0	H	0.206406	0.764397	0.367854
0	H	0.695645	0.807805	0.869764
0	H	0.236246	0.80153	0.613267
0	H	0.243407	0.262444	0.115917
0	H	0.702365	0.267984	0.372128
0	H	0.175954	0.427284	0.87418
0	H	0.757708	0.418969	0.606499
0	H	0.762603	0.643162	0.109692
0	H	0.180973	0.650287	0.378651
0	H	0.671682	0.925002	0.877406
0	H	0.260803	0.917227	0.603643
0	H	0.266826	0.144915	0.106876
0	H	0.677797	0.152234	0.381443
0	H	0.213487	0.383138	0.924771
0	H	0.719712	0.377543	0.555915
0	H	0.724707	0.690055	0.0605281
0	H	0.218815	0.690461	0.429818
0	H	0.710089	0.888121	0.928477
0	H	0.221983	0.879542	0.553519
0	H	0.228186	0.183936	0.0567499
0	H	0.716526	0.189591	0.43179
