#******************************************
#
# CIF file created by Zeo++
# Zeo++ is an open source package to
# analyze microporous materials
#
#*******************************************

_cell_length_a		76.2581(0)
_cell_length_b		12.1745(0)
_cell_length_c		24.8489(0)
_cell_angle_alpha		90(0)
_cell_angle_beta		105.981(0)
_cell_angle_gamma		90(0)

_symmetry_space_group_name_H-M		'P1'
_symmetry_Int_Tables_number		1
_symmetry_cell_setting		Monoclinic

loop_
_symmetry_equiv_pos_as_xyz
'+x,+y,+z'

loop_
_atom_site_label
_atom_site_type_symbol
_atom_site_fract_x
_atom_site_fract_y
_atom_site_fract_z
0	C	0.101929	0.992611	0.336447
0	C	0.893806	0.998438	0.160603
0	C	0.893247	0.98744	0.659604
0	C	0.101784	0.989479	0.835892
0	C	0.600832	0.493681	0.334421
0	C	0.394703	0.493776	0.162719
0	C	0.394595	0.489283	0.662866
0	C	0.600356	0.490195	0.832551
0	H	0.113683	0.963002	0.36971
0	H	0.881931	0.970003	0.127382
0	H	0.881399	0.0170121	0.626652
0	H	0.113679	0.0193442	0.868582
0	H	0.612762	0.461688	0.366194
0	H	0.382716	0.462531	0.130907
0	H	0.382611	0.520533	0.631042
0	H	0.612401	0.521289	0.864186
0	H	0.100182	0.0809444	0.343667
0	H	0.895846	0.0864671	0.153425
0	H	0.895109	0.899433	0.65194
0	H	0.100037	0.901302	0.84354
0	H	0.599486	0.581872	0.342907
0	H	0.39611	0.582114	0.154631
0	H	0.39599	0.400973	0.654764
0	H	0.599002	0.401742	0.840491
0	H	0.105382	0.986076	0.296357
0	H	0.890393	0.992653	0.200775
0	H	0.889851	0.992714	0.699833
0	H	0.105003	0.995257	0.795413
0	H	0.60374	0.48844	0.293451
0	H	0.391869	0.487819	0.203764
0	H	0.39173	0.495193	0.703876
0	H	0.603061	0.496631	0.791342
0	C	0.0840597	0.763973	0.334569
0	C	0.911202	0.767214	0.162103
0	C	0.910817	0.217513	0.66163
0	C	0.0838523	0.218521	0.834406
0	C	0.58271	0.266474	0.333827
0	C	0.412921	0.26646	0.162671
0	C	0.412565	0.716845	0.662605
0	C	0.582161	0.717182	0.833409
0	H	0.0908126	0.732356	0.376572
0	H	0.904509	0.735348	0.120102
0	H	0.904108	0.248946	0.619546
0	H	0.0905653	0.250695	0.876321
0	H	0.589418	0.234924	0.375873
0	H	0.406319	0.234421	0.120652
0	H	0.405911	0.748121	0.620459
0	H	0.588829	0.749113	0.875401
0	H	0.0924897	0.741137	0.306744
0	H	0.902728	0.744527	0.189801
0	H	0.902308	0.240138	0.689247
0	H	0.0922286	0.24172	0.806489
0	H	0.591123	0.243068	0.306049
0	H	0.4045	0.2426	0.190345
0	H	0.404084	0.740348	0.690164
0	H	0.59052	0.741138	0.805566
0	H	0.0709051	0.721327	0.319368
0	H	0.924352	0.724504	0.177519
0	H	0.923932	0.260555	0.67701
0	H	0.0706275	0.260448	0.819165
0	H	0.569505	0.224384	0.318655
0	H	0.42619	0.225117	0.178062
0	H	0.425751	0.759103	0.677904
0	H	0.568884	0.758518	0.818249
0	C	0.0626077	0.956188	0.269186
0	C	0.93321	0.958379	0.226442
0	C	0.932453	0.0262397	0.727221
0	C	0.0622608	0.0257314	0.77014
0	C	0.561345	0.459461	0.268679
0	C	0.434402	0.460049	0.226772
0	C	0.434088	0.524529	0.727908
0	C	0.560596	0.523681	0.769431
0	H	0.0663624	0.927685	0.231736
0	H	0.929697	0.929943	0.264291
0	H	0.928628	0.0546214	0.764583
0	H	0.0657473	0.0539563	0.732216
0	H	0.565035	0.431786	0.230977
0	H	0.430986	0.43253	0.264924
0	H	0.430406	0.552244	0.765616
0	H	0.563938	0.551286	0.731179
0	H	0.0611155	0.0462642	0.265898
0	H	0.934837	0.0483716	0.229807
0	H	0.934045	0.936231	0.730629
0	H	0.0607585	0.935639	0.767074
0	H	0.55985	0.549577	0.265774
0	H	0.435897	0.550176	0.229495
0	H	0.435646	0.434459	0.730924
0	H	0.559109	0.433548	0.766693
0	H	0.0491633	0.921635	0.267408
0	H	0.946543	0.923193	0.227315
0	H	0.945866	0.061338	0.729062
0	H	0.0488728	0.060317	0.769098
0	H	0.547917	0.4248	0.26694
0	H	0.447774	0.425403	0.22775
0	H	0.447483	0.559521	0.729508
0	H	0.547236	0.558238	0.768671
0	C	0.0714448	0.94883	0.394798
0	C	0.923595	0.950555	0.100718
0	C	0.923733	0.033657	0.601604
0	C	0.0717459	0.0338316	0.895699
0	C	0.570461	0.451756	0.394269
0	C	0.424561	0.451997	0.101203
0	C	0.424793	0.531535	0.602244
0	C	0.570672	0.531393	0.895019
0	H	0.056335	0.946502	0.378754
0	H	0.938724	0.948313	0.116245
0	H	0.938837	0.0359585	0.617774
0	H	0.0566184	0.0361557	0.880074
0	H	0.555343	0.449732	0.378198
0	H	0.439701	0.450022	0.116766
0	H	0.439915	0.533472	0.618268
0	H	0.555528	0.533349	0.879545
0	C	0.0786187	0.971163	0.449191
0	C	0.916243	0.972251	0.0463099
0	C	0.916594	0.0119005	0.547127
0	C	0.0790498	0.0115791	0.950068
0	C	0.577615	0.473138	0.448756
0	C	0.417246	0.473518	0.0467772
0	C	0.417626	0.510392	0.547738
0	C	0.578004	0.509888	0.949446
0	C	0.0660564	0.992727	0.485248
0	C	0.928755	0.993384	0.0100695
0	C	0.92917	0.990712	0.511086
0	C	0.0665107	0.990249	0.986202
0	C	0.565067	0.494169	0.484934
0	C	0.429753	0.494553	0.0104876
0	C	0.430162	0.489477	0.511504
0	C	0.5655	0.48894	0.985765
0	C	0.0518463	0.0611873	0.46809
0	C	0.94308	0.0611254	0.0272431
0	C	0.943384	0.922223	0.528217
0	C	0.052189	0.922524	0.968969
0	C	0.550843	0.562441	0.467827
0	C	0.444085	0.562117	0.0276788
0	C	0.444378	0.421095	0.528559
0	C	0.551167	0.421391	0.968604
0	H	0.0499228	0.104781	0.427811
0	H	0.945117	0.104419	0.0676386
0	H	0.945299	0.87849	0.568451
0	H	0.0501571	0.879317	0.928558
0	H	0.548853	0.6059	0.427472
0	H	0.446187	0.605106	0.0681907
0	H	0.446365	0.377541	0.568884
0	H	0.54906	0.378365	0.928101
0	C	0.0266444	0.97964	0.538337
0	C	0.968056	0.979212	0.956522
0	C	0.968592	0.00395842	0.458043
0	C	0.0272035	0.00456428	0.0396166
0	C	0.525769	0.480772	0.538427
0	C	0.468934	0.4803	0.956567
0	C	0.469453	0.502846	0.457993
0	C	0.526314	0.503465	0.0396229
0	H	0.0131913	0.992211	0.54565
0	H	0.981482	0.991401	0.948967
0	H	0.982049	0.991446	0.450753
0	H	0.0137822	0.992382	0.0472053
0	H	0.512414	0.49398	0.546335
0	H	0.482261	0.493154	0.94842
0	H	0.482811	0.48966	0.450105
0	H	0.512991	0.490663	0.0478112
0	H	0.0367317	0.969003	0.579281
0	H	0.957894	0.968842	0.915694
0	H	0.958512	0.0146537	0.417092
0	H	0.0373705	0.0150765	0.0804269
0	H	0.535984	0.46984	0.579102
0	H	0.458645	0.469685	0.916004
0	H	0.459246	0.513841	0.41731
0	H	0.536611	0.514236	0.0801607
0	H	0.0261413	0.902431	0.514831
0	H	0.968532	0.901994	0.980021
0	H	0.969085	0.0811123	0.481592
0	H	0.0267132	0.0816988	0.016043
0	H	0.525087	0.403577	0.514808
0	H	0.46959	0.403062	0.980153
0	H	0.470131	0.579996	0.481649
0	H	0.525647	0.580597	0.0159443
0	C	0.0394277	0.221348	0.543969
0	C	0.955361	0.221326	0.951556
0	C	0.955792	0.762237	0.45227
0	C	0.0398949	0.762473	0.044763
0	C	0.538245	0.722587	0.543676
0	C	0.45653	0.722436	0.951974
0	C	0.456955	0.261048	0.452609
0	C	0.538709	0.261302	0.0444006
0	H	0.0435437	0.289275	0.520636
0	H	0.951274	0.288815	0.975228
0	H	0.951662	0.69429	0.475558
0	H	0.0439551	0.694804	0.0211453
0	H	0.542253	0.790902	0.520362
0	H	0.45255	0.790356	0.975604
0	H	0.452934	0.192698	0.475873
0	H	0.542667	0.193241	0.020814
0	H	0.0509242	0.204783	0.580934
0	H	0.943797	0.204969	0.91474
0	H	0.944301	0.778895	0.415302
0	H	0.0514683	0.778846	0.0815509
0	H	0.549753	0.706551	0.580684
0	H	0.444957	0.706586	0.915114
0	H	0.445454	0.277171	0.415597
0	H	0.550293	0.277182	0.0812279
0	H	0.0279349	0.250686	0.558817
0	H	0.966772	0.25121	0.936477
0	H	0.967281	0.732857	0.437419
0	H	0.0284788	0.732828	0.0598911
0	H	0.52669	0.751027	0.558485
0	H	0.468005	0.751398	0.936928
0	H	0.468507	0.232584	0.437798
0	H	0.527234	0.23253	0.059498
0	C	0.0126267	0.131701	0.438384
0	C	0.982399	0.130663	0.0564779
0	C	0.982598	0.851659	0.557904
0	C	0.012864	0.852835	0.939773
0	C	0.511682	0.631683	0.437923
0	C	0.483346	0.630711	0.0570547
0	C	0.483529	0.351695	0.558398
0	C	0.511903	0.352772	0.939243
0	H	0.0156581	0.199997	0.41341
0	H	0.97951	0.198825	0.0817817
0	H	0.97956	0.78329	0.582822
0	H	0.015742	0.784429	0.914595
0	H	0.514714	0.70005	0.412983
0	H	0.480447	0.698968	0.0822894
0	H	0.480493	0.283248	0.583279
0	H	0.514794	0.284295	0.914124
0	H	0.0010171	0.156098	0.454037
0	H	0.993943	0.155016	0.0404966
0	H	0.994205	0.827287	0.542234
0	H	0.00131284	0.828758	0.955783
0	H	0.499987	0.655658	0.453263
0	H	0.494963	0.654684	0.0413257
0	H	0.495217	0.327742	0.543019
0	H	0.500276	0.329057	0.954977
0	H	0.00837471	0.0607209	0.410479
0	H	0.986699	0.0594321	0.0841767
0	H	0.986856	0.92256	0.585862
0	H	0.00857532	0.923883	0.91194
0	H	0.507581	0.560444	0.410093
0	H	0.487518	0.559299	0.0847194
0	H	0.487642	0.422845	0.586285
0	H	0.507748	0.424022	0.911457
0	C	0.0702015	0.932655	0.539345
0	C	0.924485	0.933349	0.956047
0	C	0.925031	0.0508679	0.457015
0	C	0.0707663	0.0502203	0.0402523
0	C	0.569205	0.434394	0.53915
0	C	0.425496	0.434967	0.9563
0	C	0.426023	0.549252	0.457288
0	C	0.56976	0.54855	0.0399568
0	C	0.0731417	0.991347	0.58979
0	C	0.921454	0.991903	0.905549
0	C	0.922092	0.992234	0.406556
0	C	0.0737944	0.991632	0.0907344
0	C	0.572105	0.493558	0.589456
0	C	0.422512	0.494076	0.90597
0	C	0.423127	0.490078	0.406988
0	C	0.572741	0.489437	0.0902844
0	H	0.073553	0.0808848	0.58936
0	H	0.921089	0.0814288	0.905948
0	H	0.921675	0.902695	0.406966
0	H	0.0741556	0.902107	0.0903268
0	H	0.572567	0.583115	0.588831
0	H	0.422101	0.583623	0.906598
0	H	0.422659	0.400519	0.407623
0	H	0.573149	0.399891	0.089656
0	C	0.0752506	0.935804	0.640254
0	C	0.919202	0.936204	0.855071
0	C	0.919988	0.0478017	0.3561
0	C	0.0760477	0.04731	0.141227
0	C	0.574087	0.438516	0.640005
0	C	0.420384	0.438942	0.855383
0	C	0.421154	0.545071	0.356428
0	C	0.574865	0.544565	0.140878
0	H	0.077111	0.981609	0.679241
0	H	0.917287	0.981851	0.815996
0	H	0.918123	0.00202799	0.317106
0	H	0.0779676	0.00163237	0.180285
0	H	0.575892	0.484722	0.678847
0	H	0.41853	0.485035	0.816468
0	H	0.419353	0.498829	0.317597
0	H	0.57671	0.498432	0.17978
0	C	0.0746285	0.820587	0.641029
0	C	0.919783	0.820971	0.854388
0	C	0.92062	0.163022	0.355346
0	C	0.0754688	0.162539	0.141933
0	C	0.573399	0.323318	0.641074
0	C	0.421021	0.32373	0.854367
0	C	0.421848	0.660269	0.355338
0	C	0.574232	0.659776	0.141914
0	C	0.0731119	0.761599	0.59149
0	C	0.921369	0.762081	0.904
0	C	0.922136	0.221969	0.404899
0	C	0.0738792	0.221452	0.0923222
0	C	0.571914	0.263882	0.591682
0	C	0.42257	0.264309	0.903805
0	C	0.423328	0.719735	0.404722
0	C	0.572684	0.719186	0.0924689
0	H	0.0734535	0.671894	0.59236
0	H	0.920985	0.672381	0.903148
0	H	0.9218	0.311676	0.404049
0	H	0.0742632	0.311153	0.0931867
0	H	0.572175	0.174176	0.592736
0	H	0.422256	0.174615	0.902726
0	H	0.423071	0.809441	0.403658
0	H	0.572997	0.808882	0.093549
0	C	0.0708407	0.817424	0.540903
0	C	0.923778	0.818108	0.954584
0	C	0.924396	0.1661	0.45547
0	C	0.0714696	0.165465	0.0417327
0	C	0.569766	0.319167	0.540985
0	C	0.424859	0.319726	0.95452
0	C	0.425465	0.664478	0.455422
0	C	0.570396	0.663792	0.0417495
0	H	0.0692797	0.771083	0.502324
0	H	0.925392	0.771897	0.993209
0	H	0.925952	0.212426	0.494053
0	H	0.0698525	0.21168	0.00310638
0	H	0.568234	0.272383	0.502541
0	H	0.42644	0.273027	0.992996
0	H	0.42699	0.711304	0.493854
0	H	0.568813	0.710492	0.00327213
0	C	0.0743197	0.764176	0.693703
0	C	0.920064	0.764399	0.801742
0	C	0.920926	0.219446	0.302667
0	C	0.0751833	0.219083	0.194584
0	C	0.573057	0.267462	0.69388
0	C	0.421337	0.267751	0.801585
0	C	0.422188	0.716075	0.302513
0	C	0.573912	0.715743	0.1947
0	C	0.0905477	0.738766	0.734999
0	C	0.903846	0.738874	0.760461
0	C	0.904699	0.244884	0.261387
0	C	0.091402	0.244625	0.235877
0	C	0.589286	0.242192	0.735208
0	C	0.405119	0.242356	0.760272
0	C	0.405959	0.741346	0.261194
0	C	0.590129	0.741139	0.236034
0	C	0.108285	0.757872	0.726246
0	C	0.886094	0.758028	0.769116
0	C	0.886963	0.225835	0.270169
0	C	0.109155	0.225494	0.227237
0	C	0.607016	0.261582	0.726452
0	C	0.387375	0.261801	0.768926
0	C	0.388231	0.722046	0.269983
0	C	0.607876	0.721697	0.227407
0	H	0.108806	0.794585	0.68662
0	H	0.885556	0.794793	0.808714
0	H	0.886446	0.189233	0.309821
0	H	0.109697	0.188692	0.187651
0	H	0.607534	0.298295	0.686811
0	H	0.386838	0.298593	0.808531
0	H	0.387716	0.685462	0.309654
0	H	0.608417	0.684879	0.187812
0	C	0.123857	0.729779	0.765881
0	C	0.870535	0.72998	0.729428
0	C	0.871389	0.253806	0.230523
0	C	0.124713	0.253613	0.266928
0	C	0.622595	0.233938	0.766165
0	C	0.37181	0.234181	0.729162
0	C	0.37265	0.749576	0.230261
0	C	0.623439	0.749366	0.26718
0	H	0.137256	0.743175	0.75922
0	H	0.857125	0.743468	0.736001
0	H	0.857992	0.240466	0.237208
0	H	0.138123	0.240115	0.260371
0	H	0.635991	0.247706	0.759574
0	H	0.358402	0.248051	0.735657
0	H	0.359256	0.735893	0.236882
0	H	0.636848	0.735486	0.260702
0	C	0.122969	0.680923	0.817718
0	C	0.871448	0.681058	0.677624
0	C	0.872269	0.302447	0.178627
0	C	0.123792	0.302604	0.318708
0	C	0.621726	0.185213	0.818047
0	C	0.372705	0.185342	0.677325
0	C	0.373511	0.798062	0.178316
0	C	0.622535	0.798259	0.318995
0	H	0.135739	0.658963	0.84838
0	H	0.858682	0.659208	0.646914
0	H	0.859495	0.324219	0.147938
0	H	0.136554	0.324559	0.349412
0	H	0.634504	0.163633	0.848788
0	H	0.359934	0.163827	0.646545
0	H	0.36073	0.81948	0.147552
0	H	0.635303	0.819848	0.34978
0	C	0.106573	0.663823	0.828167
0	C	0.887853	0.663804	0.667265
0	C	0.888662	0.319572	0.168163
0	C	0.107382	0.3198	0.329053
0	C	0.605333	0.16781	0.828457
0	C	0.389108	0.167782	0.667009
0	C	0.389901	0.815453	0.167884
0	C	0.606127	0.81578	0.329291
0	H	0.105794	0.627773	0.867682
0	H	0.888645	0.627714	0.627771
0	H	0.889433	0.35545	0.128603
0	H	0.106583	0.355941	0.36853
0	H	0.604559	0.131976	0.868008
0	H	0.389897	0.131873	0.627487
0	H	0.390669	0.851116	0.128289
0	H	0.60533	0.851733	0.368797
0	C	0.0896683	0.691859	0.787185
0	C	0.904747	0.691835	0.708313
0	C	0.905573	0.291717	0.209175
0	C	0.0904954	0.291668	0.288016
0	C	0.588416	0.195376	0.787423
0	C	0.406014	0.195386	0.708104
0	C	0.406824	0.788058	0.208946
0	C	0.589228	0.788113	0.288196
0	C	0.0725881	0.672907	0.797047
0	C	0.921836	0.672856	0.698571
0	C	0.922649	0.310753	0.199308
0	C	0.0734016	0.310581	0.297754
0	C	0.571344	0.1763	0.797322
0	C	0.423096	0.176289	0.698333
0	C	0.423891	0.807237	0.199045
0	C	0.572142	0.80717	0.297961
0	C	0.0563185	0.693729	0.754647
0	C	0.938105	0.693869	0.740967
0	C	0.938922	0.28997	0.241714
0	C	0.0571385	0.289533	0.255359
0	C	0.555072	0.197458	0.754996
0	C	0.439366	0.197658	0.740657
0	C	0.440167	0.786143	0.241383
0	C	0.555879	0.785776	0.255633
0	C	0.038584	0.669177	0.76217
0	C	0.955844	0.669435	0.733466
0	C	0.956654	0.314627	0.234201
0	C	0.0393964	0.313916	0.26286
0	C	0.537339	0.17355	0.762691
0	C	0.457108	0.173882	0.733005
0	C	0.457897	0.810181	0.2337
0	C	0.538134	0.809494	0.263287
0	H	0.0380633	0.634789	0.802263
0	H	0.956381	0.634817	0.693438
0	H	0.95717	0.349151	0.194129
0	H	0.0388551	0.348458	0.302902
0	H	0.536837	0.139448	0.802849
0	H	0.457631	0.139494	0.692926
0	H	0.458395	0.844416	0.193564
0	H	0.537608	0.843805	0.303379
0	C	0.0230101	0.687303	0.72048
0	C	0.971416	0.688009	0.775106
0	C	0.972232	0.296392	0.275866
0	C	0.0238285	0.295422	0.221205
0	C	0.521754	0.19204	0.721113
0	C	0.472688	0.192906	0.774531
0	C	0.473486	0.791606	0.275259
0	C	0.522557	0.790532	0.221749
0	H	0.00965675	0.667954	0.725799
0	H	0.984773	0.668813	0.769789
0	H	0.985583	0.315825	0.270555
0	H	0.0104694	0.314588	0.22652
0	H	0.508395	0.173254	0.726579
0	H	0.486053	0.174276	0.769072
0	H	0.486843	0.810498	0.269802
0	H	0.509191	0.809117	0.227209
0	C	0.02389	0.732915	0.66799
0	C	0.97052	0.733892	0.827521
0	C	0.971355	0.250544	0.328308
0	C	0.0247262	0.249641	0.16877
0	C	0.522634	0.237399	0.668577
0	C	0.47179	0.23862	0.826974
0	C	0.472609	0.746017	0.327747
0	C	0.523457	0.744918	0.169287
0	H	0.0111698	0.746506	0.635531
0	H	0.983232	0.747939	0.859938
0	H	0.984078	0.236791	0.360735
0	H	0.0120153	0.23569	0.136338
0	H	0.509901	0.251142	0.636205
0	H	0.484512	0.25294	0.859298
0	H	0.485345	0.732134	0.360091
0	H	0.510736	0.730675	0.136951
0	C	0.0403091	0.758413	0.659492
0	C	0.954088	0.759098	0.836004
0	C	0.954937	0.225038	0.336808
0	C	0.0411577	0.224401	0.160295
0	C	0.539046	0.262481	0.659919
0	C	0.455361	0.263346	0.835603
0	C	0.456199	0.720912	0.336406
0	C	0.539886	0.720175	0.16066
0	H	0.0410814	0.793486	0.619738
0	H	0.953295	0.79428	0.875718
0	H	0.954167	0.189801	0.37653
0	H	0.0419496	0.18927	0.120571
0	H	0.539795	0.297584	0.62014
0	H	0.454586	0.298589	0.875332
0	H	0.455452	0.685649	0.376154
0	H	0.54066	0.684979	0.120923
0	C	0.0571983	0.7393	0.702356
0	C	0.937206	0.739611	0.793179
0	C	0.938046	0.244298	0.293985
0	C	0.0580401	0.243834	0.203139
0	C	0.555944	0.242942	0.702669
0	C	0.438473	0.243345	0.792894
0	C	0.439299	0.740569	0.293692
0	C	0.556774	0.740133	0.203385
0	C	0.071465	0.630013	0.85192
0	C	0.923062	0.629853	0.643847
0	C	0.923769	0.353609	0.144422
0	C	0.0721714	0.353605	0.352472
0	C	0.570234	0.132957	0.852133
0	C	0.424309	0.132829	0.643671
0	C	0.425	0.85056	0.144227
0	C	0.570926	0.850654	0.352619
0	C	0.0718374	0.702548	0.89611
0	C	0.922834	0.702391	0.599774
0	C	0.923398	0.281056	0.100246
0	C	0.0724195	0.281092	0.396567
0	C	0.570577	0.205084	0.89646
0	C	0.424104	0.204949	0.599455
0	C	0.424654	0.778438	0.0999011
0	C	0.571145	0.778558	0.396856
0	H	0.0734629	0.79058	0.890584
0	H	0.921121	0.790387	0.605146
0	H	0.921775	0.193023	0.10578
0	H	0.0741454	0.193103	0.39122
0	H	0.572189	0.293206	0.891113
0	H	0.422402	0.293034	0.604641
0	H	0.42304	0.690317	0.105245
0	H	0.572855	0.690476	0.391688
0	C	0.0701511	0.662293	0.947066
0	C	0.924785	0.662123	0.549141
0	C	0.925081	0.321273	0.0492757
0	C	0.070465	0.32139	0.447195
0	C	0.568889	0.164295	0.94732
0	C	0.426052	0.164141	0.548914
0	C	0.426341	0.819209	0.0490323
0	C	0.569196	0.819389	0.447396
0	H	0.0703899	0.719055	0.981252
0	H	0.924662	0.718785	0.515009
0	H	0.924835	0.264486	0.0150953
0	H	0.0705933	0.264729	0.481331
0	H	0.569111	0.22076	0.981606
0	H	0.425944	0.220497	0.514678
0	H	0.426109	0.762735	0.0147452
0	H	0.569307	0.763024	0.481629
0	C	0.0681118	0.549161	0.954626
0	C	0.926943	0.549022	0.541829
0	C	0.927131	0.434389	0.0417034
0	C	0.0682952	0.434486	0.454489
0	C	0.566876	0.0510844	0.954675
0	C	0.428184	0.0509566	0.541806
0	C	0.428368	0.932408	0.041679
0	C	0.567059	0.93257	0.454498
0	C	0.0680554	0.476709	0.910578
0	C	0.926841	0.476553	0.585729
0	C	0.92719	0.506872	0.0857467
0	C	0.0683763	0.506919	0.410553
0	C	0.566867	0.979087	0.910476
0	C	0.428038	0.978953	0.585865
0	C	0.428383	0.00441505	0.0858843
0	C	0.567187	0.00453934	0.410408
0	H	0.0667772	0.388534	0.916263
0	H	0.928206	0.388398	0.580185
0	H	0.928476	0.595038	0.0800548
0	H	0.0669964	0.595071	0.416073
0	H	0.565632	0.890844	0.916004
0	H	0.429359	0.890727	0.580478
0	H	0.429629	0.0926516	0.0803618
0	H	0.565857	0.0927644	0.415779
0	C	0.0696785	0.51684	0.859562
0	C	0.924937	0.516696	0.636414
0	C	0.925557	0.466777	0.136755
0	C	0.0702718	0.466753	0.359868
0	C	0.568489	0.019678	0.859548
0	C	0.426141	0.019564	0.636465
0	C	0.42675	0.963838	0.136801
0	C	0.569075	0.963914	0.359803
0	H	0.0696	0.460302	0.825432
0	H	0.924871	0.460191	0.670441
0	H	0.92563	0.52334	0.170873
0	H	0.0703141	0.523219	0.325802
0	H	0.568445	0.963393	0.825321
0	H	0.426044	0.963319	0.670593
0	H	0.426791	0.0201353	0.171022
0	H	0.569151	0.0201273	0.325644
0	C	0.0663229	0.50602	0.0087735
0	C	0.928898	0.505934	0.487828
0	C	0.928919	0.477472	0.987543
0	C	0.0663412	0.477608	0.508483
0	C	0.565106	0.00713484	0.00868713
0	C	0.430112	0.00704949	0.487942
0	C	0.430137	0.976329	0.98766
0	C	0.565131	0.976494	0.50836
0	C	0.0519553	0.447594	0.0137821
0	C	0.943297	0.447518	0.483101
0	C	0.943289	0.535874	0.982513
0	C	0.0519311	0.53593	0.513205
0	C	0.55091	0.946784	0.0135049
0	C	0.444342	0.946681	0.483397
0	C	0.444334	0.0366665	0.982818
0	C	0.550889	0.0367636	0.512902
0	H	0.0520519	0.415805	0.0556364
0	H	0.943271	0.415779	0.441283
0	H	0.943191	0.567591	0.940645
0	H	0.0519509	0.56766	0.555022
0	H	0.551108	0.914103	0.0552693
0	H	0.444208	0.914026	0.441668
0	H	0.444132	0.0692866	0.941038
0	H	0.551016	0.0693943	0.554631
0	C	0.0324523	0.293841	0.918016
0	C	0.962587	0.293161	0.57883
0	C	0.962774	0.689798	0.0781993
0	C	0.0326374	0.690412	0.417553
0	C	0.531601	0.792638	0.917451
0	C	0.463439	0.791934	0.579389
0	C	0.463626	0.190992	0.07878
0	C	0.531785	0.19163	0.416984
0	H	0.0410968	0.229212	0.943027
0	H	0.953972	0.228802	0.553471
0	H	0.954139	0.754381	0.05312
0	H	0.0412777	0.754667	0.442922
0	H	0.540257	0.727933	0.942354
0	H	0.454811	0.727508	0.554134
0	H	0.454979	0.255651	0.0538072
0	H	0.540438	0.25596	0.442249
0	H	0.0386706	0.319479	0.885011
0	H	0.956263	0.318415	0.61164
0	H	0.956532	0.664224	0.111159
0	H	0.0389277	0.665218	0.384657
0	H	0.537836	0.818753	0.884565
0	H	0.457099	0.817664	0.612083
0	H	0.457367	0.164943	0.111619
0	H	0.538093	0.165955	0.384206
0	H	0.0191494	0.25656	0.897482
0	H	0.975849	0.255572	0.599547
0	H	0.976072	0.727099	0.0987796
0	H	0.0193745	0.728103	0.396943
0	H	0.518321	0.755235	0.896758
0	H	0.476677	0.754213	0.600265
0	H	0.476901	0.228418	0.0995202
0	H	0.518546	0.229445	0.396211
0	C	0.0202101	0.535078	0.91968
0	C	0.974907	0.534665	0.57768
0	C	0.975029	0.448558	0.0767017
0	C	0.0203136	0.44889	0.418575
0	C	0.519089	0.033268	0.919558
0	C	0.476032	0.0328324	0.577809
0	C	0.476154	0.950362	0.0768312
0	C	0.519189	0.950714	0.41845
0	H	0.0175155	0.601615	0.946458
0	H	0.977637	0.601189	0.550948
0	H	0.977735	0.381959	0.0499798
0	H	0.0175987	0.382247	0.445265
0	H	0.516477	0.0997494	0.946508
0	H	0.478679	0.0992853	0.550895
0	H	0.478778	0.883828	0.0499314
0	H	0.516556	0.884151	0.445325
0	H	0.0073783	0.516455	0.887932
0	H	0.987706	0.516137	0.609589
0	H	0.987853	0.467252	0.108474
0	H	0.00750322	0.467464	0.386724
0	H	0.5062	0.0147528	0.888047
0	H	0.488892	0.014402	0.609473
0	H	0.489037	0.968947	0.108365
0	H	0.50632	0.969192	0.386842
0	H	0.0300496	0.566339	0.898172
0	H	0.965008	0.565909	0.598955
0	H	0.965178	0.417348	0.098182
0	H	0.0301971	0.417755	0.397216
0	H	0.528844	0.0646678	0.897766
0	H	0.466219	0.0642247	0.599372
0	H	0.466389	0.919	0.0985957
0	H	0.528988	0.919424	0.396807
0	C	0.0140382	0.370302	0.00580442
0	C	0.981284	0.369949	0.491835
0	C	0.981218	0.613133	0.99052
0	C	0.0139521	0.613415	0.504538
0	C	0.51324	0.866854	0.00570438
0	C	0.482084	0.866517	0.491919
0	C	0.482012	0.116589	0.990621
0	C	0.513155	0.11685	0.504449
0	H	0.0191446	0.296922	0.0310777
0	H	0.976221	0.296566	0.466495
0	H	0.976104	0.686367	0.965137
0	H	0.0190351	0.686647	0.529983
0	H	0.518498	0.793326	0.0306698
0	H	0.476875	0.792929	0.466922
0	H	0.476747	0.18998	0.965552
0	H	0.518382	0.190294	0.529548
0	H	0.000339414	0.351262	0.978832
0	H	0.994957	0.350825	0.519108
0	H	0.994906	0.632353	0.0175201
0	H	0.000284104	0.632738	0.477296
0	H	0.499514	0.847546	0.979013
0	H	0.495791	0.847216	0.518897
0	H	0.495729	0.136068	0.0173374
0	H	0.499453	0.13634	0.477499
0	H	0.0125075	0.436169	0.0345353
0	H	0.982895	0.435773	0.463181
0	H	0.982776	0.547147	0.961888
0	H	0.0123248	0.547442	0.53309
0	H	0.511745	0.932164	0.0347939
0	H	0.483646	0.931742	0.462872
0	H	0.483533	0.0511657	0.961624
0	H	0.511576	0.0514788	0.5334
0	C	0.0817537	0.532997	0.0593992
0	C	0.913529	0.533044	0.437023
0	C	0.913487	0.450521	0.936925
0	C	0.0817149	0.450554	0.559292
0	C	0.580422	0.0347716	0.0594845
0	C	0.41486	0.0347932	0.436966
0	C	0.414819	0.94874	0.93687
0	C	0.580386	0.948801	0.559346
0	C	0.0781083	0.561318	0.107346
0	C	0.917302	0.561286	0.389278
0	C	0.917123	0.422179	0.888967
0	C	0.0779373	0.422277	0.607025
0	C	0.57669	0.0630238	0.107322
0	C	0.418718	0.0629618	0.389336
0	C	0.418542	0.920465	0.889019
0	C	0.576522	0.920599	0.606963
0	H	0.0635713	0.565874	0.10746
0	H	0.931877	0.565499	0.389471
0	H	0.93166	0.41757	0.888849
0	H	0.0633616	0.41802	0.60682
0	H	0.562141	0.0673459	0.107277
0	H	0.433305	0.0669662	0.389688
0	H	0.43309	0.916067	0.889061
0	H	0.561934	0.916559	0.606597
0	C	0.0775655	0.550794	0.226241
0	C	0.918292	0.551608	0.270662
0	C	0.917701	0.43248	0.770096
0	C	0.0769609	0.432159	0.725656
0	C	0.576249	0.0520044	0.226415
0	C	0.41962	0.0525214	0.270561
0	C	0.41902	0.931468	0.769977
0	C	0.575636	0.931107	0.725776
0	H	0.0855939	0.550687	0.270509
0	H	0.910356	0.551584	0.226295
0	H	0.909681	0.432685	0.725821
0	H	0.0849189	0.432503	0.770003
0	H	0.584248	0.0539117	0.270711
0	H	0.411714	0.0542993	0.226164
0	H	0.411029	0.929799	0.725671
0	H	0.583564	0.929516	0.770154
0	H	0.072714	0.465898	0.215863
0	H	0.923183	0.466794	0.281039
0	H	0.922598	0.517288	0.780496
0	H	0.0720375	0.516875	0.715164
0	H	0.571686	0.966368	0.216795
0	H	0.42423	0.967002	0.280273
0	H	0.423632	0.0169971	0.779682
0	H	0.571001	0.0165635	0.716003
0	H	0.0655675	0.603286	0.222157
0	H	0.930272	0.604416	0.275044
0	H	0.92967	0.379723	0.774192
0	H	0.0650021	0.379247	0.721422
0	H	0.564077	0.103258	0.221769
0	H	0.431769	0.104108	0.275454
0	H	0.431161	0.879941	0.7746
0	H	0.563502	0.879443	0.720997
0	C	0.114353	0.52497	0.202307
0	C	0.881336	0.52537	0.293572
0	C	0.880907	0.458827	0.793973
0	C	0.113912	0.45812	0.70272
0	C	0.612966	0.0266184	0.202111
0	C	0.382721	0.0269648	0.293766
0	C	0.382289	0.957184	0.794193
0	C	0.612525	0.95651	0.702527
0	H	0.112454	0.435227	0.197046
0	H	0.883276	0.435652	0.298889
0	H	0.882827	0.548528	0.799416
0	H	0.111977	0.547857	0.697494
0	H	0.611084	0.936768	0.197467
0	H	0.384642	0.937132	0.298419
0	H	0.384189	0.0470017	0.798999
0	H	0.610608	0.0463572	0.697958
0	H	0.120957	0.539924	0.247018
0	H	0.874799	0.540174	0.248809
0	H	0.874331	0.444219	0.749214
0	H	0.120468	0.443138	0.747453
0	H	0.619682	0.0427247	0.246646
0	H	0.376071	0.0429966	0.249184
0	H	0.3756	0.941382	0.74961
0	H	0.619192	0.940315	0.747081
0	H	0.123824	0.551628	0.178613
0	H	0.871799	0.551859	0.31707
0	H	0.871402	0.432037	0.817524
0	H	0.123429	0.431712	0.679136
0	H	0.622335	0.0525556	0.177908
0	H	0.373287	0.0526873	0.317785
0	H	0.372888	0.931117	0.818263
0	H	0.621941	0.930872	0.678432
0	C	0.09497	0.748568	0.18417
0	C	0.900797	0.749075	0.312349
0	C	0.900216	0.235018	0.812097
0	C	0.0944196	0.234504	0.683969
0	C	0.593513	0.250217	0.184161
0	C	0.402268	0.250624	0.312321
0	C	0.401679	0.733418	0.81209
0	C	0.592953	0.732917	0.683974
0	H	0.104208	0.772072	0.224971
0	H	0.891645	0.772881	0.271462
0	H	0.891027	0.211636	0.7712
0	H	0.10362	0.210665	0.724774
0	H	0.60275	0.274003	0.224916
0	H	0.393126	0.274675	0.271461
0	H	0.392492	0.709778	0.771232
0	H	0.60215	0.708832	0.724743
0	H	0.0818934	0.790619	0.179856
0	H	0.913922	0.790749	0.316911
0	H	0.913285	0.19275	0.816611
0	H	0.0812964	0.192949	0.679609
0	H	0.58041	0.291976	0.179873
0	H	0.415423	0.291965	0.316865
0	H	0.414777	0.691463	0.816566
0	H	0.579802	0.691671	0.679649
0	H	0.100859	0.780081	0.151504
0	H	0.894869	0.780787	0.344877
0	H	0.894246	0.203612	0.844601
0	H	0.100276	0.202689	0.651305
0	H	0.599367	0.281868	0.151438
0	H	0.396371	0.282543	0.344882
0	H	0.395745	0.701829	0.844646
0	H	0.598775	0.700914	0.651265
0	C	0.100245	0.529731	0.0509669
0	C	0.89502	0.530068	0.44538
0	C	0.894995	0.453829	0.945362
0	C	0.100222	0.453556	0.550927
0	C	0.598931	0.0317586	0.0512248
0	C	0.396333	0.0320614	0.445146
0	C	0.396309	0.951814	0.945124
0	C	0.598912	0.951573	0.551166
0	C	0.112831	0.614024	0.0722731
0	C	0.882465	0.61454	0.424228
0	C	0.882408	0.369557	0.924053
0	C	0.112788	0.369158	0.572135
0	C	0.611457	0.116447	0.0722614
0	C	0.383837	0.116909	0.424249
0	C	0.383781	0.867155	0.924077
0	C	0.611421	0.86681	0.572123
0	H	0.10939	0.679135	0.0978747
0	H	0.885896	0.679464	0.398531
0	H	0.885845	0.304452	0.898442
0	H	0.109364	0.304265	0.597861
0	H	0.607972	0.181812	0.0976444
0	H	0.38731	0.182079	0.398765
0	H	0.387263	0.801789	0.89869
0	H	0.607955	0.801666	0.597634
0	C	0.129585	0.617079	0.0599391
0	C	0.86575	0.617953	0.436836
0	C	0.865654	0.366501	0.936387
0	C	0.129502	0.365752	0.559522
0	C	0.628209	0.1195	0.0599094
0	C	0.367123	0.120321	0.436868
0	C	0.367027	0.864118	0.936416
0	C	0.628136	0.863423	0.55951
0	H	0.139401	0.681916	0.0772945
0	H	0.855979	0.682992	0.419604
0	H	0.855838	0.301674	0.919027
0	H	0.139279	0.30076	0.576794
0	H	0.638002	0.184621	0.0770759
0	H	0.357372	0.185628	0.419815
0	H	0.357233	0.799014	0.919239
0	H	0.637893	0.798173	0.576609
0	C	0.133643	0.538894	0.0235455
0	C	0.861662	0.539881	0.473218
0	C	0.861596	0.444659	0.972794
0	C	0.133577	0.443714	0.523064
0	C	0.632288	0.0409544	0.0237321
0	C	0.363015	0.0419055	0.473044
0	C	0.362948	0.942645	0.972603
0	C	0.632231	0.941732	0.523258
0	C	0.121553	0.451334	0.00448418
0	C	0.873747	0.452221	0.492178
0	C	0.87369	0.532213	0.991866
0	C	0.121476	0.531255	0.504015
0	C	0.620251	0.953015	0.00492555
0	C	0.375048	0.953878	0.491764
0	C	0.37499	0.0305704	0.991429
0	C	0.620179	0.0296311	0.504443
0	H	0.124888	0.388575	0.977642
0	H	0.870457	0.389585	0.519168
0	H	0.870355	0.59496	0.0187155
0	H	0.124751	0.59377	0.476934
0	H	0.623616	0.889977	0.97825
0	H	0.371727	0.890977	0.518596
0	H	0.371623	0.0935972	0.0181099
0	H	0.623484	0.0924142	0.47752
0	C	0.105136	0.445991	0.0189002
0	C	0.890121	0.446492	0.477539
0	C	0.890104	0.53756	0.977439
0	C	0.105104	0.537004	0.518661
0	C	0.603852	0.947647	0.0194101
0	C	0.391404	0.948127	0.477061
0	C	0.391389	0.035927	0.976944
0	C	0.603823	0.0353862	0.519145
0	H	0.0958327	0.377668	0.00407141
0	H	0.899399	0.377992	0.492283
0	H	0.89941	0.605878	0.992274
0	H	0.0958106	0.605402	0.503839
0	H	0.594579	0.879068	0.00482593
0	H	0.400652	0.879384	0.491567
0	H	0.400664	0.104492	0.991538
0	H	0.594559	0.104019	0.504556
0	C	0.149903	0.554583	0.00270096
0	C	0.845354	0.555165	0.493894
0	C	0.845339	0.428954	0.993645
0	C	0.149886	0.428413	0.502393
0	C	0.648534	0.0564981	0.00282241
0	C	0.346719	0.0570536	0.493787
0	C	0.346702	0.927093	0.993513
0	C	0.648528	0.926577	0.502525
0	C	0.150877	0.650499	0.971479
0	C	0.844187	0.651222	0.524834
0	C	0.84437	0.333053	0.024881
0	C	0.151054	0.332347	0.471464
0	C	0.649558	0.152584	0.971777
0	C	0.345508	0.153253	0.524564
0	C	0.345683	0.831014	0.0245629
0	C	0.649744	0.830356	0.471774
0	C	0.136515	0.73208	0.958717
0	C	0.85844	0.733487	0.537595
0	C	0.858732	0.251457	0.0376294
0	C	0.136801	0.250098	0.458714
0	C	0.63522	0.234361	0.959056
0	C	0.35974	0.235695	0.537296
0	C	0.360016	0.749194	0.0372431
0	C	0.635521	0.747879	0.459095
0	H	0.124151	0.716535	0.971585
0	H	0.870876	0.718198	0.525089
0	H	0.871095	0.267035	0.0247633
0	H	0.12437	0.265372	0.471251
0	H	0.622814	0.218746	0.971696
0	H	0.372215	0.220349	0.525004
0	H	0.372422	0.764833	0.024606
0	H	0.62305	0.763185	0.471418
0	C	0.138066	0.826381	0.930902
0	C	0.856694	0.828061	0.56493
0	C	0.857175	0.157103	0.0653922
0	C	0.138538	0.155542	0.431349
0	C	0.636841	0.328962	0.931544
0	C	0.357931	0.330542	0.564352
0	C	0.358385	0.654515	0.0646691
0	C	0.637332	0.653019	0.432054
0	H	0.12731	0.888451	0.922325
0	H	0.867372	0.890648	0.573503
0	H	0.867927	0.0949811	0.0739603
0	H	0.127858	0.092995	0.422778
0	H	0.626101	0.391139	0.923024
0	H	0.368594	0.393208	0.572871
0	H	0.369109	0.59224	0.0731102
0	H	0.62668	0.590295	0.423606
0	C	0.153866	0.845257	0.91139
0	C	0.840787	0.846589	0.583932
0	C	0.841373	0.138217	0.0848918
0	C	0.154438	0.137034	0.412311
0	C	0.652699	0.347969	0.91233
0	C	0.341969	0.349192	0.583069
0	C	0.34253	0.635514	0.083902
0	C	0.65328	0.634431	0.41326
0	H	0.154527	0.920808	0.888582
0	H	0.839952	0.922431	0.606314
0	H	0.840704	0.0626055	0.107641
0	H	0.155265	0.0612171	0.389903
0	H	0.653433	0.423839	0.889838
0	H	0.341068	0.425341	0.605156
0	H	0.341789	0.559572	0.106331
0	H	0.654175	0.558302	0.391154
0	C	0.16743	0.76897	0.920819
0	C	0.827329	0.769643	0.574569
0	C	0.827814	0.214529	0.075513
0	C	0.167902	0.213961	0.421686
0	C	0.666223	0.271409	0.921625
0	C	0.328547	0.272006	0.57382
0	C	0.329016	0.712123	0.0746886
0	C	0.666698	0.711646	0.422475
0	H	0.179324	0.781505	0.905171
0	H	0.81536	0.781993	0.58988
0	H	0.815921	0.201976	0.0911601
0	H	0.179866	0.20162	0.406354
0	H	0.678147	0.284106	0.906143
0	H	0.316549	0.284515	0.588974
0	H	0.317095	0.699427	0.0901891
0	H	0.678687	0.699183	0.407274
0	C	0.166563	0.669289	0.951689
0	C	0.828408	0.669564	0.544238
0	C	0.828684	0.314245	0.0446745
0	C	0.166831	0.314013	0.45205
0	C	0.665273	0.171318	0.95212
0	C	0.329701	0.171544	0.543843
0	C	0.32997	0.81226	0.0442297
0	C	0.665547	0.812083	0.452477
0	C	0.180786	0.59122	0.962704
0	C	0.814301	0.590707	0.533378
0	C	0.81446	0.392308	0.0336859
0	C	0.180944	0.392849	0.462937
0	C	0.679434	0.0928415	0.962901
0	C	0.315653	0.0923111	0.533202
0	C	0.315809	0.890737	0.0334809
0	C	0.679599	0.891317	0.463135
0	C	0.179595	0.494216	0.992475
0	C	0.81571	0.493462	0.504055
0	C	0.815643	0.489282	0.00387672
0	C	0.179538	0.490077	0.492275
0	C	0.678166	0.995504	0.992354
0	C	0.317135	0.994755	0.504184
0	C	0.317069	0.988042	0.00399148
0	C	0.678118	0.988858	0.492164
0	C	0.193769	0.411532	0.00297935
0	C	0.80166	0.409957	0.493567
0	C	0.801465	0.571934	0.993353
0	C	0.193596	0.573553	0.502805
0	C	0.692251	0.912289	0.00252883
0	C	0.30317	0.91075	0.494021
0	C	0.302979	0.0712245	0.993798
0	C	0.692091	0.0728331	0.502367
0	H	0.205548	0.425973	0.987031
0	H	0.789815	0.42403	0.509275
0	H	0.78969	0.557528	0.00932879
0	H	0.205443	0.559445	0.487117
0	H	0.704039	0.926527	0.986574
0	H	0.291318	0.924615	0.509736
0	H	0.291197	0.0570269	0.00978144
0	H	0.703946	0.0589339	0.486668
0	C	0.192604	0.318541	0.0322595
0	C	0.803027	0.316752	0.464747
0	C	0.802615	0.664848	0.963994
0	C	0.192227	0.66675	0.531629
0	C	0.691	0.818992	0.0314884
0	C	0.304623	0.817243	0.465513
0	C	0.304215	0.164443	0.964754
0	C	0.690636	0.166328	0.530882
0	H	0.203188	0.255601	0.0399622
0	H	0.79255	0.253156	0.457165
0	H	0.792021	0.727728	0.956259
0	H	0.202711	0.730311	0.539261
0	H	0.701513	0.755654	0.0389186
0	H	0.294213	0.753276	0.458206
0	H	0.293693	0.227718	0.95729
0	H	0.701054	0.230261	0.538242
0	C	0.177281	0.301847	0.0544341
0	C	0.818423	0.300522	0.442879
0	C	0.81793	0.68152	0.941777
0	C	0.176814	0.683042	0.553422
0	C	0.675678	0.802459	0.0536887
0	C	0.320015	0.801167	0.443612
0	C	0.319528	0.180956	0.942509
0	C	0.675228	0.182465	0.552707
0	H	0.176911	0.227411	0.0785947
0	H	0.818959	0.225833	0.419069
0	H	0.818286	0.755881	0.917549
0	H	0.176272	0.757753	0.577212
0	H	0.675237	0.727755	0.077601
0	H	0.320621	0.726233	0.420043
0	H	0.319956	0.25557	0.918523
0	H	0.674616	0.257417	0.57626
0	C	0.163695	0.377917	0.0457339
0	C	0.831871	0.377419	0.451418
0	C	0.831521	0.605479	0.950515
0	C	0.163362	0.606182	0.544847
0	C	0.662178	0.879048	0.0453213
0	C	0.333379	0.878572	0.451824
0	C	0.333034	0.104398	0.950915
0	C	0.661859	0.105098	0.544457
0	H	0.152251	0.366419	0.0637089
0	H	0.843356	0.36636	0.433587
0	H	0.842959	0.616946	0.932511
0	H	0.151864	0.617293	0.562615
0	H	0.650743	0.867631	0.0633541
0	H	0.344852	0.867586	0.433928
0	H	0.344463	0.115775	0.932855
0	H	0.650372	0.116139	0.562287
0	C	0.164078	0.476365	0.0134004
0	C	0.83129	0.476167	0.483324
0	C	0.831152	0.507103	0.982911
0	C	0.16395	0.507407	0.512971
0	C	0.662644	0.977825	0.0132838
0	C	0.332719	0.977629	0.483446
0	C	0.332582	0.00570083	0.983018
0	C	0.662527	0.00601329	0.512866
0	C	0.19727	0.613151	0.94383
0	C	0.79774	0.612321	0.551967
0	C	0.797977	0.370389	0.0525693
0	C	0.197505	0.371247	0.444346
0	C	0.695922	0.114686	0.94402
0	C	0.29909	0.113857	0.551796
0	C	0.299325	0.868892	0.052379
0	C	0.69616	0.869777	0.444531
0	C	0.209945	0.691708	0.972195
0	C	0.785133	0.691407	0.523782
0	C	0.785312	0.291754	0.0242509
0	C	0.210132	0.292316	0.472594
0	C	0.708587	0.193436	0.972251
0	C	0.286493	0.193129	0.52374
0	C	0.286671	0.790053	0.0241999
0	C	0.708775	0.790647	0.472644
0	H	0.207514	0.736657	0.00738604
0	H	0.787601	0.736562	0.488646
0	H	0.787751	0.246718	0.989094
0	H	0.207675	0.247224	0.507762
0	H	0.706147	0.238629	0.00736173
0	H	0.288969	0.238521	0.488686
0	H	0.289117	0.74478	0.989122
0	H	0.706311	0.74533	0.507735
0	C	0.225669	0.71185	0.955493
0	C	0.769408	0.711905	0.540432
0	C	0.769582	0.271654	0.0409287
0	C	0.225858	0.271866	0.455948
0	C	0.724307	0.213472	0.95551
0	C	0.270772	0.213532	0.540427
0	C	0.270948	0.77004	0.0409306
0	C	0.724493	0.770262	0.455942
0	H	0.235537	0.772732	0.977744
0	H	0.759619	0.773302	0.518275
0	H	0.759723	0.210721	0.0186974
0	H	0.23566	0.210562	0.478142
0	H	0.734169	0.274472	0.977673
0	H	0.260988	0.275049	0.518358
0	H	0.261094	0.708983	0.0187931
0	H	0.734289	0.708833	0.478044
0	C	0.228957	0.652945	0.910741
0	C	0.766002	0.652774	0.584945
0	C	0.76628	0.330654	0.085632
0	C	0.229246	0.330868	0.411364
0	C	0.727595	0.15432	0.91083
0	C	0.267365	0.154157	0.584868
0	C	0.267649	0.829276	0.0855691
0	C	0.727876	0.829489	0.411418
0	C	0.216115	0.575849	0.881748
0	C	0.778757	0.574991	0.613717
0	C	0.779117	0.407814	0.114602
0	C	0.216465	0.408423	0.382508
0	C	0.714751	0.0771731	0.881904
0	C	0.280122	0.0763251	0.613579
0	C	0.280487	0.9065	0.114466
0	C	0.715095	0.907111	0.38263
0	H	0.218567	0.531038	0.846595
0	H	0.776223	0.529818	0.648661
0	H	0.776655	0.452695	0.149723
0	H	0.218975	0.453433	0.347482
0	H	0.71719	0.0323098	0.846743
0	H	0.277599	0.0311087	0.648532
0	H	0.278039	0.951426	0.149598
0	H	0.717593	0.952156	0.34759
0	C	0.200308	0.55611	0.898191
0	C	0.794568	0.554938	0.597335
0	C	0.794924	0.427539	0.0981618
0	C	0.200651	0.428432	0.398884
0	C	0.698958	0.057455	0.898426
0	C	0.295919	0.0562918	0.597121
0	C	0.296277	0.926224	0.0979337
0	C	0.699299	0.927132	0.399103
0	H	0.190346	0.496124	0.875893
0	H	0.804442	0.494398	0.619529
0	H	0.804881	0.487593	0.120436
0	H	0.190753	0.488768	0.376611
0	H	0.689003	0.997323	0.876228
0	H	0.305785	0.995618	0.619217
0	H	0.306226	0.986427	0.120101
0	H	0.68941	0.987612	0.376934
0	C	0.246202	0.670028	0.894988
0	C	0.748719	0.670018	0.60048
0	C	0.749032	0.313592	0.101369
0	C	0.24653	0.313663	0.395824
0	C	0.744844	0.171144	0.895082
0	C	0.250075	0.17114	0.600388
0	C	0.2504	0.812457	0.101316
0	C	0.745161	0.81252	0.395869
0	C	0.260245	0.600091	0.910618
0	C	0.734688	0.599994	0.58475
0	C	0.734986	0.383511	0.0857374
0	C	0.260559	0.383715	0.411536
0	C	0.758848	0.100848	0.910539
0	C	0.236084	0.100765	0.584822
0	C	0.23639	0.88271	0.0858448
0	C	0.759155	0.882901	0.41143
0	H	0.272537	0.614121	0.896138
0	H	0.722353	0.614114	0.599002
0	H	0.722693	0.369475	0.100209
0	H	0.272887	0.369613	0.397248
0	H	0.771156	0.114897	0.89614
0	H	0.223732	0.114903	0.598986
0	H	0.224082	0.868658	0.100235
0	H	0.7715	0.868781	0.397229
0	C	0.248201	0.465264	0.00170019
0	C	0.746991	0.463915	0.494546
0	C	0.747063	0.518178	0.994694
0	C	0.248286	0.519454	0.50189
0	C	0.74669	0.965436	0.00117041
0	C	0.2485	0.964142	0.49506
0	C	0.248576	0.017972	0.995233
0	C	0.746776	0.019198	0.501365
0	H	0.233745	0.460389	0.977758
0	H	0.761399	0.458153	0.51901
0	H	0.761509	0.523459	0.0187055
0	H	0.233875	0.525364	0.477476
0	H	0.732245	0.959842	0.977211
0	H	0.262897	0.95767	0.519528
0	H	0.263011	0.0239756	0.019252
0	H	0.732375	0.025814	0.476957
0	H	0.249652	0.537835	0.0290654
0	H	0.745779	0.536619	0.467365
0	H	0.745674	0.445367	0.967512
0	H	0.249495	0.446571	0.528951
0	H	0.748051	0.0383829	0.0282527
0	H	0.247374	0.0372181	0.468167
0	H	0.247276	0.9448	0.968328
0	H	0.7479	0.945962	0.52815
0	H	0.251343	0.392434	0.0289079
0	H	0.743845	0.391307	0.467183
0	H	0.743894	0.590725	0.967297
0	H	0.251453	0.591895	0.529367
0	H	0.749897	0.893054	0.0286607
0	H	0.24529	0.891993	0.46741
0	H	0.24534	0.0900748	0.96756
0	H	0.750008	0.0911925	0.529118
0	C	0.258567	0.353553	0.904461
0	C	0.735994	0.353399	0.591085
0	C	0.736623	0.630086	0.0917642
0	C	0.259229	0.630387	0.40537
0	C	0.756994	0.854275	0.903729
0	C	0.237572	0.854135	0.591803
0	C	0.238197	0.129328	0.0925021
0	C	0.757649	0.129618	0.404641
0	H	0.268046	0.352064	0.878102
0	H	0.726336	0.352602	0.616859
0	H	0.727094	0.631742	0.11796
0	H	0.26884	0.631198	0.379441
0	H	0.766439	0.852766	0.877272
0	H	0.227949	0.853307	0.617684
0	H	0.228701	0.131012	0.118794
0	H	0.767224	0.130467	0.378606
0	H	0.244625	0.358457	0.876368
0	H	0.749858	0.357816	0.619698
0	H	0.750541	0.625172	0.120009
0	H	0.245343	0.626159	0.376896
0	H	0.743045	0.859434	0.875715
0	H	0.251444	0.858801	0.620334
0	H	0.252121	0.124177	0.120672
0	H	0.743753	0.125147	0.376251
0	H	0.259852	0.275396	0.927463
0	H	0.734717	0.275122	0.568185
0	H	0.735377	0.708158	0.0687021
0	H	0.260556	0.708584	0.42836
0	H	0.758256	0.775967	0.926586
0	H	0.236315	0.775711	0.569045
0	H	0.236972	0.207542	0.0695763
0	H	0.758956	0.207956	0.427495
0	C	0.287761	0.468268	0.997134
0	C	0.707276	0.468792	0.497547
0	C	0.707481	0.515099	0.999061
0	C	0.287987	0.514748	0.498702
0	C	0.786249	0.968071	0.996703
0	C	0.208788	0.968593	0.497969
0	C	0.208996	0.0152492	0.999505
0	C	0.786471	0.0149028	0.49826
0	H	0.291035	0.538297	0.0261227
0	H	0.704167	0.538938	0.468539
0	H	0.704223	0.44489	0.970186
0	H	0.291118	0.444382	0.527566
0	H	0.789571	0.0386609	0.0253234
0	H	0.205626	0.0393025	0.469328
0	H	0.205689	0.94449	0.970995
0	H	0.789655	0.94399	0.526763
0	H	0.29728	0.470616	0.970922
0	H	0.697593	0.47132	0.523201
0	H	0.69794	0.512974	0.0252044
0	H	0.297645	0.5125	0.472954
0	H	0.795786	0.969302	0.970539
0	H	0.199087	0.969981	0.523573
0	H	0.199437	0.0142492	0.0255958
0	H	0.796147	0.0137953	0.472565
0	H	0.29058	0.392584	0.022201
0	H	0.704495	0.393206	0.472313
0	H	0.704673	0.590616	0.97386
0	H	0.290782	0.59015	0.524078
0	H	0.789007	0.892908	0.0221731
0	H	0.206075	0.89353	0.472335
0	H	0.206253	0.0902502	0.973906
0	H	0.789195	0.0897908	0.524027
0	C	0.246861	0.770066	0.860784
0	C	0.747939	0.770103	0.634567
0	C	0.748367	0.213526	0.13555
0	C	0.247315	0.21358	0.361752
0	C	0.745565	0.27124	0.861008
0	C	0.249232	0.271287	0.634344
0	C	0.249681	0.712337	0.135379
0	C	0.746001	0.712381	0.361912
0	C	0.261864	0.832428	0.869571
0	C	0.732857	0.831802	0.625668
0	C	0.733359	0.151225	0.126784
0	C	0.262386	0.15177	0.370673
0	C	0.760599	0.333255	0.86966
0	C	0.234121	0.332636	0.625586
0	C	0.234642	0.650385	0.126741
0	C	0.761102	0.65092	0.370703
0	H	0.273923	0.811565	0.904314
0	H	0.720841	0.810515	0.590854
0	H	0.721296	0.172149	0.0920737
0	H	0.274402	0.172999	0.405502
0	H	0.772679	0.312221	0.904278
0	H	0.222083	0.311169	0.590894
0	H	0.222558	0.671495	0.0921515
0	H	0.773138	0.672345	0.405415
0	C	0.256262	0.0794304	0.857285
0	C	0.738114	0.079012	0.637737
0	C	0.739011	0.904286	0.138999
0	C	0.257121	0.90456	0.358687
0	C	0.754849	0.579859	0.857487
0	C	0.239526	0.579446	0.637546
0	C	0.240426	0.40384	0.138808
0	C	0.755703	0.404106	0.358869
0	H	0.241542	0.068605	0.851688
0	H	0.752841	0.0687302	0.64332
0	H	0.753738	0.915174	0.144751
0	H	0.242401	0.914922	0.353222
0	H	0.740135	0.568506	0.851881
0	H	0.254248	0.568639	0.643137
0	H	0.255147	0.415249	0.144561
0	H	0.740989	0.414987	0.353398
0	H	0.258171	0.154932	0.835282
0	H	0.73613	0.154393	0.659716
0	H	0.73708	0.828648	0.160861
0	H	0.259069	0.829173	0.336661
0	H	0.7567	0.655653	0.835613
0	H	0.237601	0.655119	0.659392
0	H	0.238554	0.327907	0.160537
0	H	0.757595	0.32842	0.336982
0	H	0.262832	0.0915961	0.902255
0	H	0.731524	0.09107	0.592773
0	H	0.732484	0.892323	0.0939894
0	H	0.263743	0.892441	0.403627
0	H	0.761425	0.59167	0.902495
0	H	0.232931	0.591147	0.592545
0	H	0.23389	0.392246	0.0937609
0	H	0.762332	0.392363	0.403846
0	C	0.25611	0.94146	0.753607
0	C	0.73826	0.941093	0.74147
0	C	0.739096	0.0419841	0.242707
0	C	0.256947	0.04228	0.254881
0	C	0.754752	0.442596	0.753605
0	C	0.23962	0.442231	0.741484
0	C	0.240456	0.540826	0.242731
0	C	0.755583	0.541118	0.254846
0	H	0.241095	0.944815	0.742432
0	H	0.753272	0.944738	0.752922
0	H	0.754112	0.038776	0.25394
0	H	0.241933	0.0389802	0.243497
0	H	0.739746	0.447228	0.742394
0	H	0.254623	0.447157	0.752968
0	H	0.255463	0.536324	0.254006
0	H	0.740578	0.53656	0.243427
0	H	0.259904	0.862075	0.738834
0	H	0.734465	0.861781	0.756303
0	H	0.735271	0.121253	0.257517
0	H	0.260784	0.121388	0.239947
0	H	0.75837	0.362776	0.738816
0	H	0.236004	0.362484	0.756338
0	H	0.236809	0.620545	0.257552
0	H	0.759245	0.620666	0.239899
0	H	0.260768	0.00666387	0.730144
0	H	0.733504	0.00637618	0.764664
0	H	0.734442	0.976619	0.266089
0	H	0.261646	0.976722	0.231711
0	H	0.759577	0.507255	0.730209
0	H	0.234699	0.506953	0.764614
0	H	0.235632	0.476023	0.266047
0	H	0.760445	0.476113	0.231736
0	C	0.291473	0.972164	0.846101
0	C	0.702997	0.970714	0.648676
0	C	0.703761	0.011179	0.150119
0	C	0.292227	0.0127765	0.347611
0	C	0.790126	0.4736	0.846066
0	C	0.204346	0.472142	0.64873
0	C	0.205114	0.509755	0.150159
0	C	0.790872	0.511345	0.347554
0	H	0.294956	0.0481418	0.827304
0	H	0.699491	0.0468793	0.66729
0	H	0.700286	0.935046	0.168806
0	H	0.29572	0.936427	0.329123
0	H	0.793551	0.549467	0.827029
0	H	0.200898	0.548197	0.667577
0	H	0.201695	0.433729	0.169077
0	H	0.794308	0.435102	0.328838
0	H	0.297702	0.903419	0.829372
0	H	0.69675	0.902172	0.665481
0	H	0.697507	0.0797446	0.166904
0	H	0.298461	0.0811352	0.330623
0	H	0.79641	0.404759	0.829588
0	H	0.198046	0.403509	0.665294
0	H	0.198804	0.578412	0.166694
0	H	0.79716	0.579794	0.330811
0	H	0.298151	0.977126	0.891412
0	H	0.696339	0.975387	0.603353
0	H	0.697096	0.00638372	0.104794
0	H	0.298906	0.00842717	0.392929
0	H	0.796775	0.47916	0.891384
0	H	0.197715	0.477396	0.603403
0	H	0.19848	0.504377	0.104826
0	H	0.797522	0.506414	0.39288
0	C	0.229863	0.796489	0.816403
0	C	0.764869	0.797047	0.679118
0	C	0.765367	0.187051	0.179916
0	C	0.230388	0.18667	0.317198
0	C	0.728568	0.298036	0.816712
0	C	0.266162	0.298602	0.678813
0	C	0.266681	0.68549	0.179663
0	C	0.729072	0.685102	0.317438
0	C	0.217135	0.870297	0.827419
0	C	0.777591	0.871132	0.668316
0	C	0.778086	0.113192	0.168901
0	C	0.217658	0.112695	0.328046
0	C	0.715883	0.372073	0.82777
0	C	0.27884	0.37293	0.667963
0	C	0.27936	0.611408	0.168612
0	C	0.716384	0.610885	0.328321
0	H	0.219482	0.905474	0.869155
0	H	0.775273	0.906497	0.626629
0	H	0.775732	0.0779725	0.127174
0	H	0.21997	0.0774323	0.369752
0	H	0.71826	0.407313	0.869493
0	H	0.276493	0.408358	0.626288
0	H	0.276978	0.576123	0.126901
0	H	0.718725	0.575542	0.370012
0	C	0.20154	0.898557	0.785122
0	C	0.793149	0.899426	0.710758
0	C	0.793685	0.0849427	0.211193
0	C	0.202101	0.0843653	0.28562
0	C	0.700284	0.400485	0.785523
0	C	0.294403	0.401381	0.710368
0	C	0.294963	0.583017	0.21086
0	C	0.700822	0.582405	0.28593
0	H	0.191644	0.955729	0.793653
0	H	0.80304	0.956795	0.702371
0	H	0.803572	0.0277001	0.202671
0	H	0.192201	0.0270991	0.294031
0	H	0.69042	0.457895	0.794048
0	H	0.304259	0.458998	0.701973
0	H	0.304817	0.525536	0.202335
0	H	0.690958	0.524886	0.294353
0	C	0.198569	0.853357	0.731428
0	C	0.796094	0.853995	0.764399
0	C	0.796664	0.130231	0.264872
0	C	0.199171	0.129614	0.231943
0	C	0.697282	0.355095	0.731865
0	C	0.29738	0.355772	0.76397
0	C	0.297976	0.628486	0.264504
0	C	0.697855	0.627831	0.23229
0	C	0.211174	0.778512	0.720544
0	C	0.783458	0.779139	0.775106
0	C	0.784059	0.205074	0.275764
0	C	0.211813	0.204355	0.221183
0	C	0.709854	0.280125	0.7209
0	C	0.28478	0.280778	0.774758
0	C	0.285401	0.703442	0.27547
0	C	0.710465	0.702703	0.221461
0	H	0.208799	0.742803	0.678896
0	H	0.785784	0.743384	0.816726
0	H	0.786438	0.240806	0.317409
0	H	0.209494	0.239954	0.179531
0	H	0.707447	0.244459	0.67923
0	H	0.287135	0.245054	0.816393
0	H	0.287808	0.739131	0.317133
0	H	0.708121	0.738277	0.179797
0	C	0.2267	0.749806	0.762955
0	C	0.767972	0.750423	0.73257
0	C	0.768532	0.233749	0.233364
0	C	0.227298	0.233135	0.263717
0	C	0.725379	0.251329	0.763261
0	C	0.269291	0.251949	0.732264
0	C	0.269872	0.732201	0.233115
0	C	0.725954	0.731585	0.263953
0	H	0.236509	0.691726	0.754543
0	H	0.75814	0.692354	0.740857
0	H	0.758717	0.291788	0.241776
0	H	0.237138	0.291117	0.255397
0	H	0.735166	0.193165	0.754825
0	H	0.259482	0.193783	0.74058
0	H	0.26008	0.790315	0.241558
0	H	0.735771	0.789658	0.255602
0	C	0.181972	0.882412	0.686357
0	C	0.812699	0.882723	0.809553
0	C	0.813261	0.101148	0.30994
0	C	0.182567	0.100856	0.186812
0	C	0.680697	0.384105	0.686775
0	C	0.313972	0.384457	0.809139
0	C	0.314561	0.599458	0.309597
0	C	0.681263	0.599126	0.18713
0	C	0.167075	0.808984	0.673661
0	C	0.827561	0.80906	0.822198
0	C	0.828155	0.174602	0.322679
0	C	0.167706	0.174502	0.174184
0	C	0.665759	0.311018	0.674218
0	C	0.328873	0.311108	0.821628
0	C	0.329497	0.672585	0.322203
0	C	0.66636	0.672465	0.174644
0	C	0.167665	0.706328	0.703437
0	C	0.826908	0.706496	0.792295
0	C	0.827568	0.277301	0.292946
0	C	0.16835	0.277052	0.204115
0	C	0.666248	0.208848	0.704322
0	C	0.32832	0.209036	0.791397
0	C	0.32901	0.774783	0.29213
0	C	0.666907	0.774493	0.204918
0	H	0.180087	0.686625	0.736164
0	H	0.814478	0.687123	0.759546
0	H	0.815151	0.297018	0.260205
0	H	0.180782	0.296419	0.236869
0	H	0.678635	0.1893	0.737215
0	H	0.315926	0.189816	0.758484
0	H	0.31663	0.794329	0.259216
0	H	0.6793	0.793698	0.237843
0	C	0.153226	0.635993	0.6911
0	C	0.841309	0.635848	0.804561
0	C	0.842006	0.347667	0.305346
0	C	0.153942	0.347615	0.191875
0	C	0.651763	0.138869	0.692082
0	C	0.34276	0.138726	0.803544
0	C	0.34349	0.844812	0.304422
0	C	0.652459	0.844736	0.192803
0	H	0.153671	0.558022	0.712952
0	H	0.840814	0.557968	0.782623
0	H	0.841561	0.425664	0.283523
0	H	0.154425	0.425441	0.213863
0	H	0.652131	0.0612815	0.714217
0	H	0.342345	0.0612051	0.781332
0	H	0.343122	0.922423	0.282306
0	H	0.652863	0.92218	0.215079
0	C	0.136832	0.664354	0.648863
0	C	0.857718	0.663856	0.846811
0	C	0.858398	0.319257	0.347581
0	C	0.137542	0.319668	0.149587
0	C	0.63542	0.167096	0.649592
0	C	0.359122	0.166581	0.846043
0	C	0.359831	0.816565	0.346919
0	C	0.636108	0.816965	0.150252
0	H	0.125356	0.607148	0.640442
0	H	0.869163	0.606427	0.855168
0	H	0.869871	0.376487	0.35606
0	H	0.126094	0.377063	0.141233
0	H	0.623909	0.110183	0.641326
0	H	0.370601	0.109451	0.854235
0	H	0.371339	0.873505	0.355234
0	H	0.624625	0.874063	0.142069
0	C	0.135667	0.760886	0.620441
0	C	0.858943	0.760324	0.87533
0	C	0.859563	0.222618	0.37592
0	C	0.136327	0.22326	0.121025
0	C	0.634351	0.263153	0.620816
0	C	0.360258	0.262564	0.874914
0	C	0.360903	0.720421	0.375632
0	C	0.634983	0.721067	0.121312
0	H	0.122948	0.783465	0.589652
0	H	0.871676	0.78258	0.906141
0	H	0.872283	0.199965	0.406687
0	H	0.123603	0.201061	0.0901677
0	H	0.621684	0.285675	0.589755
0	H	0.372941	0.284784	0.905987
0	H	0.373571	0.697838	0.406676
0	H	0.622312	0.69893	0.0901721
0	C	0.150954	0.835852	0.630333
0	C	0.843704	0.835604	0.865542
0	C	0.844278	0.147673	0.36599
0	C	0.151565	0.147977	0.130843
0	C	0.649683	0.337753	0.630697
0	C	0.344974	0.33749	0.865154
0	C	0.345573	0.645822	0.365722
0	C	0.650265	0.646119	0.131097
0	C	0.150396	0.933194	0.598706
0	C	0.844337	0.932939	0.897249
0	C	0.844833	0.0502389	0.397559
0	C	0.150936	0.050613	0.0991689
0	C	0.649217	0.434724	0.59889
0	C	0.345515	0.434438	0.897048
0	C	0.34604	0.548801	0.397494
0	C	0.649723	0.549166	0.0992165
0	C	0.165341	0.00599818	0.611192
0	C	0.829407	0.0059087	0.884847
0	C	0.829886	0.977471	0.385054
0	C	0.165857	0.97759	0.111579
0	C	0.664193	0.507245	0.611263
0	C	0.330557	0.507148	0.884779
0	C	0.331065	0.476265	0.385083
0	C	0.664672	0.476397	0.111521
0	C	0.165373	0.105972	0.579698
0	C	0.82941	0.10582	0.916427
0	C	0.829849	0.877487	0.41654
0	C	0.165841	0.87763	0.0800318
0	C	0.664286	0.606763	0.579514
0	C	0.330501	0.606589	0.916626
0	C	0.330968	0.376724	0.416812
0	C	0.664717	0.376882	0.0797198
0	H	0.153719	0.12181	0.543524
0	H	0.841073	0.121488	0.952619
0	H	0.841505	0.861599	0.452705
0	H	0.154178	0.861969	0.043844
0	H	0.652638	0.622512	0.543322
0	H	0.342154	0.622163	0.952837
0	H	0.342617	0.360917	0.452997
0	H	0.653064	0.361315	0.0435103
0	C	0.179535	0.178133	0.594091
0	C	0.815267	0.178127	0.902096
0	C	0.815679	0.805391	0.402165
0	C	0.179973	0.805242	0.0943963
0	C	0.678504	0.678565	0.593727
0	C	0.316308	0.678565	0.902498
0	C	0.316745	0.304969	0.402614
0	C	0.678898	0.304823	0.0938978
0	H	0.179493	0.253908	0.570578
0	H	0.815339	0.253801	0.925688
0	H	0.815713	0.729621	0.425679
0	H	0.179889	0.729494	0.0708529
0	H	0.678515	0.753984	0.570013
0	H	0.316321	0.753891	0.926289
0	H	0.316727	0.229541	0.42632
0	H	0.678871	0.229414	0.0701605
0	C	0.195036	0.155459	0.640822
0	C	0.799763	0.155826	0.855338
0	C	0.800182	0.828084	0.355424
0	C	0.195487	0.827609	0.14113
0	C	0.693982	0.655945	0.640525
0	C	0.300825	0.656337	0.855664
0	C	0.301271	0.327602	0.355805
0	C	0.694388	0.327105	0.140708
0	H	0.206022	0.215883	0.651786
0	H	0.788805	0.216419	0.844418
0	H	0.789192	0.767689	0.344472
0	H	0.206438	0.766958	0.152067
0	H	0.705014	0.716084	0.65135
0	H	0.289822	0.716644	0.844882
0	H	0.290237	0.267484	0.344992
0	H	0.705383	0.266741	0.151515
0	C	0.195885	0.0604312	0.670272
0	C	0.798879	0.0608811	0.825801
0	C	0.799344	0.923061	0.325938
0	C	0.196385	0.922622	0.170615
0	C	0.694758	0.56131	0.670234
0	C	0.300008	0.561818	0.825855
0	C	0.300505	0.422176	0.326063
0	C	0.695218	0.421705	0.170463
0	H	0.207717	0.0415689	0.705302
0	H	0.787045	0.0422724	0.790762
0	H	0.787519	0.941901	0.290879
0	H	0.208227	0.941285	0.205628
0	H	0.70657	0.542454	0.705295
0	H	0.288193	0.543213	0.790774
0	H	0.288701	0.440994	0.290967
0	H	0.70704	0.440351	0.20552
0	C	0.181135	0.981501	0.656468
0	C	0.813596	0.981703	0.839556
0	C	0.814096	0.00200192	0.339772
0	C	0.181671	0.00182843	0.156852
0	C	0.67995	0.482784	0.656632
0	C	0.314779	0.483036	0.839396
0	C	0.315312	0.500731	0.339694
0	C	0.680451	0.500516	0.1569
0	C	0.133536	0.956278	0.553513
0	C	0.861249	0.956017	0.942335
0	C	0.861692	0.0270694	0.442741
0	C	0.134028	0.0275227	0.0540973
0	C	0.632408	0.457919	0.553553
0	C	0.362371	0.457546	0.942293
0	C	0.362841	0.5256	0.442862
0	C	0.632869	0.526026	0.053971
0	C	0.122327	0.045587	0.557728
0	C	0.872426	0.0454705	0.938002
0	C	0.872893	0.937754	0.438487
0	C	0.122834	0.938208	0.0584998
0	C	0.621158	0.546864	0.557952
0	C	0.373607	0.546606	0.937849
0	C	0.374097	0.436664	0.438487
0	C	0.621623	0.437084	0.0585136
0	H	0.127074	0.106153	0.590844
0	H	0.867625	0.105886	0.904818
0	H	0.868145	0.877259	0.405341
0	H	0.127621	0.877856	0.0917224
0	H	0.62583	0.60685	0.59137
0	H	0.368896	0.60655	0.904407
0	H	0.369437	0.376695	0.405061
0	H	0.626323	0.377278	0.0920274
0	C	0.104912	0.0545496	0.52087
0	C	0.889848	0.0548543	0.974773
0	C	0.890307	0.928724	0.475356
0	C	0.105411	0.92888	0.0217331
0	C	0.603791	0.556058	0.520876
0	C	0.390985	0.556054	0.974853
0	C	0.39146	0.427481	0.475603
0	C	0.60425	0.427562	0.0215023
0	H	0.0961733	0.12331	0.524766
0	H	0.898534	0.123771	0.970688
0	H	0.899041	0.859953	0.471443
0	H	0.0967091	0.860081	0.0258646
0	H	0.595	0.62449	0.524863
0	H	0.399734	0.624635	0.970735
0	H	0.400251	0.359048	0.471632
0	H	0.595492	0.35909	0.0257088
0	C	0.098251	0.973297	0.480044
0	C	0.896585	0.973913	0.0156734
0	C	0.896967	0.00989701	0.516228
0	C	0.0987002	0.00972643	0.980764
0	C	0.597233	0.47533	0.479681
0	C	0.397605	0.47548	0.0160453
0	C	0.398008	0.508189	0.516825
0	C	0.597646	0.507892	0.980162
0	C	0.110107	0.889844	0.472827
0	C	0.884761	0.890397	0.0230439
0	C	0.88511	0.093306	0.523496
0	C	0.110543	0.0930897	0.973333
0	C	0.609147	0.392431	0.472244
0	C	0.385708	0.392522	0.0235586
0	C	0.386077	0.590984	0.524276
0	C	0.609559	0.590642	0.972528
0	H	0.105394	0.828208	0.440068
0	H	0.889508	0.829139	0.0559786
0	H	0.889822	0.15484	0.556322
0	H	0.105811	0.154273	0.940359
0	H	0.604518	0.331503	0.439092
0	H	0.390361	0.331805	0.0567994
0	H	0.390689	0.651814	0.557488
0	H	0.604925	0.651077	0.93914
0	C	0.127736	0.882525	0.508634
0	C	0.867134	0.882565	0.987314
0	C	0.867488	0.100719	0.487673
0	C	0.12817	0.100857	0.00905895
0	C	0.626725	0.384825	0.508356
0	C	0.368127	0.38461	0.987539
0	C	0.368509	0.598621	0.488105
0	C	0.627132	0.598684	0.00860163
0	H	0.136847	0.817031	0.503099
0	H	0.858064	0.816919	0.992976
0	H	0.858372	0.166162	0.493238
0	H	0.137258	0.166366	0.003353
0	H	0.63588	0.319677	0.502779
0	H	0.358998	0.319349	0.993197
0	H	0.359343	0.663705	0.493678
0	H	0.636269	0.663839	0.0028693
0	Si	0.0805728	0.916247	0.334304
0	Si	0.914849	0.91934	0.162049
0	Si	0.914483	0.0653727	0.661957
0	Si	0.080517	0.0661376	0.834529
0	Si	0.579418	0.418928	0.333437
0	Si	0.416032	0.419041	0.162786
0	Si	0.415922	0.564422	0.663241
0	Si	0.579064	0.564592	0.833204
0	Si	0.0328061	0.0970858	0.498694
0	Si	0.962087	0.0967271	0.996509
0	Si	0.962424	0.886412	0.497608
0	Si	0.0331777	0.886945	0.999705
0	Si	0.531817	0.598059	0.498511
0	Si	0.463073	0.597604	0.996848
0	Si	0.463395	0.385484	0.49784
0	Si	0.532174	0.386016	0.999434
0	Si	0.0296902	0.412168	0.963005
0	Si	0.9655	0.411793	0.534234
0	Si	0.965552	0.571371	0.0332909
0	Si	0.0297273	0.571672	0.462089
0	Si	0.528719	0.910337	0.962658
0	Si	0.466472	0.909949	0.534579
0	Si	0.466524	0.0731967	0.0336525
0	Si	0.528757	0.0735147	0.46174
0	Si	0.0918408	0.595843	0.179905
0	Si	0.903829	0.596292	0.316527
0	Si	0.903396	0.387703	0.816397
0	Si	0.09141	0.387303	0.679781
0	Si	0.590438	0.0974272	0.179879
0	Si	0.405234	0.0977689	0.316571
0	Si	0.404799	0.886174	0.816445
0	Si	0.590005	0.885786	0.679732
0	Si	0.26335	0.472395	0.954105
0	Si	0.731598	0.472134	0.541387
0	Si	0.731882	0.511129	0.0421916
0	Si	0.263654	0.511485	0.454961
0	Si	0.761852	0.972676	0.953631
0	Si	0.233095	0.972439	0.541851
0	Si	0.233383	0.0107938	0.0426823
0	Si	0.762152	0.011129	0.454477
0	Si	0.266166	0.956971	0.830839
0	Si	0.728321	0.956108	0.664169
0	Si	0.729067	0.0265763	0.165459
0	Si	0.266906	0.0274077	0.332182
0	Si	0.764829	0.457885	0.830859
0	Si	0.229659	0.457032	0.664165
0	Si	0.230411	0.525645	0.165462
0	Si	0.76556	0.526463	0.332165
