#******************************************
#
# CIF file created by Zeo++
# Zeo++ is an open source package to
# analyze microporous materials
#
#*******************************************

_cell_length_a		37.7564(0)
_cell_length_b		37.7912(0)
_cell_length_c		7.8371(0)
_cell_angle_alpha		90(0)
_cell_angle_beta		90(0)
_cell_angle_gamma		120.17(0)

_symmetry_space_group_name_H-M		'P1'
_symmetry_Int_Tables_number		1
_symmetry_cell_setting		Monoclinic

loop_
_symmetry_equiv_pos_as_xyz
'+x,+y,+z'

loop_
_atom_site_label
_atom_site_type_symbol
_atom_site_fract_x
_atom_site_fract_y
_atom_site_fract_z
0	O	0.713588	0.0671629	0.0507733
0	O	0.942544	0.649441	0.0805067
0	O	0.362639	0.299314	0.0483253
0	O	0.299168	0.942625	0.946245
0	O	0.0695834	0.361812	0.944167
0	O	0.650836	0.711384	0.953442
0	O	0.376963	0.399867	0.388787
0	O	0.611437	0.979201	0.384412
0	O	0.0323637	0.635888	0.382112
0	O	0.968947	0.273069	0.283667
0	O	0.738354	0.697531	0.285854
0	O	0.313566	0.0431807	0.279354
0	O	0.0444291	0.737959	0.724465
0	O	0.275229	0.313231	0.721948
0	O	0.699646	0.967042	0.728125
0	O	0.636587	0.611018	0.618972
0	O	0.401878	0.0314096	0.623387
0	O	0.980822	0.375207	0.622737
0	O	0.833534	0.108167	0.560778
0	O	0.904989	0.725128	0.568149
0	O	0.283942	0.179045	0.559203
0	O	0.18138	0.903076	0.444035
0	O	0.108928	0.28456	0.444757
0	O	0.728834	0.830756	0.446328
0	O	0.495597	0.441127	0.893006
0	O	0.571378	0.0574102	0.888397
0	O	0.953932	0.515186	0.891535
0	O	0.851007	0.233041	0.782747
0	O	0.778989	0.619531	0.780976
0	O	0.391717	0.159675	0.781879
0	O	0.162161	0.777635	0.224849
0	O	0.23441	0.391235	0.2273
0	O	0.621507	0.850894	0.22467
0	O	0.517906	0.56963	0.114682
0	O	0.442053	0.953149	0.118896
0	O	0.0592851	0.495208	0.115322
0	C	0.821737	0.95238	0.136389
0	C	0.0591896	0.873912	0.138889
0	C	0.139107	0.190499	0.134669
0	C	0.191692	0.058394	0.869845
0	C	0.954131	0.137976	0.868031
0	C	0.874473	0.82052	0.871481
0	C	0.485251	0.28489	0.464303
0	C	0.727017	0.202533	0.465677
0	C	0.809021	0.525458	0.466044
0	C	0.861949	0.389041	0.212155
0	C	0.622071	0.47386	0.210694
0	C	0.537577	0.14967	0.211702
0	C	0.151277	0.621649	0.794962
0	C	0.391205	0.53695	0.796377
0	C	0.475596	0.860899	0.794773
0	C	0.528248	0.725819	0.542126
0	C	0.286186	0.808212	0.541644
0	C	0.204355	0.485413	0.540595
0	C	0.805311	0.977669	0.107282
0	C	0.0341461	0.831936	0.113057
0	C	0.180925	0.207051	0.105099
0	C	0.208106	0.0330535	0.897827
0	C	0.979308	0.179846	0.896152
0	C	0.832628	0.803871	0.900581
0	C	0.468731	0.310185	0.437702
0	C	0.701495	0.160685	0.437698
0	C	0.850968	0.542147	0.43925
0	C	0.878022	0.363325	0.237754
0	C	0.647698	0.51578	0.23647
0	C	0.495663	0.133493	0.237141
0	C	0.135135	0.647308	0.769436
0	C	0.365644	0.49501	0.770884
0	C	0.517507	0.877043	0.769352
0	C	0.544716	0.700485	0.568952
0	C	0.311798	0.85004	0.569722
0	C	0.162399	0.468686	0.567183
0	C	0.830967	0.0196834	0.0744207
0	C	0.991946	0.81484	0.0804496
0	C	0.197324	0.181469	0.07206
0	C	0.182454	0.991006	0.930068
0	C	0.0214158	0.196629	0.929878
0	C	0.816118	0.829356	0.933707
0	C	0.494329	0.352273	0.404367
0	C	0.659487	0.144338	0.403092
0	C	0.867467	0.516719	0.405039
0	C	0.852046	0.321269	0.270493
0	C	0.689809	0.532219	0.269202
0	C	0.479531	0.159336	0.269623
0	C	0.161057	0.689381	0.736861
0	C	0.323519	0.478483	0.738252
0	C	0.5336	0.851166	0.736906
0	C	0.519078	0.658415	0.602493
0	C	0.353802	0.866285	0.604155
0	C	0.145851	0.494069	0.601501
0	C	0.873342	0.0354142	0.0669247
0	C	0.975927	0.841071	0.069603
0	C	0.170569	0.139125	0.0649843
0	C	0.140091	0.9753	0.938114
0	C	0.0372061	0.170185	0.939354
0	C	0.842803	0.871703	0.941474
0	C	0.536674	0.367985	0.394623
0	C	0.644093	0.171129	0.393091
0	C	0.840765	0.47439	0.394785
0	C	0.809781	0.306	0.280141
0	C	0.705226	0.505443	0.278617
0	C	0.506616	0.201585	0.279362
0	C	0.203337	0.704728	0.727273
0	C	0.308006	0.505176	0.728615
0	C	0.506487	0.808925	0.727162
0	C	0.476744	0.642764	0.61225
0	C	0.369092	0.839405	0.613844
0	C	0.172524	0.536399	0.612042
0	C	0.88987	0.0100898	0.097075
0	C	0.00104436	0.883189	0.0964987
0	C	0.128631	0.122541	0.0954238
0	C	0.123565	0.000667866	0.909056
0	C	0.0119599	0.12818	0.910208
0	C	0.884775	0.888394	0.911469
0	C	0.553233	0.342624	0.422541
0	C	0.669664	0.213067	0.422513
0	C	0.798734	0.457663	0.423009
0	C	0.793656	0.331764	0.253037
0	C	0.679539	0.463422	0.251537
0	C	0.548643	0.217809	0.252526
0	C	0.219526	0.679016	0.754317
0	C	0.333628	0.547218	0.755451
0	C	0.464468	0.792738	0.75397
0	C	0.460231	0.668158	0.584153
0	C	0.343424	0.797482	0.584379
0	C	0.214569	0.55317	0.583995
0	C	0.864193	0.968605	0.133059
0	C	0.0426072	0.899712	0.132456
0	C	0.112792	0.148064	0.131511
0	C	0.14924	0.0421863	0.873657
0	C	0.970485	0.111973	0.873267
0	C	0.900713	0.862966	0.875184
0	C	0.527693	0.301127	0.458403
0	C	0.711075	0.228881	0.459916
0	C	0.78274	0.48304	0.459568
0	C	0.819577	0.37325	0.218164
0	C	0.637993	0.447499	0.216719
0	C	0.564249	0.192023	0.217768
0	C	0.193662	0.637513	0.789034
0	C	0.375192	0.563233	0.790196
0	C	0.448892	0.818551	0.788717
0	C	0.485816	0.709636	0.54804
0	C	0.302021	0.781772	0.547168
0	C	0.230604	0.527833	0.547359
0	C	0.783576	0.0378113	0.209793
0	C	0.974508	0.750412	0.223673
0	C	0.26302	0.228898	0.207335
0	C	0.22952	0.972844	0.792152
0	C	0.0393527	0.261778	0.79151
0	C	0.750626	0.781989	0.796997
0	C	0.447193	0.370314	0.542814
0	C	0.640145	0.0786746	0.541199
0	C	0.933335	0.563783	0.542046
0	C	0.898017	0.301859	0.130321
0	C	0.708475	0.597649	0.130944
0	C	0.414166	0.113116	0.128799
0	C	0.114938	0.708574	0.877098
0	C	0.304963	0.413092	0.8768
0	C	0.598938	0.897287	0.878046
0	C	0.566146	0.640243	0.464319
0	C	0.373274	0.931988	0.466269
0	C	0.0800639	0.44701	0.463996
0	C	0.739574	0.0570231	0.0517976
0	C	0.954465	0.685965	0.0744924
0	C	0.326474	0.273053	0.0495775
0	C	0.273584	0.953297	0.947404
0	C	0.0586996	0.325487	0.94599
0	C	0.687025	0.737581	0.953284
0	C	0.402949	0.389729	0.38803
0	C	0.621015	0.0151733	0.385186
0	C	0.996529	0.60875	0.383983
0	C	0.942715	0.282886	0.28444
0	C	0.728161	0.661362	0.286336
0	C	0.349946	0.0688018	0.28144
0	C	0.0704409	0.727844	0.723261
0	C	0.285356	0.349381	0.721465
0	C	0.663237	0.941527	0.725787
0	C	0.610468	0.620979	0.619454
0	C	0.39235	0.99545	0.622498
0	C	0.016751	0.402113	0.621387
0	C	0.751004	0.0430897	0.209899
0	C	0.969532	0.712709	0.228655
0	C	0.301043	0.261434	0.207678
0	C	0.262054	0.96751	0.79041
0	C	0.0443148	0.299496	0.789529
0	C	0.712659	0.749373	0.795745
0	C	0.41465	0.37563	0.544881
0	C	0.634079	0.0405301	0.543385
0	C	0.97141	0.596274	0.542931
0	C	0.930175	0.295917	0.126938
0	C	0.714087	0.635619	0.129162
0	C	0.375963	0.0808928	0.12498
0	C	0.0827485	0.714464	0.880448
0	C	0.29935	0.37512	0.878673
0	C	0.637172	0.929453	0.882086
0	C	0.598692	0.634931	0.462394
0	C	0.379323	0.970128	0.464238
0	C	0.0419941	0.414514	0.462749
0	C	0.760457	0.0566645	0.887215
0	C	0.95563	0.70624	0.905937
0	C	0.305234	0.252024	0.885024
0	C	0.253287	0.953973	0.113272
0	C	0.057962	0.304597	0.112168
0	C	0.708072	0.758357	0.118525
0	C	0.423485	0.389434	0.222184
0	C	0.621751	0.0362333	0.219553
0	C	0.975413	0.58767	0.219362
0	C	0.922655	0.283663	0.450816
0	C	0.727816	0.640457	0.451953
0	C	0.370801	0.0885475	0.44843
0	C	0.0904561	0.727039	0.556779
0	C	0.285705	0.370266	0.555795
0	C	0.642409	0.921884	0.55863
0	C	0.589853	0.62122	0.785123
0	C	0.391666	0.974379	0.788006
0	C	0.0378591	0.422963	0.786398
0	C	0.810758	0.0456777	0.0532259
0	C	0.966202	0.76837	0.0638667
0	C	0.24366	0.201716	0.0508023
0	C	0.202672	0.964981	0.949855
0	C	0.0473264	0.243011	0.949491
0	C	0.769756	0.808996	0.954214
0	C	0.474085	0.378293	0.385123
0	C	0.633143	0.0980311	0.382854
0	C	0.913815	0.537051	0.384527
0	C	0.871837	0.294844	0.289492
0	C	0.716162	0.578567	0.28854
0	C	0.433152	0.139394	0.288001
0	C	0.1412	0.715754	0.718045
0	C	0.297241	0.432125	0.719132
0	C	0.579983	0.871066	0.718706
0	C	0.539264	0.632349	0.621974
0	C	0.380226	0.912577	0.624551
0	C	0.0994943	0.473687	0.621764
0	C	0.783271	0.0319778	0.890137
0	C	0.980223	0.753875	0.904039
0	C	0.257592	0.229092	0.887454
0	C	0.230544	0.978741	0.111818
0	C	0.0333765	0.256973	0.111087
0	C	0.755723	0.7814	0.116925
0	C	0.446294	0.364733	0.222808
0	C	0.646865	0.0838274	0.221256
0	C	0.927763	0.564749	0.222012
0	C	0.90011	0.308608	0.450288
0	C	0.702759	0.592852	0.450939
0	C	0.418438	0.111095	0.448585
0	C	0.112954	0.702042	0.557198
0	C	0.310702	0.417873	0.556817
0	C	0.594775	0.899407	0.558237
0	C	0.56704	0.645916	0.784339
0	C	0.366532	0.926785	0.786227
0	C	0.0855085	0.445882	0.783969
0	C	0.804443	0.0428914	0.712115
0	C	0.969625	0.763126	0.723484
0	C	0.247424	0.207866	0.709543
0	C	0.209775	0.968022	0.290668
0	C	0.0440896	0.247186	0.290399
0	C	0.765687	0.8024	0.295316
0	C	0.467055	0.375772	0.0438726
0	C	0.636369	0.0938319	0.0419959
0	C	0.917649	0.543878	0.0434445
0	C	0.879829	0.298098	0.630048
0	C	0.71362	0.582976	0.629756
0	C	0.428192	0.131224	0.628676
0	C	0.133239	0.71254	0.377393
0	C	0.299831	0.427722	0.377999
0	C	0.585025	0.87932	0.378075
0	C	0.546257	0.634883	0.963226
0	C	0.377045	0.916759	0.965407
0	C	0.0955847	0.46662	0.962831
0	C	0.842357	0.0393028	0.678584
0	C	0.972568	0.804146	0.685324
0	C	0.205704	0.17002	0.67624
0	C	0.171794	0.971419	0.325474
0	C	0.040916	0.20596	0.325792
0	C	0.807299	0.840314	0.329535
0	C	0.504778	0.372017	0.00816725
0	C	0.640387	0.135404	0.00635965
0	C	0.876096	0.505945	0.00862049
0	C	0.842439	0.302316	0.667268
0	C	0.709576	0.541381	0.665205
0	C	0.469987	0.168547	0.666377
0	C	0.170608	0.708291	0.340138
0	C	0.303839	0.469288	0.342245
0	C	0.543228	0.842019	0.340266
0	C	0.508472	0.638549	0.998672
0	C	0.372969	0.875153	0.000867095
0	C	0.137126	0.504533	0.998076
0	C	0.832521	0.995029	0.656727
0	C	0.0167008	0.839206	0.661803
0	C	0.171335	0.180042	0.655184
0	C	0.181428	0.0156022	0.34831
0	C	0.996686	0.170977	0.347588
0	C	0.841757	0.830439	0.351136
0	C	0.494603	0.327558	0.987292
0	C	0.684953	0.169758	0.985469
0	C	0.841534	0.515661	0.987434
0	C	0.853168	0.346922	0.688883
0	C	0.664992	0.507057	0.686067
0	C	0.503879	0.157852	0.687803
0	C	0.159859	0.663677	0.31861
0	C	0.348398	0.503646	0.321191
0	C	0.509342	0.852721	0.318787
0	C	0.518556	0.682981	0.0195649
0	C	0.328381	0.840862	0.0217365
0	C	0.171691	0.494818	0.0192119
0	C	0.870927	0.993514	0.604041
0	C	0.0174951	0.878626	0.607108
0	C	0.130961	0.141678	0.605055
0	C	0.142902	0.0168571	0.401212
0	C	0.995617	0.131321	0.400655
0	C	0.881987	0.868814	0.40255
0	C	0.532908	0.325588	0.937272
0	C	0.687052	0.210037	0.935078
0	C	0.801392	0.477089	0.936838
0	C	0.8151	0.349341	0.73864
0	C	0.662777	0.466695	0.735957
0	C	0.544534	0.195857	0.738184
0	C	0.197883	0.661234	0.268277
0	C	0.350514	0.543955	0.271108
0	C	0.468657	0.814677	0.269078
0	C	0.480184	0.684864	0.0691907
0	C	0.326168	0.800519	0.0719268
0	C	0.211794	0.53336	0.0704609
0	C	0.814211	0.0869019	0.679258
0	C	0.925863	0.728176	0.689697
0	C	0.281775	0.19823	0.677395
0	C	0.200194	0.924094	0.324165
0	C	0.0879419	0.281968	0.324324
0	C	0.731196	0.811823	0.327598
0	C	0.476738	0.419792	0.0119306
0	C	0.592271	0.0595762	0.00847961
0	C	0.951982	0.534277	0.0105814
0	C	0.869797	0.254018	0.662735
0	C	0.757791	0.617276	0.661864
0	C	0.394074	0.141129	0.661578
0	C	0.143312	0.756629	0.344696
0	C	0.255659	0.393424	0.346146
0	C	0.619117	0.869381	0.345102
0	C	0.536642	0.590885	0.9954
0	C	0.421161	0.951	0.998883
0	C	0.061247	0.476192	0.996007
0	C	0.795476	0.0994841	0.827596
0	C	0.912935	0.697751	0.841649
0	C	0.313066	0.217087	0.826224
0	C	0.218376	0.911265	0.174591
0	C	0.100749	0.312878	0.17415
0	C	0.700076	0.793135	0.178142
0	C	0.458398	0.43228	0.162203
0	C	0.57911	0.0285213	0.158281
0	C	0.983239	0.552791	0.159638
0	C	0.887684	0.241003	0.512559
0	C	0.770578	0.648248	0.511889
0	C	0.363196	0.123383	0.510926
0	C	0.125454	0.769668	0.494896
0	C	0.242918	0.362393	0.495871
0	C	0.649953	0.887021	0.495957
0	C	0.554931	0.578371	0.845026
0	C	0.434311	0.982059	0.849095
0	C	0.0300217	0.457786	0.846843
0	C	0.862146	0.949625	0.585546
0	C	0.0611544	0.914474	0.588313
0	C	0.0959592	0.150635	0.587825
0	C	0.151445	0.0606541	0.420388
0	C	0.951867	0.0955909	0.418313
0	C	0.917065	0.859988	0.420407
0	C	0.523752	0.281531	0.920547
0	C	0.731175	0.24508	0.917877
0	C	0.766101	0.485611	0.919305
0	C	0.824573	0.393527	0.753203
0	C	0.618586	0.431664	0.751048
0	C	0.579236	0.186384	0.75319
0	C	0.188357	0.617026	0.25362
0	C	0.394666	0.579046	0.255755
0	C	0.433941	0.824129	0.254066
0	C	0.489252	0.72889	0.0859968
0	C	0.282002	0.765549	0.0889077
0	C	0.247088	0.524844	0.0881072
0	C	0.77928	0.127151	0.772007
0	C	0.885455	0.653493	0.789043
0	C	0.357096	0.23336	0.771192
0	C	0.234593	0.883544	0.229138
0	C	0.128304	0.357002	0.228341
0	C	0.655978	0.776686	0.232552
0	C	0.442098	0.459996	0.108601
0	C	0.551155	0.984515	0.104156
0	C	0.0272882	0.569086	0.104975
0	C	0.903915	0.213267	0.566779
0	C	0.79864	0.692287	0.565982
0	C	0.319088	0.107069	0.56495
0	C	0.109302	0.797464	0.440624
0	C	0.214959	0.318352	0.441501
0	C	0.694061	0.903275	0.442043
0	C	0.57121	0.550626	0.898486
0	C	0.462298	0.0260661	0.903127
0	C	0.985966	0.441439	0.901521
0	C	0.83039	0.117947	0.956483
0	C	0.894131	0.714734	0.965854
0	C	0.296469	0.182245	0.955285
0	C	0.183111	0.89276	0.0473687
0	C	0.119451	0.296255	0.0476862
0	C	0.716714	0.828144	0.0498789
0	C	0.493615	0.450657	0.289671
0	C	0.560753	0.0454541	0.284849
0	C	0.966446	0.517602	0.287047
0	C	0.852271	0.222565	0.38607
0	C	0.788721	0.631266	0.384467
0	C	0.380321	0.158792	0.384573
0	C	0.160896	0.788064	0.62128
0	C	0.224711	0.379266	0.623505
0	C	0.632731	0.851556	0.622038
0	C	0.519696	0.559997	0.71766
0	C	0.452634	0.965116	0.722403
0	C	0.0468006	0.493022	0.719659
0	C	0.83876	0.0922212	0.0588365
0	C	0.919578	0.749309	0.0671607
0	C	0.262217	0.173832	0.057165
0	C	0.174639	0.918436	0.945143
0	C	0.0939209	0.261891	0.945582
0	C	0.751084	0.836782	0.94833
0	C	0.502138	0.424836	0.390815
0	C	0.586604	0.0797224	0.386843
0	C	0.932187	0.509004	0.389168
0	C	0.843498	0.248314	0.285665
0	C	0.7627	0.59696	0.282973
0	C	0.414887	0.167545	0.283925
0	C	0.169533	0.762279	0.722091
0	C	0.250689	0.413648	0.724761
0	C	0.598184	0.842858	0.722704
0	C	0.511178	0.585812	0.61645
0	C	0.426758	0.930845	0.620498
0	C	0.0810724	0.501691	0.617469
0	C	0.870422	0.11006	0.179336
0	C	0.901326	0.763402	0.183973
0	C	0.248298	0.142306	0.178153
0	C	0.142763	0.900521	0.825648
0	C	0.112025	0.24797	0.827253
0	C	0.765027	0.868456	0.828035
0	C	0.534085	0.44256	0.510073
0	C	0.568878	0.0939447	0.505643
0	C	0.917957	0.476996	0.50798
0	C	0.811282	0.230503	0.167692
0	C	0.780229	0.582656	0.163599
0	C	0.429303	0.199613	0.165429
0	C	0.201702	0.780057	0.840331
0	C	0.233098	0.427913	0.844009
0	C	0.583707	0.810759	0.841072
0	C	0.479218	0.56809	0.497283
0	C	0.444445	0.916612	0.501573
0	C	0.0952566	0.533722	0.49879
0	C	0.895385	0.152531	0.190217
0	C	0.858789	0.745767	0.191703
0	C	0.265861	0.117504	0.18997
0	C	0.117674	0.858051	0.815848
0	C	0.154555	0.265622	0.818463
0	C	0.747353	0.893167	0.816609
0	C	0.559164	0.485022	0.521043
0	C	0.526407	0.076705	0.515151
0	C	0.935116	0.451801	0.516981
0	C	0.786317	0.188026	0.156729
0	C	0.822681	0.599829	0.153388
0	C	0.411759	0.224445	0.154093
0	C	0.226812	0.822521	0.850797
0	C	0.19063	0.410581	0.854623
0	C	0.601147	0.785835	0.852207
0	C	0.45412	0.525629	0.486414
0	C	0.486917	0.93387	0.491788
0	C	0.0780136	0.558846	0.489902
0	C	0.888263	0.177848	0.0832763
0	C	0.833802	0.712923	0.0853366
0	C	0.2984	0.124619	0.083251
0	C	0.124841	0.832795	0.922966
0	C	0.179657	0.298323	0.925271
0	C	0.714682	0.885814	0.922961
0	C	0.551852	0.510424	0.415448
0	C	0.500981	0.0441056	0.408536
0	C	0.967728	0.459158	0.410231
0	C	0.793993	0.162686	0.261028
0	C	0.848277	0.632427	0.259713
0	C	0.378747	0.216821	0.258755
0	C	0.219338	0.847882	0.745701
0	C	0.165077	0.37784	0.748876
0	C	0.634111	0.793381	0.747375
0	C	0.461422	0.500225	0.59204
0	C	0.512375	0.966473	0.598343
0	C	0.0453709	0.551402	0.596609
0	C	0.855609	0.160498	0.968407
0	C	0.851516	0.6973	0.974453
0	C	0.313812	0.157144	0.967848
0	C	0.157722	0.850209	0.0367437
0	C	0.162056	0.313739	0.0378143
0	C	0.699252	0.853144	0.0376506
0	C	0.518955	0.4932	0.301522
0	C	0.518206	0.02841	0.295277
0	C	0.983487	0.492212	0.297384
0	C	0.827095	0.180021	0.373883
0	C	0.831258	0.64827	0.373262
0	C	0.362975	0.183884	0.372317
0	C	0.186252	0.830599	0.632805
0	C	0.182164	0.362081	0.63526
0	C	0.649948	0.826341	0.63393
0	C	0.494335	0.517456	0.705917
0	C	0.495178	0.982168	0.711762
0	C	0.0296699	0.518331	0.709367
0	C	0.725489	0.0365123	0.364923
0	C	0.977126	0.694943	0.384825
0	C	0.320065	0.286712	0.36323
0	C	0.287364	0.974155	0.634648
0	C	0.0370688	0.317818	0.634278
0	C	0.693852	0.72418	0.63981
0	C	0.389403	0.368989	0.700846
0	C	0.638924	0.0213378	0.701396
0	C	0.990777	0.620767	0.700004
0	C	0.953957	0.300659	0.968224
0	C	0.707781	0.654379	0.973154
0	C	0.357195	0.0565542	0.967161
0	C	0.0587161	0.709348	0.0387669
0	C	0.305585	0.356334	0.0347643
0	C	0.655925	0.953734	0.0400687
0	C	0.623879	0.64145	0.306323
0	C	0.374469	0.989322	0.306256
0	C	0.0227232	0.389983	0.305694
0	H	0.849408	0.180745	0.888704
0	H	0.831513	0.670547	0.8952
0	H	0.340323	0.163279	0.888375
0	H	0.163957	0.830003	0.11657
0	H	0.18216	0.340385	0.117391
0	H	0.67265	0.846845	0.116824
0	H	0.512766	0.513577	0.22272
0	H	0.497797	0.0018759	0.215817
0	H	0.0100681	0.498581	0.217831
0	H	0.833694	0.159749	0.451516
0	H	0.851762	0.674801	0.452563
0	H	0.336134	0.177379	0.450288
0	H	0.179825	0.850896	0.554499
0	H	0.161706	0.335421	0.556453
0	H	0.676735	0.832772	0.555745
0	H	0.500513	0.497071	0.784731
0	H	0.515616	0.0086958	0.791197
0	H	0.00305882	0.511886	0.788857
0	H	0.907483	0.211029	0.091937
0	H	0.800573	0.698904	0.0913681
0	H	0.312378	0.105502	0.0925448
0	H	0.105485	0.799617	0.915272
0	H	0.212882	0.312413	0.918242
0	H	0.700611	0.904851	0.913923
0	H	0.571081	0.543593	0.424321
0	H	0.46779	0.0302346	0.416126
0	H	0.981507	0.439845	0.417398
0	H	0.774881	0.129508	0.251828
0	H	0.88145	0.646054	0.251672
0	H	0.364647	0.235818	0.249313
0	H	0.238629	0.881056	0.754297
0	H	0.131896	0.364004	0.757439
0	H	0.648101	0.77428	0.756547
0	H	0.44218	0.467058	0.583232
0	H	0.545565	0.980353	0.590541
0	H	0.0314998	0.570632	0.589445
0	H	0.920084	0.165798	0.283735
0	H	0.845205	0.757447	0.282122
0	H	0.254397	0.0929596	0.284019
0	H	0.0928186	0.844723	0.72306
0	H	0.168027	0.254092	0.726793
0	H	0.758831	0.917824	0.723089
0	H	0.58408	0.498156	0.61351
0	H	0.513273	0.0885218	0.607144
0	H	0.923242	0.426726	0.608634
0	H	0.761189	0.174805	0.0652225
0	H	0.835713	0.588001	0.0609599
0	H	0.423646	0.249406	0.0619346
0	H	0.251908	0.835729	0.942492
0	H	0.177564	0.422396	0.946949
0	H	0.5892	0.760839	0.944206
0	H	0.429198	0.512496	0.393994
0	H	0.500022	0.922064	0.399609
0	H	0.0898388	0.58392	0.398263
0	H	0.875342	0.0908164	0.268845
0	H	0.920311	0.787955	0.272802
0	H	0.22403	0.13736	0.267351
0	H	0.137757	0.919702	0.736111
0	H	0.0929512	0.223586	0.737931
0	H	0.789395	0.87359	0.739064
0	H	0.539138	0.423226	0.598514
0	H	0.588224	0.118221	0.594947
0	H	0.893709	0.471947	0.597492
0	H	0.805905	0.249749	0.079979
0	H	0.760777	0.558373	0.0745977
0	H	0.453931	0.204933	0.077587
0	H	0.206921	0.760785	0.928511
0	H	0.252525	0.452298	0.932697
0	H	0.559091	0.805476	0.928916
0	H	0.474164	0.587414	0.408786
0	H	0.425079	0.892324	0.41237
0	H	0.119514	0.538831	0.409216
0	H	0.894105	0.0675627	0.0366223
0	H	0.943668	0.829116	0.0391623
0	H	0.182016	0.118468	0.0348273
0	H	0.11932	0.943127	0.967975
0	H	0.0693925	0.181896	0.970494
0	H	0.831267	0.892279	0.971794
0	H	0.557344	0.400159	0.364136
0	H	0.612011	0.15974	0.361276
0	H	0.852289	0.453863	0.363382
0	H	0.788815	0.273839	0.309752
0	H	0.737441	0.516916	0.308194
0	H	0.495385	0.222444	0.308826
0	H	0.224263	0.736903	0.697737
0	H	0.275782	0.493633	0.699033
0	H	0.517683	0.788036	0.697706
0	H	0.456041	0.610605	0.642882
0	H	0.401171	0.850716	0.645473
0	H	0.160955	0.55689	0.643474
0	H	0.922865	0.0229143	0.0928767
0	H	0.987888	0.903023	0.0898972
0	H	0.108392	0.0894862	0.0914756
0	H	0.090576	0.987855	0.9136
0	H	0.0249328	0.108175	0.915879
0	H	0.904958	0.921454	0.915899
0	H	0.586284	0.355517	0.416683
0	H	0.657011	0.233343	0.416648
0	H	0.77853	0.42463	0.416751
0	H	0.760651	0.319197	0.25872
0	H	0.692207	0.443157	0.257239
0	H	0.569163	0.250794	0.258325
0	H	0.252543	0.691644	0.748703
0	H	0.320889	0.567421	0.749617
0	H	0.443923	0.759757	0.748165
0	H	0.42719	0.655315	0.590054
0	H	0.355993	0.777132	0.590066
0	H	0.234749	0.586205	0.590444
0	H	0.877068	0.949067	0.158773
0	H	0.0619788	0.932367	0.155755
0	H	0.0802663	0.135094	0.157471
0	H	0.136359	0.0617516	0.848787
0	H	0.951018	0.0794075	0.848269
0	H	0.93326	0.876016	0.84946
0	H	0.54065	0.281561	0.482033
0	H	0.730798	0.261417	0.484866
0	H	0.750114	0.469955	0.483168
0	H	0.80696	0.393143	0.195404
0	H	0.618159	0.414888	0.19399
0	H	0.59686	0.204722	0.19512
0	H	0.206322	0.617657	0.811743
0	H	0.394977	0.595862	0.812721
0	H	0.416285	0.805881	0.811332
0	H	0.472888	0.729221	0.52424
0	H	0.282225	0.74925	0.522196
0	H	0.263239	0.540951	0.523866
0	H	0.801235	0.9199	0.16172
0	H	0.0917596	0.886462	0.164248
0	H	0.127086	0.210874	0.160353
0	H	0.212199	0.0908957	0.844997
0	H	0.921628	0.125668	0.841906
0	H	0.886571	0.800216	0.845672
0	H	0.464858	0.252385	0.489643
0	H	0.759459	0.214537	0.492031
0	H	0.796878	0.545715	0.491982
0	H	0.882625	0.421522	0.18752
0	H	0.589557	0.461786	0.185866
0	H	0.549402	0.129088	0.18718
0	H	0.130647	0.589153	0.819464
0	H	0.423736	0.5491	0.821122
0	H	0.46379	0.8815	0.819253
0	H	0.548678	0.75831	0.516615
0	H	0.253751	0.796293	0.515442
0	H	0.216523	0.465186	0.514515
0	H	0.772129	0.964391	0.109969
0	H	0.0476788	0.812354	0.118216
0	H	0.200892	0.240229	0.107655
0	H	0.241284	0.0463187	0.894701
0	H	0.965936	0.199578	0.891989
0	H	0.812718	0.770687	0.897566
0	H	0.435558	0.296901	0.442753
0	H	0.714525	0.140666	0.442666
0	H	0.870933	0.575305	0.44457
0	H	0.911137	0.376233	0.232409
0	H	0.63466	0.535792	0.231265
0	H	0.475395	0.10039	0.231843
0	H	0.102013	0.634344	0.774698
0	H	0.378738	0.475047	0.776213
0	H	0.537799	0.910142	0.774644
0	H	0.577886	0.713731	0.563919
0	H	0.298834	0.870121	0.565046
0	H	0.142456	0.435533	0.561518
0	H	0.739111	0.0640587	0.4458
0	H	0.948959	0.678413	0.461239
0	H	0.332775	0.272313	0.446202
0	H	0.273943	0.946409	0.554987
0	H	0.0652133	0.33414	0.557625
0	H	0.680814	0.73838	0.557516
0	H	0.403691	0.396191	0.783672
0	H	0.612865	0.0123473	0.788355
0	H	0.000473459	0.604279	0.786581
0	H	0.936742	0.274351	0.882486
0	H	0.73497	0.667102	0.890183
0	H	0.345287	0.0718821	0.885126
0	H	0.0755113	0.735766	0.124412
0	H	0.278427	0.343767	0.117864
0	H	0.667564	0.938228	0.122507
0	H	0.609631	0.614118	0.224224
0	H	0.400427	0.998166	0.218883
0	H	0.0121518	0.406006	0.220756
0	H	0.694432	0.0298652	0.331719
0	H	0.986857	0.672752	0.352922
0	H	0.345503	0.317338	0.33072
0	H	0.318651	0.981382	0.666946
0	H	0.0277567	0.340257	0.667486
0	H	0.668685	0.693368	0.67187
0	H	0.358603	0.363323	0.668961
0	H	0.640099	0.993476	0.672921
0	H	0.018318	0.650216	0.670107
0	H	0.983245	0.30215	0.995798
0	H	0.702546	0.679743	0.00495742
0	H	0.331211	0.0260156	0.996506
0	H	0.0291872	0.707267	0.0106597
0	H	0.310627	0.330838	0.00308647
0	H	0.682089	0.98418	0.0109415
0	H	0.654743	0.647288	0.338191
0	H	0.373454	0.0172693	0.334752
0	H	0.99576	0.360121	0.33584
0	H	0.722258	0.0110466	0.444444
0	H	0.000890506	0.718298	0.468256
0	H	0.298081	0.290981	0.440191
0	H	0.290004	0.999255	0.554208
0	H	0.0130984	0.294799	0.550626
0	H	0.716028	0.720331	0.5623
0	H	0.385413	0.342828	0.777843
0	H	0.667013	0.0420823	0.772495
0	H	0.969837	0.627549	0.771757
0	H	0.960949	0.328453	0.896146
0	H	0.681446	0.63228	0.896374
0	H	0.379115	0.0521489	0.890231
0	H	0.0521791	0.681737	0.111286
0	H	0.332005	0.378376	0.111307
0	H	0.634062	0.958352	0.116397
0	H	0.627708	0.667447	0.228658
0	H	0.346289	0.968626	0.235728
0	H	0.0439812	0.384018	0.231793
0	H	0.804239	0.158745	0.746566
0	H	0.853847	0.64647	0.761605
0	H	0.363549	0.208456	0.744012
0	H	0.209625	0.852025	0.255804
0	H	0.159812	0.363827	0.256561
0	H	0.649529	0.801498	0.261793
0	H	0.467022	0.491316	0.079155
0	H	0.519762	0.978071	0.0766493
0	H	0.0339346	0.544187	0.0804196
0	H	0.87898	0.181732	0.593546
0	H	0.829979	0.698616	0.594361
0	H	0.312661	0.131923	0.593715
0	H	0.134297	0.828956	0.41367
0	H	0.183404	0.311731	0.415914
0	H	0.700473	0.878377	0.41402
0	H	0.546282	0.519345	0.928446
0	H	0.493581	0.0323852	0.932165
0	H	0.979337	0.466306	0.927135
0	H	0.760882	0.11616	0.655479
0	H	0.896662	0.645746	0.674193
0	H	0.364755	0.252125	0.655692
0	H	0.253333	0.894624	0.344754
0	H	0.116929	0.364634	0.342984
0	H	0.648137	0.757433	0.346629
0	H	0.422732	0.448571	0.994746
0	H	0.562225	0.976703	0.989029
0	H	0.0348594	0.587349	0.988045
0	H	0.922741	0.224351	0.682219
0	H	0.787484	0.700208	0.680524
0	H	0.31118	0.087866	0.679232
0	H	0.0904618	0.786387	0.325227
0	H	0.22579	0.31072	0.325207
0	H	0.701952	0.922317	0.327272
0	H	0.590707	0.562106	0.011967
0	H	0.451039	0.03403	0.0172488
0	H	0.978347	0.422947	0.017801
0	H	0.759908	0.129201	0.871971
0	H	0.88337	0.63255	0.891307
0	H	0.378531	0.252376	0.872033
0	H	0.253618	0.881291	0.128086
0	H	0.130697	0.378173	0.126557
0	H	0.634686	0.758098	0.130539
0	H	0.423622	0.462648	0.211019
0	H	0.548647	0.963224	0.205553
0	H	0.0486848	0.588564	0.20498
0	H	0.922886	0.210971	0.465596
0	H	0.80142	0.713589	0.464115
0	H	0.297799	0.088447	0.462956
0	H	0.090368	0.79983	0.541789
0	H	0.212773	0.297006	0.542047
0	H	0.715364	0.922024	0.543784
0	H	0.589547	0.547862	0.795757
0	H	0.465122	0.0473239	0.800996
0	H	0.964593	0.422151	0.801065
0	H	0.850935	0.932532	0.705358
0	H	0.0783269	0.920781	0.70809
0	H	0.0906688	0.162341	0.707451
0	H	0.16259	0.0778401	0.30075
0	H	0.934876	0.0894709	0.298139
0	H	0.922672	0.848602	0.30058
0	H	0.51263	0.26479	0.0410755
0	H	0.748034	0.250745	0.0381198
0	H	0.76034	0.496762	0.0393185
0	H	0.835594	0.409898	0.63173
0	H	0.602146	0.426074	0.629658
0	H	0.584738	0.175564	0.631625
0	H	0.177384	0.600663	0.375133
0	H	0.411193	0.584631	0.37692
0	H	0.428639	0.835251	0.375261
0	H	0.500397	0.745656	0.965525
0	H	0.265223	0.759889	0.968461
0	H	0.253057	0.513986	0.967768
0	H	0.838884	0.932912	0.487479
0	H	0.0781325	0.908395	0.49017
0	H	0.102342	0.173531	0.48848
0	H	0.17468	0.0773843	0.518557
0	H	0.934816	0.10168	0.516078
0	H	0.910556	0.836891	0.518976
0	H	0.500317	0.264715	0.823221
0	H	0.747866	0.238509	0.820098
0	H	0.772507	0.508783	0.821216
0	H	0.84819	0.410518	0.849658
0	H	0.601578	0.438231	0.847313
0	H	0.572374	0.16265	0.849105
0	H	0.164686	0.600051	0.157367
0	H	0.411641	0.572561	0.159041
0	H	0.440647	0.847622	0.157168
0	H	0.512642	0.745721	0.183483
0	H	0.26529	0.772203	0.186293
0	H	0.240545	0.50145	0.185307
0	H	0.889816	0.948964	0.548972
0	H	0.0612562	0.942497	0.55157
0	H	0.0672496	0.122956	0.553804
0	H	0.123696	0.0611298	0.457205
0	H	0.951569	0.0674579	0.45487
0	H	0.945646	0.887649	0.455856
0	H	0.551216	0.280497	0.88385
0	H	0.732248	0.2736	0.88156
0	H	0.737663	0.45788	0.883212
0	H	0.797262	0.394856	0.789822
0	H	0.617339	0.403118	0.788217
0	H	0.607953	0.213622	0.790794
0	H	0.215628	0.615662	0.216675
0	H	0.395816	0.607571	0.218996
0	H	0.405161	0.796806	0.217785
0	H	0.461744	0.729863	0.122494
0	H	0.280825	0.737003	0.125598
0	H	0.27545	0.55251	0.125481
0	H	0.793549	0.0291193	0.325528
0	H	0.983493	0.769962	0.336878
0	H	0.244271	0.218914	0.32301
0	H	0.219366	0.981613	0.677164
0	H	0.0306743	0.242778	0.676673
0	H	0.769497	0.792154	0.68168
0	H	0.457352	0.361506	0.657676
0	H	0.648589	0.0974495	0.656716
0	H	0.914731	0.553386	0.658048
0	H	0.887462	0.310193	0.0152637
0	H	0.69965	0.578714	0.0158692
0	H	0.433341	0.123523	0.0143675
0	H	0.125403	0.700082	0.991969
0	H	0.31378	0.432042	0.991825
0	H	0.579721	0.886896	0.99235
0	H	0.555953	0.648962	0.349305
0	H	0.364865	0.913249	0.350637
0	H	0.098728	0.457421	0.348158
0	H	0.857369	0.0567983	0.56021
0	H	0.95495	0.800731	0.566371
0	H	0.207994	0.155008	0.557714
0	H	0.156922	0.9538	0.443772
0	H	0.0583819	0.208892	0.44469
0	H	0.804808	0.855199	0.448077
0	H	0.519436	0.38925	0.889025
0	H	0.62319	0.132846	0.887173
0	H	0.878698	0.491257	0.889722
0	H	0.8278	0.285108	0.786587
0	H	0.726796	0.54391	0.784375
0	H	0.467439	0.183085	0.78588
0	H	0.185222	0.725469	0.220714
0	H	0.286605	0.466691	0.223022
0	H	0.545781	0.827497	0.220715
0	H	0.493785	0.621282	0.11771
0	H	0.390176	0.877662	0.119975
0	H	0.134479	0.519155	0.117094
0	H	0.865313	0.0546953	0.780662
0	H	0.956938	0.811791	0.78575
0	H	0.198045	0.147081	0.778295
0	H	0.148766	0.956029	0.223653
0	H	0.0565611	0.19856	0.224548
0	H	0.814994	0.863311	0.227702
0	H	0.528075	0.387521	0.108955
0	H	0.624944	0.1432	0.107101
0	H	0.868458	0.482809	0.10978
0	H	0.818961	0.287055	0.56695
0	H	0.724987	0.533586	0.564326
0	H	0.478336	0.192073	0.566339
0	H	0.194111	0.72357	0.440352
0	H	0.288402	0.477098	0.442961
0	H	0.534859	0.81847	0.440218
0	H	0.485228	0.623032	0.897726
0	H	0.38836	0.867338	0.899964
0	H	0.144794	0.527719	0.897113
0	H	0.819996	0.977856	0.777296
0	H	0.0340566	0.844529	0.782305
0	H	0.167157	0.192925	0.775562
0	H	0.193936	0.0329246	0.228032
0	H	0.979529	0.166029	0.226794
0	H	0.84617	0.817766	0.230625
0	H	0.481672	0.31048	0.107648
0	H	0.702014	0.173956	0.105899
0	H	0.837169	0.528414	0.107722
0	H	0.866361	0.36404	0.568747
0	H	0.647941	0.502943	0.565632
0	H	0.507837	0.144812	0.567426
0	H	0.146761	0.646595	0.438905
0	H	0.365489	0.507825	0.441571
0	H	0.505459	0.865883	0.438962
0	H	0.53152	0.700078	0.899266
0	H	0.311329	0.836726	0.901332
0	H	0.176129	0.482185	0.898747
0	H	0.808264	0.979248	0.559538
0	H	0.0326225	0.83087	0.565095
0	H	0.179767	0.204048	0.55706
0	H	0.205638	0.0313512	0.445736
0	H	0.980687	0.17916	0.444524
0	H	0.833256	0.806314	0.448768
0	H	0.470564	0.311933	0.889143
0	H	0.700506	0.16131	0.887407
0	H	0.849857	0.539658	0.889348
0	H	0.877196	0.362249	0.787346
0	H	0.649428	0.515482	0.784129
0	H	0.495043	0.133751	0.785824
0	H	0.135753	0.648322	0.220504
0	H	0.363963	0.495231	0.223099
0	H	0.518128	0.876723	0.220352
0	H	0.54254	0.698623	0.117925
0	H	0.312857	0.849337	0.119842
0	H	0.163316	0.470726	0.116898
0	H	0.882847	0.00998623	0.48166
0	H	0.000979937	0.873489	0.484367
0	H	0.134992	0.129339	0.482757
0	H	0.130995	0.000247801	0.523326
0	H	0.0120224	0.136126	0.523486
0	H	0.877715	0.88096	0.524903
0	H	0.545309	0.341948	0.814919
0	H	0.670648	0.205946	0.812745
0	H	0.805659	0.464904	0.814599
0	H	0.802757	0.333312	0.861682
0	H	0.678908	0.470571	0.858832
0	H	0.540811	0.208138	0.86119
0	H	0.210137	0.677228	0.14509
0	H	0.334349	0.540004	0.148266
0	H	0.472303	0.802293	0.146205
0	H	0.467724	0.668454	0.191396
0	H	0.342546	0.804532	0.194266
0	H	0.207441	0.545455	0.192773
0	H	0.895377	0.00985244	0.699791
0	H	0.000742975	0.886419	0.701954
0	H	0.122897	0.117414	0.701739
0	H	0.118499	0.000512479	0.305275
0	H	0.0123424	0.123615	0.305351
0	H	0.890119	0.893176	0.306275
0	H	0.557203	0.341892	0.0338767
0	H	0.67081	0.21804	0.0315856
0	H	0.793526	0.452853	0.0333669
0	H	0.790655	0.332899	0.642641
0	H	0.679223	0.458818	0.639845
0	H	0.552736	0.220326	0.642338
0	H	0.222407	0.677678	0.363947
0	H	0.334039	0.551809	0.367174
0	H	0.460512	0.790286	0.365259
0	H	0.455957	0.668563	0.972334
0	H	0.34237	0.792485	0.975348
0	H	0.219711	0.557661	0.974188
0	H	0.735793	0.0433897	0.787297
0	H	0.969253	0.69439	0.810117
0	H	0.316735	0.276592	0.784782
0	H	0.278249	0.967321	0.211898
0	H	0.0444455	0.316062	0.210314
0	H	0.696523	0.733633	0.218074
0	H	0.39864	0.376236	0.123003
0	H	0.634891	0.0245496	0.120553
0	H	0.986925	0.61226	0.119275
0	H	0.947682	0.296833	0.549178
0	H	0.714807	0.652171	0.55134
0	H	0.358804	0.0633739	0.546065
0	H	0.0654104	0.713892	0.458502
0	H	0.298745	0.35858	0.456432
0	H	0.65447	0.947091	0.461164
0	H	0.614682	0.634432	0.884406
0	H	0.378543	0.986059	0.887063
0	H	0.026331	0.398264	0.886061
0	H	0.761291	0.998474	0.896029
0	H	0.013824	0.765819	0.911338
0	H	0.245955	0.25095	0.89264
0	H	0.252565	0.0122257	0.105335
0	H	0.99977	0.245055	0.104422
0	H	0.767438	0.759611	0.111433
0	H	0.42435	0.331171	0.228388
0	H	0.680399	0.095315	0.228157
0	H	0.916154	0.586637	0.228542
0	H	0.922205	0.342142	0.443291
0	H	0.669216	0.581323	0.445162
0	H	0.429807	0.0890345	0.441566
0	H	0.0908426	0.668516	0.564086
0	H	0.344256	0.429449	0.562677
0	H	0.583452	0.921505	0.565338
0	H	0.588997	0.67948	0.778716
0	H	0.332998	0.915328	0.779377
0	H	0.0971092	0.424004	0.777272
0	H	0.780217	0.0226452	0.617394
0	H	0.990472	0.759263	0.631855
0	H	0.25154	0.23202	0.614429
0	H	0.234189	0.988477	0.384349
0	H	0.0234087	0.250916	0.383363
0	H	0.761595	0.778143	0.389858
0	H	0.442543	0.355588	0.949981
0	H	0.656676	0.0895892	0.948829
0	H	0.921738	0.568168	0.949304
0	H	0.904707	0.318381	0.722656
0	H	0.693513	0.587298	0.723792
0	H	0.42344	0.106257	0.720797
0	H	0.108344	0.692268	0.28485
0	H	0.319921	0.423378	0.283939
0	H	0.589797	0.904303	0.286015
0	H	0.570732	0.655109	0.0571534
0	H	0.356761	0.921003	0.0586665
0	H	0.091463	0.442216	0.0564979
