#******************************************
#
# CIF file created by Zeo++
# Zeo++ is an open source package to
# analyze microporous materials
#
#*******************************************

_cell_length_a		41.0227(0)
_cell_length_b		20.4671(0)
_cell_length_c		28.4583(0)
_cell_angle_alpha		90(0)
_cell_angle_beta		119.644(0)
_cell_angle_gamma		90(0)

_symmetry_space_group_name_H-M		'P1'
_symmetry_Int_Tables_number		1
_symmetry_cell_setting		Monoclinic

loop_
_symmetry_equiv_pos_as_xyz
'+x,+y,+z'

loop_
_atom_site_label
_atom_site_type_symbol
_atom_site_fract_x
_atom_site_fract_y
_atom_site_fract_z
0	Cl	0.587537	0.361132	0.974078
0	Cl	0.412565	0.361131	0.526104
0	Cl	0.41253	0.638904	0.0260453
0	Cl	0.587501	0.638905	0.474017
0	Cl	0.0875384	0.861149	0.974078
0	Cl	0.912564	0.86115	0.526104
0	Cl	0.912529	0.138887	0.026045
0	Cl	0.0875037	0.138887	0.474017
0	Cl	0.965141	0.7799	0.46621
0	Cl	0.0348895	0.7799	0.033852
0	Cl	0.0349248	0.220137	0.533911
0	Cl	0.965176	0.220137	0.966271
0	Cl	0.465144	0.279882	0.46621
0	Cl	0.534887	0.279882	0.033852
0	Cl	0.534922	0.720153	0.533911
0	Cl	0.46518	0.720153	0.966271
0	Cl	0.707731	0.224093	0.455089
0	Cl	0.2923	0.224093	0.044972
0	Cl	0.292334	0.775942	0.545032
0	Cl	0.707767	0.775942	0.95515
0	Cl	0.207735	0.724112	0.455089
0	Cl	0.792296	0.724112	0.044972
0	Cl	0.792331	0.275925	0.545032
0	Cl	0.207771	0.275925	0.95515
0	N	0.652811	0.508848	0.101616
0	N	0.34722	0.508848	0.398445
0	N	0.347256	0.49119	0.898505
0	N	0.652847	0.49119	0.601677
0	N	0.152813	0.00882754	0.101616
0	N	0.847218	0.00882755	0.398445
0	N	0.847254	0.991211	0.898505
0	N	0.152852	0.991221	0.60168
0	N	0.623979	0.475451	0.010922
0	N	0.376045	0.47543	0.489131
0	N	0.376087	0.524589	0.989198
0	N	0.624021	0.524609	0.510991
0	N	0.123982	0.975469	0.010922
0	N	0.876041	0.975449	0.489131
0	N	0.876083	0.0245683	0.989198
0	N	0.124024	0.0245823	0.510996
0	N	0.622494	0.40715	0.0761235
0	N	0.377532	0.407142	0.423921
0	N	0.377574	0.592888	0.924
0	N	0.622537	0.592896	0.576204
0	N	0.122496	0.90717	0.0761235
0	N	0.87753	0.907162	0.423921
0	N	0.877571	0.092869	0.924
0	N	0.122535	0.092873	0.576195
0	N	0.844086	0.735941	0.356291
0	N	0.155944	0.735941	0.143769
0	N	0.155979	0.264094	0.643828
0	N	0.844122	0.264094	0.856354
0	N	0.344089	0.235924	0.356291
0	N	0.655941	0.235924	0.143769
0	N	0.655976	0.764113	0.643828
0	N	0.34412	0.764108	0.856351
0	N	0.899012	0.722942	0.439992
0	N	0.10103	0.722952	0.0600745
0	N	0.101054	0.277097	0.56013
0	N	0.899036	0.277087	0.940048
0	N	0.399016	0.222922	0.439992
0	N	0.601027	0.222932	0.0600745
0	N	0.601051	0.777116	0.56013
0	N	0.399039	0.777112	0.940042
0	N	0.89939	0.789728	0.373137
0	N	0.100653	0.789727	0.12694
0	N	0.100677	0.21031	0.626983
0	N	0.899414	0.210311	0.873182
0	N	0.399391	0.289709	0.373137
0	N	0.600651	0.289707	0.12694
0	N	0.600675	0.71033	0.626983
0	N	0.399422	0.710331	0.873191
0	N	0.620184	0.375512	0.368906
0	N	0.379847	0.375512	0.131155
0	N	0.379883	0.624525	0.631215
0	N	0.62022	0.624525	0.868967
0	N	0.120186	0.875529	0.368906
0	N	0.879843	0.875529	0.131155
0	N	0.879879	0.124507	0.631215
0	N	0.120217	0.124514	0.868965
0	N	0.649588	0.299652	0.439628
0	N	0.350454	0.299638	0.0604365
0	N	0.35048	0.700386	0.560493
0	N	0.649613	0.7004	0.939686
0	N	0.149589	0.799672	0.439628
0	N	0.850453	0.799658	0.0604364
0	N	0.850477	0.200367	0.560493
0	N	0.149616	0.200383	0.93968
0	N	0.673423	0.318433	0.381078
0	N	0.326614	0.318414	0.118997
0	N	0.326644	0.681604	0.619043
0	N	0.673452	0.681623	0.881125
0	N	0.173425	0.818449	0.381078
0	N	0.826613	0.818431	0.118997
0	N	0.826642	0.181586	0.619043
0	N	0.173457	0.181595	0.881132
0	O	0.655535	0.577691	0.0348033
0	O	0.344496	0.577691	0.465259
0	O	0.344532	0.422347	0.965319
0	O	0.655571	0.422347	0.534863
0	O	0.155538	0.0776722	0.0348033
0	O	0.844492	0.0776722	0.465259
0	O	0.844528	0.922363	0.965319
0	O	0.155573	0.922363	0.534863
0	O	0.651354	0.438443	0.168532
0	O	0.348676	0.438443	0.331529
0	O	0.348711	0.561596	0.831588
0	O	0.65139	0.561596	0.668594
0	O	0.151358	0.938462	0.168532
0	O	0.848673	0.938462	0.331529
0	O	0.848708	0.0615758	0.831588
0	O	0.151394	0.0615758	0.668594
0	O	0.844206	0.665468	0.424382
0	O	0.155826	0.665468	0.0756796
0	O	0.155861	0.334572	0.57574
0	O	0.844241	0.334572	0.924442
0	O	0.344207	0.165447	0.424382
0	O	0.655824	0.165447	0.0756797
0	O	0.655859	0.834591	0.57574
0	O	0.344243	0.834591	0.924442
0	O	0.844895	0.803335	0.287301
0	O	0.155135	0.803335	0.21276
0	O	0.155171	0.196704	0.71282
0	O	0.844931	0.196704	0.787362
0	O	0.344899	0.303315	0.287301
0	O	0.655132	0.303315	0.21276
0	O	0.655167	0.696724	0.71282
0	O	0.344934	0.696724	0.787362
0	O	0.644785	0.392649	0.308025
0	O	0.355246	0.392649	0.192035
0	O	0.355283	0.607389	0.692097
0	O	0.64482	0.607389	0.808085
0	O	0.144787	0.892669	0.308025
0	O	0.855245	0.892669	0.192035
0	O	0.855281	0.10737	0.692097
0	O	0.144822	0.10737	0.808085
0	O	0.596148	0.355293	0.430232
0	O	0.403883	0.355293	0.0698296
0	O	0.403919	0.644746	0.56989
0	O	0.596183	0.644746	0.930292
0	O	0.0961502	0.855312	0.430232
0	O	0.903882	0.855312	0.0698296
0	O	0.903917	0.144726	0.56989
0	O	0.0961857	0.144726	0.930292
0	C	0.643516	0.520908	0.0494015
0	C	0.356517	0.520908	0.450661
0	C	0.356552	0.479128	0.950721
0	C	0.643551	0.479128	0.549461
0	C	0.143517	0.0208902	0.0494015
0	C	0.856514	0.0208902	0.450661
0	C	0.85655	0.979146	0.950721
0	C	0.143552	0.979146	0.549461
0	C	0.613379	0.418806	0.024153
0	C	0.386652	0.418806	0.475907
0	C	0.386687	0.581229	0.975968
0	C	0.613415	0.581229	0.524214
0	C	0.113381	0.918825	0.024153
0	C	0.88665	0.918825	0.475907
0	C	0.886686	0.0812125	0.975968
0	C	0.113417	0.0812125	0.524214
0	C	0.641729	0.452443	0.114954
0	C	0.358302	0.452443	0.385107
0	C	0.358337	0.547594	0.885167
0	C	0.641765	0.547594	0.615015
0	C	0.141732	0.952459	0.114954
0	C	0.8583	0.952459	0.385107
0	C	0.858336	0.0475763	0.885167
0	C	0.141767	0.0475763	0.615015
0	C	0.65955	0.491511	0.203939
0	C	0.340481	0.491511	0.296121
0	C	0.340518	0.508526	0.796184
0	C	0.659585	0.508526	0.703998
0	C	0.159552	0.991528	0.203939
0	C	0.840479	0.991527	0.296121
0	C	0.840516	0.00850959	0.796184
0	C	0.159587	0.00850953	0.703998
0	C	0.689127	0.485015	0.257181
0	C	0.310905	0.485015	0.24288
0	C	0.31094	0.515024	0.742941
0	C	0.689162	0.515024	0.757241
0	C	0.189129	0.985035	0.257181
0	C	0.810903	0.985035	0.24288
0	C	0.810939	0.0150036	0.742941
0	C	0.189164	0.0150036	0.757241
0	H	0.706058	0.441193	0.269733
0	H	0.293974	0.441193	0.230328
0	H	0.294009	0.558846	0.730387
0	H	0.706094	0.558846	0.769795
0	H	0.206059	0.941213	0.269733
0	H	0.793972	0.941213	0.230328
0	H	0.794007	0.0588254	0.730387
0	H	0.206095	0.0588254	0.769795
0	C	0.696416	0.535275	0.294112
0	C	0.303615	0.535275	0.205948
0	C	0.303651	0.46476	0.706011
0	C	0.696452	0.46476	0.794171
0	C	0.196418	0.0352584	0.294112
0	C	0.803613	0.0352584	0.205948
0	C	0.803649	0.964779	0.706011
0	C	0.196453	0.964779	0.794171
0	C	0.72676	0.533815	0.353482
0	C	0.27327	0.533815	0.146579
0	C	0.273306	0.466225	0.64664
0	C	0.726796	0.466225	0.853542
0	C	0.226764	0.0337941	0.353482
0	C	0.773267	0.0337941	0.146579
0	C	0.773303	0.966244	0.64664
0	C	0.226799	0.966244	0.853542
0	H	0.744291	0.488878	0.365764
0	H	0.255739	0.488878	0.134297
0	H	0.255774	0.511159	0.634356
0	H	0.744327	0.51116	0.865826
0	H	0.244295	0.988899	0.365764
0	H	0.755736	0.988899	0.134297
0	H	0.755771	0.0111389	0.634356
0	H	0.244331	0.0111389	0.865826
0	C	0.748723	0.597105	0.361867
0	C	0.251306	0.597105	0.138194
0	C	0.251342	0.402933	0.638255
0	C	0.748759	0.402933	0.861928
0	C	0.248727	0.0970853	0.361867
0	C	0.751304	0.0970852	0.138194
0	C	0.751339	0.902953	0.638255
0	C	0.248763	0.902953	0.861927
0	C	0.787596	0.601479	0.385927
0	C	0.212435	0.601479	0.114133
0	C	0.212471	0.398557	0.614192
0	C	0.787633	0.398557	0.88599
0	C	0.287598	0.101461	0.385927
0	C	0.712433	0.101461	0.114133
0	C	0.712468	0.898575	0.614192
0	C	0.287634	0.898575	0.88599
0	H	0.804407	0.557768	0.397949
0	H	0.195624	0.557768	0.102112
0	H	0.19566	0.44227	0.602172
0	H	0.804443	0.44227	0.89801
0	H	0.304409	0.0577483	0.397949
0	H	0.695623	0.0577483	0.102112
0	H	0.695658	0.94229	0.602172
0	H	0.304444	0.94229	0.89801
0	C	0.804815	0.662917	0.3954
0	C	0.195217	0.662917	0.104661
0	C	0.195253	0.337122	0.60472
0	C	0.804851	0.337122	0.895462
0	C	0.304816	0.162896	0.3954
0	C	0.695215	0.162896	0.104661
0	C	0.69525	0.837142	0.60472
0	C	0.304852	0.837142	0.895462
0	C	0.782534	0.720053	0.381178
0	C	0.217495	0.720053	0.118882
0	C	0.21753	0.279984	0.618941
0	C	0.782571	0.279984	0.881241
0	C	0.282538	0.220035	0.381178
0	C	0.717493	0.220035	0.118882
0	C	0.717528	0.780001	0.618941
0	C	0.282574	0.780001	0.881241
0	H	0.795634	0.76771	0.391167
0	H	0.204396	0.76771	0.108894
0	H	0.204431	0.232327	0.608954
0	H	0.79567	0.232327	0.891228
0	H	0.295637	0.267692	0.391167
0	H	0.704393	0.267692	0.108894
0	H	0.704428	0.732348	0.608954
0	H	0.295673	0.732348	0.891228
0	C	0.743323	0.715903	0.355885
0	C	0.256708	0.715903	0.144176
0	C	0.256743	0.284136	0.644235
0	C	0.743359	0.284136	0.855947
0	C	0.243326	0.215883	0.355885
0	C	0.756706	0.215883	0.144176
0	C	0.756742	0.784155	0.644235
0	C	0.243362	0.784155	0.855947
0	H	0.726521	0.759888	0.345581
0	H	0.27351	0.759888	0.15448
0	H	0.273545	0.240147	0.654539
0	H	0.726557	0.240147	0.845643
0	H	0.226523	0.259871	0.345581
0	H	0.773508	0.259871	0.15448
0	H	0.773544	0.740166	0.654539
0	H	0.226559	0.740166	0.845643
0	C	0.726432	0.654488	0.346373
0	C	0.273599	0.654488	0.153688
0	C	0.273635	0.345549	0.653749
0	C	0.726468	0.345549	0.846433
0	C	0.226434	0.15447	0.346373
0	C	0.773597	0.15447	0.153688
0	C	0.773633	0.845566	0.653749
0	C	0.226469	0.845566	0.846433
0	C	0.68463	0.64189	0.324029
0	C	0.315401	0.64189	0.176032
0	C	0.315436	0.358146	0.676093
0	C	0.684665	0.358146	0.824089
0	C	0.184633	0.141872	0.324029
0	C	0.815397	0.141872	0.176032
0	C	0.815433	0.858164	0.676093
0	C	0.184669	0.858164	0.824089
0	H	0.66707	0.686772	0.311808
0	H	0.33296	0.686772	0.188252
0	H	0.332997	0.313264	0.688314
0	H	0.667106	0.313264	0.811868
0	H	0.167072	0.186755	0.311808
0	H	0.832959	0.186755	0.188252
0	H	0.832995	0.813282	0.688314
0	H	0.167108	0.813282	0.811868
0	C	0.673984	0.592512	0.278402
0	C	0.326047	0.592512	0.221659
0	C	0.326082	0.407524	0.72172
0	C	0.674019	0.407524	0.778462
0	C	0.173987	0.0924951	0.278402
0	C	0.826043	0.0924951	0.221659
0	C	0.826079	0.907541	0.72172
0	C	0.174023	0.907541	0.778462
0	C	0.644044	0.598707	0.22585
0	C	0.355987	0.598707	0.274211
0	C	0.356022	0.401329	0.774272
0	C	0.644079	0.401329	0.72591
0	C	0.144047	0.0986898	0.22585
0	C	0.855983	0.0986898	0.274211
0	C	0.856019	0.901347	0.774272
0	C	0.144083	0.901347	0.72591
0	H	0.626191	0.641474	0.213955
0	H	0.37384	0.641474	0.286106
0	H	0.373875	0.358562	0.786166
0	H	0.626227	0.358562	0.714016
0	H	0.126194	0.141456	0.213955
0	H	0.873836	0.141456	0.286106
0	H	0.873872	0.85858	0.786166
0	H	0.12623	0.85858	0.714016
0	C	0.636641	0.547907	0.188893
0	C	0.36339	0.547907	0.311167
0	C	0.363425	0.452132	0.811228
0	C	0.636677	0.452132	0.688954
0	C	0.136644	0.0478866	0.188893
0	C	0.863386	0.0478866	0.311167
0	C	0.863422	0.952151	0.811228
0	C	0.13668	0.952151	0.688954
0	H	0.612567	0.551763	0.148865
0	H	0.387464	0.551763	0.351196
0	H	0.387501	0.448277	0.851258
0	H	0.612602	0.448277	0.648924
0	H	0.112569	0.051742	0.148865
0	H	0.887462	0.051742	0.351196
0	H	0.887499	0.948296	0.851258
0	H	0.112604	0.948296	0.648924
0	C	0.683212	0.602664	0.368657
0	C	0.316818	0.602664	0.131404
0	C	0.316854	0.397375	0.631463
0	C	0.683249	0.397375	0.868719
0	C	0.183215	0.102644	0.368657
0	C	0.816817	0.102644	0.131404
0	C	0.816852	0.897394	0.631463
0	C	0.183251	0.897394	0.868719
0	C	0.662946	0.61988	0.394246
0	C	0.337085	0.61988	0.105814
0	C	0.33712	0.380156	0.605874
0	C	0.662982	0.380156	0.894308
0	C	0.162949	0.119863	0.394246
0	C	0.837081	0.119863	0.105814
0	C	0.837116	0.880174	0.605874
0	C	0.162985	0.880174	0.894308
0	H	0.646174	0.663944	0.382896
0	H	0.353857	0.663944	0.117164
0	H	0.353893	0.336091	0.617225
0	H	0.646209	0.336091	0.882957
0	H	0.146176	0.163928	0.382896
0	H	0.853853	0.163928	0.117164
0	H	0.853889	0.83611	0.617225
0	H	0.146212	0.83611	0.882957
0	C	0.664639	0.579319	0.435044
0	C	0.335392	0.579319	0.0650179
0	C	0.335426	0.420721	0.565077
0	C	0.664675	0.420721	0.935105
0	C	0.164643	0.0792979	0.435044
0	C	0.835388	0.0792979	0.065018
0	C	0.835423	0.92074	0.565077
0	C	0.164678	0.92074	0.935105
0	H	0.649187	0.59255	0.455196
0	H	0.350844	0.59255	0.044864
0	H	0.350878	0.407485	0.544925
0	H	0.649223	0.407485	0.955257
0	H	0.149191	0.092534	0.455196
0	H	0.85084	0.092534	0.044864
0	H	0.850876	0.907503	0.544925
0	H	0.149226	0.907503	0.955257
0	C	0.686157	0.521783	0.449803
0	C	0.313874	0.521783	0.0502583
0	C	0.313909	0.478253	0.550319
0	C	0.686193	0.478253	0.949864
0	C	0.18616	0.0217659	0.449803
0	C	0.81387	0.0217659	0.0502582
0	C	0.813906	0.978271	0.550318
0	C	0.186196	0.978271	0.949864
0	H	0.68697	0.490727	0.481128
0	H	0.313061	0.490727	0.0189309
0	H	0.313096	0.50931	0.518993
0	H	0.687005	0.50931	0.981189
0	H	0.186973	0.990748	0.481128
0	H	0.813057	0.990748	0.0189309
0	H	0.813093	0.00929151	0.518993
0	H	0.187008	0.00929152	0.981189
0	C	0.706697	0.504392	0.42436
0	C	0.293333	0.504392	0.0757015
0	C	0.29337	0.495645	0.575762
0	C	0.706733	0.495645	0.92442
0	C	0.206699	0.00437328	0.42436
0	C	0.793332	0.00437327	0.0757016
0	C	0.793368	0.995666	0.575762
0	C	0.206735	0.995666	0.92442
0	H	0.723328	0.460166	0.435934
0	H	0.276703	0.460166	0.0641275
0	H	0.276738	0.539872	0.564188
0	H	0.723363	0.539872	0.935994
0	H	0.223331	0.960187	0.435934
0	H	0.776699	0.960187	0.0641275
0	H	0.776735	0.0398529	0.564188
0	H	0.223366	0.0398529	0.935994
0	C	0.705434	0.545018	0.3841
0	C	0.294597	0.545018	0.115961
0	C	0.294633	0.455019	0.616022
0	C	0.705469	0.455019	0.88416
0	C	0.205436	0.0449999	0.3841
0	C	0.794593	0.0449999	0.115961
0	C	0.794629	0.955035	0.616022
0	C	0.205472	0.955036	0.88416
0	C	0.862111	0.70966	0.406827
0	C	0.137921	0.70966	0.0932359
0	C	0.137957	0.290376	0.593299
0	C	0.862147	0.290376	0.906888
0	C	0.362113	0.209643	0.406827
0	C	0.637917	0.209643	0.0932359
0	C	0.637953	0.790394	0.593299
0	C	0.362149	0.790394	0.906888
0	C	0.917585	0.763029	0.42326
0	C	0.0824467	0.763029	0.0768015
0	C	0.0824822	0.237008	0.576861
0	C	0.91762	0.237008	0.923321
0	C	0.417586	0.26301	0.42326
0	C	0.582445	0.26301	0.0768015
0	C	0.58248	0.737025	0.576861
0	C	0.417623	0.737025	0.923321
0	C	0.862476	0.776987	0.339644
0	C	0.137556	0.776987	0.160417
0	C	0.137591	0.223049	0.660478
0	C	0.862512	0.223049	0.839704
0	C	0.362477	0.27697	0.339644
0	C	0.637553	0.27697	0.160417
0	C	0.637589	0.723067	0.660478
0	C	0.362513	0.723067	0.839704
0	C	0.805505	0.803922	0.257901
0	C	0.194527	0.803922	0.24216
0	C	0.194563	0.196114	0.742221
0	C	0.80554	0.196114	0.757961
0	C	0.305506	0.303905	0.257902
0	C	0.694525	0.303905	0.24216
0	C	0.694561	0.696132	0.742221
0	C	0.305542	0.696132	0.757961
0	C	0.788071	0.791305	0.202324
0	C	0.211959	0.791305	0.297737
0	C	0.211995	0.20873	0.797798
0	C	0.788107	0.20873	0.702384
0	C	0.288075	0.291289	0.202324
0	C	0.711956	0.291289	0.297737
0	C	0.711992	0.708748	0.797798
0	C	0.28811	0.708748	0.702384
0	H	0.80472	0.77747	0.184121
0	H	0.19531	0.77747	0.31594
0	H	0.195346	0.222569	0.816001
0	H	0.804756	0.222569	0.684181
0	H	0.304723	0.27745	0.184121
0	H	0.695307	0.27745	0.31594
0	H	0.695342	0.722588	0.816001
0	H	0.304759	0.722588	0.684181
0	C	0.749241	0.79638	0.170814
0	C	0.25079	0.79638	0.329247
0	C	0.250825	0.203657	0.829306
0	C	0.749277	0.203657	0.670876
0	C	0.249244	0.296361	0.170814
0	C	0.750787	0.296361	0.329247
0	C	0.750822	0.703674	0.829306
0	C	0.24928	0.703674	0.670876
0	C	0.726883	0.78565	0.109875
0	C	0.273147	0.78565	0.390186
0	C	0.273183	0.214388	0.890245
0	C	0.726919	0.214388	0.609937
0	C	0.226886	0.285631	0.109875
0	C	0.773144	0.285631	0.390186
0	C	0.773179	0.714408	0.890245
0	C	0.226922	0.714408	0.609937
0	H	0.744241	0.773172	0.0911019
0	H	0.255788	0.773172	0.408957
0	H	0.255825	0.226868	0.909022
0	H	0.744278	0.226868	0.591164
0	H	0.244245	0.273151	0.0911019
0	H	0.755785	0.273151	0.408957
0	H	0.755822	0.726887	0.909022
0	H	0.244281	0.726887	0.591164
0	C	0.698002	0.733635	0.102429
0	C	0.302029	0.733635	0.397631
0	C	0.302065	0.266404	0.897693
0	C	0.698037	0.266404	0.602489
0	C	0.198004	0.233614	0.102429
0	C	0.802025	0.233614	0.397631
0	C	0.802061	0.766423	0.897693
0	C	0.19804	0.766423	0.602489
0	C	0.691553	0.675832	0.0731181
0	C	0.308477	0.675832	0.426942
0	C	0.308513	0.324205	0.927003
0	C	0.691589	0.324205	0.573179
0	C	0.191556	0.175813	0.0731181
0	C	0.808474	0.175814	0.426942
0	C	0.80851	0.824222	0.927003
0	C	0.191592	0.824222	0.573179
0	H	0.708181	0.664205	0.0542558
0	H	0.291849	0.664205	0.445803
0	H	0.291885	0.335834	0.945864
0	H	0.708218	0.335834	0.554318
0	H	0.208183	0.164185	0.0542558
0	H	0.791847	0.164185	0.445803
0	H	0.791883	0.835853	0.945864
0	H	0.20822	0.835853	0.554318
0	C	0.662968	0.633366	0.0675489
0	C	0.337061	0.633366	0.43251
0	C	0.337097	0.36667	0.932571
0	C	0.663004	0.36667	0.567611
0	C	0.162972	0.133349	0.0675489
0	C	0.837059	0.133349	0.43251
0	C	0.837094	0.866687	0.932571
0	C	0.163008	0.866687	0.567611
0	C	0.640264	0.650851	0.0901676
0	C	0.359767	0.650851	0.409895
0	C	0.359803	0.349186	0.909956
0	C	0.640301	0.349186	0.59023
0	C	0.140267	0.150833	0.0901676
0	C	0.859764	0.150833	0.409895
0	C	0.859799	0.849203	0.909956
0	C	0.140304	0.849203	0.59023
0	H	0.616811	0.620651	0.0835002
0	H	0.383218	0.620651	0.416559
0	H	0.383255	0.379387	0.916624
0	H	0.616848	0.379387	0.583563
0	H	0.116814	0.120631	0.0835002
0	H	0.883215	0.120631	0.416559
0	H	0.883252	0.879408	0.916624
0	H	0.116851	0.879408	0.583563
0	C	0.646978	0.708356	0.120193
0	C	0.353054	0.708356	0.379868
0	C	0.35309	0.29168	0.87993
0	C	0.647014	0.29168	0.620256
0	C	0.14698	0.208339	0.120193
0	C	0.853052	0.208339	0.379868
0	C	0.853088	0.791698	0.87993
0	C	0.147016	0.791698	0.620256
0	H	0.629326	0.721215	0.137157
0	H	0.370705	0.721215	0.362904
0	H	0.37074	0.278821	0.862963
0	H	0.629362	0.278821	0.637219
0	H	0.129329	0.221198	0.137157
0	H	0.870701	0.221198	0.362904
0	H	0.870737	0.778839	0.862963
0	H	0.129365	0.778839	0.637219
0	C	0.675825	0.74968	0.126405
0	C	0.324207	0.749679	0.373656
0	C	0.324243	0.25036	0.873719
0	C	0.675861	0.25036	0.626467
0	C	0.175827	0.249659	0.126405
0	C	0.824204	0.249659	0.373656
0	C	0.824241	0.750379	0.873719
0	C	0.175863	0.750379	0.626467
0	C	0.685029	0.815878	0.154869
0	C	0.315001	0.815877	0.345192
0	C	0.315036	0.184158	0.845251
0	C	0.685066	0.184158	0.654931
0	C	0.185032	0.315861	0.154869
0	C	0.814998	0.315861	0.345192
0	C	0.815033	0.684176	0.845251
0	C	0.185068	0.684176	0.654931
0	H	0.667611	0.82844	0.17358
0	H	0.332421	0.82844	0.326481
0	H	0.332456	0.171597	0.826541
0	H	0.667647	0.171597	0.673641
0	H	0.167613	0.328421	0.17358
0	H	0.832419	0.328421	0.326481
0	H	0.832454	0.671614	0.826541
0	H	0.167648	0.671614	0.673641
0	C	0.72717	0.813061	0.194736
0	C	0.272861	0.813061	0.305325
0	C	0.272896	0.186975	0.805384
0	C	0.727206	0.186975	0.694798
0	C	0.227173	0.313044	0.194736
0	C	0.772859	0.313044	0.305325
0	C	0.772894	0.686993	0.805384
0	C	0.227209	0.686993	0.694798
0	C	0.744337	0.826813	0.249908
0	C	0.255695	0.826813	0.250153
0	C	0.255731	0.173227	0.750213
0	C	0.744372	0.173227	0.749969
0	C	0.244338	0.326792	0.249907
0	C	0.755693	0.326791	0.250153
0	C	0.755728	0.673246	0.750213
0	C	0.244374	0.673246	0.749969
0	H	0.727735	0.841173	0.268194
0	H	0.272296	0.841173	0.231868
0	H	0.272331	0.158866	0.731927
0	H	0.727771	0.158866	0.768255
0	H	0.227738	0.341153	0.268194
0	H	0.772292	0.341153	0.231867
0	H	0.772327	0.658886	0.731927
0	H	0.227774	0.658886	0.768255
0	C	0.783537	0.82333	0.281253
0	C	0.216493	0.82333	0.218808
0	C	0.216529	0.176707	0.71887
0	C	0.783572	0.176707	0.781312
0	C	0.283541	0.323312	0.281253
0	C	0.71649	0.323312	0.218808
0	C	0.716526	0.676724	0.71887
0	C	0.283576	0.676724	0.781312
0	H	0.79684	0.837132	0.323411
0	H	0.203191	0.837132	0.17665
0	H	0.203226	0.162907	0.676709
0	H	0.796876	0.162907	0.823473
0	H	0.296843	0.337112	0.323411
0	H	0.703187	0.337112	0.17665
0	H	0.703223	0.662927	0.676709
0	H	0.296879	0.662927	0.823473
0	C	0.703832	0.848123	0.0878384
0	C	0.296199	0.848123	0.412223
0	C	0.296234	0.151913	0.912284
0	C	0.703868	0.151913	0.587898
0	C	0.203835	0.348105	0.0878384
0	C	0.796195	0.348105	0.412223
0	C	0.796231	0.651931	0.912284
0	C	0.20387	0.651931	0.587898
0	C	0.703109	0.88768	0.0473983
0	C	0.296921	0.88768	0.452661
0	C	0.296956	0.112356	0.952722
0	C	0.703145	0.112356	0.54746
0	C	0.203112	0.387663	0.0473983
0	C	0.796918	0.387663	0.452661
0	C	0.796954	0.612374	0.952722
0	C	0.203148	0.612374	0.54746
0	H	0.721119	0.877284	0.030623
0	H	0.278912	0.877284	0.469439
0	H	0.278948	0.122755	0.9695
0	H	0.721155	0.122755	0.530682
0	H	0.221122	0.377263	0.030623
0	H	0.778911	0.377263	0.469439
0	H	0.778946	0.622775	0.9695
0	H	0.221157	0.622775	0.530682
0	C	0.678487	0.941006	0.028436
0	C	0.321543	0.941006	0.471623
0	C	0.321579	0.0590322	0.971684
0	C	0.678523	0.0590322	0.528498
0	C	0.17849	0.440987	0.028436
0	C	0.82154	0.440987	0.471623
0	C	0.821576	0.559052	0.971684
0	C	0.178526	0.559052	0.528498
0	H	0.677548	0.971656	0.996869
0	H	0.322554	0.971656	0.503313
0	H	0.322518	0.02838	0.00325161
0	H	0.677513	0.02838	0.496809
0	H	0.17755	0.471639	0.996869
0	H	0.822552	0.471639	0.503313
0	H	0.822517	0.528397	0.00325161
0	H	0.177514	0.528397	0.496809
0	C	0.654982	0.954754	0.0500463
0	C	0.345048	0.954754	0.450015
0	C	0.345083	0.0452826	0.950076
0	C	0.655018	0.0452826	0.550106
0	C	0.154986	0.454736	0.0500463
0	C	0.845045	0.454736	0.450015
0	C	0.845081	0.5453	0.950076
0	C	0.155021	0.5453	0.550106
0	H	0.635859	0.995759	0.0346833
0	H	0.364172	0.995759	0.465376
0	H	0.364208	0.00427878	0.965437
0	H	0.635895	0.00427878	0.534745
0	H	0.135861	0.495738	0.0346833
0	H	0.86417	0.495738	0.465376
0	H	0.864206	0.5043	0.965437
0	H	0.135897	0.5043	0.534745
0	C	0.656674	0.91673	0.0921516
0	C	0.343356	0.91673	0.40791
0	C	0.343392	0.0833063	0.907971
0	C	0.656709	0.0833063	0.592211
0	C	0.156677	0.416712	0.0921516
0	C	0.843353	0.416712	0.40791
0	C	0.843389	0.583324	0.907971
0	C	0.156712	0.583324	0.592211
0	H	0.638813	0.927976	0.109094
0	H	0.361217	0.927976	0.390967
0	H	0.361252	0.0720623	0.891026
0	H	0.638849	0.0720623	0.609156
0	H	0.138816	0.427956	0.109094
0	H	0.861214	0.427956	0.390967
0	H	0.861249	0.572083	0.891026
0	H	0.138853	0.572083	0.609156
0	C	0.681193	0.863646	0.111201
0	C	0.318838	0.863646	0.38886
0	C	0.318873	0.136393	0.888919
0	C	0.681229	0.136393	0.611263
0	C	0.181195	0.363626	0.111201
0	C	0.818837	0.363626	0.38886
0	C	0.818872	0.636413	0.888919
0	C	0.181231	0.636413	0.611263
0	C	0.622439	0.34498	0.413024
0	C	0.377592	0.34498	0.0870358
0	C	0.377628	0.655058	0.587097
0	C	0.622475	0.655058	0.913085
0	C	0.122441	0.845	0.413024
0	C	0.87759	0.845	0.0870359
0	C	0.877626	0.155039	0.587097
0	C	0.122477	0.155039	0.913085
0	C	0.674925	0.28629	0.42362
0	C	0.325106	0.28629	0.0764412
0	C	0.325142	0.713745	0.576501
0	C	0.67496	0.713745	0.923681
0	C	0.174927	0.786309	0.42362
0	C	0.825105	0.786309	0.0764412
0	C	0.825141	0.213729	0.576501
0	C	0.174963	0.213729	0.923681
0	C	0.646136	0.36307	0.353394
0	C	0.353895	0.363071	0.146667
0	C	0.35393	0.636966	0.646729
0	C	0.646171	0.636966	0.853453
0	C	0.146139	0.863088	0.353394
0	C	0.853892	0.863088	0.146667
0	C	0.853928	0.136948	0.646729
0	C	0.146174	0.136948	0.853453
0	C	0.612858	0.429553	0.274599
0	C	0.387173	0.429553	0.225462
0	C	0.387208	0.570483	0.725524
0	C	0.612893	0.570483	0.774658
0	C	0.112861	0.929571	0.274599
0	C	0.887169	0.929571	0.225462
0	C	0.887205	0.0704653	0.725524
0	C	0.112897	0.0704654	0.774658
0	C	0.589983	0.408962	0.221156
0	C	0.410048	0.408962	0.278905
0	C	0.410084	0.591078	0.778966
0	C	0.590019	0.591078	0.721216
0	C	0.0899851	0.908981	0.221156
0	C	0.910046	0.908981	0.278905
0	C	0.910082	0.0910569	0.778966
0	C	0.0900206	0.0910568	0.721216
0	H	0.595502	0.363169	0.207504
0	H	0.404529	0.363169	0.292556
0	H	0.404565	0.636869	0.792619
0	H	0.595538	0.636869	0.707567
0	H	0.0955052	0.863189	0.207504
0	H	0.904525	0.863189	0.292556
0	H	0.904562	0.13685	0.792619
0	H	0.0955415	0.13685	0.707567
0	C	0.560243	0.448206	0.185586
0	C	0.439787	0.448206	0.314475
0	C	0.439824	0.551832	0.814537
0	C	0.560279	0.551832	0.685645
0	C	0.0602457	0.948227	0.185586
0	C	0.939786	0.948227	0.314475
0	C	0.939822	0.0518127	0.814537
0	C	0.060281	0.0518128	0.685645
0	C	0.533337	0.431938	0.126506
0	C	0.466694	0.431938	0.373554
0	C	0.466731	0.568099	0.873616
0	C	0.533372	0.568099	0.626566
0	C	0.0333384	0.931955	0.126506
0	C	0.966693	0.931955	0.373554
0	C	0.966729	0.0680803	0.873616
0	C	0.0333737	0.0680802	0.626566
0	H	0.538646	0.383935	0.113304
0	H	0.461384	0.383935	0.386756
0	H	0.461421	0.616104	0.886818
0	H	0.538682	0.616104	0.613364
0	H	0.0386481	0.883955	0.113304
0	H	0.961383	0.883955	0.386756
0	H	0.961419	0.116083	0.886818
0	H	0.0386837	0.116083	0.613364
0	C	0.494515	0.438575	0.120763
0	C	0.505516	0.438575	0.379298
0	C	0.505554	0.561462	0.87936
0	C	0.494551	0.561463	0.620826
0	C	0.994511	0.938596	0.120763
0	C	0.0055198	0.938596	0.379298
0	C	0.00555608	0.0614437	0.87936
0	C	0.994547	0.0614438	0.620826
0	C	0.466785	0.390739	0.0999507
0	C	0.533246	0.390739	0.40011
0	C	0.533282	0.6093	0.90017
0	C	0.466821	0.6093	0.600012
0	C	0.966781	0.890759	0.0999507
0	C	0.0332487	0.890759	0.40011
0	C	0.033285	0.10928	0.90017
0	C	0.966817	0.10928	0.600012
0	H	0.472224	0.34418	0.0871005
0	H	0.527807	0.34418	0.412961
0	H	0.527843	0.655859	0.913021
0	H	0.472259	0.655859	0.587161
0	H	0.972223	0.844199	0.0871005
0	H	0.0278093	0.844199	0.412961
0	H	0.0278441	0.155838	0.913021
0	H	0.972258	0.155838	0.587161
0	C	0.568483	0.403656	0.405453
0	C	0.431548	0.403656	0.0946088
0	C	0.431582	0.596379	0.594668
0	C	0.568519	0.596379	0.905514
0	C	0.068487	0.903675	0.405453
0	C	0.931544	0.903675	0.0946088
0	C	0.931579	0.0963627	0.594668
0	C	0.0685227	0.0963627	0.905514
0	C	0.575914	0.466142	0.391529
0	C	0.424116	0.466142	0.108532
0	C	0.424152	0.533896	0.608592
0	C	0.57595	0.533896	0.89159
0	C	0.0759168	0.966163	0.391529
0	C	0.924113	0.966163	0.108532
0	C	0.924148	0.0338767	0.608592
0	C	0.0759527	0.0338767	0.89159
0	H	0.603727	0.478867	0.399409
0	H	0.396304	0.478867	0.100652
0	H	0.396339	0.521168	0.600713
0	H	0.603762	0.521168	0.899469
0	H	0.10373	0.978886	0.399409
0	H	0.8963	0.978886	0.100652
0	H	0.896336	0.0211513	0.600713
0	H	0.103766	0.0211512	0.899469
0	C	0.547743	0.513834	0.369247
0	C	0.452288	0.513834	0.130814
0	C	0.452325	0.486202	0.630877
0	C	0.547779	0.486202	0.869309
0	C	0.0477449	0.0138163	0.369247
0	C	0.952286	0.0138164	0.130814
0	C	0.952323	0.986219	0.630877
0	C	0.0477807	0.986219	0.869309
0	H	0.553653	0.56135	0.358493
0	H	0.446378	0.56135	0.141568
0	H	0.446414	0.438685	0.64163
0	H	0.553688	0.438685	0.858552
0	H	0.0536559	0.0613336	0.358493
0	H	0.946374	0.0613336	0.141568
0	H	0.94641	0.938704	0.64163
0	H	0.0536911	0.938704	0.858552
0	C	0.487525	0.499989	0.137126
0	C	0.512506	0.499989	0.362935
0	C	0.512541	0.500048	0.862997
0	C	0.48756	0.500048	0.637185
0	C	0.987524	1.04226e-05	0.137126
0	C	0.0125074	1.04734e-05	0.362935
0	C	0.0125435	2.76868e-05	0.862997
0	C	0.987559	2.77352e-05	0.637185
0	C	0.520579	0.547425	0.158269
0	C	0.479452	0.547425	0.341792
0	C	0.479487	0.452611	0.841851
0	C	0.520615	0.452611	0.658331
0	C	0.0205819	0.0474078	0.158269
0	C	0.979448	0.0474078	0.341792
0	C	0.979483	0.952629	0.841851
0	C	0.0206181	0.952629	0.658331
0	H	0.515279	0.595469	0.17144
0	H	0.484752	0.595469	0.328621
0	H	0.484787	0.404568	0.828683
0	H	0.515316	0.404568	0.671503
0	H	0.0152825	0.0954508	0.17144
0	H	0.984748	0.0954508	0.328621
0	H	0.984784	0.904585	0.828683
0	H	0.0153189	0.904585	0.671503
0	C	0.553442	0.509244	0.202768
0	C	0.446589	0.509244	0.297293
0	C	0.446624	0.490794	0.797354
0	C	0.553477	0.490794	0.702828
0	C	0.053445	0.00922317	0.202768
0	C	0.946585	0.00922322	0.297293
0	C	0.946621	0.990815	0.797354
0	C	0.0534808	0.990815	0.702828
0	C	0.576124	0.529846	0.256098
0	C	0.423906	0.529846	0.243963
0	C	0.423941	0.470191	0.744024
0	C	0.57616	0.470191	0.756159
0	C	0.0761278	0.0298272	0.256098
0	C	0.923903	0.0298271	0.243963
0	C	0.923938	0.970208	0.744024
0	C	0.0761635	0.970208	0.756158
0	H	0.571217	0.576393	0.269564
0	H	0.428814	0.576393	0.230497
0	H	0.428851	0.423645	0.73056
0	H	0.571253	0.423645	0.769626
0	H	0.0712189	0.0763736	0.269564
0	H	0.928813	0.0763736	0.230497
0	H	0.928849	0.923665	0.73056
0	H	0.0712552	0.923665	0.769626
0	C	0.605889	0.489846	0.291915
0	C	0.394141	0.489846	0.208146
0	C	0.394178	0.510192	0.708208
0	C	0.605925	0.510192	0.791974
0	C	0.105891	0.989862	0.291915
0	C	0.89414	0.989862	0.208146
0	C	0.894176	0.0101734	0.708208
0	C	0.105926	0.0101735	0.791974
0	H	0.624023	0.50608	0.332844
0	H	0.376008	0.50608	0.167217
0	H	0.376045	0.493957	0.667279
0	H	0.624058	0.493957	0.832903
0	H	0.124025	0.00606074	0.332844
0	H	0.876007	0.00606074	0.167217
0	H	0.876043	0.993978	0.667279
0	H	0.12406	0.993978	0.832903
0	C	0.536335	0.490118	0.0954389
0	C	0.463696	0.490118	0.404622
0	C	0.463732	0.509919	0.904683
0	C	0.53637	0.509919	0.595499
0	C	0.0363368	0.990139	0.0954389
0	C	0.963695	0.990139	0.404622
0	C	0.96373	0.00989984	0.904683
0	C	0.0363725	0.00989984	0.595499
0	C	0.544682	0.486299	0.0536292
0	C	0.455349	0.486299	0.446431
0	C	0.455385	0.51374	0.946491
0	C	0.544718	0.51374	0.553691
0	C	0.0446835	0.986319	0.0536292
0	C	0.955347	0.986319	0.446431
0	C	0.955383	0.0137195	0.946491
0	C	0.0447195	0.0137195	0.553691
0	H	0.549081	0.439414	0.0401444
0	H	0.450951	0.439414	0.459917
0	H	0.450987	0.560623	0.959978
0	H	0.549116	0.560623	0.540204
0	H	0.0490828	0.93943	0.0401444
0	H	0.950949	0.93943	0.459917
0	H	0.950985	0.0606046	0.959978
0	H	0.0491182	0.0606046	0.540204
0	C	0.546929	0.543936	0.0289261
0	C	0.453102	0.543936	0.471134
0	C	0.453137	0.456102	0.971195
0	C	0.546965	0.456102	0.528988
0	C	0.0469316	0.0439167	0.0289261
0	C	0.953098	0.0439167	0.471134
0	C	0.953134	0.956123	0.971195
0	C	0.0469675	0.956123	0.528988
0	H	0.553899	0.541351	0.99705
0	H	0.446203	0.541351	0.503132
0	H	0.446168	0.458687	0.00307283
0	H	0.553863	0.458687	0.496989
0	H	0.0539003	0.0413318	0.99705
0	H	0.946199	0.0413318	0.503132
0	H	0.946164	0.958708	0.00307283
0	H	0.0538658	0.958708	0.496989
0	C	0.540182	0.604808	0.0453059
0	C	0.459848	0.604808	0.454754
0	C	0.459885	0.39523	0.954814
0	C	0.540218	0.39523	0.545368
0	C	0.0401837	0.104789	0.0453059
0	C	0.959847	0.104789	0.454754
0	C	0.959883	0.89525	0.954814
0	C	0.0402199	0.89525	0.545368
0	H	0.541948	0.648896	0.0257022
0	H	0.458083	0.648896	0.47436
0	H	0.458118	0.351141	0.97442
0	H	0.541984	0.351141	0.525762
0	H	0.0419514	0.148877	0.0257022
0	H	0.958079	0.148877	0.47436
0	H	0.958115	0.851158	0.97442
0	H	0.0419867	0.851158	0.525762
0	C	0.531484	0.608899	0.0870819
0	C	0.468547	0.608899	0.41298
0	C	0.468583	0.391139	0.91304
0	C	0.53152	0.391139	0.587142
0	C	0.0314864	0.10888	0.0870819
0	C	0.968545	0.10888	0.41298
0	C	0.968581	0.89116	0.91304
0	C	0.0315217	0.89116	0.587142
0	H	0.526353	0.655906	0.0996222
0	H	0.473678	0.655906	0.400439
0	H	0.473712	0.344131	0.9005
0	H	0.526389	0.344132	0.599682
0	H	0.0263567	0.155887	0.0996222
0	H	0.973674	0.155887	0.400439
0	H	0.97371	0.844152	0.9005
0	H	0.0263922	0.844152	0.599682
0	C	0.529664	0.551566	0.112282
0	C	0.470366	0.551566	0.387779
0	C	0.470401	0.448472	0.887838
0	C	0.5297	0.448472	0.612344
0	C	0.029668	0.0515463	0.112282
0	C	0.970363	0.0515463	0.387779
0	C	0.970398	0.948492	0.887838
0	C	0.0297039	0.948492	0.612344
