#******************************************
#
# CIF file created by Zeo++
# Zeo++ is an open source package to
# analyze microporous materials
#
#*******************************************

_cell_length_a		31.0433(0)
_cell_length_b		30.9998(0)
_cell_length_c		14.171(0)
_cell_angle_alpha		90(0)
_cell_angle_beta		90(0)
_cell_angle_gamma		119.504(0)

_symmetry_space_group_name_H-M		'P1'
_symmetry_Int_Tables_number		1
_symmetry_cell_setting		Monoclinic

loop_
_symmetry_equiv_pos_as_xyz
'+x,+y,+z'

loop_
_atom_site_label
_atom_site_type_symbol
_atom_site_fract_x
_atom_site_fract_y
_atom_site_fract_z
0	S	0.487216	0.057934	0.461784
0	S	0.924991	0.42564	0.461916
0	S	0.555841	0.495178	0.462524
0	S	0.491744	0.927249	0.544643
0	S	0.053292	0.55906	0.545903
0	S	0.422638	0.48979	0.547278
0	S	0.15692	0.392942	0.793708
0	S	0.586427	0.755648	0.794256
0	S	0.224729	0.825151	0.793895
0	S	0.159783	0.260896	0.880146
0	S	0.720389	0.893053	0.8791
0	S	0.0865764	0.822171	0.879314
0	S	0.818952	0.724126	0.127823
0	S	0.257801	0.0915461	0.128932
0	S	0.891779	0.162412	0.128645
0	S	0.821697	0.592007	0.214267
0	S	0.391703	0.229034	0.213879
0	S	0.753604	0.159481	0.214026
0	C	0.498566	0.0178546	0.383297
0	C	0.964336	0.476687	0.383147
0	C	0.504822	0.484033	0.383686
0	C	0.479883	0.966918	0.62337
0	C	0.0139099	0.508041	0.62469
0	C	0.473545	0.500666	0.626154
0	C	0.16746	0.352156	0.715654
0	C	0.626848	0.806354	0.715802
0	C	0.173719	0.814489	0.715491
0	C	0.150226	0.302466	0.957877
0	C	0.679023	0.842047	0.956132
0	C	0.137687	0.831192	0.956017
0	C	0.82818	0.682261	0.0503446
0	C	0.299188	0.142584	0.0519797
0	C	0.840632	0.153368	0.052045
0	C	0.810858	0.63252	0.292555
0	C	0.351309	0.178339	0.292368
0	C	0.804552	0.170083	0.292565
0	H	0.535712	0.0238919	0.405068
0	H	0.958162	0.507752	0.405337
0	H	0.473796	0.447329	0.406274
0	H	0.442706	0.960708	0.601411
0	H	0.0199952	0.476926	0.602468
0	H	0.504654	0.537362	0.603742
0	H	0.20391	0.356866	0.738625
0	H	0.621803	0.83807	0.738392
0	H	0.142394	0.778127	0.738656
0	H	0.113923	0.298216	0.935222
0	H	0.683651	0.810155	0.93323
0	H	0.169421	0.867309	0.932918
0	H	0.864442	0.686385	0.0729334
0	H	0.294534	0.174454	0.0749348
0	H	0.808928	0.117225	0.0751282
0	H	0.774358	0.627674	0.269584
0	H	0.356308	0.146602	0.269728
0	H	0.835925	0.206421	0.269432
0	H	0.470384	0.978951	0.399749
0	H	0.00327275	0.487284	0.399195
0	H	0.49418	0.512624	0.399121
0	H	0.507942	0.00591042	0.607215
0	H	0.974986	0.497518	0.608718
0	H	0.484086	0.472014	0.610591
0	H	0.138596	0.313507	0.731318
0	H	0.665542	0.815887	0.731508
0	H	0.163692	0.84351	0.730754
0	H	0.179418	0.340953	0.941861
0	H	0.640512	0.833008	0.939977
0	H	0.146866	0.801641	0.939689
0	H	0.798896	0.643848	0.0665823
0	H	0.337698	0.151624	0.0681582
0	H	0.83141	0.182881	0.0684474
0	H	0.839614	0.671233	0.277018
0	H	0.312614	0.168834	0.276765
0	H	0.814513	0.14101	0.27736
0	C	0.498712	0.027987	0.27783
0	C	0.954028	0.466938	0.277688
0	C	0.514725	0.482909	0.27844
0	C	0.479583	0.956632	0.728809
0	C	0.0242876	0.517798	0.730136
0	C	0.463535	0.501663	0.731374
0	C	0.168815	0.362999	0.610269
0	C	0.61594	0.796665	0.610508
0	C	0.183105	0.812811	0.610133
0	C	0.149184	0.291875	0.0632355
0	C	0.689358	0.851136	0.0616065
0	C	0.128665	0.832531	0.0615334
0	C	0.829145	0.692719	0.944943
0	C	0.288889	0.13355	0.946493
0	C	0.849615	0.152065	0.946501
0	C	0.809499	0.621603	0.397909
0	C	0.362296	0.188043	0.397643
0	C	0.795116	0.171768	0.397895
0	H	0.53161	0.0650547	0.261222
0	H	0.916878	0.463271	0.261794
0	H	0.519169	0.449706	0.263631
0	H	0.446649	0.919545	0.745155
0	H	0.0614582	0.521492	0.745923
0	H	0.459113	0.534863	0.746312
0	H	0.202024	0.400127	0.595452
0	H	0.578636	0.792792	0.595717
0	H	0.187107	0.779292	0.595697
0	H	0.116296	0.254644	0.0786946
0	H	0.726686	0.855229	0.0770829
0	H	0.124361	0.865744	0.0770643
0	H	0.862005	0.72994	0.929302
0	H	0.251571	0.129477	0.930995
0	H	0.853935	0.118867	0.930895
0	H	0.776272	0.584477	0.412654
0	H	0.399615	0.191934	0.412312
0	H	0.791139	0.205303	0.4123
0	C	0.451117	0.0289756	0.244122
0	C	0.953017	0.418313	0.243649
0	C	0.56281	0.530164	0.244061
0	C	0.527109	0.955574	0.762725
0	C	0.0252782	0.566415	0.764195
0	C	0.415374	0.454379	0.765394
0	C	0.12173	0.364606	0.575256
0	C	0.614942	0.748118	0.576098
0	C	0.231234	0.859766	0.574899
0	C	0.196664	0.290795	0.0974962
0	C	0.689774	0.899375	0.0962194
0	C	0.0806567	0.78535	0.0964579
0	C	0.781625	0.69373	0.910734
0	C	0.288448	0.0853198	0.911761
0	C	0.897587	0.199266	0.911504
0	C	0.856566	0.619938	0.432861
0	C	0.363287	0.236588	0.432074
0	C	0.74694	0.124825	0.432987
0	H	0.455434	0.0383782	0.166269
0	H	0.943589	0.4135	0.165794
0	H	0.567823	0.525417	0.166352
0	H	0.5227	0.946116	0.840555
0	H	0.0347172	0.571243	0.842047
0	H	0.410273	0.458963	0.843124
0	H	0.126776	0.37447	0.497666
0	H	0.605143	0.743184	0.498447
0	H	0.236114	0.854462	0.497431
0	H	0.192041	0.281081	0.175187
0	H	0.699157	0.904091	0.174025
0	H	0.0760054	0.790193	0.174284
0	H	0.786206	0.703394	0.833017
0	H	0.279015	0.0806367	0.833972
0	H	0.902202	0.194399	0.833675
0	H	0.851545	0.610079	0.510452
0	H	0.373085	0.241531	0.509723
0	H	0.741997	0.130078	0.510439
0	C	0.446986	0.0686893	0.29428
0	C	0.913459	0.375018	0.293864
0	C	0.606382	0.534307	0.294775
0	C	0.531229	0.915863	0.71256
0	C	0.0648248	0.60971	0.713942
0	C	0.371865	0.450343	0.714606
0	C	0.117063	0.403862	0.625941
0	C	0.575931	0.704727	0.626984
0	C	0.274883	0.86412	0.625732
0	C	0.201258	0.251442	0.0469799
0	C	0.728995	0.94312	0.0464935
0	C	0.0368057	0.781159	0.0467889
0	C	0.777005	0.733091	0.961179
0	C	0.249246	0.0415539	0.961471
0	C	0.941471	0.203493	0.961104
0	C	0.861166	0.580658	0.382129
0	C	0.402298	0.279975	0.381175
0	C	0.703336	0.120518	0.38205
0	C	0.459163	0.0811813	0.388993
0	C	0.901323	0.374748	0.388842
0	C	0.606798	0.522662	0.389846
0	C	0.519267	0.903544	0.617723
0	C	0.0769194	0.609965	0.618953
0	C	0.371553	0.462065	0.61955
0	C	0.128308	0.415711	0.721124
0	C	0.563827	0.704452	0.721979
0	C	0.275606	0.85306	0.721056
0	C	0.189075	0.238718	0.952422
0	C	0.74205	0.944027	0.951968
0	C	0.0357574	0.793215	0.952183
0	C	0.789336	0.745981	0.0556295
0	C	0.236147	0.0406053	0.0559786
0	C	0.942547	0.191384	0.0556623
0	C	0.850024	0.568944	0.286877
0	C	0.414342	0.280241	0.286141
0	C	0.702662	0.131558	0.2867
0	C	0.504756	0.988384	0.220685
0	C	0.993309	0.512013	0.220185
0	C	0.469495	0.476641	0.220155
0	C	0.473489	0.996163	0.786117
0	C	0.98507	0.472721	0.787717
0	C	0.508683	0.507782	0.789755
0	C	0.175194	0.323768	0.552574
0	C	0.654623	0.841722	0.552217
0	C	0.137745	0.806636	0.552402
0	C	0.142531	0.330964	0.120835
0	C	0.650572	0.805631	0.118805
0	C	0.174352	0.838852	0.118376
0	C	0.835782	0.653584	0.887491
0	C	0.327704	0.179086	0.889394
0	C	0.803882	0.145701	0.889782
0	C	0.803161	0.660826	0.455732
0	C	0.32367	0.142992	0.456018
0	C	0.84042	0.177885	0.455767
0	O	0.460716	0.937137	0.239613
0	O	0.0445551	0.518341	0.23851
0	O	0.46206	0.521149	0.236942
0	O	0.51757	0.0474319	0.767566
0	O	0.933801	0.466363	0.769592
0	O	0.516065	0.463251	0.772818
0	O	0.130605	0.272506	0.569065
0	O	0.706086	0.848227	0.56818
0	O	0.130841	0.851559	0.568074
0	O	0.18688	0.382378	0.104053
0	O	0.599073	0.798882	0.102115
0	O	0.181233	0.793954	0.101792
0	O	0.791477	0.60218	0.904557
0	O	0.379185	0.185809	0.906167
0	O	0.796964	0.190566	0.906457
0	O	0.847785	0.712087	0.439385
0	O	0.272188	0.136468	0.440245
0	O	0.847294	0.132936	0.440167
0	C	0.417646	0.937185	0.247938
0	C	0.0445926	0.475223	0.2472
0	C	0.504579	0.564118	0.24638
0	C	0.560636	0.0473744	0.759315
0	C	0.933719	0.509453	0.760831
0	C	0.47354	0.420342	0.762889
0	C	0.0876881	0.2728	0.577773
0	C	0.706407	0.805311	0.577801
0	C	0.17348	0.894386	0.576991
0	C	0.229983	0.382474	0.0951476
0	C	0.598457	0.841669	0.0932191
0	C	0.138554	0.751047	0.0934948
0	C	0.748367	0.602057	0.913424
0	C	0.379778	0.143001	0.914728
0	C	0.839628	0.233495	0.914612
0	C	0.890675	0.711757	0.430438
0	C	0.271835	0.179359	0.430506
0	C	0.804648	0.0901356	0.431054
0	C	0.408524	0.977404	0.253485
0	C	0.00446829	0.426471	0.252918
0	C	0.553612	0.573036	0.252593
0	C	0.569723	0.00713248	0.753589
0	C	0.973811	0.558216	0.754937
0	C	0.424535	0.411503	0.75647
0	C	0.0788628	0.313185	0.583424
0	C	0.666525	0.756492	0.584421
0	C	0.222381	0.902904	0.582688
0	C	0.239228	0.34237	0.0888517
0	C	0.638083	0.890658	0.0871229
0	C	0.0895523	0.742284	0.0874923
0	C	0.739078	0.64215	0.919502
0	C	0.340136	0.0940031	0.920631
0	C	0.888659	0.242312	0.920443
0	C	0.899443	0.671341	0.424609
0	C	0.311698	0.228181	0.423714
0	C	0.755774	0.0816756	0.425172
0	C	0.433793	0.104153	0.258706
0	C	0.87807	0.32687	0.258321
0	C	0.654844	0.547507	0.259631
0	C	0.544036	0.880148	0.748296
0	C	0.10028	0.657834	0.749488
0	C	0.323367	0.437135	0.749544
0	C	0.102822	0.438623	0.590874
0	C	0.541452	0.656119	0.592038
0	C	0.323485	0.877757	0.590689
0	C	0.215745	0.216948	0.0824683
0	C	0.762931	0.991585	0.0829126
0	C	0.988279	0.766918	0.0830957
0	C	0.762231	0.767366	0.925692
0	C	0.215376	0.993081	0.925008
0	C	0.990019	0.217838	0.924763
0	C	0.875156	0.545706	0.417176
0	C	0.436881	0.328547	0.416137
0	C	0.654748	0.106978	0.417013
0	N	0.436039	0.134976	0.329918
0	N	0.84763	0.298601	0.329776
0	N	0.683409	0.545823	0.331444
0	N	0.541777	0.849333	0.677064
0	N	0.130699	0.686085	0.677989
0	N	0.294875	0.438833	0.677616
0	N	0.103425	0.468304	0.662854
0	N	0.511603	0.627612	0.663874
0	N	0.352406	0.87698	0.662739
0	N	0.214181	0.186419	0.0113023
0	N	0.79338	0.0206343	0.0122073
0	N	0.959095	0.768397	0.0123372
0	N	0.763784	0.797934	0.996771
0	N	0.184905	0.963996	0.995651
0	N	0.0192303	0.216339	0.995452
0	N	0.87452	0.51605	0.345127
0	N	0.46671	0.357033	0.344254
0	N	0.625869	0.107753	0.34489
0	N	0.451998	0.121245	0.409188
0	N	0.861538	0.328003	0.409199
0	N	0.653924	0.530189	0.41068
0	N	0.526162	0.863303	0.597636
0	N	0.116726	0.65669	0.598563
0	N	0.324445	0.454519	0.598492
0	N	0.119396	0.454586	0.742093
0	N	0.524939	0.657258	0.742922
0	N	0.323029	0.86147	0.742076
0	N	0.197446	0.199406	0.932199
0	N	0.780943	0.991488	0.932551
0	N	0.988218	0.784927	0.932708
0	N	0.780772	0.785173	0.0758115
0	N	0.19728	0.993121	0.0753283
0	N	0.99011	0.199715	0.0750648
0	N	0.858748	0.529951	0.265859
0	N	0.453277	0.327406	0.265177
0	N	0.655267	0.123198	0.26557
0	C	0.505084	0.995944	0.11483
0	C	0.985548	0.505014	0.114333
0	C	0.476867	0.475335	0.114547
0	C	0.473005	0.988427	0.891938
0	C	0.992903	0.47973	0.893557
0	C	0.501212	0.508954	0.895351
0	C	0.176905	0.332342	0.446869
0	C	0.645719	0.834633	0.446607
0	C	0.144444	0.804342	0.44674
0	C	0.14104	0.322521	0.226535
0	C	0.658791	0.812172	0.224623
0	C	0.16797	0.840783	0.224206
0	C	0.837167	0.661894	0.781757
0	C	0.31952	0.172596	0.783564
0	C	0.810202	0.143762	0.78393
0	C	0.801416	0.65217	0.561409
0	C	0.332641	0.150108	0.561611
0	C	0.833644	0.180166	0.561405
0	H	0.502005	0.963679	0.0764677
0	H	0.0178907	0.533603	0.075971
0	H	0.448399	0.479298	0.0753347
0	H	0.475937	0.0205896	0.930459
0	H	0.960631	0.451062	0.931956
0	H	0.529734	0.505099	0.934601
0	H	0.173689	0.300132	0.408018
0	H	0.677974	0.862668	0.40728
0	H	0.116155	0.80865	0.407686
0	H	0.143978	0.354627	0.265331
0	H	0.62651	0.783506	0.262991
0	H	0.196966	0.837326	0.262525
0	H	0.834063	0.629688	0.743079
0	H	0.351863	0.20119	0.745226
0	H	0.78128	0.147384	0.745697
0	H	0.804506	0.684303	0.600355
0	H	0.300474	0.121965	0.600977
0	H	0.861992	0.176001	0.600561
0	H	0.53972	0.0284429	0.0918503
0	H	0.953116	0.507775	0.0915718
0	H	0.474207	0.440037	0.0926732
0	H	0.438369	0.955843	0.914641
0	H	0.0254215	0.477096	0.916206
0	H	0.503678	0.544153	0.91732
0	H	0.212001	0.364755	0.425416
0	H	0.613616	0.838347	0.425215
0	H	0.140892	0.768535	0.425808
0	H	0.106105	0.289958	0.248227
0	H	0.6911	0.808961	0.246546
0	H	0.17066	0.876127	0.24584
0	H	0.872129	0.694357	0.759842
0	H	0.287299	0.175953	0.761602
0	H	0.807317	0.108342	0.76224
0	H	0.766355	0.619676	0.582736
0	H	0.36486	0.146573	0.582896
0	H	0.837006	0.215903	0.582267
0	H	0.474242	0.00116038	0.0909043
0	H	0.980051	0.468886	0.0904565
0	H	0.513022	0.50532	0.090731
0	H	0.503857	0.98325	0.915953
0	H	0.99827	0.515803	0.917481
0	H	0.465102	0.478832	0.919008
0	H	0.146713	0.338398	0.422192
0	H	0.639045	0.798139	0.422351
0	H	0.180641	0.833712	0.421735
0	H	0.171474	0.316837	0.251122
0	H	0.664642	0.848257	0.249489
0	H	0.132183	0.81078	0.249384
0	H	0.806783	0.667671	0.757234
0	H	0.31352	0.13646	0.758676
0	H	0.846043	0.173655	0.758708
0	H	0.831665	0.646203	0.586086
0	H	0.339133	0.186534	0.585905
0	H	0.797498	0.150684	0.586356
0	C	0.546897	0.98077	0.253869
0	C	0.00111223	0.561743	0.253583
0	C	0.420067	0.435072	0.253453
0	C	0.431393	0.00382811	0.752883
0	C	0.977242	0.422985	0.754304
0	C	0.558161	0.549367	0.75669
0	C	0.216504	0.315124	0.586902
0	C	0.662965	0.89157	0.586089
0	C	0.0881952	0.765897	0.587293
0	C	0.101033	0.339353	0.0866498
0	C	0.642584	0.756006	0.0843201
0	C	0.223687	0.879831	0.0830898
0	C	0.877322	0.645257	0.921662
0	C	0.335672	0.228687	0.924001
0	C	0.754571	0.10471	0.925142
0	C	0.761874	0.669525	0.42149
0	C	0.315309	0.0931361	0.422169
0	C	0.890004	0.218606	0.420975
0	H	0.58151	0.0165369	0.257243
0	H	0.965504	0.561305	0.257178
0	H	0.421035	0.400109	0.257081
0	H	0.39676	0.968071	0.749656
0	H	0.0128194	0.423345	0.751092
0	H	0.557308	0.584402	0.75369
0	H	0.251334	0.350522	0.592218
0	H	0.627632	0.891686	0.589957
0	H	0.0882827	0.730536	0.592165
0	H	0.0663885	0.303879	0.0795542
0	H	0.678029	0.756151	0.080132
0	H	0.222808	0.914688	0.0747923
0	H	0.911926	0.680754	0.928973
0	H	0.300194	0.228446	0.928776
0	H	0.75549	0.0698878	0.9337
0	H	0.727002	0.634151	0.416474
0	H	0.350605	0.0929217	0.418808
0	H	0.889991	0.25401	0.416396
0	H	0.553201	0.956365	0.206385
0	H	0.0254843	0.592011	0.205982
0	H	0.38972	0.429214	0.205723
0	H	0.425129	0.0282915	0.800284
0	H	0.952696	0.392691	0.801685
0	H	0.588494	0.554956	0.804213
0	H	0.222953	0.290983	0.538946
0	H	0.687535	0.921854	0.538671
0	H	0.0577475	0.760208	0.540037
0	H	0.0938914	0.362679	0.135543
0	H	0.618179	0.725545	0.131591
0	H	0.254086	0.887129	0.131866
0	H	0.884556	0.622037	0.872662
0	H	0.359843	0.25914	0.876493
0	H	0.724169	0.0973053	0.876298
0	H	0.755541	0.693775	0.46936
0	H	0.29052	0.0628243	0.469316
0	H	0.920435	0.224138	0.468122
0	H	0.540219	0.963782	0.324204
0	H	0.0181564	0.571673	0.323823
0	H	0.409915	0.442114	0.32366
0	H	0.438045	0.0207363	0.682478
0	H	0.96039	0.413153	0.683903
0	H	0.568251	0.54253	0.68626
0	H	0.208769	0.297401	0.656588
0	H	0.680026	0.901229	0.656335
0	H	0.0787124	0.773964	0.657275
0	H	0.109115	0.357922	0.0177473
0	H	0.625508	0.746434	0.0140757
0	H	0.233895	0.870988	0.0144951
0	H	0.8692	0.626577	0.99046
0	H	0.353012	0.238344	0.994023
0	H	0.744324	0.11363	0.993627
0	H	0.769522	0.687123	0.351695
0	H	0.2985	0.0835881	0.351711
0	H	0.899437	0.210608	0.350898
0	N	0.371994	0.892901	0.253775
0	N	0.0888199	0.473138	0.253407
0	N	0.505517	0.609897	0.253151
0	N	0.606323	0.0916464	0.753729
0	N	0.889462	0.511478	0.754605
0	N	0.472548	0.374555	0.755516
0	N	0.0418653	0.228715	0.584457
0	N	0.750809	0.80362	0.584706
0	N	0.174866	0.940412	0.584071
0	N	0.275583	0.426816	0.0888348
0	N	0.553814	0.842908	0.0865277
0	N	0.137351	0.705103	0.0874754
0	N	0.702788	0.557701	0.919852
0	N	0.424418	0.141716	0.921027
0	N	0.840788	0.279425	0.920515
0	N	0.936514	0.755817	0.423542
0	N	0.227415	0.181011	0.423492
0	N	0.803207	0.0440836	0.423826
0	N	0.334616	0.903948	0.265321
0	N	0.0777576	0.424808	0.265235
0	N	0.553417	0.647145	0.265543
0	N	0.643684	0.0805768	0.742083
0	N	0.90047	0.559777	0.742523
0	N	0.424662	0.337397	0.742543
0	N	0.0047505	0.240161	0.596334
0	N	0.740111	0.755471	0.597597
0	N	0.222906	0.977395	0.596042
0	N	0.312967	0.415825	0.076295
0	N	0.564143	0.890977	0.074057
0	N	0.089372	0.667993	0.0753627
0	N	0.665368	0.568659	0.93213
0	N	0.414064	0.0936122	0.933037
0	N	0.888768	0.316584	0.932361
0	N	0.973574	0.74432	0.411315
0	N	0.238082	0.229132	0.410295
0	N	0.755171	0.00715636	0.411567
0	C	0.35626	0.954599	0.265255
0	C	0.0271841	0.396569	0.265062
0	C	0.582515	0.625297	0.265286
0	C	0.621997	0.0299219	0.741889
0	C	0.951044	0.588056	0.742587
0	C	0.39561	0.359297	0.743006
0	C	0.0266509	0.290798	0.595761
0	C	0.689569	0.726944	0.597504
0	C	0.251621	0.955165	0.595217
0	C	0.291438	0.365188	0.0761513
0	C	0.614684	0.919893	0.0741892
0	C	0.0604181	0.690013	0.0750861
0	C	0.686852	0.619297	0.932083
0	C	0.363523	0.064712	0.932993
0	C	0.917772	0.29461	0.932575
0	C	0.951628	0.69368	0.411893
0	C	0.288624	0.25768	0.410345
0	C	0.726515	0.0294468	0.41235
0	C	0.422324	0.110343	0.160268
0	C	0.871637	0.309399	0.159783
0	C	0.672379	0.558526	0.161154
0	C	0.555141	0.873701	0.846843
0	C	0.106828	0.67529	0.848054
0	C	0.305735	0.426143	0.847962
0	C	0.0918427	0.445167	0.492296
0	C	0.535343	0.638378	0.493721
0	C	0.34076	0.888342	0.492031
0	C	0.227795	0.211426	0.180867
0	C	0.76799	0.00868673	0.181465
0	C	0.971257	0.755271	0.181703
0	C	0.749881	0.772616	0.827359
0	C	0.210431	0.975989	0.826466
0	C	0.00703254	0.229654	0.826174
0	C	0.885909	0.538945	0.515783
0	C	0.443143	0.346265	0.514489
0	C	0.637434	0.0965123	0.515657
0	H	0.39957	0.0745856	0.124725
0	H	0.907272	0.322063	0.123818
0	H	0.658407	0.580427	0.124449
0	H	0.578305	0.909355	0.882434
0	H	0.0712349	0.663104	0.883857
0	H	0.319325	0.40389	0.884577
0	H	0.0724608	0.409702	0.454181
0	H	0.570986	0.653028	0.456746
0	H	0.325013	0.908291	0.4539
0	H	0.248626	0.247337	0.216969
0	H	0.731939	0.996882	0.214906
0	H	0.983447	0.731252	0.215843
0	H	0.729515	0.736651	0.791268
0	H	0.246531	0.988257	0.792862
0	H	0.994442	0.253353	0.792048
0	H	0.905781	0.574384	0.553846
0	H	0.407522	0.332017	0.551383
0	H	0.652827	0.0762345	0.55377
0	H	0.456663	0.130548	0.118675
0	H	0.851184	0.323732	0.118672
0	H	0.659501	0.523963	0.120521
0	H	0.520689	0.853964	0.888265
0	H	0.126808	0.660468	0.889279
0	H	0.31894	0.460707	0.888745
0	H	0.126341	0.468677	0.453112
0	H	0.512813	0.650441	0.453127
0	H	0.329458	0.853583	0.453
0	H	0.193622	0.189404	0.221983
0	H	0.786811	0.99317	0.224342
0	H	0.986329	0.789504	0.224164
0	H	0.783912	0.795098	0.786142
0	H	0.191152	0.991053	0.783706
0	H	0.992332	0.19545	0.783709
0	H	0.85129	0.5159	0.554965
0	H	0.465285	0.333742	0.555122
0	H	0.649091	0.131326	0.554743
0	H	0.402595	0.131578	0.155004
0	H	0.850603	0.26873	0.154393
0	H	0.713023	0.578978	0.156089
0	H	0.574254	0.851877	0.852325
0	H	0.128367	0.715935	0.853535
0	H	0.265088	0.406069	0.852925
0	H	0.0689384	0.463142	0.487186
0	H	0.516576	0.597682	0.489053
0	H	0.381331	0.910597	0.486646
0	H	0.249694	0.192386	0.185871
0	H	0.789853	0.0492656	0.187543
0	H	0.930665	0.736791	0.187787
0	H	0.727385	0.791027	0.822499
0	H	0.189037	0.935382	0.820466
0	H	0.0476452	0.248566	0.820127
0	H	0.908233	0.520348	0.520955
0	H	0.46238	0.386974	0.519257
0	H	0.596837	0.0746218	0.521004
0	C	0.45578	0.144875	0.498714
0	C	0.838087	0.308499	0.498809
0	C	0.673762	0.526721	0.500465
0	C	0.522409	0.839653	0.50816
0	C	0.14014	0.676161	0.508906
0	C	0.304692	0.457982	0.508604
0	C	0.121834	0.477215	0.832154
0	C	0.502214	0.637229	0.832815
0	C	0.343164	0.858933	0.832179
0	C	0.194538	0.17617	0.842569
0	C	0.804771	0.0122755	0.843695
0	C	0.967393	0.787977	0.843753
0	C	0.783642	0.80841	0.165434
0	C	0.173408	0.972293	0.164133
0	C	0.0109301	0.19661	0.163991
0	C	0.856269	0.507323	0.175786
0	C	0.475963	0.347418	0.175248
0	C	0.635153	0.125713	0.175431
0	C	0.4426	0.116606	0.581968
0	C	0.866393	0.32342	0.581967
0	C	0.65741	0.538781	0.583648
0	C	0.535707	0.867905	0.424883
0	C	0.111805	0.661181	0.425805
0	C	0.321221	0.446065	0.42549
0	C	0.109299	0.448334	0.914603
0	C	0.530737	0.653314	0.915614
0	C	0.327111	0.871991	0.914586
0	C	0.206837	0.204518	0.759459
0	C	0.77751	0.996235	0.759476
0	C	0.983462	0.776431	0.759629
0	C	0.771444	0.780078	0.248558
0	C	0.200643	0.988276	0.248406
0	C	0.99496	0.20826	0.248123
0	C	0.868924	0.536226	0.0933681
0	C	0.447434	0.33125	0.0924824
0	C	0.651308	0.112761	0.0930198
0	H	0.42923	0.0767844	0.580094
0	H	0.906145	0.349273	0.579876
0	H	0.629928	0.551018	0.581685
0	H	0.549169	0.907743	0.426697
0	H	0.0720559	0.635329	0.427966
0	H	0.348781	0.43393	0.427581
0	H	0.097072	0.408746	0.91159
0	H	0.570081	0.680722	0.913207
0	H	0.299985	0.884703	0.911603
0	H	0.21903	0.244103	0.761695
0	H	0.738279	0.968379	0.760147
0	H	0.0114903	0.764863	0.760351
0	H	0.759367	0.740517	0.246336
0	H	0.239876	0.0161312	0.247801
0	H	0.967013	0.219936	0.24742
0	H	0.88129	0.575841	0.0963992
0	H	0.408101	0.303817	0.0949288
0	H	0.678511	0.100147	0.0960338
0	C	0.445971	0.139999	0.668062
0	C	0.843122	0.304013	0.668231
0	C	0.677518	0.535844	0.669969
0	C	0.532331	0.844477	0.338843
0	C	0.135037	0.680521	0.33947
0	C	0.301183	0.448984	0.339078
0	C	0.111762	0.470798	0.00135733
0	C	0.508267	0.63299	0.00201791
0	C	0.347087	0.86942	0.0013327
0	C	0.204215	0.181604	0.673173
0	C	0.800992	0.0170952	0.674044
0	C	0.962307	0.778867	0.674228
0	C	0.773998	0.802979	0.334833
0	C	0.177132	0.967355	0.333767
0	C	0.0160969	0.205757	0.333507
0	C	0.866386	0.513744	0.0065933
0	C	0.469875	0.351517	0.00601974
0	C	0.631326	0.115274	0.00625948
0	H	0.435668	0.118191	0.732993
0	H	0.864932	0.315448	0.73312
0	H	0.66506	0.545351	0.734823
0	H	0.542709	0.866266	0.273888
0	H	0.113201	0.669024	0.274623
0	H	0.313774	0.439594	0.274259
0	H	0.102025	0.448606	0.0657632
0	H	0.530242	0.645193	0.0666325
0	H	0.334877	0.87959	0.0657117
0	H	0.21387	0.203504	0.608393
0	H	0.779887	0.00481008	0.60836
0	H	0.974507	0.76969	0.6087
0	H	0.764413	0.781086	0.399618
0	H	0.198215	0.979575	0.399488
0	H	0.00397859	0.215024	0.399037
0	H	0.87621	0.535946	0.942195
0	H	0.447889	0.339231	0.941436
0	H	0.643614	0.105189	0.941876
0	C	0.461888	0.190734	0.671248
0	C	0.792482	0.269906	0.671683
0	C	0.713616	0.521388	0.673495
0	C	0.516294	0.793714	0.335723
0	C	0.185672	0.714634	0.335924
0	C	0.264952	0.463266	0.335397
0	C	0.126052	0.521141	0.00594324
0	C	0.458237	0.596938	0.00597467
0	C	0.382813	0.854481	0.00590492
0	C	0.189893	0.131232	0.669617
0	C	0.850856	0.0537357	0.672476
0	C	0.925429	0.7923	0.672469
0	C	0.788143	0.853306	0.338367
0	C	0.127258	0.930727	0.335248
0	C	0.05283	0.192128	0.335235
0	C	0.851888	0.463351	0.00198288
0	C	0.519887	0.387614	0.00199196
0	C	0.595461	0.130029	0.00163412
0	H	0.463629	0.208425	0.738691
0	H	0.774851	0.254496	0.739291
0	H	0.729631	0.520001	0.741106
0	H	0.514538	0.77599	0.268311
0	H	0.203272	0.729987	0.268262
0	H	0.248996	0.464636	0.267709
0	H	0.127185	0.53806	0.0739485
0	H	0.441356	0.580785	0.0736687
0	H	0.398558	0.853253	0.0738954
0	H	0.18865	0.113891	0.602088
0	H	0.86861	0.0702137	0.605583
0	H	0.908646	0.7933	0.605741
0	H	0.789325	0.870632	0.405884
0	H	0.109478	0.914195	0.402091
0	H	0.0695962	0.191064	0.401944
0	H	0.850681	0.446416	0.933954
0	H	0.536744	0.403716	0.934251
0	H	0.579701	0.1312	0.93363
0	C	0.475067	0.2186	0.587986
0	C	0.764615	0.255256	0.588497
0	C	0.729486	0.509188	0.590333
0	C	0.503007	0.765859	0.419001
0	C	0.213575	0.729363	0.419073
0	C	0.248891	0.475313	0.418476
0	C	0.13837	0.549576	0.923454
0	C	0.430082	0.58128	0.923211
0	C	0.398667	0.84167	0.923471
0	C	0.17769	0.103284	0.752701
0	C	0.877755	0.06948	0.756656
0	C	0.909772	0.803929	0.756492
0	C	0.800246	0.88123	0.255253
0	C	0.100387	0.915063	0.251033
0	C	0.0683742	0.180387	0.251194
0	C	0.839462	0.434891	0.0844329
0	C	0.548053	0.403379	0.0847434
0	C	0.579494	0.142736	0.0840548
0	H	0.487616	0.258241	0.5906
0	H	0.725059	0.22869	0.591326
0	H	0.757492	0.497642	0.593247
0	H	0.490363	0.726198	0.416436
0	H	0.253126	0.755945	0.416172
0	H	0.220776	0.486711	0.415449
0	H	0.14961	0.588909	0.927281
0	H	0.39096	0.553267	0.926516
0	H	0.426545	0.829966	0.927285
0	H	0.166377	0.0639239	0.749741
0	H	0.916699	0.0979651	0.755198
0	H	0.88114	0.814653	0.75499
0	H	0.811421	0.920557	0.258195
0	H	0.0614343	0.886597	0.25243
0	H	0.0968832	0.169497	0.252673
0	H	0.828069	0.395522	0.080589
0	H	0.58716	0.431431	0.0813832
0	H	0.5515	0.154286	0.0802032
0	C	0.472261	0.196033	0.501247
0	C	0.787057	0.274413	0.501575
0	C	0.70971	0.51164	0.503377
0	C	0.505816	0.788467	0.505692
0	C	0.191167	0.71026	0.506043
0	C	0.268614	0.472891	0.505525
0	C	0.13643	0.527934	0.836069
0	C	0.451737	0.601303	0.836168
0	C	0.378985	0.843708	0.836116
0	C	0.17986	0.125413	0.83967
0	C	0.85507	0.0488697	0.84271
0	C	0.930564	0.801927	0.842581
0	C	0.798146	0.859123	0.168301
0	C	0.123101	0.935718	0.165028
0	C	0.0476208	0.182474	0.165118
0	C	0.841483	0.456559	0.171847
0	C	0.526424	0.383404	0.171821
0	C	0.599204	0.140773	0.171423
0	H	0.482486	0.217547	0.435858
0	H	0.765519	0.263119	0.436279
0	H	0.721991	0.502218	0.438107
0	H	0.495506	0.766958	0.571087
0	H	0.212737	0.721605	0.571304
0	H	0.256184	0.482205	0.570733
0	H	0.145937	0.549862	0.771341
0	H	0.43001	0.589192	0.771233
0	H	0.391209	0.833799	0.771453
0	H	0.170566	0.103824	0.904942
0	H	0.875901	0.0609766	0.90875
0	H	0.918321	0.810776	0.908645
0	H	0.807359	0.880687	0.103001
0	H	0.102297	0.923667	0.0989566
0	H	0.0597749	0.173545	0.0990362
0	H	0.831895	0.434603	0.23654
0	H	0.548163	0.39559	0.236737
0	H	0.586885	0.150605	0.236063
0	C	0.362768	0.842732	0.264113
0	C	0.138906	0.513396	0.264057
0	C	0.464425	0.618962	0.264448
0	C	0.615565	0.141821	0.743507
0	C	0.83941	0.471165	0.743947
0	C	0.513609	0.36545	0.744106
0	C	0.0323096	0.17849	0.596077
0	C	0.800632	0.844277	0.595687
0	C	0.134203	0.950153	0.594755
0	C	0.28448	0.476855	0.0773487
0	C	0.504197	0.801796	0.0754424
0	C	0.178277	0.695682	0.0768187
0	C	0.693886	0.507654	0.931129
0	C	0.474061	0.182777	0.932201
0	C	0.799831	0.288789	0.931257
0	C	0.946059	0.806033	0.411887
0	C	0.177626	0.140311	0.412419
0	C	0.843856	0.0343009	0.413287
0	C	0.400286	0.834685	0.300738
0	C	0.146828	0.558732	0.301408
0	C	0.419636	0.581205	0.301481
0	C	0.578081	0.149897	0.706793
0	C	0.831575	0.425834	0.706701
0	C	0.558471	0.403263	0.707418
0	C	0.0700702	0.170361	0.631183
0	C	0.807757	0.889489	0.632203
0	C	0.0886376	0.912186	0.628408
0	C	0.246837	0.484349	0.0394307
0	C	0.497661	0.756895	0.0383011
0	C	0.223176	0.733147	0.039524
0	C	0.731557	0.500123	0.968794
0	C	0.480671	0.227646	0.969645
0	C	0.755018	0.251348	0.968879
0	C	0.908317	0.81415	0.376653
0	C	0.170591	0.0951039	0.376053
0	C	0.889525	0.0723423	0.380123
0	H	0.436316	0.865969	0.320418
0	H	0.115532	0.563874	0.32117
0	H	0.415583	0.545145	0.320598
0	H	0.542065	0.118624	0.687028
0	H	0.862916	0.420738	0.687075
0	H	0.562594	0.439392	0.688657
0	H	0.10653	0.201618	0.648656
0	H	0.776072	0.894127	0.651181
0	H	0.0836373	0.875505	0.645407
0	H	0.210956	0.452796	0.0200798
0	H	0.529613	0.752796	0.0188739
0	H	0.227414	0.769212	0.0198632
0	H	0.767453	0.531653	0.988158
0	H	0.448758	0.231768	0.989278
0	H	0.750867	0.215338	0.988722
0	H	0.871874	0.782879	0.359156
0	H	0.202322	0.0905013	0.357289
0	H	0.894602	0.10908	0.363453
0	C	0.39084	0.786089	0.312502
0	C	0.195305	0.597172	0.313643
0	C	0.380323	0.590429	0.314271
0	C	0.587549	0.1985	0.695069
0	C	0.783136	0.38735	0.694374
0	C	0.597742	0.393988	0.694486
0	C	0.0603116	0.121738	0.644175
0	C	0.855955	0.928421	0.644609
0	C	0.0496203	0.922007	0.640625
0	C	0.255943	0.532742	0.0261171
0	C	0.449723	0.717482	0.0258169
0	C	0.262339	0.723635	0.0272502
0	C	0.72245	0.451711	0.981842
0	C	0.528648	0.267012	0.98214
0	C	0.715818	0.260795	0.981204
0	C	0.918062	0.862755	0.36359
0	C	0.122436	0.0561396	0.363472
0	C	0.928526	0.0624792	0.367974
0	H	0.419633	0.779539	0.342033
0	H	0.201732	0.632301	0.343779
0	H	0.345578	0.561444	0.34409
0	H	0.558781	0.205065	0.665469
0	H	0.776779	0.352228	0.664319
0	H	0.632538	0.423009	0.664905
0	H	0.0893066	0.11512	0.672401
0	H	0.861796	0.963462	0.674135
0	H	0.0143392	0.892846	0.66816
0	H	0.227036	0.538812	0.995575
0	H	0.444409	0.682699	0.995883
0	H	0.297124	0.752404	0.997198
0	H	0.751377	0.445607	0.0121894
0	H	0.534014	0.301767	0.0123005
0	H	0.68109	0.232035	0.0114746
0	H	0.889089	0.869374	0.335252
0	H	0.116666	0.0211034	0.334051
0	H	0.963839	0.0916615	0.340651
0	C	0.344875	0.746066	0.287383
0	C	0.235318	0.590719	0.288177
0	C	0.385409	0.636445	0.289792
0	C	0.633499	0.238504	0.720343
0	C	0.743059	0.393741	0.71962
0	C	0.592539	0.347868	0.718485
0	C	0.0137708	0.0817826	0.621838
0	C	0.896451	0.922547	0.620234
0	C	0.0558323	0.968769	0.618724
0	C	0.301753	0.573073	0.051059
0	C	0.408808	0.722553	0.0506811
0	C	0.25695	0.677592	0.0525539
0	C	0.676629	0.41141	0.956911
0	C	0.569509	0.261918	0.956978
0	C	0.721085	0.306759	0.955621
0	C	0.964598	0.902735	0.386037
0	C	0.0818724	0.0619734	0.387508
0	C	0.922222	0.0156638	0.389631
0	H	0.33777	0.708261	0.297041
0	H	0.273009	0.620787	0.298307
0	H	0.354618	0.643399	0.300353
0	H	0.640621	0.276316	0.710697
0	H	0.705397	0.363642	0.709385
0	H	0.623295	0.340873	0.70782
0	H	0.00645736	0.0439792	0.632364
0	H	0.933932	0.953037	0.630431
0	H	0.0254084	0.976238	0.629047
0	H	0.308629	0.610705	0.0401659
0	H	0.371527	0.691711	0.0403786
0	H	0.287588	0.670375	0.0424856
0	H	0.669754	0.373761	0.967587
0	H	0.606815	0.292721	0.967264
0	H	0.690412	0.313921	0.965712
0	H	0.971891	0.940527	0.375453
0	H	0.0444233	0.0314608	0.377134
0	H	0.952648	0.00817713	0.379444
0	C	0.308052	0.754636	0.250067
0	C	0.226937	0.545637	0.250018
0	C	0.43	0.673524	0.252093
0	C	0.670273	0.229906	0.757817
0	C	0.751345	0.438803	0.757726
0	C	0.547877	0.310731	0.755807
0	C	0.976643	0.0903893	0.586389
0	C	0.88883	0.877503	0.583212
0	C	0.101233	0.00607874	0.584223
0	C	0.338742	0.565133	0.0896009
0	C	0.41577	0.767235	0.0883321
0	C	0.212253	0.640769	0.0903542
0	C	0.639607	0.419388	0.918668
0	C	0.562466	0.217256	0.919083
0	C	0.7657	0.343561	0.917486
0	C	0.00169974	0.894141	0.421671
0	C	0.0893926	0.107	0.424423
0	C	0.876743	0.978311	0.423701
0	H	0.272339	0.723392	0.229623
0	H	0.258235	0.540828	0.229361
0	H	0.433803	0.709321	0.232358
0	H	0.705963	0.261134	0.778435
0	H	0.719997	0.443559	0.778243
0	H	0.543982	0.27485	0.775158
0	H	0.940325	0.0592151	0.568804
0	H	0.920482	0.873058	0.563677
0	H	0.106115	0.0424451	0.56613
0	H	0.374415	0.596666	0.109468
0	H	0.38379	0.771096	0.107987
0	H	0.208192	0.604906	0.110439
0	H	0.603913	0.387877	0.898845
0	H	0.594405	0.213365	0.899248
0	H	0.769661	0.379357	0.89718
0	H	0.0379954	0.925328	0.439379
0	H	0.0576911	0.111406	0.443734
0	H	0.871776	0.941883	0.441691
0	C	0.316513	0.802915	0.238233
0	C	0.178766	0.506545	0.237724
0	C	0.469921	0.665214	0.2391
0	C	0.661793	0.181616	0.769599
0	C	0.799487	0.477943	0.770115
0	C	0.507986	0.319084	0.76892
0	C	0.985479	0.138717	0.573135
0	C	0.84094	0.837942	0.570609
0	C	0.140837	0.997172	0.572
0	C	0.330521	0.517028	0.103089
0	C	0.463421	0.807235	0.101068
0	C	0.172498	0.649397	0.102843
0	C	0.647822	0.467506	0.905429
0	C	0.514789	0.177306	0.906329
0	C	0.805483	0.334991	0.904932
0	C	0.992875	0.845825	0.434951
0	C	0.137251	0.146597	0.437207
0	C	0.837127	0.987219	0.435673
0	H	0.287624	0.809717	0.209905
0	H	0.172109	0.471106	0.208634
0	H	0.504967	0.694198	0.21021
0	H	0.690639	0.174783	0.798051
0	H	0.806073	0.513365	0.79917
0	H	0.472879	0.290052	0.797491
0	H	0.956399	0.145582	0.546141
0	H	0.834827	0.802561	0.542214
0	H	0.176429	0.0262801	0.545422
0	H	0.359468	0.510654	0.132492
0	H	0.468961	0.842312	0.129868
0	H	0.137376	0.620579	0.13172
0	H	0.618849	0.473905	0.87625
0	H	0.509192	0.142242	0.877359
0	H	0.840542	0.363788	0.875788
0	H	0.0219315	0.838958	0.462067
0	H	0.143289	0.181963	0.465537
0	H	0.801442	0.958059	0.461842
0	C	0.325604	0.97882	0.280895
0	C	0.00267631	0.342047	0.280909
0	C	0.636841	0.655293	0.281801
0	C	0.652521	0.00561034	0.725754
0	C	0.975533	0.642519	0.726037
0	C	0.341375	0.329497	0.725419
0	C	0.996645	0.315624	0.612004
0	C	0.665441	0.672583	0.614844
0	C	0.305966	0.984654	0.611457
0	C	0.321806	0.340859	0.0584528
0	C	0.638356	0.974353	0.0574541
0	C	0.00606434	0.659819	0.0583378
0	C	0.656316	0.643511	0.948966
0	C	0.339914	0.0101984	0.948962
0	C	0.972174	0.324961	0.948607
0	C	0.981458	0.668735	0.394916
0	C	0.312781	0.311967	0.392172
0	C	0.672234	0.000124022	0.395404
0	F	0.277964	0.948334	0.303853
0	F	0.0329003	0.324088	0.303723
0	F	0.653991	0.703134	0.304552
0	F	0.700402	0.0361292	0.70454
0	F	0.945197	0.660541	0.704641
0	F	0.324066	0.28148	0.703948
0	F	0.948822	0.285635	0.634403
0	F	0.695864	0.655064	0.639041
0	F	0.323692	0.032708	0.633329
0	F	0.369257	0.371304	0.0341725
0	F	0.607846	0.991075	0.0289836
0	F	0.989606	0.61265	0.0312193
0	F	0.609107	0.613125	0.974846
0	F	0.370324	0.993557	0.97853
0	F	0.988483	0.371908	0.977059
0	F	0.0294409	0.698705	0.373676
0	F	0.282282	0.329635	0.369616
0	F	0.654349	0.95191	0.374755
0	F	0.342098	0.0121021	0.351017
0	F	0.969621	0.326026	0.35135
0	F	0.652984	0.638375	0.352744
0	F	0.636434	0.973217	0.654112
0	F	0.00776749	0.658077	0.654199
0	F	0.325951	0.346214	0.652959
0	F	0.0134223	0.348279	0.68325
0	F	0.63242	0.65707	0.685374
0	F	0.321727	0.967684	0.682975
0	F	0.304681	0.307896	0.987786
0	F	0.673449	0.991297	0.990695
0	F	0.989252	0.677747	0.990402
0	F	0.673724	0.677421	0.0179754
0	F	0.304162	0.992734	0.0144081
0	F	0.989554	0.306823	0.0150715
0	F	0.964871	0.636822	0.322452
0	F	0.344824	0.326856	0.320001
0	F	0.657	0.0168536	0.322636
0	F	0.3228	0.00401543	0.206489
0	F	0.977186	0.314263	0.206911
0	F	0.665108	0.657615	0.208322
0	F	0.654493	0.979347	0.799111
0	F	0.00195003	0.670614	0.798981
0	F	0.312662	0.327796	0.797581
0	F	0.994435	0.341799	0.538721
0	F	0.64	0.644044	0.541566
0	F	0.334112	0.986137	0.538445
0	F	0.325299	0.315245	0.131423
0	F	0.661095	0.00263697	0.132819
0	F	0.977671	0.655187	0.133111
0	F	0.652048	0.667968	0.874767
0	F	0.318053	0.982262	0.872742
0	F	0.000234771	0.33026	0.872882
0	F	0.983078	0.641681	0.46718
0	F	0.339339	0.340855	0.464199
0	F	0.643815	0.999248	0.467383
