#******************************************
#
# CIF file created by Zeo++
# Zeo++ is an open source package to
# analyze microporous materials
#
#*******************************************

_cell_length_a		24.4912(0)
_cell_length_b		39.0766(0)
_cell_length_c		17.8014(0)
_cell_angle_alpha		90(0)
_cell_angle_beta		90(0)
_cell_angle_gamma		90(0)

_symmetry_space_group_name_H-M		'P1'
_symmetry_Int_Tables_number		1
_symmetry_cell_setting		Monoclinic

loop_
_symmetry_equiv_pos_as_xyz
'+x,+y,+z'

loop_
_atom_site_label
_atom_site_type_symbol
_atom_site_fract_x
_atom_site_fract_y
_atom_site_fract_z
0	O	0.919112	0.628902	0.321385
0	O	0.0463093	0.351153	0.810135
0	O	0.0742954	0.641915	0.252106
0	O	0.937943	0.378621	0.712605
0	O	0.368341	0.131275	0.352649
0	O	0.543544	0.861715	0.848113
0	O	0.466242	0.129697	0.255746
0	O	0.44688	0.864731	0.750677
0	O	0.763223	0.723955	0.185809
0	O	0.176723	0.261139	0.685022
0	O	0.195071	0.709737	0.385866
0	O	0.764614	0.271757	0.856289
0	O	0.247654	0.242071	0.199562
0	O	0.680101	0.761175	0.685433
0	O	0.643576	0.210637	0.350375
0	O	0.282128	0.773264	0.871842
0	O	0.914256	0.825549	0.977953
0	O	0.0179057	0.161873	0.482605
0	O	0.0477769	0.825804	0.552338
0	O	0.896028	0.159857	0.0549094
0	O	0.405274	0.340239	0.996712
0	O	0.55157	0.650809	0.487071
0	O	0.535471	0.326438	0.557444
0	O	0.406699	0.662619	0.0736734
0	O	0.891979	0.541545	0.0160349
0	O	0.0389264	0.448875	0.520368
0	O	0.0675591	0.549148	0.482529
0	O	0.8773	0.442409	0.973914
0	O	0.375958	0.046428	0.0366051
0	O	0.539966	0.948016	0.53348
0	O	0.558603	0.0355557	0.534232
0	O	0.353645	0.956473	0.0319909
0	O	0.883906	0.76593	0.854474
0	O	0.0479042	0.220196	0.356625
0	O	0.0732981	0.77466	0.703495
0	O	0.860425	0.213718	0.195868
0	O	0.385929	0.279218	0.873036
0	O	0.557215	0.715925	0.352194
0	O	0.559856	0.266094	0.698903
0	O	0.382809	0.716923	0.216627
0	O	0.656983	0.772131	0.868868
0	O	0.274335	0.21569	0.36651
0	O	0.29216	0.787504	0.705669
0	O	0.640817	0.202772	0.181289
0	O	0.158836	0.273262	0.863312
0	O	0.782321	0.697101	0.356966
0	O	0.781881	0.286324	0.67272
0	O	0.159711	0.717748	0.193643
0	O	0.761287	0.741909	0.899263
0	O	0.170397	0.245667	0.401118
0	O	0.165936	0.725845	0.662993
0	O	0.768657	0.261224	0.137066
0	O	0.262739	0.249755	0.914133
0	O	0.630376	0.765768	0.40564
0	O	0.612905	0.213093	0.64257
0	O	0.302327	0.770916	0.163957
0	O	0.963295	0.728665	0.043375
0	O	0.980944	0.267836	0.517078
0	O	0.00146762	0.717034	0.54645
0	O	0.944555	0.272797	0.0210705
0	O	0.416069	0.214172	0.0315573
0	O	0.495786	0.779892	0.525105
0	O	0.479627	0.201787	0.59113
0	O	0.43098	0.789418	0.0818019
0	O	0.925566	0.605333	0.994759
0	O	0.97381	0.394267	0.504233
0	O	0.989283	0.589143	0.543255
0	O	0.944512	0.400863	0.0425332
0	O	0.49205	0.0969766	0.0819505
0	O	0.422881	0.897521	0.575701
0	O	0.446356	0.0749071	0.561019
0	O	0.464175	0.916594	0.0596211
0	C	0.938274	0.678659	0.114082
0	C	0.982813	0.315781	0.60479
0	C	7.92284e-05	0.670662	0.455293
0	C	0.944053	0.322406	0.938506
0	C	0.418837	0.170965	0.129358
0	C	0.494567	0.823054	0.623096
0	C	0.460564	0.159303	0.495312
0	C	0.449794	0.832982	0.988003
0	C	0.906358	0.628029	0.188457
0	C	0.995003	0.365879	0.698805
0	C	0.0329426	0.624158	0.367449
0	C	0.928767	0.373393	0.852157
0	C	0.410391	0.123837	0.230471
0	C	0.502926	0.869827	0.725344
0	C	0.475473	0.116674	0.389653
0	C	0.436891	0.877086	0.884758
0	O	0.846892	0.529677	0.202346
0	O	0.0740573	0.46121	0.708747
0	O	0.102888	0.528634	0.330999
0	O	0.839745	0.462606	0.82477
0	O	0.312964	0.035869	0.210508
0	O	0.599757	0.958166	0.710278
0	O	0.575047	0.0332982	0.341299
0	O	0.342499	0.962934	0.837974
0	O	0.877406	0.684101	0.218734
0	O	0.998979	0.30699	0.734679
0	O	0.995657	0.676542	0.322097
0	O	0.919952	0.316702	0.809347
0	O	0.359212	0.176563	0.233767
0	O	0.55373	0.816886	0.727656
0	O	0.453739	0.175259	0.367315
0	O	0.456628	0.818631	0.858907
0	O	0.791795	0.636208	0.0484345
0	O	0.139734	0.351048	0.553176
0	O	0.136706	0.621023	0.504708
0	O	0.808546	0.363891	0.976744
0	O	0.288911	0.149992	0.0845805
0	O	0.640155	0.860697	0.596127
0	O	0.641976	0.115174	0.465915
0	O	0.283879	0.868818	0.987333
0	C	0.774078	0.695761	0.0682364
0	C	0.15788	0.291116	0.571364
0	C	0.160144	0.680985	0.492827
0	C	0.788352	0.303353	0.965726
0	C	0.267173	0.20945	0.0898985
0	C	0.647191	0.798415	0.589715
0	C	0.630422	0.177357	0.460015
0	C	0.293517	0.806644	0.981503
0	C	0.945675	0.65884	0.0532499
0	C	0.981705	0.337226	0.545902
0	C	0.99855	0.647972	0.51188
0	C	0.943942	0.343183	0.998638
0	C	0.44106	0.148597	0.080848
0	C	0.472696	0.845605	0.574739
0	C	0.466402	0.134547	0.54701
0	C	0.444869	0.857126	0.041274
0	O	0.675925	0.735242	0.965749
0	O	0.25538	0.249427	0.468797
0	O	0.25606	0.749527	0.621932
0	O	0.677499	0.241923	0.100328
0	O	0.172697	0.238044	0.964406
0	O	0.753744	0.733957	0.448399
0	O	0.744148	0.245991	0.595116
0	O	0.196811	0.754772	0.107308
0	O	0.733881	0.877172	0.810279
0	O	0.194905	0.114799	0.283982
0	O	0.199156	0.889843	0.759202
0	O	0.728036	0.0999137	0.243163
0	O	0.228388	0.377837	0.789656
0	O	0.699982	0.595544	0.268651
0	O	0.701031	0.391083	0.747169
0	O	0.234916	0.615952	0.284413
0	C	0.815822	0.752728	0.0915176
0	C	0.118719	0.233641	0.594599
0	C	0.137004	0.741991	0.46852
0	C	0.815375	0.242231	0.950918
0	C	0.308471	0.266704	0.108515
0	C	0.618633	0.736859	0.596244
0	C	0.593499	0.237497	0.448526
0	C	0.331581	0.747034	0.971508
0	O	0.0593416	0.810971	0.995091
0	O	0.878395	0.179752	0.497056
0	O	0.900961	0.806992	0.519809
0	O	0.0413303	0.17886	0.0366264
0	O	0.544557	0.322594	0.986058
0	O	0.364761	0.680905	0.488247
0	O	0.376532	0.286432	0.590506
0	O	0.548591	0.673715	0.0559603
0	C	0.741062	0.847873	0.82987
0	C	0.189382	0.141755	0.316491
0	C	0.198156	0.861491	0.732975
0	C	0.731561	0.128365	0.217855
0	C	0.236364	0.351346	0.82281
0	C	0.697122	0.623603	0.295594
0	C	0.69798	0.361929	0.726768
0	C	0.241387	0.641604	0.248289
0	C	0.900914	0.53787	0.0865235
0	C	0.0218196	0.454004	0.593615
0	C	0.0378735	0.526663	0.431257
0	C	0.903853	0.467636	0.926249
0	C	0.382282	0.0368356	0.113414
0	C	0.532701	0.957193	0.61045
0	C	0.535522	0.0306874	0.471339
0	C	0.377747	0.962466	0.970644
0	C	0.703201	0.790592	0.861559
0	C	0.228159	0.197428	0.357711
0	C	0.245859	0.806187	0.707589
0	C	0.686962	0.184054	0.186206
0	C	0.202905	0.293967	0.860967
0	C	0.73881	0.679275	0.334845
0	C	0.739542	0.30514	0.69633
0	C	0.203954	0.697828	0.20543
0	C	0.782577	0.725327	0.123173
0	C	0.153263	0.260779	0.625123
0	C	0.1671	0.711564	0.442179
0	C	0.78716	0.271796	0.917101
0	C	0.272083	0.240792	0.140461
0	C	0.651454	0.76483	0.630429
0	C	0.623645	0.208985	0.412833
0	C	0.301134	0.774851	0.934993
0	O	0.686769	0.577454	0.0608191
0	O	0.250247	0.405566	0.589003
0	O	0.271448	0.555081	0.455951
0	O	0.681495	0.426122	0.946612
0	O	0.180291	0.0958296	0.0818121
0	O	0.773003	0.901537	0.617986
0	O	0.766814	0.0745429	0.422146
0	O	0.162944	0.916306	0.928647
0	O	0.856869	0.768865	0.207114
0	O	0.0820738	0.215034	0.711622
0	O	0.115305	0.759872	0.34448
0	O	0.848841	0.222899	0.832734
0	O	0.348462	0.283333	0.224777
0	O	0.596618	0.711559	0.714154
0	O	0.569271	0.262139	0.330376
0	O	0.361295	0.725632	0.852757
0	C	0.815526	0.757572	0.0131608
0	C	0.117594	0.229422	0.516018
0	C	0.130823	0.747757	0.545679
0	C	0.814516	0.237651	0.0288381
0	C	0.311513	0.269578	0.0297163
0	C	0.607319	0.737052	0.520402
0	C	0.588545	0.239274	0.525686
0	C	0.332832	0.743756	0.0500147
0	C	0.652292	0.739338	0.906575
0	C	0.279037	0.247118	0.409087
0	C	0.288939	0.752893	0.67229
0	C	0.643018	0.237283	0.147733
0	C	0.155525	0.240494	0.900736
0	C	0.776256	0.731975	0.388239
0	C	0.773815	0.25046	0.648292
0	C	0.164365	0.751491	0.157995
0	C	0.910269	0.607008	0.127272
0	C	0.00374377	0.388503	0.630552
0	C	0.0265626	0.600035	0.42103
0	C	0.924805	0.394599	0.912084
0	C	0.414467	0.098808	0.16433
0	C	0.499665	0.895057	0.659456
0	C	0.486916	0.0914749	0.445136
0	C	0.425634	0.90172	0.941481
0	C	0.87311	0.579904	0.271777
0	C	0.0526995	0.409126	0.773453
0	C	0.0923657	0.585497	0.289282
0	C	0.873433	0.411353	0.770725
0	C	0.335993	0.0844847	0.282957
0	C	0.576329	0.909117	0.780805
0	C	0.518698	0.0810778	0.292618
0	C	0.3981	0.914915	0.788451
0	C	0.900373	0.613932	0.268619
0	C	0.0336257	0.373787	0.76789
0	C	0.0670974	0.619272	0.297733
0	C	0.914901	0.385955	0.776899
0	C	0.370455	0.114323	0.296064
0	C	0.542279	0.878948	0.791959
0	C	0.484862	0.108836	0.313789
0	C	0.429225	0.885891	0.809027
0	C	0.696295	0.824194	0.846833
0	C	0.234626	0.164467	0.336649
0	C	0.248345	0.840076	0.725009
0	C	0.682578	0.150334	0.204758
0	C	0.193151	0.326626	0.840489
0	C	0.742294	0.644725	0.323395
0	C	0.742441	0.340022	0.698949
0	C	0.194944	0.664869	0.22815
0	C	0.897086	0.571951	0.136586
0	C	0.0221652	0.420557	0.64099
0	C	0.0504783	0.565257	0.412226
0	C	0.898025	0.428443	0.903581
0	C	0.385477	0.0697082	0.162476
0	C	0.528625	0.924179	0.658987
0	C	0.515855	0.0623302	0.426009
0	C	0.398245	0.931614	0.923245
0	C	0.993817	0.708585	0.988741
0	C	0.951943	0.28884	0.462376
0	C	0.972857	0.695614	0.600535
0	C	0.970674	0.292992	0.0795063
0	C	0.459634	0.196946	0.990565
0	C	0.452845	0.7976	0.483797
0	C	0.460176	0.17882	0.649528
0	C	0.451926	0.81144	0.140909
0	C	0.906169	0.666857	0.179126
0	C	0.992043	0.326495	0.683292
0	C	0.00790071	0.659438	0.375924
0	C	0.932574	0.334758	0.8615
0	C	0.393545	0.160337	0.201068
0	C	0.519592	0.833417	0.695357
0	C	0.459675	0.152551	0.412528
0	C	0.451053	0.840687	0.905739
0	C	0.871733	0.561399	0.208204
0	C	0.0493325	0.429556	0.713022
0	C	0.0855952	0.561739	0.34271
0	C	0.865174	0.431963	0.831631
0	C	0.344692	0.0645422	0.223055
0	C	0.568318	0.929248	0.721035
0	C	0.53513	0.0608001	0.351213
0	C	0.381237	0.934706	0.847697
0	O	0.724167	0.493653	0.109612
0	O	0.203587	0.48829	0.622565
0	O	0.211356	0.480415	0.391303
0	O	0.726936	0.506777	0.891818
0	O	0.192766	0.0090356	0.122969
0	O	0.722625	0.980241	0.632133
0	O	0.703169	0.997078	0.392965
0	O	0.211799	0.997205	0.890065
0	C	0.781873	0.735227	0.965118
0	C	0.150615	0.252078	0.467568
0	C	0.15084	0.720329	0.599242
0	C	0.789496	0.26582	0.0761132
0	C	0.280875	0.245283	0.982213
0	C	0.624079	0.767687	0.472746
0	C	0.608466	0.210038	0.575326
0	C	0.310822	0.773167	0.0967912
0	C	0.926612	0.622127	0.0512998
0	C	0.985714	0.375294	0.555245
0	C	0.00284478	0.610168	0.49713
0	C	0.938351	0.381233	0.990935
0	C	0.452751	0.112481	0.104985
0	C	0.461767	0.881745	0.599342
0	C	0.465378	0.097741	0.523337
0	C	0.445833	0.894219	0.0199532
0	C	0.804337	0.8007	0.864838
0	C	0.12756	0.18675	0.366549
0	C	0.146499	0.811858	0.683409
0	C	0.787336	0.177008	0.171339
0	C	0.302048	0.309399	0.876755
0	C	0.648318	0.673977	0.311166
0	C	0.650522	0.310509	0.728872
0	C	0.302863	0.685748	0.195458
0	C	0.773776	0.700085	0.992773
0	C	0.158101	0.287175	0.495742
0	C	0.150646	0.684966	0.566561
0	C	0.79204	0.300615	0.0407355
0	C	0.271404	0.211085	0.0141333
0	C	0.633112	0.799903	0.516867
0	C	0.622925	0.17762	0.534713
0	C	0.299093	0.806075	0.0564747
0	C	0.888317	0.798417	0.100779
0	C	0.0455002	0.188667	0.604805
0	C	0.0799602	0.793685	0.441623
0	C	0.875242	0.190772	0.937773
0	C	0.378877	0.313289	0.118623
0	C	0.577647	0.677784	0.60832
0	C	0.550656	0.296137	0.436101
0	C	0.387829	0.694142	0.958353
0	N	0.617354	0.720747	0.864592
0	N	0.313045	0.267503	0.369761
0	N	0.328333	0.733795	0.704356
0	N	0.599615	0.254714	0.175545
0	N	0.132901	0.21817	0.851598
0	N	0.800082	0.754754	0.341758
0	N	0.805957	0.230129	0.690611
0	N	0.126221	0.770953	0.191859
0	C	0.959834	0.526137	0.108055
0	C	0.964858	0.470078	0.605348
0	C	0.981818	0.512052	0.442642
0	C	0.958265	0.483647	0.940205
0	C	0.431029	0.014393	0.135571
0	C	0.483859	0.979772	0.631582
0	C	0.49493	2.9757e-05	0.468878
0	C	0.418277	0.993394	0.971557
0	C	0.859172	0.786933	0.896075
0	C	0.0730407	0.199975	0.399671
0	C	0.093916	0.790476	0.649744
0	C	0.842246	0.196902	0.141811
0	C	0.357087	0.298749	0.912954
0	C	0.563973	0.702322	0.411444
0	C	0.558357	0.277542	0.636921
0	C	0.359388	0.702291	0.163642
0	C	0.902528	0.844671	0.847259
0	C	0.029613	0.141845	0.352676
0	C	0.0431756	0.851133	0.676901
0	C	0.889679	0.136299	0.180847
0	C	0.394764	0.359546	0.866933
0	C	0.540001	0.638954	0.354517
0	C	0.538564	0.342019	0.689576
0	C	0.397904	0.637174	0.196741
0	C	0.0158763	0.714592	0.157162
0	C	0.915796	0.26853	0.621067
0	C	0.935624	0.719845	0.443199
0	C	0.0107105	0.275224	0.917537
0	C	0.462034	0.227746	0.15048
0	C	0.449791	0.766975	0.644521
0	C	0.397567	0.209105	0.513771
0	C	0.510693	0.781803	5.47473e-05
0	C	0.852435	0.772565	0.139012
0	C	0.0834882	0.213301	0.642779
0	C	0.112346	0.764425	0.412632
0	C	0.845493	0.219365	0.901127
0	C	0.344068	0.286919	0.156578
0	C	0.598626	0.709495	0.645959
0	C	0.571352	0.264268	0.398613
0	C	0.359518	0.723114	0.921517
0	C	0.768677	0.671543	0.937567
0	C	0.161756	0.316197	0.44148
0	C	0.13925	0.656123	0.618941
0	C	0.798969	0.330384	0.0921158
0	C	0.268385	0.180495	0.964056
0	C	0.625569	0.832655	0.475256
0	C	0.629253	0.14652	0.58267
0	C	0.292366	0.83726	0.104238
0	C	0.884915	0.799958	0.025912
0	C	0.0478729	0.187427	0.5298
0	C	0.078846	0.796978	0.516417
0	C	0.868837	0.188303	0.0121824
0	C	0.377452	0.313811	0.0434932
0	C	0.570853	0.680219	0.534338
0	C	0.550644	0.295763	0.510873
0	C	0.382576	0.692491	0.0331005
0	C	0.850006	0.78019	0.978937
0	C	0.0824659	0.207073	0.482185
0	C	0.104742	0.776962	0.572533
0	C	0.837923	0.208957	0.0621923
0	C	0.346014	0.292312	0.995599
0	C	0.581256	0.708774	0.486029
0	C	0.566483	0.2687	0.560413
0	C	0.354832	0.714591	0.0837214
0	O	0.0985165	0.563077	0.0944835
0	O	0.821697	0.446504	0.567033
0	O	0.840478	0.541788	0.475232
0	O	0.0949722	0.455741	0.00112565
0	O	0.580935	0.0145064	0.143728
0	O	0.333788	0.977966	0.638487
0	O	0.345236	0.991069	0.461801
0	O	0.568216	0.000226887	0.967224
0	C	0.960833	0.714734	0.117812
0	C	0.972903	0.277609	0.593939
0	C	0.992211	0.708711	0.46882
0	C	0.95375	0.284075	0.945483
0	C	0.415757	0.208851	0.111164
0	C	0.496578	0.785155	0.604868
0	C	0.456323	0.19669	0.517748
0	C	0.452667	0.795269	0.00791504
0	C	0.854856	0.51765	0.127239
0	C	0.0692437	0.473042	0.632658
0	C	0.0834504	0.507437	0.391242
0	C	0.856364	0.484669	0.886489
0	C	0.326625	0.0221925	0.139028
0	C	0.588285	0.971403	0.637572
0	C	0.57806	0.0171932	0.405617
0	C	0.337135	0.977475	0.903761
0	O	0.837661	0.888023	0.816018
0	O	0.0957228	0.0983393	0.327921
0	O	0.101338	0.899555	0.698901
0	O	0.82873	0.0893802	0.203293
0	O	0.325168	0.397812	0.826072
0	O	0.594099	0.588443	0.337203
0	O	0.593031	0.392956	0.680506
0	O	0.329119	0.595748	0.225521
0	O	0.906776	0.449579	0.189404
0	O	0.0273328	0.545391	0.681079
0	O	0.0274531	0.426348	0.410051
0	O	0.906741	0.566819	0.891881
0	O	0.349722	0.937958	0.163286
0	O	0.565478	0.056132	0.660728
0	O	0.566174	0.934163	0.368709
0	O	0.346996	0.0618828	0.876299
0	C	0.126077	0.686398	0.92924
0	C	0.815311	0.313274	0.40719
0	C	0.825666	0.672451	0.642309
0	C	0.10151	0.323015	0.16382
0	C	0.634967	0.122964	0.944369
0	C	0.285878	0.863901	0.4462
0	C	0.28338	0.124611	0.594444
0	C	0.61938	0.864856	0.0996239
0	O	0.99821	0.856612	0.844938
0	O	0.933998	0.129579	0.349488
0	O	0.947028	0.858347	0.671074
0	O	0.985817	0.127119	0.181445
0	O	0.486187	0.382465	0.860205
0	O	0.443725	0.635732	0.362791
0	O	0.441657	0.345414	0.704099
0	O	0.490337	0.616636	0.186986
0	C	0.797724	0.833502	0.843141
0	C	0.133728	0.154392	0.341731
0	C	0.146058	0.845334	0.70217
0	C	0.785713	0.14389	0.193065
0	C	0.292817	0.341136	0.850097
0	C	0.639553	0.640689	0.312008
0	C	0.640449	0.343417	0.720079
0	C	0.296691	0.653004	0.218207
0	C	0.759767	0.77459	0.856465
0	C	0.171283	0.213349	0.356947
0	C	0.191695	0.790707	0.703247
0	C	0.741616	0.198843	0.185319
0	C	0.261498	0.280896	0.866216
0	C	0.687299	0.696992	0.310399
0	C	0.690581	0.288285	0.731434
0	C	0.25955	0.709942	0.207332
0	N	0.1435	0.610344	0.0648902
0	N	0.791811	0.399558	0.505141
0	N	0.811345	0.586684	0.542028
0	N	0.120341	0.409272	0.0659834
0	N	0.629723	0.0458361	0.060684
0	N	0.288746	0.943142	0.556902
0	N	0.29729	0.0325718	0.522749
0	N	0.61269	0.957126	0.0281722
0	C	0.896812	0.820984	0.909378
0	C	0.0356098	0.165927	0.414014
0	C	0.056794	0.823909	0.623917
0	C	0.8805	0.162656	0.124144
0	C	0.389801	0.335001	0.92736
0	C	0.549626	0.661655	0.417894
0	C	0.54194	0.317867	0.627616
0	C	0.391884	0.665212	0.143277
0	C	0.000329936	0.548478	0.0893505
0	C	0.920753	0.451481	0.583273
0	C	0.939352	0.535074	0.450274
0	C	0.998577	0.463014	0.967589
0	C	0.482836	0.026548	0.127863
0	C	0.432245	0.967292	0.623604
0	C	0.441741	0.00811225	0.465664
0	C	0.471281	0.984756	0.97037
0	C	0.935857	0.470491	0.168264
0	C	0.996059	0.525269	0.662117
0	C	0.0085896	0.449106	0.446459
0	C	0.933905	0.544111	0.908294
0	C	0.381473	0.959592	0.163736
0	C	0.533434	0.0346254	0.658742
0	C	0.562758	0.957582	0.411424
0	C	0.351196	0.0372008	0.915273
0	C	0.595977	0.686192	0.886643
0	C	0.33637	0.300088	0.400795
0	C	0.336925	0.697122	0.681031
0	C	0.593327	0.292333	0.158443
0	C	0.10568	0.185906	0.878637
0	C	0.814692	0.789877	0.370069
0	C	0.820807	0.19453	0.665998
0	C	0.106623	0.804497	0.161295
0	C	0.768723	0.66015	0.100911
0	C	0.159884	0.326438	0.606133
0	C	0.163657	0.645839	0.457768
0	C	0.786024	0.337957	0.927854
0	C	0.259863	0.175107	0.127541
0	C	0.659741	0.830477	0.634236
0	C	0.648523	0.145112	0.419725
0	C	0.278113	0.839098	0.940251
0	C	0.702108	0.547981	0.0604739
0	C	0.229922	0.433673	0.58285
0	C	0.243088	0.529766	0.451138
0	C	0.700679	0.454659	0.944649
0	C	0.194691	0.0661958	0.0825817
0	C	0.736461	0.922325	0.614358
0	C	0.73606	0.0505184	0.429028
0	C	0.189625	0.942288	0.931838
0	C	0.765594	0.635751	0.974693
0	C	0.167402	0.351408	0.480696
0	C	0.153329	0.621339	0.583364
0	C	0.785401	0.364315	0.0524151
0	C	0.272231	0.145891	0.0066099
0	C	0.653417	0.862526	0.516438
0	C	0.662732	0.118656	0.542431
0	C	0.260257	0.865202	0.0621613
0	O	0.0481651	0.613119	0.0860452
0	O	0.841354	0.393567	0.616676
0	O	0.86394	0.595555	0.433738
0	O	0.0672669	0.403143	0.956671
0	O	0.600779	0.0701304	0.174712
0	O	0.315723	0.922931	0.675236
0	O	0.341284	0.0444776	0.408253
0	O	0.570481	0.947268	0.911432
0	C	0.0711542	0.51127	0.143621
0	C	0.855396	0.493677	0.63278
0	C	0.871427	0.489828	0.430833
0	C	0.0696738	0.505711	0.939273
0	C	0.518803	0.984682	0.217795
0	C	0.394995	0.00967043	0.710971
0	C	0.411382	0.948417	0.448939
0	C	0.503603	0.0439105	0.953012
0	C	0.843251	0.85858	0.833581
0	C	0.0891133	0.128374	0.339236
0	C	0.0980414	0.868946	0.693679
0	C	0.833399	0.119693	0.193712
0	C	0.334504	0.368987	0.845632
0	C	0.594174	0.619181	0.334102
0	C	0.593643	0.362962	0.69561
0	C	0.339263	0.625513	0.215172
0	C	0.106145	0.692507	0.855513
0	C	0.839271	0.301624	0.339109
0	C	0.849019	0.68495	0.710023
0	C	0.0783649	0.310584	0.231739
0	C	0.612349	0.134039	0.874956
0	C	0.304387	0.852259	0.374967
0	C	0.305132	0.144772	0.653822
0	C	0.598195	0.845528	0.160679
0	C	0.97177	0.671583	0.983021
0	C	0.974469	0.325573	0.466735
0	C	0.992832	0.658347	0.592262
0	C	0.948105	0.32987	0.0770619
0	C	0.455655	0.157938	0.00226991
0	C	0.456653	0.836523	0.496541
0	C	0.47413	0.141479	0.628735
0	C	0.438107	0.849097	0.122707
0	C	0.127399	0.651703	0.95703
0	C	0.814774	0.349544	0.422615
0	C	0.824165	0.635976	0.629759
0	C	0.104769	0.359521	0.152372
0	C	0.642882	0.0869315	0.956771
0	C	0.275848	0.899874	0.456661
0	C	0.294587	0.0884157	0.593645
0	C	0.611831	0.901435	0.0996651
0	C	0.630388	0.657512	0.852876
0	C	0.305947	0.330987	0.369326
0	C	0.297721	0.672686	0.720071
0	C	0.635998	0.313951	0.198593
0	C	0.128573	0.154982	0.837108
0	C	0.785289	0.817569	0.325527
0	C	0.788936	0.167267	0.708418
0	C	0.129508	0.834549	0.205681
0	C	0.0558807	0.540917	0.109959
0	C	0.866251	0.464083	0.595849
0	C	0.884907	0.522274	0.450928
0	C	0.054132	0.475108	0.968158
0	C	0.527119	0.00876999	0.164201
0	C	0.387411	0.984881	0.658768
0	C	0.39955	0.981841	0.457928
0	C	0.514409	0.0104129	0.963009
0	C	0.773323	0.477576	0.137504
0	C	0.156617	0.508147	0.644462
0	C	0.160818	0.465899	0.363685
0	C	0.774737	0.524165	0.864144
0	C	0.238486	0.987735	0.142898
0	C	0.678291	0.00359007	0.64508
0	C	0.658286	0.977306	0.364912
0	C	0.256855	0.0174309	0.864223
0	C	0.986246	0.728541	0.916324
0	C	0.963456	0.271791	0.387655
0	C	0.987436	0.711688	0.675637
0	C	0.955915	0.274056	0.151194
0	C	0.449979	0.208042	0.909937
0	C	0.464049	0.787132	0.402976
0	C	0.490185	0.191224	0.719124
0	C	0.423256	0.79812	0.210692
0	C	0.668116	0.663511	0.797122
0	C	0.270175	0.32798	0.310043
0	C	0.272272	0.681296	0.786279
0	C	0.662357	0.302258	0.261819
0	C	0.153525	0.157918	0.768195
0	C	0.762133	0.811279	0.256533
0	C	0.764375	0.17388	0.776294
0	C	0.151301	0.8305	0.276302
0	C	0.0360051	0.817533	0.9369
0	C	0.900179	0.171426	0.438861
0	C	0.920582	0.815689	0.579166
0	C	0.0178423	0.169593	0.0928105
0	C	0.524492	0.335421	0.930738
0	C	0.382324	0.670425	0.429124
0	C	0.390474	0.300964	0.64733
0	C	0.530466	0.661588	0.113266
0	C	0.152702	0.645537	0.033921
0	C	0.782792	0.362209	0.490448
0	C	0.796813	0.62302	0.558394
0	C	0.132083	0.37236	0.0809266
0	C	0.664775	0.0744187	0.0318271
0	C	0.255868	0.912755	0.532389
0	C	0.268483	0.0662075	0.533277
0	C	0.638988	0.922651	0.0384954
0	C	0.7762	0.476333	0.222581
0	C	0.150926	0.512327	0.72886
0	C	0.154792	0.468662	0.279087
0	C	0.779684	0.523873	0.779378
0	C	0.241906	0.98158	0.227173
0	C	0.670909	0.0125025	0.727598
0	C	0.648124	0.980707	0.281574
0	C	0.267484	0.014601	0.780888
0	C	0.582942	0.614619	0.936488
0	C	0.353076	0.369636	0.462841
0	C	0.312922	0.628848	0.61802
0	C	0.623222	0.361222	0.103649
0	C	0.0963478	0.116501	0.94196
0	C	0.80541	0.860015	0.428999
0	C	0.810677	0.124517	0.606222
0	C	0.106048	0.874398	0.09874
0	C	0.0306771	0.485067	0.159361
0	C	0.900273	0.51425	0.660887
0	C	0.915158	0.465328	0.416737
0	C	0.0284642	0.529244	0.910908
0	C	0.463941	0.971308	0.230221
0	C	0.449249	0.0242351	0.722041
0	C	0.467884	0.936183	0.449433
0	C	0.447488	0.0568246	0.951985
0	C	0.0912657	0.598536	0.0798872
0	C	0.821706	0.410146	0.56562
0	C	0.842029	0.57766	0.480606
0	C	0.0907355	0.419456	0.00473793
0	C	0.602778	0.0479171	0.127709
0	C	0.313856	0.943838	0.625365
0	C	0.329305	0.0268658	0.461165
0	C	0.582342	0.96404	0.965678
0	C	0.972179	0.494413	0.145522
0	C	0.956971	0.502423	0.64331
0	C	0.970952	0.476642	0.435419
0	C	0.970528	0.518005	0.917014
0	C	0.42188	0.98265	0.174726
0	C	0.492429	0.0118628	0.66937
0	C	0.514327	0.963346	0.468043
0	C	0.399988	0.0303162	0.970789
0	C	0.822022	0.493701	0.0996375
0	C	0.10638	0.494467	0.605335
0	C	0.112658	0.479711	0.407218
0	C	0.825426	0.51137	0.903709
0	C	0.290524	0.00108641	0.108121
0	C	0.626259	0.991512	0.607689
0	C	0.607931	0.985441	0.414989
0	C	0.306692	0.00892852	0.914978
0	O	0.0428886	0.456579	0.182768
0	O	0.89313	0.539991	0.699345
0	O	0.904467	0.43649	0.393036
0	O	0.0400506	0.557291	0.884295
0	O	0.452575	0.951638	0.281125
0	O	0.45914	0.0457512	0.76992
0	O	0.481591	0.906876	0.440434
0	O	0.434887	0.0862055	0.941474
0	C	0.537205	0.684489	0.857498
0	C	0.396686	0.300718	0.378274
0	C	0.3958	0.688242	0.7021
0	C	0.536009	0.302497	0.184055
0	C	0.0442972	0.18897	0.864667
0	C	0.876529	0.794209	0.363887
0	C	0.881809	0.18947	0.68139
0	C	0.0442023	0.804247	0.166555
0	C	0.106769	0.625641	0.913593
0	C	0.842208	0.371498	0.375523
0	C	0.84671	0.614215	0.681934
0	C	0.0839121	0.381378	0.205681
0	C	0.631033	0.0639924	0.900293
0	C	0.283021	0.922216	0.397605
0	C	0.327094	0.0744895	0.648606
0	C	0.58214	0.916506	0.156211
0	C	0.945844	0.873459	0.850357
0	C	0.986374	0.113037	0.357759
0	C	0.996923	0.876859	0.657245
0	C	0.935272	0.109234	0.168402
0	C	0.430692	0.391926	0.87665
0	C	0.491184	0.613503	0.363087
0	C	0.488558	0.366908	0.689918
0	C	0.434598	0.605988	0.176474
0	C	0.621642	0.623004	0.879059
0	C	0.315945	0.364208	0.401838
0	C	0.289612	0.63914	0.688275
0	C	0.647006	0.347913	0.171065
0	C	0.12133	0.121561	0.870099
0	C	0.783671	0.851675	0.356568
0	C	0.788776	0.132955	0.678509
0	C	0.125512	0.868297	0.173408
0	C	0.0342873	0.854746	0.908931
0	C	0.897792	0.1339	0.41289
0	C	0.908798	0.851494	0.610987
0	C	0.0245842	0.132742	0.121503
0	C	0.524683	0.374375	0.919298
0	C	0.4042	0.633555	0.423307
0	C	0.402006	0.33969	0.644964
0	C	0.525976	0.622666	0.1234
0	C	0.712952	0.528429	0.133699
0	C	0.208756	0.45364	0.651244
0	C	0.224169	0.51574	0.374934
0	C	0.717484	0.471488	0.870299
0	C	0.191075	0.0435581	0.152672
0	C	0.725489	0.948947	0.675884
0	C	0.715027	0.0303807	0.360724
0	C	0.204077	0.962856	0.86091
0	C	0.0846061	0.664708	0.812289
0	C	0.866091	0.325467	0.290412
0	C	0.871796	0.661448	0.76322
0	C	0.0574403	0.334206	0.286129
0	C	0.598624	0.109366	0.818694
0	C	0.312775	0.876356	0.315552
0	C	0.338422	0.129156	0.710354
0	C	0.568004	0.862287	0.218895
0	C	0.709663	0.652117	0.1205
0	C	0.217128	0.334512	0.633943
0	C	0.222934	0.635985	0.443424
0	C	0.727728	0.346745	0.905111
0	C	0.199616	0.166941	0.137068
0	C	0.720656	0.83333	0.650007
0	C	0.707914	0.148328	0.394555
0	C	0.219683	0.836973	0.910561
0	C	0.144228	0.715125	0.972451
0	C	0.793106	0.288234	0.457342
0	C	0.805099	0.696837	0.589363
0	C	0.120043	0.298604	0.109436
0	C	0.650478	0.148397	0.998223
0	C	0.276893	0.839066	0.504101
0	C	0.25108	0.141302	0.538279
0	C	0.647064	0.846931	0.0406683
0	C	0.144139	0.747572	0.942889
0	C	0.792718	0.254123	0.438809
0	C	0.80668	0.731304	0.604167
0	C	0.11684	0.264071	0.122978
0	C	0.64421	0.182564	0.982953
0	C	0.284941	0.804862	0.490919
0	C	0.240436	0.17572	0.542631
0	C	0.654117	0.812128	0.0440425
0	C	0.651756	0.595917	0.845606
0	C	0.288615	0.393128	0.371377
0	C	0.257194	0.615067	0.728198
0	C	0.682957	0.369304	0.212566
0	C	0.13934	0.0922932	0.829739
0	C	0.759647	0.878328	0.313523
0	C	0.766385	0.106204	0.722861
0	C	0.141687	0.89687	0.217449
0	C	0.0843072	0.632229	0.841146
0	C	0.868617	0.359386	0.309337
0	C	0.870947	0.627004	0.749091
0	C	0.0597271	0.368707	0.27298
0	C	0.608508	0.0753015	0.830971
0	C	0.301839	0.910392	0.326612
0	C	0.349506	0.094835	0.707362
0	C	0.559465	0.896901	0.215961
0	C	0.107248	0.726493	0.825515
0	C	0.837338	0.266018	0.320391
0	C	0.85018	0.720991	0.724107
0	C	0.0755838	0.274475	0.244526
0	C	0.604951	0.169869	0.861252
0	C	0.313377	0.816437	0.363034
0	C	0.293534	0.180664	0.656727
0	C	0.606952	0.809299	0.163341
0	C	0.125773	0.753354	0.868104
0	C	0.814458	0.242835	0.36894
0	C	0.829358	0.743617	0.672645
0	C	0.0945039	0.251806	0.191733
0	C	0.620732	0.193532	0.913795
0	C	0.303551	0.793338	0.4194
0	C	0.261851	0.195775	0.602603
0	C	0.63434	0.792993	0.106503
0	C	0.797207	0.608796	0.931367
0	C	0.138499	0.379787	0.438159
0	C	0.121393	0.591893	0.617392
0	C	0.812037	0.395039	0.0895361
0	C	0.316276	0.122556	0.975069
0	C	0.631642	0.897146	0.491811
0	C	0.655078	0.0834454	0.576339
0	C	0.266	0.900607	0.0961091
0	C	0.938256	0.897786	0.915636
0	C	0.99318	0.0900503	0.425485
0	C	0.00312579	0.893391	0.58089
0	C	0.930189	0.0898384	0.0952125
0	C	0.422026	0.410652	0.950124
0	C	0.496127	0.589268	0.428797
0	C	0.484852	0.389875	0.621879
0	C	0.420852	0.589703	0.101673
0	C	0.0901081	0.86476	0.879182
0	C	0.84135	0.126044	0.38225
0	C	0.853321	0.851814	0.648766
0	C	0.0798996	0.128574	0.158578
0	C	0.579429	0.386093	0.888541
0	C	0.359269	0.608742	0.401996
0	C	0.351044	0.359959	0.663719
0	C	0.580671	0.607593	0.145879
0	C	0.663249	0.527711	0.184592
0	C	0.249226	0.453232	0.715714
0	C	0.269115	0.516997	0.316193
0	C	0.672289	0.469897	0.81213
0	C	0.137732	0.0471515	0.195166
0	C	0.771418	0.95194	0.732483
0	C	0.758424	0.0266699	0.300485
0	C	0.157767	0.963454	0.804369
0	C	0.692148	0.603432	0.789815
0	C	0.250243	0.388721	0.31147
0	C	0.230418	0.625199	0.796108
0	C	0.711141	0.355831	0.276453
0	C	0.165304	0.0964611	0.758261
0	C	0.735942	0.87078	0.241909
0	C	0.741232	0.114029	0.793396
0	C	0.164396	0.891631	0.290655
0	C	0.214806	0.650543	0.0310647
0	C	0.721158	0.357366	0.479808
0	C	0.734482	0.625369	0.565044
0	C	0.19431	0.368384	0.0856745
0	C	0.723392	0.0612319	0.0242239
0	C	0.195591	0.923033	0.528333
0	C	0.20908	0.0582321	0.55378
0	C	0.699142	0.928723	0.0578657
0	C	0.70019	0.636461	0.766597
0	C	0.241142	0.356857	0.28201
0	C	0.237576	0.657593	0.82379
0	C	0.701249	0.323018	0.29986
0	C	0.172375	0.128515	0.728677
0	C	0.73703	0.838026	0.214576
0	C	0.739797	0.147117	0.818746
0	C	0.169585	0.859166	0.318778
0	C	0.602159	0.554107	0.920721
0	C	0.336892	0.430914	0.457515
0	C	0.275736	0.571621	0.633564
0	C	0.665377	0.4165	0.126602
0	C	0.106806	0.0549706	0.929789
0	C	0.780593	0.919682	0.411846
0	C	0.7918	0.0643052	0.62762
0	C	0.116232	0.935698	0.116192
0	C	0.641107	0.561346	0.867707
0	C	0.299863	0.426512	0.400575
0	C	0.251562	0.580942	0.699974
0	C	0.69039	0.404136	0.189949
0	C	0.131361	0.058932	0.861083
0	C	0.759341	0.912531	0.342293
0	C	0.769625	0.071687	0.696486
0	C	0.135511	0.930642	0.187647
0	C	0.572891	0.581208	0.955851
0	C	0.363639	0.401976	0.489269
0	C	0.306021	0.596157	0.591557
0	C	0.632586	0.394369	0.081801
0	C	0.08911	0.0842336	0.970732
0	C	0.803704	0.892924	0.45583
0	C	0.811685	0.0912813	0.581306
0	C	0.101814	0.907047	0.0709227
0	H	0.857506	0.57162	0.327015
0	H	0.0728396	0.416215	0.826473
0	H	0.115032	0.580573	0.237539
0	H	0.85315	0.415586	0.715609
0	H	0.304664	0.0788678	0.325269
0	H	0.606637	0.914769	0.824474
0	H	0.531513	0.0774695	0.233918
0	H	0.387177	0.919712	0.729566
0	H	0.654845	0.835193	0.845406
0	H	0.276129	0.153566	0.332542
0	H	0.287286	0.85287	0.737801
0	H	0.642641	0.138206	0.215092
0	H	0.15091	0.335852	0.833319
0	H	0.780627	0.631163	0.333511
0	H	0.779702	0.353672	0.682344
0	H	0.152865	0.655086	0.237564
0	H	0.0371639	0.708284	0.00757658
0	H	0.907693	0.288336	0.476743
0	H	0.928315	0.697266	0.588436
0	H	0.0154667	0.292997	0.0688545
0	H	0.499122	0.206737	0.0127764
0	H	0.412977	0.787739	0.504558
0	H	0.415187	0.1821	0.654206
0	H	0.496966	0.807816	0.143662
0	H	0.914709	0.813632	0.136587
0	H	0.0190153	0.173582	0.640836
0	H	0.0591458	0.809762	0.401154
0	H	0.899862	0.174338	0.902368
0	H	0.402715	0.329995	0.154622
0	H	0.5695	0.655745	0.643681
0	H	0.538222	0.317033	0.399794
0	H	0.410178	0.676436	0.92311
0	H	0.913315	0.829043	0.794636
0	H	0.0182375	0.156999	0.299651
0	H	0.0291507	0.838512	0.732376
0	H	0.901489	0.149764	0.23625
0	H	0.411894	0.345731	0.814529
0	H	0.529493	0.655197	0.303432
0	H	0.534624	0.326663	0.743564
0	H	0.415843	0.648101	0.251642
0	H	0.0118677	0.70844	0.217483
0	H	0.912592	0.270561	0.682596
0	H	0.93004	0.714931	0.382712
0	H	0.0152169	0.281343	0.857235
0	H	0.455881	0.228206	0.211722
0	H	0.453663	0.769065	0.706003
0	H	0.383645	0.210651	0.455097
0	H	0.522995	0.781113	0.940574
0	H	0.0352916	0.739876	0.152432
0	H	0.905782	0.241949	0.605186
0	H	0.929156	0.747465	0.452862
0	H	0.0187974	0.247584	0.924295
0	H	0.464599	0.254514	0.1313
0	H	0.448754	0.739521	0.630605
0	H	0.39334	0.234688	0.539139
0	H	0.513901	0.75576	0.0226351
0	H	0.0442558	0.695516	0.134368
0	H	0.883971	0.284949	0.597071
0	H	0.902934	0.706287	0.472928
0	H	0.042952	0.28908	0.947373
0	H	0.502013	0.216026	0.140252
0	H	0.409765	0.777597	0.629763
0	H	0.368879	0.192207	0.543235
0	H	0.540781	0.797637	0.0296645
0	H	0.731618	0.675263	0.902172
0	H	0.196961	0.31254	0.40273
0	H	0.16205	0.659401	0.672662
0	H	0.773267	0.327453	0.143427
0	H	0.229465	0.181147	0.931668
0	H	0.641344	0.830587	0.416789
0	H	0.648833	0.153224	0.637204
0	H	0.271788	0.830836	0.158071
0	H	0.803712	0.672541	0.897649
0	H	0.124978	0.316118	0.40462
0	H	0.0948179	0.657013	0.634341
0	H	0.842318	0.330539	0.112469
0	H	0.301446	0.181977	0.921312
0	H	0.580899	0.837595	0.469392
0	H	0.587817	0.13667	0.597191
0	H	0.333972	0.846928	0.119729
0	H	0.931296	0.73256	0.145622
0	H	0.00510423	0.262143	0.622785
0	H	0.0252591	0.723894	0.441053
0	H	0.921426	0.269378	0.914604
0	H	0.375014	0.219565	0.126791
0	H	0.537131	0.773903	0.620084
0	H	0.484148	0.212891	0.482764
0	H	0.42328	0.780094	0.972976
0	H	0.764479	0.762222	0.798086
0	H	0.164932	0.22641	0.299601
0	H	0.18472	0.763099	0.719432
0	H	0.748595	0.226563	0.200126
0	H	0.272279	0.267295	0.811282
0	H	0.688548	0.722977	0.288102
0	H	0.695033	0.264154	0.761591
0	H	0.269497	0.737405	0.219751
0	H	0.99241	0.571572	0.0562447
0	H	0.924809	0.427503	0.551784
0	H	0.945286	0.562404	0.455821
0	H	0.990587	0.437361	0.989213
0	H	0.492393	0.0500874	0.0969418
0	H	0.423251	0.943594	0.593006
0	H	0.428037	0.0349648	0.468371
0	H	0.484047	0.95772	0.974003
0	H	0.596839	0.68429	0.949965
0	H	0.332059	0.2995	0.463922
0	H	0.331047	0.695677	0.618163
0	H	0.59738	0.295455	0.0956009
0	H	0.113734	0.183245	0.940842
0	H	0.801734	0.791529	0.430777
0	H	0.81245	0.192358	0.603852
0	H	0.11959	0.806376	0.100558
0	H	0.79622	0.656803	0.15057
0	H	0.128973	0.328813	0.652184
0	H	0.138477	0.644263	0.405628
0	H	0.814631	0.339298	0.87916
0	H	0.282187	0.173955	0.182673
0	H	0.635149	0.831338	0.687331
0	H	0.620662	0.139027	0.371896
0	H	0.308003	0.844821	0.894616
0	H	0.709395	0.533448	0.00810816
0	H	0.225271	0.446758	0.528261
0	H	0.229029	0.515152	0.500677
0	H	0.707432	0.470391	0.995567
0	H	0.211637	0.053406	0.0325405
0	H	0.708291	0.923801	0.565575
0	H	0.721063	0.0416461	0.484223
0	H	0.20506	0.953076	0.984922
0	H	0.722256	0.627948	0.983604
0	H	0.211213	0.35752	0.491205
0	H	0.198259	0.616855	0.58518
0	H	0.740349	0.367552	0.0468705
0	H	0.231428	0.133127	0.00793281
0	H	0.698668	0.860892	0.510762
0	H	0.706596	0.12598	0.539144
0	H	0.216692	0.857632	0.0556846
0	H	0.113255	0.505772	0.158964
0	H	0.814091	0.503024	0.641278
0	H	0.829727	0.480852	0.426973
0	H	0.112028	0.513978	0.937192
0	H	0.551578	0.973021	0.250487
0	H	0.36193	0.0210326	0.74362
0	H	0.380356	0.928591	0.440113
0	H	0.535221	0.0633782	0.944381
0	H	0.0059359	0.654257	0.966158
0	H	0.947102	0.343456	0.435251
0	H	0.964781	0.640769	0.622766
0	H	0.973623	0.346879	0.112861
0	H	0.494072	0.145218	0.984011
0	H	0.417271	0.848981	0.48094
0	H	0.448921	0.12362	0.663132
0	H	0.463511	0.866464	0.157839
0	H	0.941668	0.669449	0.936299
0	H	0.0144736	0.327453	0.436939
0	H	0.0336916	0.655233	0.619976
0	H	0.906124	0.330672	0.102479
0	H	0.42352	0.146498	0.964743
0	H	0.486766	0.848517	0.457212
0	H	0.517391	0.13568	0.643544
0	H	0.394635	0.854628	0.138297
0	H	0.766772	0.450949	0.113932
0	H	0.168343	0.533495	0.617906
0	H	0.168208	0.438538	0.380979
0	H	0.765014	0.550858	0.885457
0	H	0.225858	0.963437	0.113449
0	H	0.6947	0.0263122	0.613148
0	H	0.672523	0.950731	0.379644
0	H	0.242063	0.0437869	0.879557
0	H	0.000728301	0.714255	0.867229
0	H	0.954339	0.288626	0.340119
0	H	0.989064	0.693018	0.721356
0	H	0.960025	0.29024	0.201163
0	H	0.488133	0.209295	0.878087
0	H	0.446314	0.805022	0.362023
0	H	0.491886	0.171718	0.763166
0	H	0.440137	0.808971	0.262506
0	H	0.00876646	0.752837	0.917772
0	H	0.939106	0.248456	0.380497
0	H	0.957612	0.731334	0.691888
0	H	0.98267	0.251835	0.159693
0	H	0.43143	0.234028	0.908508
0	H	0.447475	0.761657	0.390658
0	H	0.470809	0.214147	0.74283
0	H	0.426846	0.769841	0.21391
0	H	0.942896	0.735157	0.906397
0	H	0.00649504	0.263363	0.383343
0	H	0.0271666	0.725094	0.672839
0	H	0.913981	0.263791	0.149312
0	H	0.421502	0.191377	0.879904
0	H	0.508261	0.785658	0.39211
0	H	0.532401	0.198965	0.70516
0	H	0.37905	0.802835	0.209532
0	H	0.673994	0.689084	0.773325
0	H	0.263626	0.303481	0.281396
0	H	0.27846	0.70634	0.812811
0	H	0.653916	0.27696	0.285567
0	H	0.158928	0.182849	0.741109
0	H	0.762792	0.785656	0.231479
0	H	0.764155	0.199683	0.800371
0	H	0.154856	0.805182	0.302523
0	H	0.0159967	0.797861	0.901733
0	H	0.921842	0.189413	0.401724
0	H	0.946734	0.799015	0.613655
0	H	0.991478	0.186433	0.126594
0	H	0.505297	0.320334	0.88562
0	H	0.384184	0.685799	0.377362
0	H	0.395796	0.288259	0.70205
0	H	0.516451	0.677202	0.160995
0	H	0.133521	0.663796	0.0754835
0	H	0.7969	0.347701	0.541825
0	H	0.811371	0.638988	0.509323
0	H	0.11586	0.357234	0.031594
0	H	0.66361	0.0957582	0.0746001
0	H	0.261101	0.892148	0.576389
0	H	0.270295	0.0801793	0.477778
0	H	0.63561	0.908634	0.983144
0	H	0.813981	0.463969	0.242181
0	H	0.11672	0.529306	0.743494
0	H	0.11691	0.455922	0.25978
0	H	0.816227	0.538205	0.760349
0	H	0.272238	0.96171	0.240758
0	H	0.638746	0.0318943	0.735551
0	H	0.61627	0.962457	0.262978
0	H	0.300164	0.0325077	0.76347
0	H	0.741581	0.461889	0.246009
0	H	0.188257	0.523434	0.753118
0	H	0.189402	0.456994	0.249867
0	H	0.743895	0.535544	0.752629
0	H	0.202066	0.972871	0.248808
0	H	0.709077	0.0230312	0.75108
0	H	0.685184	0.974852	0.249222
0	H	0.230925	0.0214344	0.74844
0	H	0.775504	0.501926	0.248431
0	H	0.143423	0.487907	0.757855
0	H	0.151489	0.495363	0.2599
0	H	0.78416	0.497855	0.756524
0	H	0.252944	0.00467852	0.259012
0	H	0.659652	0.99018	0.761916
0	H	0.634681	0.00638217	0.263987
0	H	0.279861	0.988842	0.762416
0	H	0.561654	0.63542	0.965461
0	H	0.372904	0.347536	0.488441
0	H	0.335746	0.647661	0.584924
0	H	0.597741	0.3444	0.0690271
0	H	0.083398	0.138986	0.974266
0	H	0.82384	0.839755	0.463077
0	H	0.826691	0.145108	0.570658
0	H	0.0949426	0.852486	0.0634457
0	H	0.829443	0.484307	0.0423324
0	H	0.101656	0.50372	0.547222
0	H	0.102263	0.463641	0.456203
0	H	0.837173	0.527619	0.95334
0	H	0.298974	0.99006	0.0519697
0	H	0.61946	0.00274177	0.551421
0	H	0.624125	0.985083	0.475929
0	H	0.289654	0.00802533	0.975341
0	H	0.518962	0.659309	0.867506
0	H	0.416309	0.324861	0.393706
0	H	0.404377	0.661127	0.69177
0	H	0.529138	0.329945	0.175405
0	H	0.0230045	0.165208	0.878988
0	H	0.88904	0.820537	0.376355
0	H	0.89366	0.162575	0.675452
0	H	0.0268565	0.826682	0.138286
0	H	0.535443	0.689081	0.796335
0	H	0.401395	0.297991	0.316675
0	H	0.403468	0.69305	0.762458
0	H	0.529895	0.297255	0.244443
0	H	0.0352473	0.19468	0.805142
0	H	0.891513	0.78812	0.306951
0	H	0.892567	0.197309	0.739251
0	H	0.029706	0.804386	0.224886
0	H	0.511095	0.703739	0.884596
0	H	0.419474	0.27967	0.40442
0	H	0.425403	0.70362	0.669965
0	H	0.504121	0.288479	0.152951
0	H	0.0260092	0.209606	0.898954
0	H	0.898326	0.777604	0.404219
0	H	0.906961	0.204563	0.642095
0	H	0.0268258	0.781351	0.138721
0	H	0.106085	0.598945	0.932051
0	H	0.846151	0.399062	0.386991
0	H	0.84795	0.586419	0.673774
0	H	0.0841002	0.409248	0.198279
0	H	0.637585	0.0365448	0.907669
0	H	0.275108	0.94955	0.403928
0	H	0.337019	0.0473178	0.648107
0	H	0.574819	0.944003	0.156436
0	H	0.944609	0.887446	0.795094
0	H	0.988178	0.0979386	0.303966
0	H	0.995728	0.896737	0.702859
0	H	0.934437	0.0912491	0.217769
0	H	0.422206	0.409401	0.827687
0	H	0.487292	0.599258	0.308547
0	H	0.49079	0.382193	0.743539
0	H	0.430429	0.586733	0.223166
0	H	0.020873	0.872015	0.955034
0	H	0.908736	0.116471	0.459845
0	H	0.911361	0.871381	0.56649
0	H	0.0189054	0.113977	0.0751627
0	H	0.513947	0.387912	0.972142
0	H	0.424664	0.626181	0.476676
0	H	0.419146	0.3468	0.58924
0	H	0.509864	0.610394	0.0715881
0	H	0.749109	0.539543	0.163041
0	H	0.168101	0.443536	0.66852
0	H	0.187074	0.529891	0.355866
0	H	0.755661	0.459531	0.848569
0	H	0.226817	0.0487764	0.190061
0	H	0.685592	0.943335	0.703647
0	H	0.677151	0.0426006	0.33872
0	H	0.242426	0.952693	0.835666
0	H	0.0683556	0.670137	0.756544
0	H	0.884825	0.315876	0.239062
0	H	0.890285	0.671657	0.814187
0	H	0.0391022	0.324221	0.337662
0	H	0.580711	0.118189	0.766064
0	H	0.327636	0.867049	0.26156
0	H	0.354529	0.14497	0.755648
0	H	0.55209	0.847046	0.265295
0	H	0.696657	0.6664	0.170313
0	H	0.229092	0.317092	0.679296
0	H	0.243026	0.655013	0.407652
0	H	0.713414	0.329262	0.861092
0	H	0.180505	0.184025	0.17805
0	H	0.735039	0.811174	0.68231
0	H	0.711958	0.167955	0.351008
0	H	0.216466	0.817321	0.86691
0	H	0.704711	0.624376	0.131054
0	H	0.219369	0.361123	0.655146
0	H	0.225902	0.610699	0.416438
0	H	0.724789	0.373261	0.884533
0	H	0.194929	0.140125	0.156098
0	H	0.729576	0.856864	0.681783
0	H	0.722841	0.123478	0.373894
0	H	0.20688	0.862071	0.88882
0	H	0.68116	0.658421	0.0748899
0	H	0.247756	0.332724	0.58913
0	H	0.246391	0.634314	0.49592
0	H	0.699098	0.344836	0.952375
0	H	0.176788	0.169093	0.0841916
0	H	0.7449	0.834853	0.598205
0	H	0.734761	0.155779	0.441251
0	H	0.190796	0.830074	0.955242
0	H	0.158287	0.711334	0.0299812
0	H	0.776697	0.296182	0.511613
0	H	0.788032	0.688118	0.535994
0	H	0.136481	0.307597	0.056095
0	H	0.667396	0.139995	0.051785
0	H	0.263653	0.847949	0.559272
0	H	0.235716	0.126447	0.490997
0	H	0.661646	0.861214	0.99203
0	H	0.158108	0.769187	0.976665
0	H	0.775807	0.235314	0.477826
0	H	0.79054	0.749535	0.563257
0	H	0.130999	0.245692	0.0809424
0	H	0.657371	0.202063	0.0230204
0	H	0.276931	0.785747	0.534479
0	H	0.216024	0.188556	0.500061
0	H	0.674403	0.798269	0.998878
0	H	0.0669137	0.610599	0.810386
0	H	0.890721	0.377921	0.274982
0	H	0.88885	0.608649	0.788313
0	H	0.0430052	0.387228	0.313304
0	H	0.599213	0.0561954	0.787825
0	H	0.307174	0.929068	0.281347
0	H	0.375398	0.0825989	0.749874
0	H	0.53562	0.909974	0.259489
0	H	0.0929759	0.730754	0.767733
0	H	0.854578	0.257545	0.266615
0	H	0.868746	0.730191	0.776572
0	H	0.0572061	0.265083	0.29705
0	H	0.58737	0.177944	0.807733
0	H	0.327584	0.807868	0.307965
0	H	0.310432	0.195652	0.702774
0	H	0.591604	0.79506	0.211673
0	H	0.126071	0.77921	0.845693
0	H	0.813171	0.215766	0.355186
0	H	0.830363	0.771036	0.682822
0	H	0.091789	0.224363	0.201186
0	H	0.615941	0.22089	0.903662
0	H	0.309394	0.765956	0.410633
0	H	0.253115	0.223181	0.603642
0	H	0.641201	0.765409	0.107532
0	H	0.801731	0.615289	0.871703
0	H	0.14559	0.378096	0.377409
0	H	0.118532	0.593787	0.678652
0	H	0.820416	0.39078	0.149327
0	H	0.306319	0.113331	0.918484
0	H	0.632343	0.899536	0.430352
0	H	0.653228	0.0843978	0.637886
0	H	0.275314	0.89982	0.156256
0	H	0.776843	0.583673	0.934309
0	H	0.152126	0.40512	0.457214
0	H	0.141011	0.567305	0.603255
0	H	0.785414	0.417752	0.0851406
0	H	0.322499	0.100031	0.0111104
0	H	0.655984	0.918092	0.516236
0	H	0.688403	0.0658957	0.561073
0	H	0.228523	0.915699	0.0892384
0	H	0.838723	0.60519	0.954475
0	H	0.0939052	0.379341	0.447219
0	H	0.0796268	0.590376	0.594636
0	H	0.850895	0.401815	0.0622693
0	H	0.3565	0.135268	0.971743
0	H	0.58906	0.900944	0.510299
0	H	0.616429	0.071663	0.556372
0	H	0.299527	0.914903	0.0680649
0	H	0.971194	0.916863	0.918342
0	H	0.960429	0.0708627	0.428841
0	H	0.968944	0.91081	0.568586
0	H	0.964082	0.0717017	0.0874796
0	H	0.449375	0.432899	0.954593
0	H	0.460836	0.571967	0.432832
0	H	0.448057	0.406013	0.62345
0	H	0.448254	0.568137	0.0891576
0	H	0.936184	0.884925	0.970372
0	H	0.993908	0.10392	0.479105
0	H	0.00550241	0.874999	0.534292
0	H	0.928937	0.106362	0.0452952
0	H	0.428783	0.394768	0.00013962
0	H	0.500721	0.602047	0.48333
0	H	0.485077	0.376064	0.568177
0	H	0.422905	0.607468	0.0539228
0	H	0.899972	0.912356	0.908869
0	H	0.0317821	0.0756268	0.421469
0	H	0.0403633	0.909135	0.578796
0	H	0.892619	0.0743311	0.0947387
0	H	0.380121	0.420726	0.953723
0	H	0.532277	0.572554	0.42173
0	H	0.520081	0.407659	0.620153
0	H	0.379256	0.57898	0.102536
0	H	0.119955	0.867291	0.925519
0	H	0.81099	0.124675	0.428129
0	H	0.820097	0.850286	0.606817
0	H	0.112604	0.125052	0.116187
0	H	0.60804	0.393419	0.934113
0	H	0.338353	0.597842	0.452043
0	H	0.326306	0.366088	0.613483
0	H	0.606994	0.602416	0.0965983
0	H	0.0893317	0.889998	0.851663
0	H	0.840029	0.100723	0.354953
0	H	0.846096	0.876245	0.678641
0	H	0.0812474	0.105538	0.194382
0	H	0.574618	0.408849	0.852628
0	H	0.375076	0.586833	0.370052
0	H	0.36108	0.384722	0.689659
0	H	0.57539	0.583089	0.175524
0	H	0.106237	0.846163	0.839012
0	H	0.827292	0.145048	0.341579
0	H	0.847877	0.830976	0.689032
0	H	0.0913546	0.150459	0.193555
0	H	0.600435	0.366822	0.85442
0	H	0.326781	0.619966	0.367467
0	H	0.323628	0.346736	0.702749
0	H	0.604468	0.624118	0.183342
0	H	0.656495	0.553111	0.210304
0	H	0.258924	0.426636	0.732706
0	H	0.282947	0.543535	0.307236
0	H	0.665029	0.443077	0.794793
0	H	0.135433	0.0724456	0.223169
0	H	0.779014	0.926838	0.759669
0	H	0.774106	0.0521033	0.283486
0	H	0.147942	0.937149	0.785522
0	H	0.668993	0.509487	0.230874
0	H	0.233005	0.466079	0.765666
0	H	0.254979	0.507001	0.262075
0	H	0.683053	0.484153	0.761167
0	H	0.134444	0.0276599	0.239284
0	H	0.762121	0.970501	0.776602
0	H	0.742649	0.0142893	0.249776
0	H	0.168257	0.97829	0.754241
0	H	0.626084	0.52011	0.154902
0	H	0.287553	0.46599	0.700934
0	H	0.304707	0.5018	0.332943
0	H	0.633698	0.48036	0.833005
0	H	0.102206	0.0441821	0.158473
0	H	0.809698	0.959821	0.70567
0	H	0.793228	0.0114741	0.320282
0	H	0.120481	0.974559	0.82819
0	H	0.716057	0.582416	0.76651
0	H	0.228808	0.411144	0.290108
0	H	0.204095	0.606886	0.824676
0	H	0.740852	0.371908	0.305382
0	H	0.179255	0.0738333	0.72836
0	H	0.71671	0.891338	0.210293
0	H	0.723057	0.0933582	0.825939
0	H	0.177905	0.913737	0.322869
0	H	0.225105	0.677191	0.0165071
0	H	0.710853	0.330184	0.47278
0	H	0.72159	0.651885	0.575692
0	H	0.205711	0.341683	0.0971437
0	H	0.749856	0.0809585	0.999688
0	H	0.170913	0.901919	0.505929
0	H	0.186209	0.0819583	0.564377
0	H	0.720206	0.904199	0.0669475
0	H	0.23393	0.63459	0.987568
0	H	0.705749	0.370679	0.429841
0	H	0.718514	0.609831	0.611394
0	H	0.212052	0.383914	0.130862
0	H	0.726133	0.0387777	0.987374
0	H	0.188903	0.945048	0.491221
0	H	0.205794	0.0427493	0.604952
0	H	0.704224	0.943679	0.109488
0	H	0.234369	0.644706	0.0848032
0	H	0.698282	0.36693	0.528453
0	H	0.71437	0.616892	0.513262
0	H	0.214101	0.376013	0.0330287
0	H	0.740561	0.0538441	0.0788194
0	H	0.179384	0.929864	0.583834
0	H	0.188138	0.0444114	0.508546
0	H	0.720688	0.942156	0.0126132
0	H	0.731089	0.642767	0.724508
0	H	0.211654	0.35286	0.236875
0	H	0.216829	0.665996	0.874793
0	H	0.722904	0.312063	0.347811
0	H	0.192466	0.132239	0.674549
0	H	0.718641	0.831781	0.160434
0	H	0.720333	0.153642	0.871989
0	H	0.187765	0.85459	0.373824
0	H	0.593528	0.527838	0.937072
0	H	0.345962	0.45625	0.479571
0	H	0.271833	0.545675	0.611598
0	H	0.670344	0.443186	0.109529
0	H	0.101005	0.0296388	0.953949
0	H	0.780145	0.945676	0.434052
0	H	0.79458	0.0379646	0.607772
0	H	0.112177	0.961468	0.09341
0	H	0.664858	0.540688	0.842044
0	H	0.277863	0.448446	0.376727
0	H	0.227635	0.562509	0.732311
0	H	0.716127	0.420718	0.224498
0	H	0.145497	0.036613	0.829764
0	H	0.742146	0.932769	0.30756
0	H	0.753967	0.0512003	0.732532
0	H	0.147089	0.952453	0.222855
0	H	0.542913	0.574863	0.998768
0	H	0.392083	0.406096	0.535392
0	H	0.322578	0.588408	0.53679
0	H	0.616158	0.404148	0.0287771
0	H	0.0706074	0.0805264	0.0257398
0	H	0.819505	0.89901	0.511638
0	H	0.826996	0.0849772	0.525448
0	H	0.0884659	0.911562	0.0133413
0	H	0.606512	0.729295	0.810627
0	H	0.324033	0.261493	0.313939
0	H	0.343867	0.74066	0.757991
0	H	0.582246	0.246568	0.226543
0	H	0.121264	0.226556	0.797135
0	H	0.815807	0.747804	0.288697
0	H	0.823098	0.238703	0.741609
0	H	0.110169	0.762886	0.243957
0	H	0.172437	0.592299	0.0519128
0	H	0.782336	0.416602	0.463544
0	H	0.797631	0.568103	0.577643
0	H	0.13016	0.426905	0.106407
0	H	0.619152	0.0267226	0.0233392
0	H	0.298173	0.961529	0.517336
0	H	0.298615	0.0156436	0.567229
0	H	0.611882	0.973833	0.0730512
