#******************************************
#
# CIF file created by Zeo++
# Zeo++ is an open source package to
# analyze microporous materials
#
#*******************************************

_cell_length_a		19.4266(0)
_cell_length_b		19.1369(0)
_cell_length_c		41.3467(0)
_cell_angle_alpha		90(0)
_cell_angle_beta		90.5435(0)
_cell_angle_gamma		90(0)

_symmetry_space_group_name_H-M		'P1'
_symmetry_Int_Tables_number		1
_symmetry_cell_setting		Monoclinic

loop_
_symmetry_equiv_pos_as_xyz
'+x,+y,+z'

loop_
_atom_site_label
_atom_site_type_symbol
_atom_site_fract_x
_atom_site_fract_y
_atom_site_fract_z
0	Si	0.874374	0.205077	0.0613916
0	Si	0.636852	0.701187	0.438317
0	Si	0.13928	0.781642	0.938599
0	Si	0.375868	0.283474	0.56168
0	Si	0.979494	0.236073	0.0863141
0	Si	0.531863	0.732226	0.413327
0	Si	0.0341107	0.751371	0.913656
0	Si	0.480715	0.251707	0.586711
0	Si	0.0615566	0.162365	0.0740851
0	Si	0.449434	0.659344	0.425918
0	Si	0.951899	0.824762	0.926029
0	Si	0.563162	0.324815	0.574272
0	Si	0.171394	0.196217	0.0800619
0	Si	0.339713	0.693689	0.419847
0	Si	0.842133	0.790597	0.919945
0	Si	0.672973	0.290745	0.580251
0	Si	0.176931	0.207354	0.0265646
0	Si	0.334366	0.705332	0.473359
0	Si	0.836485	0.779239	0.973425
0	Si	0.678284	0.279274	0.526722
0	Si	0.0635159	0.20587	0.0239004
0	Si	0.447688	0.703723	0.475942
0	Si	0.949908	0.780901	0.976134
0	Si	0.564959	0.28088	0.524171
0	Si	0.0019571	0.300104	0.0430457
0	Si	0.509745	0.797315	0.45639
0	Si	0.0114702	0.686831	0.956798
0	Si	0.502855	0.187141	0.543518
0	Si	0.893613	0.297801	0.029906
0	Si	0.618021	0.794087	0.469738
0	Si	0.119791	0.688813	0.969984
0	Si	0.394599	0.190711	0.530158
0	Si	0.818153	0.355417	0.0643411
0	Si	0.693745	0.851659	0.43527
0	Si	0.195134	0.631134	0.935509
0	Si	0.318812	0.133128	0.564576
0	Si	0.720063	0.378412	0.0403252
0	Si	0.791648	0.875273	0.459508
0	Si	0.29312	0.607749	0.95956
0	Si	0.220877	0.109776	0.540354
0	Si	0.631224	0.406859	0.0716049
0	Si	0.880831	0.903799	0.428473
0	Si	0.381971	0.579125	0.928328
0	Si	0.131724	0.0813913	0.571432
0	Si	0.5885	0.301103	0.0617125
0	Si	0.923303	0.797776	0.438123
0	Si	0.424888	0.684818	0.938212
0	Si	0.0893402	0.187423	0.561709
0	Si	0.690534	0.265892	0.0449659
0	Si	0.821143	0.762742	0.455075
0	Si	0.32293	0.720221	0.955
0	Si	0.191564	0.222348	0.544824
0	Si	0.781243	0.251732	0.0805331
0	Si	0.730421	0.747731	0.419354
0	Si	0.232305	0.734803	0.91943
0	Si	0.282247	0.23703	0.58059
0	C	0.871397	0.105772	0.0490952
0	C	0.638667	0.601623	0.450235
0	C	0.142288	0.880915	0.950956
0	C	0.374187	0.38306	0.549827
0	C	0.851334	0.0952251	0.0136669
0	C	0.663374	0.589569	0.48491
0	C	0.162543	0.891367	0.986382
0	C	0.349869	0.395115	0.515067
0	C	0.82405	0.0642034	0.071337
0	C	0.681344	0.559454	0.426196
0	C	0.189482	0.922519	0.928676
0	C	0.331235	0.425215	0.57373
0	C	0.972433	0.274769	0.130049
0	C	0.53978	0.770061	0.369451
0	C	0.0411248	0.712907	0.869865
0	C	0.472584	0.213542	0.630512
0	C	0.016059	0.340591	0.134302
0	C	0.495091	0.834886	0.364387
0	C	0.997668	0.64697	0.865542
0	C	0.517721	0.149049	0.635577
0	C	0.990218	0.220181	0.155805
0	C	0.52445	0.71463	0.343753
0	C	0.0231977	0.767534	0.844165
0	C	0.487152	0.268884	0.656356
0	C	0.0415638	0.0633462	0.0815841
0	C	0.468642	0.560033	0.418756
0	C	0.971726	0.923855	0.918686
0	C	0.543887	0.424087	0.581565
0	C	0.0339666	0.0464151	0.117479
0	C	0.476774	0.542649	0.382939
0	C	0.979224	0.941046	0.882808
0	C	0.535805	0.441293	0.617404
0	C	0.0929082	0.0142421	0.0654528
0	C	0.416586	0.511473	0.434735
0	C	0.920256	0.9727	0.934892
0	C	0.59577	0.472832	0.565589
0	C	0.181456	0.283239	0.104485
0	C	0.329198	0.780601	0.395336
0	C	0.83228	0.703635	0.895457
0	C	0.683665	0.203772	0.604699
0	C	0.237506	0.33204	0.0918972
0	C	0.273155	0.82938	0.40798
0	C	0.776415	0.654585	0.908027
0	C	0.739711	0.155071	0.592003
0	C	0.193423	0.267335	0.140411
0	C	0.316769	0.764802	0.359427
0	C	0.820175	0.719559	0.859544
0	C	0.696156	0.219516	0.640615
0	C	0.235341	0.126394	0.0972173
0	C	0.276108	0.623587	0.402626
0	C	0.777995	0.860278	0.902825
0	C	0.73651	0.360906	0.597472
0	C	0.214187	0.0920981	0.12899
0	C	0.297148	0.58954	0.370785
0	C	0.799178	0.894829	0.871117
0	C	0.715555	0.394785	0.629393
0	C	0.308007	0.157114	0.100338
0	C	0.203339	0.654125	0.399626
0	C	0.705479	0.82925	0.899576
0	C	0.80932	0.330481	0.600385
0	C	0.210287	0.12198	0.00551793
0	C	0.301139	0.620204	0.494647
0	C	0.802804	0.864445	0.994496
0	C	0.711516	0.36439	0.505421
0	C	0.279953	0.0960053	0.018241
0	C	0.232739	0.592261	0.481317
0	C	0.732882	0.889921	0.981855
0	C	0.779756	0.392513	0.518837
0	C	0.213286	0.131322	0.968766
0	C	0.296087	0.630622	0.531273
0	C	0.800066	0.855103	0.0312502
0	C	0.716831	0.353844	0.468809
0	C	0.226097	0.288641	0.0104565
0	C	0.285922	0.787088	0.489412
0	C	0.787446	0.697775	0.989437
0	C	0.726599	0.197502	0.510611
0	C	0.204594	0.310146	0.976173
0	C	0.308963	0.810113	0.523242
0	C	0.808749	0.676284	0.0237237
0	C	0.703485	0.174565	0.476778
0	C	0.304195	0.278866	0.0128487
0	C	0.207764	0.77704	0.487991
0	C	0.709281	0.707329	0.986918
0	C	0.804778	0.207431	0.512002
0	C	0.019741	0.161768	0.986084
0	C	0.490961	0.660553	0.514112
0	C	0.993694	0.82468	0.0140345
0	C	0.521811	0.324446	0.48607
0	C	0.0320484	0.0831103	0.984249
0	C	0.479179	0.581812	0.516262
0	C	0.981471	0.903343	0.0160121
0	C	0.533889	0.403145	0.484051
0	C	0.0417487	0.198224	0.954965
0	C	0.468325	0.697463	0.545018
0	C	0.971582	0.787979	0.0450683
0	C	0.544348	0.287676	0.455108
0	C	0.0554406	0.387053	0.0425157
0	C	0.456705	0.884594	0.456807
0	C	0.957839	0.599965	0.957182
0	C	0.555823	0.0998311	0.542933
0	C	0.0232772	0.446119	0.062092
0	C	0.4876	0.942934	0.43633
0	C	0.989753	0.540956	0.937478
0	C	0.524998	0.0414204	0.563382
0	C	0.0694038	0.411808	0.00804705
0	C	0.444936	0.910754	0.491246
0	C	0.943899	0.574925	0.99161
0	C	0.567298	0.0738515	0.508436
0	C	0.869832	0.311637	0.984005
0	C	0.641927	0.807651	0.515651
0	C	0.143502	0.674754	0.0158797
0	C	0.37067	0.177389	0.484231
0	C	0.854567	0.24289	0.966683
0	C	0.656364	0.738799	0.533038
0	C	0.158803	0.743392	0.0332783
0	C	0.356382	0.246357	0.466889
0	C	0.925229	0.353422	0.96653
0	C	0.587079	0.850287	0.533102
0	C	0.0880227	0.632926	0.0332842
0	C	0.425397	0.134714	0.466741
0	C	0.860589	0.424762	0.0931074
0	C	0.651235	0.92085	0.406391
0	C	0.152555	0.562116	0.906623
0	C	0.361201	0.0636167	0.593328
0	C	0.840693	0.41375	0.128381
0	C	0.6712	0.910018	0.371107
0	C	0.172708	0.573152	0.871385
0	C	0.341454	0.0743824	0.628646
0	C	0.844876	0.499164	0.0818143
0	C	0.666698	0.995318	0.41768
0	C	0.167818	0.487578	0.91786
0	C	0.345347	0.989287	0.581971
0	C	0.725048	0.425849	0.998349
0	C	0.785455	0.923369	0.501277
0	C	0.287935	0.560199	0.00150298
0	C	0.226972	0.0617281	0.498574
0	C	0.757992	0.49806	0.00122445
0	C	0.753169	0.995764	0.49769
0	C	0.254745	0.488112	0.998561
0	C	0.259059	0.989234	0.502124
0	C	0.655782	0.429397	0.980611
0	C	0.853857	0.92695	0.519741
0	C	0.357163	0.556336	0.0192565
0	C	0.158555	0.0583576	0.480115
0	C	0.656775	0.423521	0.116849
0	C	0.85526	0.920664	0.38326
0	C	0.356458	0.562458	0.883083
0	C	0.157313	0.0646481	0.616655
0	C	0.602579	0.400734	0.141262
0	C	0.909936	0.89863	0.358932
0	C	0.410796	0.584958	0.858677
0	C	0.102671	0.0868926	0.640967
0	C	0.675516	0.500518	0.121919
0	C	0.835917	0.997586	0.378476
0	C	0.337402	0.485542	0.878038
0	C	0.17648	0.987703	0.6215
0	C	0.574953	0.484533	0.0558624
0	C	0.937829	0.980875	0.444317
0	C	0.43809	0.501343	0.944089
0	C	0.0746773	0.00430104	0.555656
0	C	0.614221	0.552809	0.0507693
0	C	0.899517	0.0495098	0.449945
0	C	0.39868	0.433134	0.949145
0	C	0.112888	0.935618	0.550013
0	C	0.512433	0.496707	0.0774746
0	C	0.000129585	0.992764	0.42252
0	C	0.500601	0.489054	0.922487
0	C	0.0124026	0.992512	0.577481
0	C	0.52888	0.296922	0.023109
0	C	0.983586	0.793344	0.476503
0	C	0.484618	0.688955	0.976777
0	C	0.0292757	0.191851	0.523254
0	C	0.47677	0.356421	0.0204069
0	C	0.0361222	0.852549	0.478855
0	C	0.536608	0.629341	0.979446
0	C	0.976827	0.132593	0.520777
0	C	0.492207	0.226252	0.0204543
0	C	0.0198468	0.722443	0.479002
0	C	0.521428	0.759561	0.979394
0	C	0.992922	0.262698	0.520733
0	C	0.543431	0.257779	0.0983954
0	C	0.967882	0.754396	0.401274
0	C	0.469956	0.727949	0.901478
0	C	0.0446393	0.230919	0.598496
0	C	0.541142	0.177998	0.0974516
0	C	0.970414	0.674617	0.402502
0	C	0.472615	0.807726	0.902416
0	C	0.0423235	0.310694	0.597276
0	C	0.471266	0.288202	0.103193
0	C	0.039864	0.784833	0.395909
0	C	0.541946	0.697192	0.896582
0	C	0.972546	0.200645	0.603742
0	C	0.691452	0.197095	0.00974235
0	C	0.820557	0.694695	0.490607
0	C	0.322148	0.788885	0.990285
0	C	0.192321	0.290478	0.509324
0	C	0.664232	0.226257	0.977691
0	C	0.847873	0.724487	0.522503
0	C	0.349345	0.759501	0.0223059
0	C	0.165147	0.26072	0.477384
0	C	0.65333	0.130589	0.019554
0	C	0.858906	0.62819	0.481007
0	C	0.360388	0.855336	0.98053
0	C	0.153926	0.356944	0.518891
0	C	0.747725	0.229661	0.123838
0	C	0.764308	0.725686	0.376076
0	C	0.265943	0.756966	0.876155
0	C	0.248337	0.259027	0.623868
0	C	0.803931	0.234468	0.149781
0	C	0.708348	0.730212	0.35001
0	C	0.209794	0.752394	0.850178
0	C	0.304264	0.254254	0.649957
0	C	0.712391	0.158401	0.125159
0	C	0.800003	0.654583	0.374768
0	C	0.301429	0.828157	0.874919
0	C	0.212833	0.330196	0.625198
0	H	0.925182	0.0839974	0.0525258
0	H	0.584015	0.581285	0.448468
0	H	0.0884766	0.902672	0.947613
0	H	0.428823	0.403392	0.551718
0	H	0.846491	0.0394072	0.00791908
0	H	0.670593	0.533602	0.489764
0	H	0.167743	0.947152	0.992114
0	H	0.342999	0.451094	0.510168
0	H	0.890222	0.116962	0.997208
0	H	0.62596	0.608934	0.502596
0	H	0.12356	0.869888	0.0028536
0	H	0.38735	0.375473	0.497478
0	H	0.801304	0.119507	0.00750033
0	H	0.713283	0.615027	0.490111
0	H	0.21243	0.866766	0.992513
0	H	0.29988	0.369909	0.509806
0	H	0.829759	0.00787862	0.0669465
0	H	0.675129	0.503162	0.430542
0	H	0.18384	0.978841	0.933107
0	H	0.337507	0.481516	0.569412
0	H	0.769454	0.0766063	0.0671545
0	H	0.736643	0.570589	0.428455
0	H	0.244103	0.910079	0.932754
0	H	0.275948	0.41411	0.571335
0	H	0.835653	0.0729728	0.0970724
0	H	0.665747	0.568942	0.400973
0	H	0.177687	0.913846	0.902949
0	H	0.346518	0.415711	0.599001
0	H	0.916724	0.290681	0.13335
0	H	0.595342	0.787088	0.366645
0	H	0.0968531	0.697115	0.86654
0	H	0.417103	0.196063	0.633152
0	H	0.0150825	0.358808	0.159451
0	H	0.497204	0.852715	0.339192
0	H	0.998598	0.628967	0.840362
0	H	0.515477	0.130982	0.660734
0	H	0.997152	0.384204	0.119104
0	H	0.512158	0.879141	0.379648
0	H	0.016771	0.60329	0.880646
0	H	0.501183	0.104774	0.620204
0	H	0.0705875	0.332034	0.128153
0	H	0.44043	0.825297	0.369842
0	H	0.943142	0.655313	0.871752
0	H	0.572369	0.159124	0.630271
0	H	0.976981	0.239433	0.180023
0	H	0.538599	0.733707	0.319601
0	H	0.0363906	0.748396	0.819919
0	H	0.4724	0.249622	0.680408
0	H	0.0455098	0.207941	0.156362
0	H	0.469504	0.701153	0.342588
0	H	0.967882	0.779702	0.843646
0	H	0.54203	0.28249	0.657832
0	H	0.962202	0.170874	0.15228
0	H	0.553279	0.665998	0.347808
0	H	0.0511536	0.816878	0.847708
0	H	0.458297	0.317456	0.652202
0	H	0.989513	0.0548878	0.0694611
0	H	0.520345	0.551162	0.431137
0	H	0.0237723	0.932311	0.930809
0	H	0.492126	0.432949	0.569229
0	H	0.0193459	0.991484	0.120833
0	H	0.490875	0.487526	0.379765
0	H	0.993994	0.995958	0.879535
0	H	0.521662	0.496387	0.620641
0	H	0.994298	0.0782299	0.129198
0	H	0.517008	0.573883	0.371331
0	H	0.0187285	0.909204	0.870991
0	H	0.495621	0.409958	0.628988
0	H	0.0827801	0.0543783	0.130942
0	H	0.428326	0.550963	0.369239
0	H	0.930326	0.933333	0.869386
0	H	0.584284	0.432944	0.631077
0	H	0.0689631	0.962767	0.06089
0	H	0.438656	0.45876	0.437788
0	H	0.944022	0.0242575	0.939462
0	H	0.573343	0.52536	0.562348
0	H	0.138764	0.00529995	0.0805811
0	H	0.369318	0.505787	0.420235
0	H	0.874299	0.981495	0.919814
0	H	0.642859	0.479008	0.58018
0	H	0.110958	0.0332382	0.0418911
0	H	0.40122	0.52891	0.458967
0	H	0.902372	0.953556	0.958458
0	H	0.611508	0.455261	0.541433
0	H	0.130731	0.312222	0.10248
0	H	0.379909	0.809559	0.39725
0	H	0.883097	0.674806	0.89742
0	H	0.632976	0.174788	0.602795
0	H	0.240834	0.379508	0.106784
0	H	0.269353	0.876556	0.392916
0	H	0.773212	0.607172	0.893099
0	H	0.743523	0.10781	0.607012
0	H	0.227319	0.349405	0.0668798
0	H	0.283675	0.847233	0.4329
0	H	0.786709	0.637138	0.933023
0	H	0.729189	0.13734	0.567065
0	H	0.288634	0.307757	0.0924588
0	H	0.222113	0.804892	0.40771
0	H	0.725207	0.678687	0.907511
0	H	0.790751	0.179575	0.592295
0	H	0.194634	0.315659	0.154716
0	H	0.315883	0.813162	0.345133
0	H	0.819281	0.67126	0.845216
0	H	0.697291	0.171112	0.654872
0	H	0.242999	0.240899	0.144679
0	H	0.266883	0.738857	0.355275
0	H	0.770406	0.745651	0.85531
0	H	0.745952	0.245655	0.644749
0	H	0.152602	0.234344	0.150509
0	H	0.357099	0.731381	0.34922
0	H	0.860757	0.752861	0.849448
0	H	0.65572	0.252727	0.650867
0	H	0.236988	0.084015	0.0780974
0	H	0.274723	0.581049	0.4217
0	H	0.776063	0.902535	0.921993
0	H	0.73771	0.403526	0.578444
0	H	0.247593	0.0473107	0.134516
0	H	0.263533	0.544954	0.365153
0	H	0.765353	0.939239	0.865501
0	H	0.749049	0.439474	0.634989
0	H	0.160795	0.0722279	0.128342
0	H	0.35046	0.5694	0.371376
0	H	0.852351	0.915285	0.87192
0	H	0.662174	0.414716	0.628888
0	H	0.218232	0.128157	0.14954
0	H	0.29328	0.625786	0.35029
0	H	0.795786	0.858751	0.850554
0	H	0.719724	0.358459	0.649836
0	H	0.345326	0.116349	0.106904
0	H	0.166065	0.613253	0.393149
0	H	0.667991	0.869889	0.893064
0	H	0.84654	0.371335	0.606959
0	H	0.311065	0.197277	0.119346
0	H	0.200085	0.694215	0.380578
0	H	0.70269	0.789265	0.880479
0	H	0.812672	0.290139	0.619315
0	H	0.32595	0.180915	0.0777714
0	H	0.185534	0.678005	0.422201
0	H	0.687547	0.805122	0.92207
0	H	0.827128	0.306922	0.577737
0	H	0.17112	0.079926	0.0107847
0	H	0.341393	0.578759	0.490178
0	H	0.841662	0.906736	0.989155
0	H	0.671121	0.405758	0.509777
0	H	0.298133	0.0515278	0.00388541
0	H	0.214528	0.548151	0.495903
0	H	0.714529	0.934349	0.996192
0	H	0.798121	0.436455	0.504182
0	H	0.277103	0.0777906	0.0434886
0	H	0.237476	0.572784	0.456335
0	H	0.735434	0.908017	0.956583
0	H	0.774741	0.412271	0.54376
0	H	0.320067	0.136267	0.0170483
0	H	0.191788	0.631679	0.48148
0	H	0.693036	0.849404	0.98316
0	H	0.820718	0.353101	0.518875
0	H	0.224553	0.0814592	0.956809
0	H	0.285809	0.580771	0.543444
0	H	0.788593	0.904912	0.04322
0	H	0.727421	0.403609	0.456625
0	H	0.253831	0.168187	0.961748
0	H	0.254082	0.66631	0.537639
0	H	0.759749	0.818025	0.0383161
0	H	0.758729	0.317946	0.462542
0	H	0.164178	0.150563	0.958343
0	H	0.344134	0.651689	0.542024
0	H	0.849314	0.836114	0.0416203
0	H	0.668768	0.332957	0.457996
0	H	0.211833	0.332758	0.027413
0	H	0.299219	0.830583	0.471924
0	H	0.801903	0.653735	0.972475
0	H	0.713273	0.15399	0.528084
0	H	0.233712	0.356184	0.968267
0	H	0.2798	0.856167	0.5311
0	H	0.779712	0.630138	0.031579
0	H	0.732459	0.128381	0.468932
0	H	0.149515	0.324302	0.974711
0	H	0.363941	0.824899	0.523978
0	H	0.863858	0.662258	0.0252648
0	H	0.648449	0.160013	0.476032
0	H	0.214094	0.269007	0.958309
0	H	0.300887	0.769636	0.541571
0	H	0.799031	0.717353	0.0416007
0	H	0.711742	0.214985	0.458444
0	H	0.331086	0.326651	0.00538888
0	H	0.181164	0.825828	0.494189
0	H	0.6825	0.659511	0.994396
0	H	0.831267	0.158439	0.506048
0	H	0.322473	0.236616	0.997125
0	H	0.190221	0.737241	0.505166
0	H	0.690815	0.749608	0.00256854
0	H	0.8224	0.246782	0.494627
0	H	0.321755	0.267161	0.0375915
0	H	0.189201	0.761749	0.463846
0	H	0.691871	0.718839	0.962139
0	H	0.823371	0.223251	0.53607
0	H	0.961997	0.169552	0.988576
0	H	0.548577	0.668837	0.511746
0	H	0.0514224	0.816839	0.0115359
0	H	0.464154	0.316367	0.488405
0	H	0.00293417	0.0602542	0.963714
0	H	0.508215	0.559574	0.53692
0	H	0.0108089	0.926049	0.0365166
0	H	0.50535	0.425557	0.463291
0	H	0.0148728	0.0557479	0.00609316
0	H	0.496749	0.554153	0.494573
0	H	0.998434	0.930835	0.994166
0	H	0.515956	0.430757	0.505688
0	H	0.0863182	0.0696748	0.980495
0	H	0.424891	0.568198	0.519945
0	H	0.92725	0.91677	0.0199088
0	H	0.588302	0.416633	0.480624
0	H	0.0172932	0.173702	0.93375
0	H	0.49339	0.674039	0.566355
0	H	0.996053	0.81226	0.0663439
0	H	0.519305	0.311272	0.433808
0	H	0.0978357	0.194941	0.951062
0	H	0.412325	0.69316	0.54901
0	H	0.915491	0.791324	0.0489615
0	H	0.60035	0.291926	0.451108
0	H	0.0267944	0.253928	0.954566
0	H	0.482181	0.753446	0.545033
0	H	0.986432	0.732238	0.0453602
0	H	0.530419	0.231718	0.45502
0	H	0.106102	0.373158	0.0543455
0	H	0.405296	0.870433	0.445808
0	H	0.907178	0.614082	0.945411
0	H	0.607321	0.113876	0.553868
0	H	0.061532	0.486746	0.0676594
0	H	0.448889	0.983162	0.430833
0	H	0.951312	0.500569	0.931815
0	H	0.563495	0.000762381	0.568498
0	H	0.00238835	0.428156	0.0855463
0	H	0.507439	0.924112	0.412837
0	H	0.0107326	0.559055	0.914067
0	H	0.505978	0.0600363	0.587057
0	H	0.980798	0.471567	0.0488899
0	H	0.530505	0.969108	0.448885
0	H	0.032104	0.51517	0.950627
0	H	0.481555	0.0158104	0.550992
0	H	0.102388	0.458482	0.00832294
0	H	0.412394	0.957721	0.491054
0	H	0.910898	0.528273	0.991252
0	H	0.599772	0.0268176	0.508528
0	H	0.0216931	0.426175	0.994978
0	H	0.493499	0.925139	0.503593
0	H	0.991613	0.560409	0.00464
0	H	0.518647	0.0595981	0.496157
0	H	0.0960225	0.372034	0.993376
0	H	0.418775	0.871791	0.506538
0	H	0.917318	0.614577	0.00636336
0	H	0.593434	0.112845	0.493154
0	H	0.820991	0.343924	0.983046
0	H	0.69117	0.839331	0.516584
0	H	0.192299	0.642396	0.0168258
0	H	0.32134	0.145849	0.483279
0	H	0.84394	0.251644	0.94088
0	H	0.667008	0.747574	0.558839
0	H	0.169539	0.734483	0.0590619
0	H	0.345926	0.237701	0.441065
0	H	0.809168	0.216399	0.976689
0	H	0.701499	0.711724	0.523092
0	H	0.204151	0.769978	0.0232647
0	H	0.311183	0.273379	0.47679
0	H	0.898166	0.205972	0.968173
0	H	0.612296	0.70242	0.531571
0	H	0.115165	0.780282	0.0318774
0	H	0.400456	0.282701	0.468467
0	H	0.904871	0.374675	0.943695
0	H	0.607733	0.871423	0.555902
0	H	0.108297	0.611624	0.0561254
0	H	0.404717	0.113855	0.44388
0	H	0.970088	0.320618	0.960353
0	H	0.541788	0.818163	0.539297
0	H	0.0431312	0.665703	0.0394282
0	H	0.470815	0.166717	0.460614
0	H	0.944627	0.398399	0.980614
0	H	0.568329	0.895463	0.518956
0	H	0.0686955	0.587983	0.0191578
0	H	0.443935	0.0893298	0.480798
0	H	0.918113	0.41649	0.0916689
0	H	0.593762	0.912411	0.4078
0	H	0.0950497	0.570676	0.907988
0	H	0.41868	0.0718088	0.59186
0	H	0.862968	0.454757	0.143808
0	H	0.649031	0.951194	0.35573
0	H	0.150442	0.532224	0.85591
0	H	0.363439	0.0329803	0.643951
0	H	0.85957	0.363057	0.13787
0	H	0.652226	0.859461	0.361529
0	H	0.154029	0.623898	0.861885
0	H	0.360802	0.12478	0.63826
0	H	0.784512	0.414936	0.131969
0	H	0.727389	0.911156	0.36754
0	H	0.228917	0.571818	0.867873
0	H	0.28528	0.0735975	0.632268
0	H	0.877497	0.536969	0.0948417
0	H	0.633517	0.0329691	0.404882
0	H	0.135118	0.449998	0.904735
0	H	0.378479	0.95141	0.59465
0	H	0.790842	0.513877	0.0865111
0	H	0.720525	0.0104601	0.412673
0	H	0.221821	0.472617	0.913237
0	H	0.291502	0.974335	0.587056
0	H	0.854091	0.506875	0.0558759
0	H	0.658234	0.00286985	0.443708
0	H	0.158359	0.479775	0.94377
0	H	0.353539	0.981863	0.555909
0	H	0.760576	0.391975	0.98333
0	H	0.749043	0.890073	0.516104
0	H	0.252497	0.594132	0.0165415
0	H	0.263466	0.0949656	0.483763
0	H	0.763906	0.522113	0.977301
0	H	0.744171	0.0195434	0.521444
0	H	0.249071	0.463827	0.0224474
0	H	0.268309	0.965635	0.478356
0	H	0.809447	0.496511	0.0125257
0	H	0.70327	0.994676	0.484867
0	H	0.203152	0.489951	0.98742
0	H	0.308795	0.990087	0.515102
0	H	0.726082	0.534281	0.0155678
0	H	0.787169	0.031956	0.484417
0	H	0.286337	0.451926	0.984047
0	H	0.224804	0.953014	0.515234
0	H	0.662543	0.448173	0.955741
0	H	0.846087	0.94747	0.544246
0	H	0.350294	0.537559	0.0441198
0	H	0.166307	0.0381268	0.455558
0	H	0.619766	0.465683	0.992194
0	H	0.891119	0.961775	0.508087
0	H	0.393024	0.51989	0.00767607
0	H	0.121312	0.0233925	0.49169
0	H	0.630205	0.378307	0.978972
0	H	0.878409	0.875574	0.522415
0	H	0.382965	0.607308	0.0209133
0	H	0.133971	0.109746	0.477571
0	H	0.70503	0.391975	0.121998
0	H	0.807341	0.888773	0.377899
0	H	0.308339	0.594197	0.877894
0	H	0.205294	0.0964589	0.621989
0	H	0.619748	0.412362	0.166101
0	H	0.893471	0.911253	0.334115
0	H	0.393643	0.573331	0.833839
0	H	0.119141	0.0743692	0.665794
0	H	0.59269	0.343958	0.140365
0	H	0.919575	0.841803	0.359438
0	H	0.420904	0.641692	0.859546
0	H	0.0930977	0.14373	0.6404
0	H	0.553182	0.427502	0.137606
0	H	0.959348	0.925069	0.363069
0	H	0.460067	0.55798	0.862374
0	H	0.0532249	0.0605108	0.636865
0	H	0.692425	0.509924	0.146973
0	H	0.819197	0.00742376	0.353436
0	H	0.32078	0.476098	0.852946
0	H	0.193529	0.977985	0.646502
0	H	0.631766	0.535639	0.117325
0	H	0.879259	0.0330139	0.383403
0	H	0.380891	0.450181	0.8828
0	H	0.132955	0.952398	0.616767
0	H	0.718223	0.516976	0.106127
0	H	0.792839	0.0132957	0.394222
0	H	0.294387	0.469388	0.893716
0	H	0.219272	0.971731	0.605638
0	H	0.555	0.466527	0.0313392
0	H	0.95804	0.962161	0.468679
0	H	0.458051	0.519289	0.968619
0	H	0.0544263	0.0229843	0.531292
0	H	0.583247	0.589905	0.0362488
0	H	0.931583	0.0862985	0.464054
0	H	0.429516	0.395977	0.963699
0	H	0.0806007	0.898739	0.536086
0	H	0.66305	0.545353	0.0377058
0	H	0.851411	0.0423648	0.463624
0	H	0.349778	0.44067	0.962138
0	H	0.160751	0.942677	0.536136
0	H	0.626595	0.578981	0.0737091
0	H	0.885947	0.0758422	0.427199
0	H	0.386396	0.406996	0.926186
0	H	0.126846	0.909442	0.572745
0	H	0.47814	0.536218	0.0667557
0	H	0.0351152	0.0316204	0.433266
0	H	0.534658	0.449251	0.933144
0	H	0.977357	0.953681	0.566763
0	H	0.527347	0.516028	0.101565
0	H	0.985104	0.0127621	0.39857
0	H	0.485669	0.470036	0.898348
0	H	0.0274596	0.972516	0.601428
0	H	0.481606	0.449225	0.0809417
0	H	0.0303534	0.944983	0.418731
0	H	0.531681	0.536408	0.919137
0	H	0.982228	0.0403251	0.581272
0	H	0.564265	0.301173	0.00154343
0	H	0.948684	0.797849	0.498225
0	H	0.449285	0.684794	0.998365
0	H	0.064326	0.187453	0.501579
0	H	0.447995	0.353475	0.997263
0	H	0.0665992	0.848675	0.501433
0	H	0.565516	0.632279	0.002553
0	H	0.946918	0.13615	0.498014
0	H	0.501407	0.408398	0.0206579
0	H	0.0115586	0.904549	0.479424
0	H	0.511853	0.577423	0.979252
0	H	0.00139147	0.0805778	0.520479
0	H	0.438852	0.355334	0.0398628
0	H	0.0724476	0.852183	0.458725
0	H	0.57441	0.630301	0.95994
0	H	0.939997	0.133203	0.540699
0	H	0.462689	0.222773	0.997753
0	H	0.050094	0.718866	0.501482
0	H	0.551257	0.762907	0.00200656
0	H	0.962966	0.266336	0.498172
0	H	0.455671	0.217935	0.0401759
0	H	0.055569	0.713613	0.458996
0	H	0.557688	0.767938	0.959564
0	H	0.956908	0.271342	0.540641
0	H	0.52881	0.182015	0.0206227
0	H	0.982857	0.678508	0.479209
0	H	0.484854	0.803829	0.979377
0	H	0.0298379	0.306706	0.520684
0	H	0.576075	0.273528	0.120122
0	H	0.934656	0.769728	0.379688
0	H	0.437118	0.712351	0.879795
0	H	0.077684	0.215481	0.62013
0	H	0.519293	0.157119	0.119864
0	H	0.991528	0.653397	0.380005
0	H	0.494267	0.82849	0.87994
0	H	0.0209568	0.331959	0.619712
0	H	0.593024	0.154995	0.0951175
0	H	0.918672	0.651529	0.405314
0	H	0.420868	0.830959	0.904894
0	H	0.0941639	0.333652	0.594619
0	H	0.509326	0.158052	0.0774704
0	H	0.00300133	0.655102	0.422316
0	H	0.504777	0.827522	0.922314
0	H	0.0100488	0.330316	0.577374
0	H	0.448964	0.269099	0.125832
0	H	0.0613449	0.765709	0.37309
0	H	0.564071	0.715962	0.873842
0	H	0.950876	0.219918	0.626494
0	H	0.435686	0.273075	0.0836124
0	H	0.0761737	0.769771	0.415197
0	H	0.577789	0.712378	0.916048
0	H	0.936448	0.215681	0.584363
0	H	0.471462	0.345548	0.104513
0	H	0.0396204	0.842168	0.394573
0	H	0.541534	0.63983	0.895393
0	H	0.972681	0.143317	0.605134
0	H	0.747505	0.182442	0.00590873
0	H	0.76456	0.679996	0.494543
0	H	0.266123	0.803611	0.994143
0	H	0.248341	0.305175	0.505443
0	H	0.663609	0.185649	0.95895
0	H	0.849337	0.684026	0.541313
0	H	0.350158	0.800046	0.0410752
0	H	0.164079	0.301125	0.458545
0	H	0.696295	0.269193	0.968652
0	H	0.815352	0.767	0.531597
0	H	0.317147	0.716658	0.0313235
0	H	0.197507	0.217994	0.468383
0	H	0.611083	0.246071	0.979462
0	H	0.90073	0.74503	0.520491
0	H	0.402414	0.739496	0.0204867
0	H	0.112162	0.240494	0.479312
0	H	0.659755	0.0895791	0.00127111
0	H	0.85251	0.587326	0.499351
0	H	0.353989	0.896328	0.998827
0	H	0.160264	0.397771	0.50052
0	H	0.597354	0.139374	0.0218251
0	H	0.914888	0.637162	0.478785
0	H	0.41636	0.846476	0.978277
0	H	0.0979429	0.347953	0.521132
0	H	0.672282	0.109023	0.0425849
0	H	0.840241	0.606398	0.457991
0	H	0.341532	0.876984	0.957497
0	H	0.172597	0.378823	0.541893
0	H	0.70803	0.270938	0.129136
0	H	0.803857	0.767166	0.370834
0	H	0.305551	0.715614	0.870837
0	H	0.208684	0.217629	0.629074
0	H	0.781283	0.235614	0.174071
0	H	0.731255	0.731773	0.325775
0	H	0.232484	0.75133	0.825896
0	H	0.281314	0.252974	0.674187
0	H	0.835927	0.282136	0.147551
0	H	0.675898	0.777556	0.352213
0	H	0.177714	0.704764	0.852339
0	H	0.336379	0.206692	0.647804
0	H	0.838983	0.189513	0.149097
0	H	0.673681	0.684923	0.350511
0	H	0.1748	0.797397	0.850898
0	H	0.339209	0.299318	0.649416
0	H	0.688896	0.150421	0.149203
0	H	0.823766	0.646872	0.35076
0	H	0.324896	0.836229	0.850874
0	H	0.189051	0.33795	0.649201
0	H	0.748403	0.115087	0.121449
0	H	0.764224	0.611037	0.378355
0	H	0.265501	0.871517	0.878694
0	H	0.248717	0.373675	0.621638
0	H	0.670157	0.152987	0.107272
0	H	0.842105	0.649308	0.39273
0	H	0.3437	0.833378	0.892802
0	H	0.170758	0.335616	0.607227
0	Si	0.0260871	0.641798	0.222351
0	Si	0.484909	0.141416	0.277217
0	Si	0.987072	0.343952	0.777635
0	Si	0.528228	0.844229	0.722737
0	Si	0.135933	0.685139	0.236049
0	Si	0.375059	0.185394	0.263519
0	Si	0.877211	0.300657	0.763957
0	Si	0.638057	0.800186	0.736461
0	Si	0.214718	0.603551	0.233324
0	Si	0.295848	0.10422	0.266326
0	Si	0.798494	0.382301	0.766666
0	Si	0.717313	0.881321	0.733639
0	Si	0.325181	0.635338	0.229419
0	Si	0.185524	0.137303	0.270185
0	Si	0.688035	0.350523	0.770562
0	Si	0.827643	0.848236	0.729773
0	Si	0.321688	0.607719	0.177135
0	Si	0.188771	0.110051	0.322599
0	Si	0.691575	0.378202	0.822839
0	Si	0.824413	0.875393	0.677342
0	Si	0.208225	0.607296	0.179315
0	Si	0.302304	0.107603	0.320307
0	Si	0.80503	0.378595	0.820686
0	Si	0.71087	0.877892	0.679667
0	Si	0.150326	0.71191	0.184484
0	Si	0.360628	0.21222	0.315081
0	Si	0.862863	0.273926	0.81553
0	Si	0.652498	0.773297	0.684909
0	Si	0.0397433	0.704281	0.177722
0	Si	0.471128	0.204027	0.321815
0	Si	0.973453	0.281482	0.822274
0	Si	0.542003	0.781574	0.678156
0	Si	0.974095	0.788339	0.204839
0	Si	0.536911	0.287783	0.294669
0	Si	0.0390414	0.197398	0.795153
0	Si	0.476151	0.697896	0.705304
0	Si	0.872919	0.80091	0.182295
0	Si	0.637835	0.30086	0.317226
0	Si	0.140285	0.184835	0.817631
0	Si	0.375225	0.684843	0.682751
0	Si	0.791811	0.853919	0.211273
0	Si	0.718369	0.353734	0.287923
0	Si	0.221273	0.131809	0.788587
0	Si	0.294662	0.631972	0.712034
0	Si	0.743196	0.75014	0.218753
0	Si	0.767387	0.24996	0.280935
0	Si	0.269974	0.235548	0.781095
0	Si	0.245651	0.735757	0.719011
0	Si	0.841282	0.699545	0.204544
0	Si	0.669673	0.199242	0.295348
0	Si	0.171922	0.286172	0.795356
0	Si	0.343392	0.786467	0.704618
0	Si	0.93645	0.703101	0.236425
0	Si	0.574771	0.202369	0.263263
0	Si	0.0766672	0.282612	0.763538
0	Si	0.438319	0.783348	0.73669
0	C	0.0231957	0.539891	0.228117
0	C	0.487374	0.0395781	0.271032
0	C	0.989994	0.445849	0.771844
0	C	0.525788	0.946076	0.728897
0	C	0.980138	0.502529	0.202352
0	C	0.532103	0.00136655	0.295878
0	C	0.0331752	0.483191	0.797575
0	C	0.481089	0.984232	0.704024
0	C	0.999046	0.522526	0.262306
0	C	0.509337	0.0229141	0.236426
0	C	0.0140202	0.463131	0.737628
0	C	0.50376	0.96278	0.76349
0	C	0.138547	0.752101	0.271877
0	C	0.372653	0.252274	0.22763
0	C	0.874497	0.233669	0.728141
0	C	0.640402	0.733297	0.772346
0	C	0.178139	0.818004	0.262715
0	C	0.333246	0.318409	0.236629
0	C	0.834909	0.167778	0.737331
0	C	0.679738	0.667119	0.763339
0	C	0.167847	0.719602	0.302832
0	C	0.343317	0.219734	0.196693
0	C	0.845165	0.266106	0.697183
0	C	0.669782	0.765786	0.80329
0	C	0.195016	0.519946	0.258948
0	C	0.315089	0.0202346	0.240852
0	C	0.818207	0.465831	0.740989
0	C	0.698078	0.965324	0.759104
0	C	0.195926	0.535335	0.295219
0	C	0.314851	0.0350923	0.204536
0	C	0.817152	0.450374	0.704726
0	C	0.698274	0.950465	0.795418
0	C	0.241946	0.458472	0.250952
0	C	0.267566	0.959238	0.248855
0	C	0.771325	0.527347	0.748997
0	C	0.745621	0.0263068	0.751102
0	C	0.338876	0.734243	0.239378
0	C	0.17235	0.236233	0.260016
0	C	0.674355	0.251603	0.760621
0	C	0.840774	0.749303	0.739944
0	C	0.398699	0.767919	0.221323
0	C	0.112869	0.2706	0.278043
0	C	0.61463	0.217852	0.778717
0	C	0.900243	0.714893	0.72192
0	C	0.346874	0.744802	0.275955
0	C	0.164142	0.246647	0.22344
0	C	0.666231	0.24102	0.724052
0	C	0.848954	0.738872	0.77652
0	C	0.391738	0.579108	0.253617
0	C	0.118979	0.0810799	0.245917
0	C	0.621395	0.40667	0.746374
0	C	0.894159	0.904472	0.754054
0	C	0.37891	0.574936	0.289975
0	C	0.132567	0.0757911	0.20965
0	C	0.634171	0.410885	0.710016
0	C	0.880565	0.909696	0.790336
0	C	0.465486	0.603745	0.247244
0	C	0.0452788	0.10657	0.251683
0	C	0.547694	0.381917	0.752766
0	C	0.967856	0.878994	0.748292
0	C	0.351632	0.511634	0.16813
0	C	0.156491	0.0148244	0.331768
0	C	0.661755	0.474326	0.831837
0	C	0.856894	0.970516	0.668107
0	C	0.424209	0.494518	0.180463
0	C	0.0817229	0.00115542	0.321628
0	C	0.589313	0.491613	0.819379
0	C	0.931894	0.983812	0.677973
0	C	0.346171	0.495337	0.131896
0	C	0.166019	0.996686	0.36764
0	C	0.666967	0.490548	0.868086
0	C	0.846895	0.988785	0.632274
0	C	0.369373	0.672198	0.148613
0	C	0.143359	0.175623	0.351442
0	C	0.64374	0.313753	0.851314
0	C	0.869595	0.809709	0.648471
0	C	0.3458	0.667374	0.113275
0	C	0.166744	0.168479	0.386735
0	C	0.667254	0.318393	0.886668
0	C	0.846148	0.816998	0.613195
0	C	0.447607	0.663196	0.151489
0	C	0.0648457	0.169877	0.348609
0	C	0.565529	0.322896	0.848414
0	C	0.948141	0.815212	0.651248
0	C	0.156832	0.539603	0.152843
0	C	0.353442	0.0397617	0.346905
0	C	0.856382	0.4463	0.847188
0	C	0.65968	0.945634	0.653045
0	C	0.17029	0.464251	0.163309
0	C	0.339724	0.964208	0.336808
0	C	0.842933	0.521663	0.836735
0	C	0.673349	0.021223	0.663115
0	C	0.170232	0.549772	0.116779
0	C	0.3403	0.0507282	0.382942
0	C	0.842894	0.436086	0.883241
0	C	0.672823	0.934613	0.617015
0	C	0.203236	0.790597	0.167258
0	C	0.308372	0.291331	0.332373
0	C	0.80992	0.195266	0.832756
0	C	0.70467	0.694115	0.667628
0	C	0.174423	0.861855	0.176808
0	C	0.337294	0.362547	0.322835
0	C	0.838677	0.123983	0.823226
0	C	0.675677	0.622925	0.677169
0	C	0.210257	0.78603	0.130507
0	C	0.301857	0.286628	0.369144
0	C	0.802861	0.199847	0.86951
0	C	0.71117	0.69879	0.630859
0	C	0.00539991	0.681797	0.134076
0	C	0.505758	0.182111	0.365462
0	C	0.00788911	0.303957	0.865906
0	C	0.507388	0.803438	0.634504
0	C	0.986255	0.604679	0.13103
0	C	0.524751	0.104961	0.368516
0	C	0.0270994	0.381064	0.868922
0	C	0.488385	0.880579	0.631417
0	C	0.0578314	0.702566	0.108528
0	C	0.453989	0.203182	0.391252
0	C	0.955474	0.28326	0.891469
0	C	0.559142	0.782307	0.608718
0	C	0.0234301	0.871526	0.220176
0	C	0.487394	0.370771	0.279313
0	C	0.989637	0.114267	0.779813
0	C	0.525576	0.614866	0.720666
0	C	0.0116161	0.885139	0.256108
0	C	0.498606	0.384263	0.243332
0	C	0.00138243	0.100711	0.743877
0	C	0.514288	0.601343	0.756637
0	C	0.00497916	0.9353	0.199624
0	C	0.505756	0.434779	0.299714
0	C	0.00804211	0.0504045	0.800325
0	C	0.507188	0.550897	0.700245
0	C	0.872151	0.816661	0.135444
0	C	0.638539	0.317161	0.364026
0	C	0.141241	0.169145	0.864487
0	C	0.374506	0.668529	0.635951
0	C	0.906386	0.885688	0.126326
0	C	0.604248	0.386257	0.372956
0	C	0.106896	0.100218	0.87366
0	C	0.408792	0.599429	0.627024
0	C	0.800212	0.810891	0.120435
0	C	0.710394	0.311406	0.379126
0	C	0.213259	0.174777	0.879433
0	C	0.302634	0.674271	0.620866
0	C	0.828119	0.89633	0.250995
0	C	0.681587	0.395503	0.24813
0	C	0.184854	0.0894946	0.748871
0	C	0.331335	0.590184	0.75184
0	C	0.779692	0.891005	0.279828
0	C	0.728972	0.389165	0.218959
0	C	0.233211	0.0948165	0.720007
0	C	0.283798	0.596556	0.78096
0	C	0.849073	0.972453	0.245238
0	C	0.661353	0.471938	0.253615
0	C	0.163838	0.0133808	0.7546
0	C	0.351525	0.513742	0.74636
0	C	0.73447	0.921023	0.18783
0	C	0.775455	0.421552	0.311026
0	C	0.278528	0.0645737	0.811998
0	C	0.237605	0.564169	0.688913
0	C	0.773668	0.978388	0.170027
0	C	0.736007	0.478664	0.32886
0	C	0.23923	0.00725715	0.829777
0	C	0.27703	0.507032	0.671083
0	C	0.680509	0.953338	0.210113
0	C	0.82848	0.454014	0.288303
0	C	0.33237	0.0322016	0.78967
0	C	0.184508	0.53171	0.711597
0	C	0.674391	0.727645	0.185114
0	C	0.836137	0.228105	0.314684
0	C	0.338786	0.257979	0.814746
0	C	0.176929	0.757531	0.685241
0	C	0.619611	0.784335	0.180535
0	C	0.89065	0.285082	0.319187
0	C	0.393485	0.201209	0.81932
0	C	0.122382	0.700583	0.680778
0	C	0.639426	0.657169	0.191158
0	C	0.871293	0.157663	0.308803
0	C	0.373814	0.328417	0.808693
0	C	0.141778	0.828008	0.691059
0	C	0.703619	0.733304	0.261146
0	C	0.806804	0.23278	0.238571
0	C	0.30957	0.252406	0.738698
0	C	0.206162	0.752988	0.761357
0	C	0.694779	0.655693	0.268886
0	C	0.815878	0.155139	0.230998
0	C	0.318319	0.330023	0.730945
0	C	0.197068	0.830652	0.768894
0	C	0.635555	0.772638	0.26524
0	C	0.874667	0.272411	0.234386
0	C	0.377667	0.213141	0.734593
0	C	0.138298	0.713374	0.765533
0	C	0.832847	0.611913	0.180284
0	C	0.678229	0.112292	0.320118
0	C	0.180407	0.373782	0.819637
0	C	0.334843	0.873399	0.679835
0	C	0.800483	0.622242	0.146833
0	C	0.710819	0.123182	0.353497
0	C	0.212734	0.363412	0.853091
0	C	0.302231	0.862506	0.64647
0	C	0.794628	0.556578	0.199778
0	C	0.716218	0.0564243	0.300861
0	C	0.218672	0.429105	0.800151
0	C	0.296852	0.929286	0.699098
0	C	0.912779	0.708788	0.282342
0	C	0.598707	0.208115	0.217374
0	C	0.100238	0.276889	0.717611
0	C	0.414375	0.777655	0.78258
0	C	0.975688	0.719216	0.304256
0	C	0.535854	0.219135	0.19547
0	C	0.0372595	0.266496	0.695725
0	C	0.477208	0.766675	0.804497
0	C	0.872457	0.644069	0.292657
0	C	0.638612	0.143268	0.206914
0	C	0.140562	0.341573	0.707277
0	C	0.374434	0.84251	0.793006
0	H	0.0776285	0.51957	0.226007
0	H	0.433079	0.0193395	0.273856
0	H	0.935588	0.466215	0.773992
0	H	0.580089	0.966314	0.726089
0	H	0.972273	0.447464	0.208759
0	H	0.536642	0.945734	0.289753
0	H	0.0415349	0.538103	0.791035
0	H	0.4765	0.0398691	0.710139
0	H	0.00552506	0.503124	0.17873
0	H	0.510142	0.00392755	0.320214
0	H	0.00760234	0.483093	0.821153
0	H	0.503085	0.981662	0.679695
0	H	0.92866	0.525611	0.199144
0	H	0.584762	0.0221503	0.297251
0	H	0.0844427	0.459713	0.800933
0	H	0.428442	0.963422	0.70263
0	H	0.998465	0.465779	0.26616
0	H	0.509409	0.966252	0.232278
0	H	0.0146802	0.51987	0.733753
0	H	0.503821	0.0194393	0.767649
0	H	0.946404	0.541405	0.267132
0	H	0.561798	0.0416084	0.231024
0	H	0.0666056	0.444149	0.732751
0	H	0.451236	0.944213	0.768848
0	H	0.0331013	0.544877	0.280993
0	H	0.474368	0.0458606	0.218284
0	H	0.979854	0.440814	0.718978
0	H	0.538609	0.939725	0.781654
0	H	0.0833731	0.768257	0.276707
0	H	0.4279	0.268252	0.222811
0	H	0.92966	0.217483	0.7233
0	H	0.585143	0.717384	0.777167
0	H	0.181239	0.85426	0.283243
0	H	0.330461	0.354528	0.216032
0	H	0.831744	0.131531	0.716804
0	H	0.682442	0.630948	0.783917
0	H	0.15317	0.846707	0.242531
0	H	0.35811	0.347169	0.256817
0	H	0.859921	0.13906	0.757499
0	H	0.654867	0.638427	0.743133
0	H	0.231403	0.806808	0.255351
0	H	0.27988	0.307442	0.243903
0	H	0.781664	0.178993	0.744726
0	H	0.733126	0.67804	0.756084
0	H	0.156788	0.752668	0.323834
0	H	0.354481	0.252704	0.175665
0	H	0.856175	0.232992	0.676192
0	H	0.658768	0.732691	0.824293
0	H	0.224516	0.714206	0.301709
0	H	0.286635	0.214521	0.197818
0	H	0.788495	0.271533	0.698319
0	H	0.726446	0.771126	0.802125
0	H	0.146619	0.667395	0.307945
0	H	0.364418	0.167462	0.191617
0	H	0.8664	0.318296	0.692035
0	H	0.64857	0.817981	0.808421
0	H	0.140745	0.504468	0.251748
0	H	0.369139	0.0043891	0.248263
0	H	0.872503	0.481299	0.748143
0	H	0.644035	0.98117	0.751681
0	H	0.178288	0.489789	0.308967
0	H	0.33295	0.98941	0.19101
0	H	0.83497	0.495796	0.690942
0	H	0.68015	0.996142	0.808941
0	H	0.162438	0.579497	0.301837
0	H	0.34823	0.0793181	0.197905
0	H	0.850414	0.406029	0.698109
0	H	0.664889	0.90624	0.802038
0	H	0.248435	0.547696	0.304053
0	H	0.262454	0.0471013	0.195452
0	H	0.76457	0.438234	0.695927
0	H	0.750656	0.938448	0.804519
0	H	0.22552	0.411353	0.264008
0	H	0.283595	0.911936	0.235824
0	H	0.787563	0.574352	0.735801
0	H	0.729488	0.073659	0.764065
0	H	0.295771	0.467908	0.25806
0	H	0.213836	0.969139	0.241725
0	H	0.717427	0.517823	0.742053
0	H	0.799312	0.0164564	0.758317
0	H	0.241104	0.445466	0.225081
0	H	0.268253	0.946289	0.274732
0	H	0.772491	0.54058	0.774842
0	H	0.745094	0.0391291	0.725212
0	H	0.290332	0.76266	0.231667
0	H	0.221154	0.26437	0.267606
0	H	0.722947	0.223207	0.768292
0	H	0.791961	0.721197	0.732349
0	H	0.404666	0.822915	0.228391
0	H	0.10724	0.325545	0.270814
0	H	0.608803	0.162812	0.771701
0	H	0.905843	0.659946	0.729151
0	H	0.390625	0.767383	0.194947
0	H	0.121048	0.270453	0.304391
0	H	0.622722	0.218525	0.805094
0	H	0.892065	0.715028	0.695572
0	H	0.448042	0.742223	0.226528
0	H	0.063317	0.245225	0.272959
0	H	0.565216	0.243389	0.773494
0	H	0.949807	0.740255	0.727006
0	H	0.353981	0.800316	0.281769
0	H	0.158276	0.302283	0.217544
0	H	0.65932	0.185477	0.718244
0	H	0.85492	0.68324	0.782405
0	H	0.391581	0.716897	0.286081
0	H	0.118615	0.219826	0.213529
0	H	0.621357	0.268729	0.713975
0	H	0.894417	0.765779	0.786456
0	H	0.300762	0.727081	0.289184
0	H	0.209615	0.22772	0.2101
0	H	0.712204	0.25893	0.710769
0	H	0.803412	0.757692	0.789842
0	H	0.386288	0.524536	0.243354
0	H	0.123781	0.026764	0.256451
0	H	0.626764	0.461254	0.756646
0	H	0.889313	0.95879	0.743554
0	H	0.412406	0.534628	0.301057
0	H	0.0987445	0.035686	0.198631
0	H	0.600479	0.451026	0.698933
0	H	0.914361	0.949814	0.801366
0	H	0.325341	0.560627	0.295744
0	H	0.186036	0.0605198	0.204206
0	H	0.68767	0.425436	0.704233
0	H	0.82708	0.924912	0.795777
0	H	0.390191	0.624555	0.302287
0	H	0.122283	0.12518	0.19699
0	H	0.623093	0.361219	0.697708
0	H	0.890894	0.860282	0.802965
0	H	0.50291	0.566391	0.257293
0	H	0.00776601	0.0694212	0.241533
0	H	0.510189	0.419098	0.742646
0	H	0.0053649	0.915957	0.758593
0	H	0.476413	0.654536	0.258533
0	H	0.0352321	0.157199	0.240061
0	H	0.536896	0.331019	0.741554
0	H	0.977807	0.828185	0.75976
0	H	0.476539	0.60878	0.22134
0	H	0.0334406	0.11233	0.27747
0	H	0.536617	0.377051	0.778673
0	H	0.97979	0.873607	0.722498
0	H	0.314753	0.476035	0.181097
0	H	0.189947	0.97849	0.317321
0	H	0.698812	0.509872	0.818948
0	H	0.823834	0.00693959	0.682698
0	H	0.440391	0.44263	0.172096
0	H	0.0656737	0.948535	0.329036
0	H	0.573092	0.543452	0.827798
0	H	0.947853	0.0366151	0.670799
0	H	0.427519	0.493213	0.207105
0	H	0.0739432	0.00383612	0.295286
0	H	0.586284	0.493127	0.792729
0	H	0.940276	0.980349	0.704245
0	H	0.462731	0.531946	0.171709
0	H	0.0459351	0.0381842	0.332973
0	H	0.550657	0.454163	0.827972
0	H	0.967338	0.947036	0.66622
0	H	0.357757	0.44015	0.127249
0	H	0.152074	0.942049	0.372227
0	H	0.655573	0.545775	0.872732
0	H	0.861288	0.043281	0.62764
0	H	0.382517	0.526463	0.117629
0	H	0.13357	0.029339	0.383245
0	H	0.630358	0.459555	0.882263
0	H	0.878727	0.955811	0.61653
0	H	0.294125	0.505262	0.121885
0	H	0.219725	0.0032667	0.376138
0	H	0.718884	0.480379	0.878196
0	H	0.792988	0.982736	0.623994
0	H	0.356302	0.726289	0.157639
0	H	0.158534	0.229427	0.342864
0	H	0.656722	0.259661	0.842252
0	H	0.854298	0.755938	0.657037
0	H	0.372505	0.706141	0.0983701
0	H	0.140662	0.206865	0.40208
0	H	0.640529	0.279529	0.90151
0	H	0.8721	0.77859	0.597813
0	H	0.290157	0.677676	0.11045
0	H	0.222536	0.177642	0.389692
0	H	0.722896	0.308086	0.889503
0	H	0.790328	0.807968	0.610261
0	H	0.35668	0.615981	0.102645
0	H	0.154921	0.116635	0.396718
0	H	0.656346	0.369718	0.897355
0	H	0.858061	0.868847	0.603233
0	H	0.474189	0.697826	0.134535
0	H	0.0397306	0.206366	0.365226
0	H	0.53885	0.28808	0.865251
0	H	0.97307	0.778468	0.634689
0	H	0.464075	0.609521	0.145912
0	H	0.0462637	0.117133	0.354683
0	H	0.549108	0.376512	0.854126
0	H	0.96687	0.867832	0.645043
0	H	0.467192	0.675925	0.175797
0	H	0.0457415	0.182226	0.324182
0	H	0.546	0.310497	0.824059
0	H	0.967286	0.803045	0.675685
0	H	0.100225	0.550615	0.156876
0	H	0.41006	0.0504148	0.342762
0	H	0.91299	0.435282	0.843175
0	H	0.603062	0.934972	0.657189
0	H	0.140051	0.4278	0.148325
0	H	0.370635	0.928037	0.351646
0	H	0.873343	0.558094	0.851655
0	H	0.642556	0.0573365	0.648193
0	H	0.155596	0.454807	0.188514
0	H	0.353428	0.954344	0.311516
0	H	0.857404	0.531072	0.811497
0	H	0.659437	0.0311732	0.688372
0	H	0.224512	0.449034	0.160773
0	H	0.285719	0.948839	0.339866
0	H	0.788746	0.536938	0.839371
0	H	0.72738	0.0365687	0.66014
0	H	0.138804	0.513441	0.102273
0	H	0.370854	0.0138809	0.397575
0	H	0.87432	0.47237	0.89778
0	H	0.64219	0.971348	0.602364
0	H	0.224422	0.539633	0.110483
0	H	0.285922	0.0419051	0.389284
0	H	0.788691	0.446264	0.889512
0	H	0.727176	0.943528	0.610657
0	H	0.15684	0.603094	0.108609
0	H	0.354813	0.103842	0.390967
0	H	0.856208	0.382734	0.891397
0	H	0.658415	0.881449	0.609019
0	H	0.256084	0.785496	0.178462
0	H	0.255368	0.286537	0.321312
0	H	0.757081	0.200397	0.821548
0	H	0.757681	0.698857	0.67869
0	H	0.212799	0.903133	0.173174
0	H	0.299246	0.40399	0.326809
0	H	0.800277	0.0827356	0.82688
0	H	0.713664	0.581431	0.673183
0	H	0.159242	0.864339	0.202555
0	H	0.351737	0.365237	0.297003
0	H	0.853829	0.121447	0.797476
0	H	0.661251	0.620243	0.703002
0	H	0.128855	0.876005	0.16231
0	H	0.383322	0.376324	0.337095
0	H	0.884249	0.109814	0.83772
0	H	0.629621	0.609214	0.662919
0	H	0.242255	0.828991	0.121494
0	H	0.270103	0.329625	0.378296
0	H	0.770982	0.156792	0.878519
0	H	0.742834	0.655727	0.621704
0	H	0.160161	0.790047	0.117928
0	H	0.352169	0.290456	0.381557
0	H	0.852953	0.195981	0.882099
0	H	0.660842	0.695043	0.618453
0	H	0.234901	0.737049	0.122551
0	H	0.277234	0.237683	0.377135
0	H	0.778059	0.248756	0.877449
0	H	0.735864	0.747689	0.622854
0	H	0.957198	0.713625	0.129458
0	H	0.554081	0.213891	0.369867
0	H	0.0560636	0.272077	0.87051
0	H	0.459062	0.771659	0.63011
0	H	0.969004	0.592151	0.106347
0	H	0.541659	0.0923752	0.39324
0	H	0.044634	0.393567	0.893566
0	H	0.471737	0.893164	0.606657
0	H	0.943836	0.590169	0.147309
0	H	0.56741	0.090495	0.352337
0	H	0.0693391	0.395576	0.85254
0	H	0.445545	0.895004	0.647497
0	H	0.0302598	0.569903	0.136491
0	H	0.480805	0.07026	0.362881
0	H	0.983041	0.415841	0.863571
0	H	0.532253	0.915311	0.637156
0	H	0.0349366	0.698942	0.0841236
0	H	0.477757	0.200525	0.415497
0	H	0.97838	0.287003	0.915874
0	H	0.535379	0.784928	0.584473
0	H	0.103198	0.667644	0.108617
0	H	0.408958	0.167855	0.391672
0	H	0.910069	0.31813	0.891355
0	H	0.604192	0.817613	0.608287
0	H	0.0767871	0.756497	0.111366
0	H	0.434434	0.256847	0.388223
0	H	0.93658	0.229301	0.888681
0	H	0.578673	0.728635	0.611765
0	H	0.0804227	0.86082	0.217263
0	H	0.430475	0.359794	0.282388
0	H	0.932654	0.125007	0.782752
0	H	0.582509	0.625801	0.717614
0	H	0.0348291	0.935122	0.263501
0	H	0.473693	0.433389	0.23582
0	H	0.978218	0.0507164	0.736488
0	H	0.539121	0.552168	0.764141
0	H	0.0349479	0.844156	0.271486
0	H	0.476518	0.342354	0.228062
0	H	0.977973	0.141674	0.728511
0	H	0.536397	0.643205	0.771929
0	H	0.956534	0.88797	0.262284
0	H	0.553516	0.388879	0.2371
0	H	0.0564477	0.097947	0.737663
0	H	0.459357	0.596783	0.762843
0	H	0.0430388	0.977587	0.203373
0	H	0.467454	0.476855	0.29592
0	H	0.96992	0.00818693	0.796568
0	H	0.545375	0.508733	0.704082
0	H	0.954177	0.956992	0.206131
0	H	0.5564	0.456677	0.293105
0	H	0.0587957	0.0286633	0.793778
0	H	0.456467	0.529109	0.706797
0	H	0.0037789	0.924142	0.173522
0	H	0.507134	0.423923	0.32585
0	H	0.009295	0.0614946	0.826427
0	H	0.505973	0.561756	0.674108
0	H	0.904567	0.772691	0.125196
0	H	0.606044	0.273309	0.374326
0	H	0.108949	0.213199	0.874748
0	H	0.406993	0.712376	0.625641
0	H	0.911625	0.890144	0.0999826
0	H	0.599045	0.391084	0.399287
0	H	0.102031	0.0956801	0.90002
0	H	0.414012	0.594607	0.600693
0	H	0.958275	0.89147	0.136916
0	H	0.552332	0.391823	0.362351
0	H	0.0548279	0.0946919	0.863246
0	H	0.460699	0.593853	0.637639
0	H	0.875631	0.931091	0.134221
0	H	0.634919	0.431592	0.364907
0	H	0.137342	0.0547109	0.865629
0	H	0.378115	0.554093	0.635067
0	H	0.803074	0.810855	0.0939237
0	H	0.707406	0.311797	0.405635
0	H	0.210461	0.175428	0.905945
0	H	0.305624	0.674263	0.594356
0	H	0.766942	0.854901	0.127058
0	H	0.743838	0.355162	0.372368
0	H	0.24619	0.130374	0.872998
0	H	0.269338	0.630305	0.627492
0	H	0.773457	0.76267	0.127353
0	H	0.737008	0.262977	0.372387
0	H	0.240341	0.22264	0.872266
0	H	0.275843	0.722504	0.627754
0	H	0.876873	0.866853	0.257705
0	H	0.632417	0.366273	0.241873
0	H	0.136106	0.119017	0.742193
0	H	0.380494	0.619383	0.758145
0	H	0.801576	0.918097	0.300996
0	H	0.705862	0.414703	0.197644
0	H	0.211189	0.0678906	0.698828
0	H	0.306674	0.570784	0.802267
0	H	0.770922	0.836442	0.287334
0	H	0.738229	0.334326	0.212031
0	H	0.242122	0.149383	0.712544
0	H	0.274743	0.651395	0.787941
0	H	0.729216	0.914623	0.274878
0	H	0.779276	0.41374	0.223186
0	H	0.283626	0.0710239	0.724906
0	H	0.233422	0.57222	0.776639
0	H	0.872196	0.995133	0.267184
0	H	0.637875	0.494283	0.231677
0	H	0.140819	0.990723	0.732628
0	H	0.375126	0.49141	0.768272
0	H	0.804843	0.00544402	0.238607
0	H	0.706028	0.504722	0.259837
0	H	0.208007	0.980354	0.761286
0	H	0.306814	0.480954	0.740205
0	H	0.887924	0.977052	0.225949
0	H	0.623011	0.477303	0.27308
0	H	0.124872	0.00880074	0.773839
0	H	0.389746	0.508343	0.726843
0	H	0.705955	0.888683	0.169024
0	H	0.804732	0.389774	0.329776
0	H	0.307143	0.0968177	0.830807
0	H	0.208377	0.595963	0.67015
0	H	0.738439	0.00940478	0.154863
0	H	0.771247	0.510651	0.343576
0	H	0.274378	0.976214	0.844975
0	H	0.241772	0.475045	0.65638
0	H	0.813656	0.957371	0.153866
0	H	0.697019	0.457322	0.345467
0	H	0.19918	0.0282985	0.845899
0	H	0.315997	0.528358	0.654459
0	H	0.799154	0.0149556	0.186694
0	H	0.70922	0.514394	0.312253
0	H	0.213789	0.970693	0.813094
0	H	0.303827	0.471301	0.687684
0	H	0.643923	0.985201	0.196065
0	H	0.865198	0.486406	0.302
0	H	0.368868	0.000144466	0.803675
0	H	0.147742	0.499448	0.697865
0	H	0.70405	0.987946	0.228344
0	H	0.804069	0.488121	0.270096
0	H	0.308703	0.997755	0.77141
0	H	0.208848	0.497466	0.729771
0	H	0.650253	0.91389	0.223023
0	H	0.85867	0.414616	0.275321
0	H	0.362726	0.0716134	0.776788
0	H	0.154365	0.571095	0.724614
0	H	0.703477	0.723063	0.161668
0	H	0.807013	0.223633	0.338131
0	H	0.309691	0.262591	0.83819
0	H	0.206058	0.761898	0.661789
0	H	0.580345	0.767729	0.162883
0	H	0.929811	0.268925	0.33698
0	H	0.432776	0.217747	0.836978
0	H	0.0832604	0.716681	0.662956
0	H	0.641505	0.833515	0.171318
0	H	0.868449	0.334325	0.328183
0	H	0.371528	0.152046	0.828523
0	H	0.144541	0.651271	0.671841
0	H	0.59252	0.796194	0.203064
0	H	0.917901	0.29671	0.296686
0	H	0.420553	0.189331	0.796786
0	H	0.0950754	0.689085	0.703281
0	H	0.604688	0.643592	0.171038
0	H	0.90643	0.144602	0.328843
0	H	0.408694	0.341905	0.828774
0	H	0.106843	0.841105	0.670948
0	H	0.608486	0.657484	0.213262
0	H	0.901863	0.157635	0.286585
0	H	0.404605	0.328127	0.786543
0	H	0.110981	0.828038	0.713205
0	H	0.676902	0.61393	0.193462
0	H	0.833948	0.114231	0.306847
0	H	0.336363	0.371697	0.806465
0	H	0.179137	0.871411	0.693106
0	H	0.741804	0.755779	0.279294
0	H	0.768505	0.254927	0.220373
0	H	0.271402	0.229897	0.720548
0	H	0.24444	0.730879	0.779575
0	H	0.67332	0.648467	0.293138
0	H	0.837244	0.147721	0.206747
0	H	0.339663	0.33725	0.706671
0	H	0.175562	0.838115	0.793114
0	H	0.744419	0.627554	0.268582
0	H	0.766316	0.126858	0.231426
0	H	0.268653	0.358111	0.731291
0	H	0.246635	0.858929	0.76851
0	H	0.659447	0.629495	0.251926
0	H	0.851357	0.129261	0.248003
0	H	0.353696	0.356258	0.747875
0	H	0.161668	0.856497	0.751845
0	H	0.613458	0.762355	0.289176
0	H	0.896059	0.263134	0.210235
0	H	0.39989	0.223621	0.710685
0	H	0.116692	0.722958	0.789615
0	H	0.596654	0.756794	0.247212
0	H	0.914065	0.25588	0.25203
0	H	0.416497	0.228855	0.752682
0	H	0.0990188	0.729622	0.747772
0	H	0.642055	0.829458	0.263242
0	H	0.868178	0.329145	0.236907
0	H	0.371178	0.156306	0.73649
0	H	0.144849	0.656612	0.763188
0	H	0.887333	0.592208	0.176342
0	H	0.623715	0.0930397	0.32426
0	H	0.125922	0.393524	0.823565
0	H	0.389353	0.892656	0.675688
0	H	0.796638	0.571906	0.134088
0	H	0.714956	0.0730346	0.366371
0	H	0.216654	0.413734	0.865843
0	H	0.29823	0.912621	0.633558
0	H	0.831375	0.656873	0.131538
0	H	0.679857	0.157876	0.368727
0	H	0.181775	0.328824	0.868377
0	H	0.333076	0.827664	0.631257
0	H	0.748089	0.643892	0.147807
0	H	0.763113	0.145041	0.352394
0	H	0.265089	0.341665	0.852127
0	H	0.249871	0.840817	0.647581
0	H	0.7966	0.505619	0.18758
0	H	0.713922	0.00569725	0.313258
0	H	0.216729	0.48005	0.812362
0	H	0.299066	0.979977	0.686669
0	H	0.73949	0.569441	0.202548
0	H	0.771433	0.0689781	0.298093
0	H	0.273798	0.416201	0.797386
0	H	0.241664	0.916682	0.701905
0	H	0.816453	0.549324	0.22415
0	H	0.694535	0.0488721	0.276481
0	H	0.196863	0.436394	0.775781
0	H	0.318616	0.936909	0.723456
0	H	0.878533	0.755818	0.284973
0	H	0.633242	0.254944	0.214815
0	H	0.134427	0.229822	0.714962
0	H	0.379857	0.730817	0.785147
0	H	0.960025	0.732139	0.329012
0	H	0.551606	0.231933	0.170713
0	H	0.0528586	0.253737	0.670945
0	H	0.461449	0.75394	0.829253
0	H	0.00935667	0.762047	0.295962
0	H	0.502561	0.262255	0.203779
0	H	0.00368684	0.223571	0.703992
0	H	0.510489	0.72352	0.7962
0	H	0.00751957	0.671896	0.30593
0	H	0.50366	0.172085	0.193786
0	H	0.00536078	0.313774	0.694132
0	H	0.509435	0.813715	0.806143
0	H	0.860106	0.646692	0.318727
0	H	0.651442	0.146327	0.180904
0	H	0.152893	0.338916	0.681205
0	H	0.361697	0.83955	0.819027
0	H	0.901508	0.595244	0.288904
0	H	0.609014	0.094655	0.210333
0	H	0.111511	0.390409	0.711018
0	H	0.403966	0.891138	0.789515
0	H	0.822692	0.638613	0.27979
0	H	0.688109	0.137039	0.219934
0	H	0.190338	0.347048	0.720138
0	H	0.32488	0.848618	0.780022
