#******************************************
#
# CIF file created by Zeo++
# Zeo++ is an open source package to
# analyze microporous materials
#
#*******************************************

_cell_length_a		17.891(0)
_cell_length_b		17.9314(0)
_cell_length_c		26.6127(0)
_cell_angle_alpha		90(0)
_cell_angle_beta		90(0)
_cell_angle_gamma		90(0)

_symmetry_space_group_name_H-M		'P1'
_symmetry_Int_Tables_number		1
_symmetry_cell_setting		Monoclinic

loop_
_symmetry_equiv_pos_as_xyz
'+x,+y,+z'

loop_
_atom_site_label
_atom_site_type_symbol
_atom_site_fract_x
_atom_site_fract_y
_atom_site_fract_z
0	C	0.606092	0.57248	0.188295
0	C	0.422041	0.453395	0.693165
0	C	0.952116	0.102461	0.941937
0	C	0.0759959	0.922386	0.441265
0	C	0.923545	0.0750154	0.577094
0	C	0.10367	0.95085	0.0762645
0	C	0.574442	0.604551	0.829701
0	C	0.45381	0.420985	0.325276
0	C	0.658338	0.512889	0.19298
0	C	0.369133	0.512472	0.697059
0	C	0.0116459	0.154564	0.947357
0	C	0.016648	0.869857	0.445351
0	C	0.870876	0.0158983	0.572856
0	C	0.155938	0.0101542	0.0707327
0	C	0.514733	0.656672	0.825018
0	C	0.512971	0.368139	0.321442
0	O	0.725921	0.53314	0.21267
0	O	0.301369	0.492007	0.716388
0	O	0.991543	0.221419	0.967894
0	O	0.0365917	0.8026	0.465333
0	O	0.803428	0.035806	0.55292
0	O	0.222977	0.990073	0.0503027
0	O	0.534986	0.724073	0.805195
0	O	0.492411	0.300527	0.302116
0	C	0.779532	0.474664	0.224571
0	C	0.247357	0.550404	0.727636
0	C	0.0496618	0.275307	0.979865
0	C	0.978415	0.748274	0.476231
0	C	0.749058	0.977801	0.541907
0	C	0.276992	0.0479861	0.0383122
0	C	0.476318	0.777472	0.793288
0	C	0.550959	0.246794	0.290592
0	H	0.82395	0.506976	0.243474
0	H	0.20305	0.518215	0.746757
0	H	0.0170695	0.318691	0.999591
0	H	0.0108017	0.704623	0.49584
0	H	0.70533	0.0101676	0.522293
0	H	0.320449	0.0154446	0.0185594
0	H	0.508626	0.821735	0.774269
0	H	0.518685	0.202728	0.271337
0	H	0.800019	0.449032	0.189724
0	H	0.227076	0.575371	0.692527
0	H	0.074419	0.296945	0.945085
0	H	0.954404	0.727333	0.441032
0	H	0.728027	0.953719	0.577058
0	H	0.298752	0.0727044	0.0730694
0	H	0.450685	0.798003	0.828133
0	H	0.576112	0.226334	0.325597
0	H	0.75466	0.433837	0.250074
0	H	0.271817	0.591767	0.752945
0	H	0.0914671	0.2506	0.00467974
0	H	0.936041	0.77235	0.500939
0	H	0.773252	0.935596	0.517154
0	H	0.252246	0.0897352	0.0135092
0	H	0.435373	0.752552	0.767855
0	H	0.592305	0.271443	0.265319
0	C	0.641756	0.440716	0.176678
0	C	0.385142	0.584536	0.680218
0	C	0.0839848	0.138641	0.930863
0	C	0.944654	0.885843	0.428141
0	C	0.886916	0.943872	0.589853
0	C	0.139952	0.0824975	0.0870653
0	C	0.442433	0.640302	0.841433
0	C	0.585204	0.384015	0.338292
0	H	0.682107	0.395608	0.181463
0	H	0.344151	0.629243	0.684277
0	H	0.129118	0.178894	0.936313
0	H	0.899525	0.845312	0.432409
0	H	0.846329	0.898939	0.585369
0	H	0.180278	0.127413	0.0814334
0	H	0.397259	0.680622	0.836634
0	H	0.629915	0.343012	0.334291
0	C	0.57146	0.428281	0.155353
0	C	0.455616	0.597367	0.659332
0	C	0.0965414	0.0691628	0.908617
0	C	0.932305	0.955925	0.406675
0	C	0.957105	0.931471	0.611285
0	C	0.0703485	0.0950971	0.109251
0	C	0.429921	0.570268	0.862894
0	C	0.598173	0.454385	0.359084
0	O	0.552208	0.359135	0.137109
0	O	0.474889	0.666245	0.640857
0	O	0.165577	0.0501944	0.890117
0	O	0.863712	0.975054	0.387516
0	O	0.97641	0.862901	0.630123
0	O	0.0511653	0.164022	0.12758
0	O	0.360683	0.551206	0.881313
0	O	0.667192	0.473513	0.377633
0	S	0.616378	0.299365	0.111968
0	S	0.411192	0.727738	0.61713
0	S	0.228309	0.114176	0.868396
0	S	0.801321	0.91169	0.364489
0	S	0.913145	0.799764	0.652315
0	S	0.115053	0.227895	0.147831
0	S	0.300457	0.615469	0.90589
0	S	0.729047	0.409792	0.400934
0	O	0.643228	0.335128	0.0666508
0	O	0.382966	0.693773	0.571635
0	O	0.196299	0.144517	0.822855
0	O	0.834339	0.882365	0.318947
0	O	0.883195	0.831649	0.69802
0	O	0.146988	0.197373	0.193335
0	O	0.335964	0.64286	0.95115
0	O	0.695314	0.381171	0.446395
0	O	0.670596	0.28303	0.150427
0	O	0.358104	0.744038	0.656306
0	O	0.24355	0.165675	0.908658
0	O	0.784851	0.859399	0.404038
0	O	0.861172	0.783835	0.612389
0	O	0.165372	0.242599	0.106748
0	O	0.284228	0.669042	0.867072
0	O	0.745244	0.357196	0.361501
0	C	0.553072	0.229546	0.0991549
0	C	0.475964	0.796577	0.605255
0	C	0.296732	0.0489122	0.856844
0	C	0.733188	0.977266	0.352803
0	C	0.979166	0.731911	0.663405
0	C	0.0491815	0.295757	0.159252
0	C	0.230485	0.552345	0.918757
0	C	0.798034	0.474413	0.41282
0	H	0.508373	0.226588	0.128899
0	H	0.519461	0.799052	0.635815
0	H	0.299307	0.00655039	0.887976
0	H	0.731195	0.0200031	0.383692
0	H	0.0208739	0.72928	0.631846
0	H	0.00759009	0.299012	0.127617
0	H	0.227584	0.507608	0.88911
0	H	0.80033	0.517965	0.382353
0	H	0.518724	0.243592	0.0647824
0	H	0.51174	0.781788	0.571727
0	H	0.281412	0.0125085	0.823923
0	H	0.748817	0.012997	0.319549
0	H	0.0163293	0.747952	0.695919
0	H	0.0117392	0.27969	0.191538
0	H	0.244499	0.51818	0.953206
0	H	0.783347	0.509953	0.446465
0	C	0.586844	0.152985	0.0926132
0	C	0.443744	0.873617	0.597836
0	C	0.373867	0.0806492	0.848965
0	C	0.655667	0.946345	0.345025
0	C	0.948343	0.654701	0.672244
0	C	0.0806779	0.372592	0.1683
0	C	0.15373	0.586026	0.925181
0	C	0.875299	0.442303	0.419991
0	C	0.666409	0.146001	0.0693748
0	C	0.364746	0.881406	0.573905
0	C	0.381329	0.157171	0.821754
0	C	0.647252	0.867787	0.320836
0	C	0.870041	0.646843	0.697182
0	C	0.156762	0.379599	0.196372
0	C	0.146564	0.665531	0.94822
0	C	0.883345	0.363336	0.443675
0	H	0.667437	0.157447	0.0284326
0	H	0.364679	0.869235	0.53316
0	H	0.370986	0.152856	0.780948
0	H	0.65995	0.86789	0.280214
0	H	0.870971	0.660343	0.737666
0	H	0.151381	0.368522	0.237025
0	H	0.158111	0.666831	0.989145
0	H	0.871241	0.362969	0.484422
0	H	0.707059	0.184866	0.0864323
0	H	0.323094	0.843452	0.590795
0	H	0.341606	0.199542	0.835687
0	H	0.684611	0.825645	0.337779
0	H	0.827504	0.683833	0.680314
0	H	0.199583	0.340209	0.182671
0	H	0.185354	0.706071	0.930995
0	H	0.845395	0.321818	0.426674
0	C	0.689227	0.0643283	0.0812713
0	C	0.342965	0.963573	0.585013
0	C	0.462695	0.181661	0.833572
0	C	0.564514	0.846952	0.331488
0	C	0.848828	0.564147	0.687451
0	C	0.181568	0.460981	0.1855
0	C	0.0646154	0.687993	0.93634
0	C	0.96574	0.341909	0.432425
0	H	0.703035	0.0327735	0.0470591
0	H	0.329704	0.994693	0.550583
0	H	0.494949	0.192791	0.799174
0	H	0.533523	0.834512	0.296788
0	H	0.837041	0.53392	0.722508
0	H	0.191923	0.492498	0.220279
0	H	0.0329885	0.70173	0.970552
0	H	0.997054	0.32866	0.466794
0	H	0.739968	0.0623762	0.105436
0	H	0.292051	0.966536	0.609
0	H	0.463731	0.234174	0.85582
0	H	0.560771	0.79594	0.35518
0	H	0.797306	0.559986	0.664206
0	H	0.234626	0.462467	0.163755
0	H	0.0624722	0.738559	0.912131
0	H	0.968761	0.291196	0.40836
0	C	0.620345	0.0320634	0.109151
0	C	0.412067	0.995441	0.612857
0	C	0.494832	0.115718	0.86449
0	C	0.533119	0.915945	0.359596
0	C	0.917434	0.532217	0.659058
0	C	0.11609	0.493601	0.154278
0	C	0.0324406	0.619085	0.908564
0	C	0.997424	0.411045	0.404655
0	H	0.631852	0.981813	0.131198
0	H	0.401165	0.0463801	0.634326
0	H	0.54524	0.129187	0.886203
0	H	0.481593	0.90542	0.380875
0	H	0.906371	0.480463	0.638341
0	H	0.130047	0.544271	0.133169
0	H	0.981972	0.630235	0.886476
0	H	0.0485015	0.400521	0.383035
0	C	0.557987	0.0228054	0.0691893
0	C	0.474989	0.00278262	0.573086
0	C	0.504479	0.0495387	0.827504
0	C	0.526637	0.979391	0.320204
0	C	0.981792	0.526411	0.697949
0	C	0.0489052	0.502431	0.190698
0	C	0.0233004	0.556989	0.948649
0	C	0.00480793	0.473624	0.444595
0	H	0.576901	0.992908	0.0354039
0	H	0.456657	0.0316091	0.538741
0	H	0.534125	0.0651566	0.792793
0	H	0.497345	0.962094	0.285702
0	H	0.965073	0.497886	0.732865
0	H	0.0638121	0.531311	0.225837
0	H	0.993183	0.575969	0.982375
0	H	0.0339755	0.455155	0.478816
0	H	0.509191	0.991909	0.083664
0	H	0.523873	0.0338874	0.587239
0	H	0.53667	0.00294489	0.843989
0	H	0.495661	0.0282667	0.334659
0	H	0.0304467	0.495177	0.683336
0	H	0.0025732	0.53487	0.174044
0	H	0.992481	0.50815	0.934224
0	H	0.0357923	0.522572	0.43048
0	C	0.537968	0.103255	0.0574997
0	C	0.494507	0.921753	0.562853
0	C	0.423936	0.027413	0.817163
0	C	0.60812	0.997898	0.310233
0	C	0.000807149	0.607949	0.706978
0	C	0.0264417	0.421825	0.200012
0	C	0.103954	0.537372	0.960413
0	C	0.923614	0.492804	0.455063
0	O	0.493576	0.125656	0.0269741
0	O	0.540297	0.897698	0.533869
0	O	0.401716	0.978417	0.790055
0	O	0.632906	0.0436207	0.281528
0	O	0.0473335	0.633137	0.734797
0	O	0.976684	0.399039	0.226232
0	O	0.12655	0.493353	0.991147
0	O	0.899507	0.538172	0.48428
0	C	0.591852	0.100975	0.140873
0	C	0.43912	0.926865	0.645505
0	C	0.425451	0.0905861	0.897144
0	C	0.601947	0.941946	0.392511
0	C	0.94294	0.600178	0.625289
0	C	0.091625	0.425075	0.120724
0	C	0.101593	0.5907	0.876901
0	C	0.928492	0.438067	0.372206
0	C	0.647289	0.127089	0.180411
0	C	0.383005	0.902695	0.685193
0	C	0.398394	0.149794	0.933758
0	C	0.62563	0.885381	0.431909
0	C	0.88554	0.623144	0.586153
0	C	0.151643	0.398789	0.0843695
0	C	0.127589	0.645935	0.837262
0	C	0.904233	0.382254	0.332429
0	H	0.703727	0.137536	0.16592
0	H	0.325751	0.8967	0.67113
0	H	0.379983	0.201702	0.915965
0	H	0.630757	0.828282	0.417696
0	H	0.828421	0.627442	0.600668
0	H	0.203885	0.381563	0.102375
0	H	0.137168	0.702487	0.851552
0	H	0.898835	0.32497	0.346294
0	H	0.652676	0.085628	0.210731
0	H	0.380987	0.942954	0.716416
0	H	0.442629	0.164282	0.960778
0	H	0.585372	0.883696	0.463176
0	H	0.884009	0.583002	0.554885
0	H	0.165533	0.442905	0.0571938
0	H	0.086368	0.650556	0.80669
0	H	0.944159	0.380818	0.300954
0	H	0.629601	0.1794	0.198316
0	H	0.397648	0.848567	0.701868
0	H	0.350698	0.130224	0.956149
0	H	0.680112	0.899182	0.448513
0	H	0.898491	0.677691	0.569524
0	H	0.132989	0.350669	0.0621215
0	H	0.180437	0.628747	0.819722
0	H	0.849672	0.396588	0.316111
0	C	0.516336	0.0871222	0.166004
0	C	0.514738	0.939972	0.670682
0	C	0.438837	0.0183198	0.926099
0	C	0.589476	0.0171573	0.418097
0	C	0.0178352	0.587187	0.599166
0	C	0.0197557	0.438987	0.0912362
0	C	0.0878454	0.515232	0.851918
0	C	0.941431	0.513688	0.347216
0	H	0.517734	0.0354961	0.188034
0	H	0.514598	0.99258	0.691627
0	H	0.484658	0.0256787	0.953135
0	H	0.536664	0.017262	0.438924
0	H	0.017377	0.534253	0.578628
0	H	0.0277084	0.485048	0.0645396
0	H	0.0359112	0.516257	0.830084
0	H	0.994303	0.513926	0.326442
0	H	0.469028	0.0835956	0.13999
0	H	0.562488	0.941066	0.644886
0	H	0.451638	0.970047	0.902643
0	H	0.588931	0.0649955	0.392638
0	H	0.0662872	0.586927	0.624213
0	H	0.970908	0.451388	0.114347
0	H	0.084798	0.468075	0.877983
0	H	0.942098	0.561215	0.3731
0	H	0.501414	0.131612	0.192879
0	H	0.528229	0.896319	0.698527
0	H	0.389921	0.00173886	0.948803
0	H	0.633262	0.0298713	0.446049
0	H	0.0300725	0.63049	0.570838
0	H	0.00355966	0.390491	0.0680976
0	H	0.132287	0.50048	0.824899
0	H	0.897804	0.527059	0.319265
0	C	0.516246	0.484091	0.151754
0	C	0.511398	0.541985	0.65637
0	C	0.0406728	0.0140539	0.904043
0	C	0.987965	0.0115026	0.403682
0	C	0.0127426	0.987046	0.614556
0	C	0.0151767	0.0393192	0.114027
0	C	0.485813	0.515111	0.866482
0	C	0.542771	0.510158	0.361894
0	C	0.535381	0.555454	0.169385
0	C	0.492819	0.470803	0.674465
0	C	0.969201	0.0326469	0.921756
0	C	0.0589572	0.992829	0.422106
0	C	0.994061	0.0579207	0.596347
0	C	0.0337388	0.968039	0.0964435
0	C	0.557326	0.534069	0.848732
0	C	0.471383	0.491655	0.343835
0	H	0.49323	0.599472	0.167891
0	H	0.535424	0.427186	0.673561
0	H	0.924901	0.991032	0.919427
0	H	0.102975	0.0349353	0.42108
0	H	0.0362865	0.101886	0.597574
0	H	0.992011	0.923787	0.0989002
0	H	0.601385	0.491964	0.850228
0	H	0.427745	0.53424	0.344652
0	C	0.440409	0.462918	0.130375
0	C	0.587134	0.563551	0.635045
0	C	0.0625256	0.939288	0.881818
0	C	0.966617	0.0868261	0.38216
0	C	0.0882301	0.965535	0.636145
0	C	0.94025	0.0613155	0.136313
0	C	0.464457	0.43952	0.887935
0	C	0.56456	0.585794	0.383035
0	H	0.451527	0.429595	0.0950656
0	H	0.575906	0.596698	0.599674
0	H	0.0957776	0.951407	0.846588
0	H	0.933221	0.0755117	0.34688
0	H	0.0767281	0.932293	0.671419
0	H	0.952549	0.0944462	0.17153
0	H	0.431066	0.450714	0.923231
0	H	0.597777	0.57471	0.418427
0	C	0.392695	0.530995	0.115473
0	C	0.635301	0.495734	0.620332
0	C	0.994843	0.891327	0.86653
0	C	0.0344527	0.134714	0.367055
0	C	0.136428	0.0330435	0.651242
0	C	0.892053	0.993935	0.151621
0	C	0.532583	0.391786	0.902845
0	C	0.496619	0.633958	0.397676
0	H	0.427014	0.56864	0.0919136
0	H	0.601175	0.457595	0.597008
0	H	0.95668	0.92586	0.843469
0	H	0.073254	0.0998675	0.344727
0	H	0.101638	0.0719052	0.673549
0	H	0.926615	0.955677	0.174571
0	H	0.570385	0.426022	0.926382
0	H	0.458207	0.599928	0.420866
0	H	0.377305	0.563058	0.149481
0	H	0.65105	0.464044	0.654423
0	H	0.963083	0.874661	0.900413
0	H	0.0653847	0.152192	0.401092
0	H	0.154084	0.0638165	0.61721
0	H	0.875128	0.962371	0.117728
0	H	0.564697	0.376408	0.868826
0	H	0.465059	0.64983	0.363533
0	C	0.320442	0.51018	0.0868852
0	C	0.707156	0.516829	0.591472
0	C	0.0161278	0.820447	0.836844
0	C	0.013498	0.204886	0.336474
0	C	0.20669	0.0120364	0.68188
0	C	0.821165	0.0153145	0.181445
0	C	0.511717	0.319907	0.93147
0	C	0.517813	0.705509	0.426661
0	H	0.285482	0.474652	0.112727
0	H	0.741792	0.553662	0.616777
0	H	0.0520867	0.784831	0.862104
0	H	0.976634	0.240746	0.36093
0	H	0.242678	0.975279	0.65738
0	H	0.785402	0.0511149	0.156193
0	H	0.475866	0.284971	0.905657
0	H	0.554908	0.740042	0.401474
0	C	0.276003	0.580612	0.0733587
0	C	0.752671	0.446634	0.579061
0	C	0.946212	0.77552	0.822766
0	C	0.0837809	0.249984	0.323116
0	C	0.251799	0.0818386	0.695539
0	C	0.776211	0.945704	0.19577
0	C	0.582124	0.275182	0.944876
0	C	0.447436	0.751098	0.43898
0	H	0.222722	0.56564	0.0554597
0	H	0.805633	0.461696	0.560858
0	H	0.961959	0.722325	0.80533
0	H	0.0683366	0.302831	0.305061
0	H	0.304743	0.0664048	0.713559
0	H	0.722999	0.961509	0.213385
0	H	0.567103	0.222037	0.962611
0	H	0.462701	0.803921	0.457152
0	H	0.306332	0.615492	0.0462747
0	H	0.72276	0.41026	0.552713
0	H	0.911619	0.805222	0.795195
0	H	0.119314	0.220039	0.296298
0	H	0.221726	0.117194	0.722469
0	H	0.806178	0.911179	0.223246
0	H	0.617185	0.305375	0.972061
0	H	0.410921	0.721395	0.465347
0	H	0.262959	0.61535	0.106155
0	H	0.766275	0.413272	0.612413
0	H	0.910789	0.762612	0.85532
0	H	0.118066	0.263516	0.356091
0	H	0.265495	0.116433	0.662744
0	H	0.762925	0.910257	0.163315
0	H	0.616986	0.262419	0.912035
0	H	0.414123	0.764719	0.405584
0	C	0.336192	0.466225	0.0386808
0	C	0.690811	0.559243	0.542719
0	C	0.0603467	0.838755	0.789137
0	C	0.970969	0.185822	0.288276
0	C	0.187348	0.969252	0.729927
0	C	0.839837	0.0596128	0.229026
0	C	0.467712	0.335536	0.979708
0	C	0.560008	0.689008	0.475484
0	H	0.284155	0.451795	0.0191646
0	H	0.742644	0.57261	0.522639
0	H	0.076247	0.788002	0.768692
0	H	0.956171	0.23623	0.267133
0	H	0.237762	0.954146	0.751063
0	H	0.789112	0.0756734	0.249517
0	H	0.452997	0.283627	0.999136
0	H	0.573637	0.740654	0.495577
0	H	0.365277	0.413554	0.0469397
0	H	0.662032	0.612277	0.550364
0	H	0.112328	0.868626	0.798478
0	H	0.918453	0.156523	0.297016
0	H	0.157713	0.917045	0.72103
0	H	0.869875	0.111344	0.219497
0	H	0.415094	0.364905	0.971514
0	H	0.613009	0.659977	0.467935
0	H	0.371281	0.497704	0.0124883
0	H	0.655302	0.526981	0.517226
0	H	0.0285596	0.874265	0.763458
0	H	0.00335427	0.149768	0.263308
0	H	0.151314	0.00156278	0.754951
0	H	0.875496	0.0279435	0.254646
0	H	0.499526	0.370282	0.00594085
0	H	0.527374	0.653766	0.500924
0	C	0.401323	0.411699	0.167372
0	C	0.625881	0.615025	0.672019
0	C	0.114401	0.900075	0.918388
0	C	0.914986	0.125783	0.419036
0	C	0.127087	0.913875	0.599291
0	C	0.901073	0.113166	0.0997542
0	C	0.412998	0.400612	0.850968
0	C	0.616249	0.624227	0.346005
0	C	0.371779	0.341759	0.151954
0	C	0.655149	0.685023	0.656557
0	C	0.184933	0.871445	0.90313
0	C	0.844705	0.154618	0.403431
0	C	0.155778	0.84366	0.614897
0	C	0.872569	0.183628	0.115034
0	C	0.342917	0.371073	0.866392
0	C	0.686336	0.653606	0.361484
0	O	0.377083	0.32703	0.101326
0	O	0.649709	0.699675	0.605915
0	O	0.200217	0.87757	0.852612
0	O	0.830236	0.148537	0.35279
0	O	0.1495	0.829149	0.665523
0	O	0.878878	0.198931	0.165531
0	O	0.328238	0.376141	0.917039
0	O	0.700866	0.648516	0.412163
0	C	0.339813	0.2606	0.0823294
0	C	0.687108	0.766103	0.587036
0	C	0.267545	0.84148	0.833692
0	C	0.763213	0.184415	0.333412
0	C	0.185118	0.762067	0.684886
0	C	0.843087	0.266333	0.184444
0	C	0.26173	0.338751	0.935972
0	C	0.767304	0.686151	0.431012
0	H	0.356193	0.260862	0.0426011
0	H	0.670677	0.766255	0.54736
0	H	0.265909	0.856199	0.793683
0	H	0.764046	0.16756	0.293747
0	H	0.167981	0.762783	0.724504
0	H	0.857844	0.264649	0.224456
0	H	0.262263	0.354485	0.975805
0	H	0.767264	0.670186	0.47077
0	H	0.278864	0.26657	0.0866285
0	H	0.748033	0.759827	0.5913
0	H	0.263772	0.780748	0.839267
0	H	0.76811	0.245345	0.337519
0	H	0.246222	0.766741	0.68093
0	H	0.782208	0.262896	0.178878
0	H	0.267544	0.278	0.931202
0	H	0.760955	0.746882	0.426404
0	H	0.360006	0.210469	0.101525
0	H	0.667108	0.81617	0.606437
0	H	0.317466	0.864187	0.851923
0	H	0.713143	0.163599	0.352465
0	H	0.164189	0.712249	0.665703
0	H	0.866143	0.31602	0.166225
0	H	0.211418	0.359279	0.917027
0	H	0.817599	0.666017	0.411828
0	C	0.341345	0.291456	0.186511
0	C	0.685518	0.735468	0.691042
0	C	0.235258	0.841121	0.937786
0	C	0.793966	0.185063	0.437739
0	C	0.18617	0.792978	0.580591
0	C	0.842218	0.233864	0.080377
0	C	0.292404	0.340857	0.831827
0	C	0.736995	0.683728	0.327001
0	H	0.319839	0.237421	0.174394
0	H	0.706744	0.789559	0.678851
0	H	0.289742	0.820304	0.925759
0	H	0.739613	0.205859	0.425526
0	H	0.206906	0.738679	0.592806
0	H	0.821445	0.288264	0.0924302
0	H	0.238243	0.31937	0.843965
0	H	0.791151	0.704996	0.339195
0	C	0.343006	0.31105	0.237444
0	C	0.68433	0.715926	0.741995
0	C	0.215181	0.841503	0.988656
0	C	0.813553	0.184641	0.488717
0	C	0.185844	0.81254	0.529623
0	C	0.842525	0.213837	0.0295153
0	C	0.31193	0.342619	0.780891
0	C	0.717568	0.68234	0.276033
0	O	0.311847	0.263324	0.272485
0	O	0.71578	0.76361	0.776928
0	O	0.262542	0.809252	0.0234653
0	O	0.765753	0.217081	0.523269
0	O	0.218309	0.764838	0.495063
0	O	0.810211	0.261121	0.994726
0	O	0.264163	0.311512	0.745835
0	O	0.765314	0.713866	0.241114
0	S	0.343857	0.173591	0.278257
0	S	0.684523	0.853665	0.78265
0	S	0.352015	0.841843	0.0312525
0	S	0.676131	0.184808	0.530621
0	S	0.185859	0.675505	0.487626
0	S	0.843036	0.350314	0.986872
0	S	0.174304	0.343521	0.739714
0	S	0.855596	0.682893	0.235225
0	O	0.410227	0.164107	0.248184
0	O	0.61801	0.863301	0.752769
0	O	0.362053	0.908106	0.0014252
0	O	0.666313	0.118138	0.501053
0	O	0.119042	0.665656	0.51717
0	O	0.909446	0.360272	0.0167213
0	O	0.164428	0.409596	0.769848
0	O	0.865575	0.616583	0.265112
0	O	0.350601	0.164793	0.332055
0	O	0.678316	0.86248	0.836476
0	O	0.357923	0.848619	0.0852423
0	O	0.669505	0.178796	0.584609
0	O	0.179787	0.669018	0.433623
0	O	0.849923	0.356068	0.932881
0	O	0.166003	0.350473	0.685872
0	O	0.864261	0.676683	0.181385
0	C	0.267548	0.124767	0.255814
0	C	0.761048	0.902136	0.76006
0	C	0.4036	0.766695	0.0101855
0	C	0.624869	0.259968	0.508808
0	C	0.261222	0.624325	0.50934
0	C	0.767728	0.401901	0.00781035
0	C	0.125304	0.267156	0.761731
0	C	0.904116	0.759409	0.25766
0	H	0.22244	0.120464	0.284774
0	H	0.806119	0.906343	0.789083
0	H	0.409089	0.722751	0.0397341
0	H	0.618662	0.303879	0.538383
0	H	0.305144	0.618111	0.479706
0	H	0.723751	0.40735	0.978206
0	H	0.120695	0.222665	0.732433
0	H	0.908634	0.804048	0.228447
0	H	0.236042	0.156252	0.225309
0	H	0.792457	0.870415	0.72965
0	H	0.373312	0.733319	0.979947
0	H	0.655921	0.293232	0.478956
0	H	0.294693	0.655309	0.539134
0	H	0.734136	0.371821	0.0380365
0	H	0.157018	0.235089	0.79187
0	H	0.87213	0.791165	0.287787
0	C	0.286538	0.0479931	0.236568
0	C	0.742543	0.978962	0.740662
0	C	0.480178	0.78684	0.990767
0	C	0.548773	0.239509	0.488608
0	C	0.240828	0.548398	0.529579
0	C	0.787939	0.478339	0.0271685
0	C	0.0485477	0.285873	0.781412
0	C	0.980946	0.741085	0.277415
0	C	0.354272	0.00763459	0.261199
0	C	0.675412	0.0199914	0.765615
0	C	0.520548	0.854093	0.0158356
0	C	0.508759	0.171484	0.513225
0	C	0.172771	0.508341	0.50491
0	C	0.855315	0.518504	0.00196347
0	C	0.00765444	0.353449	0.757119
0	C	0.0224382	0.674161	0.252692
0	H	0.408042	0.0291652	0.246841
0	H	0.621215	0.998815	0.751761
0	H	0.49808	0.907844	0.0022951
0	H	0.532005	0.118048	0.499528
0	H	0.119135	0.531448	0.518524
0	H	0.909204	0.496105	0.0154859
0	H	0.0293082	0.407103	0.771469
0	H	0.00108171	0.620065	0.266421
0	H	0.354609	0.0147372	0.302353
0	H	0.675708	0.0130789	0.806797
0	H	0.513877	0.853254	0.0570231
0	H	0.515033	0.171919	0.554443
0	H	0.173311	0.514562	0.463694
0	H	0.854382	0.511703	0.960785
0	H	0.0143661	0.353986	0.715929
0	H	0.0159241	0.674482	0.211481
0	C	0.342658	0.924532	0.246915
0	C	0.687409	0.102956	0.75111
0	C	0.603767	0.84362	0.000944442
0	C	0.425651	0.181005	0.497822
0	C	0.182429	0.425445	0.520352
0	C	0.844895	0.601591	0.0167325
0	C	0.924584	0.341604	0.771824
0	C	0.105397	0.686237	0.267624
0	H	0.390325	0.901619	0.225864
0	H	0.639539	0.126261	0.730483
0	H	0.62596	0.891752	0.980074
0	H	0.404219	0.132616	0.476825
0	H	0.133932	0.403979	0.541308
0	H	0.893199	0.623818	0.0374974
0	H	0.901781	0.389037	0.793103
0	H	0.128489	0.638545	0.288489
0	H	0.336084	0.889232	0.280483
0	H	0.695002	0.138287	0.784599
0	H	0.639829	0.836722	0.0341457
0	H	0.389088	0.187366	0.530817
0	H	0.18893	0.388965	0.487364
0	H	0.837866	0.637424	0.983469
0	H	0.8888	0.33515	0.738447
0	H	0.141234	0.693677	0.234323
0	C	0.270348	0.925544	0.214598
0	C	0.759162	0.101229	0.718278
0	C	0.602906	0.772187	0.967922
0	C	0.426091	0.252591	0.464983
0	C	0.254104	0.426026	0.553248
0	C	0.773402	0.600858	0.0498516
0	C	0.926116	0.269322	0.804003
0	C	0.103254	0.757945	0.300334
0	H	0.243	0.871175	0.210602
0	H	0.78687	0.155342	0.713867
0	H	0.657533	0.745481	0.963368
0	H	0.371179	0.278657	0.460007
0	H	0.280336	0.371306	0.558271
0	H	0.746667	0.655397	0.0543701
0	H	0.871684	0.241861	0.808225
0	H	0.157433	0.785747	0.304922
0	C	0.29187	0.962746	0.164118
0	C	0.736684	0.0638321	0.668027
0	C	0.564887	0.794542	0.91787
0	C	0.465292	0.231059	0.415159
0	C	0.232388	0.465146	0.60304
0	C	0.795908	0.563031	0.0999224
0	C	0.963888	0.290756	0.854308
0	C	0.0653509	0.735579	0.350435
0	H	0.342041	0.93732	0.146383
0	H	0.686395	0.0892714	0.650535
0	H	0.58965	0.845102	0.900378
0	H	0.441447	0.180295	0.397413
0	H	0.181517	0.441271	0.620759
0	H	0.84664	0.587775	0.117329
0	H	0.938527	0.340732	0.872211
0	H	0.0907617	0.685475	0.368099
0	H	0.24858	0.956082	0.134647
0	H	0.77963	0.0699636	0.638261
0	H	0.571526	0.752003	0.887981
0	H	0.458662	0.273751	0.385326
0	H	0.275168	0.458653	0.632893
0	H	0.753324	0.569746	0.129837
0	H	0.957612	0.247505	0.883759
0	H	0.0711598	0.7785	0.38017
0	C	0.302735	0.0434904	0.17898
0	C	0.725644	0.983226	0.683204
0	C	0.483774	0.804202	0.933238
0	C	0.546194	0.222266	0.431144
0	C	0.223397	0.546011	0.587103
0	C	0.8055	0.482177	0.0845889
0	C	0.0446672	0.301805	0.839086
0	C	0.984582	0.724361	0.334979
0	O	0.31955	0.0950178	0.151967
0	O	0.708163	0.931638	0.656402
0	O	0.431701	0.820498	0.9067
0	O	0.598812	0.206111	0.404825
0	O	0.207068	0.598206	0.613225
0	O	0.822051	0.430062	0.111237
0	O	0.0965439	0.318418	0.865877
0	O	0.932869	0.707038	0.361486
0	C	0.222035	0.987598	0.241291
0	C	0.80742	0.0390818	0.74495
0	C	0.541458	0.722828	0.994437
0	C	0.486512	0.302652	0.492002
0	C	0.304223	0.486375	0.526244
0	C	0.723829	0.539508	0.0234605
0	C	0.988126	0.221345	0.776933
0	C	0.0411368	0.805935	0.27336
0	C	0.200312	0.969582	0.295382
0	C	0.829312	0.0570005	0.799042
0	C	0.560553	0.699978	0.0480947
0	C	0.466974	0.325042	0.545756
0	C	0.326589	0.467037	0.472468
0	C	0.70092	0.558229	0.969745
0	C	0.969318	0.199509	0.722983
0	C	0.0596254	0.827788	0.219356
0	H	0.243532	0.93858	0.316191
0	H	0.785849	0.0872159	0.820167
0	H	0.592349	0.742606	0.0688145
0	H	0.437714	0.281287	0.567149
0	H	0.282924	0.437439	0.451149
0	H	0.7437	0.589716	0.948916
0	H	0.939106	0.24304	0.702041
0	H	0.089794	0.784298	0.198305
0	H	0.148758	0.935584	0.296774
0	H	0.880327	0.0916655	0.800491
0	H	0.594579	0.6485	0.0488302
0	H	0.430789	0.375049	0.546434
0	H	0.377031	0.431351	0.471705
0	H	0.649411	0.592295	0.968915
0	H	0.934177	0.148766	0.722004
0	H	0.0946785	0.878504	0.218095
0	H	0.188665	0.0203913	0.316841
0	H	0.841829	0.00616358	0.820244
0	H	0.509983	0.688389	0.0699641
0	H	0.517321	0.339642	0.567064
0	H	0.340714	0.517354	0.451112
0	H	0.689193	0.507631	0.94805
0	H	0.0198881	0.186561	0.701502
0	H	0.0089193	0.840531	0.197982
0	C	0.151362	0.009032	0.212712
0	C	0.878048	0.0179086	0.716275
0	C	0.519897	0.652852	0.965349
0	C	0.506221	0.373264	0.46295
0	C	0.374976	0.506043	0.55532
0	C	0.653668	0.518307	0.0526138
0	C	0.0104373	0.15089	0.805334
0	C	0.0192514	0.876317	0.301913
0	H	0.161874	0.0289492	0.174372
0	H	0.867885	0.00217136	0.677013
0	H	0.500205	0.663907	0.927052
0	H	0.521606	0.363209	0.423598
0	H	0.364841	0.52101	0.594733
0	H	0.664739	0.498697	0.0909109
0	H	0.030497	0.161334	0.843678
0	H	0.00233607	0.866059	0.340962
0	H	0.120752	0.0540076	0.231533
0	H	0.906627	0.970152	0.733479
0	H	0.473988	0.622685	0.983815
0	H	0.554041	0.402598	0.479773
0	H	0.404083	0.554097	0.5387
0	H	0.623188	0.472619	0.0341936
0	H	0.0558611	0.120979	0.786396
0	H	0.971924	0.905016	0.284176
0	H	0.113008	0.960963	0.209453
0	H	0.917965	0.0649899	0.715579
0	H	0.567668	0.614067	0.962123
0	H	0.458375	0.4124	0.462452
0	H	0.41435	0.458447	0.555578
0	H	0.615057	0.56617	0.0558271
0	H	0.962742	0.112062	0.808626
0	H	0.0664347	0.916094	0.303296
0	C	0.371753	0.37924	0.254686
0	C	0.655817	0.647601	0.75922
0	C	0.146517	0.869615	0.0057309
0	C	0.881928	0.156245	0.506134
0	C	0.157467	0.880788	0.51218
0	C	0.870623	0.145298	0.012406
0	C	0.380267	0.371379	0.763647
0	C	0.649182	0.653741	0.258794
0	C	0.399304	0.429103	0.218451
0	C	0.628205	0.597647	0.723069
0	C	0.0967252	0.897284	0.96941
0	C	0.932054	0.128303	0.470145
0	C	0.129619	0.930894	0.548178
0	C	0.898253	0.0955573	0.0487287
0	C	0.430305	0.398758	0.799872
0	C	0.599043	0.62621	0.294916
0	H	0.422225	0.482451	0.231083
0	H	0.605583	0.544216	0.735767
0	H	0.0430346	0.919659	0.981961
0	H	0.985487	0.105581	0.483014
0	H	0.106939	0.984241	0.535294
0	H	0.920611	0.0419581	0.036167
0	H	0.483755	0.421628	0.787216
0	H	0.545568	0.603497	0.282175
0	C	0.631621	0.650109	0.203179
0	C	0.397352	0.375535	0.708015
0	C	0.874078	0.126868	0.956995
0	C	0.153934	0.898014	0.456507
0	C	0.899324	0.152844	0.561799
0	C	0.127937	0.872932	0.0611292
0	C	0.652243	0.630043	0.814816
0	C	0.375809	0.396354	0.310338
0	H	0.685619	0.660196	0.182049
0	H	0.343181	0.365168	0.687108
0	H	0.86297	0.180307	0.935449
0	H	0.16478	0.844038	0.435565
0	H	0.845365	0.163994	0.582808
0	H	0.18136	0.861563	0.0827294
0	H	0.662227	0.683969	0.83594
0	H	0.36547	0.342243	0.331215
0	C	0.576983	0.713063	0.188754
0	C	0.452343	0.313266	0.692756
0	C	0.811524	0.0712658	0.943165
0	C	0.216438	0.953106	0.441716
0	C	0.954936	0.214999	0.576323
0	C	0.0718578	0.810715	0.0747213
0	C	0.715506	0.57575	0.829269
0	C	0.313246	0.45109	0.325544
0	H	0.550309	0.700684	0.152203
0	H	0.477796	0.32624	0.655898
0	H	0.824065	0.0440801	0.906849
0	H	0.203087	0.97973	0.405285
0	H	0.981466	0.201941	0.612846
0	H	0.0446974	0.823052	0.11111
0	H	0.702794	0.548529	0.865574
0	H	0.326516	0.47709	0.362171
0	H	0.530946	0.715537	0.216456
0	H	0.499104	0.310975	0.71988
0	H	0.809514	0.025734	0.971083
0	H	0.219294	0.998957	0.469345
0	H	0.000959767	0.217251	0.548715
0	H	0.0261946	0.809271	0.0467897
0	H	0.718639	0.530192	0.801317
0	H	0.31039	0.497342	0.298138
0	C	0.616019	0.789932	0.186073
0	C	0.413668	0.236288	0.690001
0	C	0.734362	0.109882	0.940017
0	C	0.293338	0.914096	0.437838
0	C	0.916339	0.292026	0.579758
0	C	0.110072	0.733473	0.0775222
0	C	0.792277	0.615211	0.832634
0	C	0.236388	0.412029	0.32893
0	H	0.648457	0.798359	0.221744
0	H	0.379412	0.228555	0.724972
0	H	0.725483	0.143031	0.975485
0	H	0.302123	0.879974	0.472759
0	H	0.882196	0.300575	0.544769
0	H	0.143262	0.724776	0.0420188
0	H	0.800976	0.647864	0.797123
0	H	0.228494	0.377433	0.294161
0	C	0.557107	0.851881	0.181778
0	C	0.472562	0.174063	0.687706
0	C	0.672087	0.0514729	0.93637
0	C	0.355888	0.972376	0.43458
0	C	0.975174	0.354087	0.58261
0	C	0.0510225	0.671679	0.0808166
0	C	0.854643	0.556852	0.837213
0	C	0.173593	0.470292	0.331358
0	H	0.522727	0.855427	0.215732
0	H	0.503703	0.169937	0.723045
0	H	0.667171	0.019729	0.97134
0	H	0.362212	0.00216454	0.470192
0	H	0.00592438	0.358899	0.547206
0	H	0.0185647	0.668163	0.0460438
0	H	0.860077	0.523863	0.802788
0	H	0.167678	0.499843	0.295539
0	H	0.519229	0.842418	0.149996
0	H	0.513187	0.183544	0.657512
0	H	0.681941	0.0115791	0.905911
0	H	0.345145	0.0138243	0.405246
0	H	0.0159734	0.344117	0.612563
0	H	0.0116908	0.680963	0.11175
0	H	0.844207	0.517813	0.868159
0	H	0.183988	0.51213	0.360577
0	H	0.583331	0.906542	0.17607
0	H	0.446522	0.119574	0.68069
0	H	0.617567	0.0776537	0.92921
0	H	0.409961	0.946277	0.425867
0	H	0.94923	0.408499	0.59014
0	H	0.0769755	0.616925	0.086951
0	H	0.908983	0.583312	0.844489
0	H	0.119488	0.444084	0.339936
0	C	0.671006	0.794199	0.14196
0	C	0.361026	0.231564	0.644607
0	C	0.731997	0.164143	0.895476
0	C	0.295151	0.861237	0.392499
0	C	0.863366	0.294763	0.625078
0	C	0.164374	0.730253	0.122062
0	C	0.795459	0.66979	0.876955
0	C	0.232637	0.359862	0.374567
0	H	0.714327	0.750988	0.145399
0	H	0.319049	0.276275	0.646086
0	H	0.776437	0.206321	0.8994
0	H	0.250197	0.81954	0.395656
0	H	0.821037	0.250415	0.622009
0	H	0.207268	0.773984	0.118188
0	H	0.751685	0.712516	0.873458
0	H	0.277812	0.318345	0.37304
0	H	0.700011	0.848258	0.140949
0	H	0.330192	0.178511	0.644076
0	H	0.678711	0.194476	0.893668
0	H	0.348032	0.830269	0.390352
0	H	0.833018	0.34791	0.627118
0	H	0.193987	0.676658	0.123881
0	H	0.849259	0.699393	0.878262
0	H	0.179758	0.328623	0.375474
0	H	0.642735	0.786163	0.105623
0	H	0.391429	0.236968	0.608867
0	H	0.740589	0.13535	0.859407
0	H	0.287245	0.891221	0.356811
0	H	0.893316	0.286677	0.660771
0	H	0.135602	0.739212	0.158125
0	H	0.78738	0.641239	0.913181
0	H	0.238173	0.390615	0.410147
