#******************************************
#
# CIF file created by Zeo++
# Zeo++ is an open source package to
# analyze microporous materials
#
#*******************************************

_cell_length_a		29.2277(0)
_cell_length_b		13.7835(0)
_cell_length_c		34.7194(0)
_cell_angle_alpha		90(0)
_cell_angle_beta		101.021(0)
_cell_angle_gamma		90(0)

_symmetry_space_group_name_H-M		'P1'
_symmetry_Int_Tables_number		1
_symmetry_cell_setting		Monoclinic

loop_
_symmetry_equiv_pos_as_xyz
'+x,+y,+z'

loop_
_atom_site_label
_atom_site_type_symbol
_atom_site_fract_x
_atom_site_fract_y
_atom_site_fract_z
0	Si	0.929365	0.515068	0.240904
0	Si	0.548565	0.0124079	0.7224
0	Si	0.048336	0.438376	0.721557
0	Si	0.429153	0.94061	0.23953
0	Si	0.852665	0.65849	0.193948
0	Si	0.624042	0.157779	0.769807
0	Si	0.125022	0.294612	0.768299
0	Si	0.353681	0.795284	0.192167
0	Si	0.776607	0.517679	0.219345
0	Si	0.700673	0.0178595	0.744899
0	Si	0.201063	0.435433	0.74287
0	Si	0.277086	0.935197	0.217143
0	Si	0.852505	0.349395	0.21897
0	Si	0.625512	0.847648	0.744569
0	Si	0.125261	0.603881	0.74334
0	Si	0.352214	0.105464	0.217458
0	Si	0.806273	0.301997	0.128206
0	Si	0.671192	0.800392	0.83562
0	Si	0.171587	0.651198	0.834088
0	Si	0.306476	0.152763	0.126422
0	Si	0.733405	0.474709	0.130128
0	Si	0.742989	0.974859	0.834382
0	Si	0.244373	0.478364	0.832075
0	Si	0.234698	0.978286	0.127684
0	Si	0.810635	0.608621	0.1025
0	Si	0.665218	0.108681	0.861437
0	Si	0.167154	0.344448	0.859727
0	Si	0.312438	0.844497	0.100567
0	Si	0.856179	0.421181	0.0675218
0	Si	0.618925	0.920127	0.894627
0	Si	0.121633	0.531897	0.894719
0	Si	0.358741	0.0330602	0.0673997
0	Si	0.970568	0.409157	0.092457
0	Si	0.504651	0.907161	0.869599
0	Si	0.00725829	0.544008	0.869741
0	Si	0.473011	0.0459983	0.0924869
0	Si	0.0374724	0.529218	0.231326
0	Si	0.439909	0.0323816	0.729665
0	Si	0.940193	0.423973	0.731008
0	Si	0.537865	0.92083	0.232412
0	Si	0.125756	0.393795	0.257588
0	Si	0.351396	0.897672	0.703905
0	Si	0.851928	0.559403	0.704617
0	Si	0.626366	0.0554913	0.258236
0	Si	0.188692	0.58291	0.253285
0	Si	0.290431	0.0897253	0.707075
0	Si	0.789026	0.370233	0.708894
0	Si	0.687323	0.863408	0.25508
0	Si	0.101964	0.700267	0.274295
0	Si	0.37773	0.20601	0.686483
0	Si	0.8758	0.252937	0.687925
0	Si	0.599995	0.747176	0.275634
0	Si	0.147249	0.679468	0.366765
0	Si	0.332394	0.184374	0.59408
0	Si	0.830563	0.273738	0.59545
0	Si	0.64531	0.768763	0.368043
0	Si	0.233564	0.563355	0.343691
0	Si	0.245833	0.067701	0.616687
0	Si	0.744203	0.389777	0.618484
0	Si	0.731897	0.885435	0.345478
0	Si	0.173253	0.372444	0.349953
0	Si	0.305026	0.874931	0.611346
0	Si	0.804503	0.580698	0.612234
0	Si	0.672696	0.0782163	0.350806
0	Si	0.116018	0.485826	0.407401
0	Si	0.363724	0.988721	0.555177
0	Si	0.861782	0.467363	0.554806
0	Si	0.613947	0.964392	0.406934
0	Si	0.00450491	0.434472	0.384515
0	Si	0.475039	0.936576	0.578434
0	Si	0.973292	0.518775	0.577718
0	Si	0.502638	0.0165482	0.383623
0	O	0.983871	0.50879	0.236184
0	O	0.493689	0.00779303	0.726242
0	O	0.993832	0.444593	0.726299
0	O	0.484041	0.945338	0.235726
0	O	0.901008	0.600097	0.212632
0	O	0.576306	0.0981013	0.750629
0	O	0.0766779	0.353105	0.749707
0	O	0.401452	0.854916	0.211294
0	O	0.901745	0.411307	0.228751
0	O	0.575974	0.90867	0.73515
0	O	0.0759823	0.542089	0.733736
0	O	0.401728	0.0443546	0.226827
0	O	0.9281	0.53996	0.284416
0	O	0.551223	0.0356347	0.679055
0	O	0.0495331	0.413731	0.678007
0	O	0.426497	0.917288	0.282869
0	O	0.809534	0.611985	0.212918
0	O	0.667604	0.112018	0.751257
0	O	0.168127	0.341157	0.749302
0	O	0.310142	0.841038	0.210753
0	O	0.809992	0.420101	0.227852
0	O	0.667636	0.919717	0.735947
0	O	0.167679	0.533016	0.734396
0	O	0.310109	0.0333614	0.226095
0	O	0.838109	0.312366	0.17275
0	O	0.640355	0.81007	0.790672
0	O	0.139761	0.641012	0.789536
0	O	0.337346	0.143076	0.171359
0	O	0.758764	0.36925	0.125374
0	O	0.718586	0.868229	0.839224
0	O	0.219054	0.583841	0.836883
0	O	0.259091	0.0849254	0.122841
0	O	0.761268	0.558274	0.10916
0	O	0.714709	0.0581039	0.855215
0	O	0.216512	0.394795	0.853041
0	O	0.262955	0.895052	0.106824
0	O	0.839872	0.528904	0.0811122
0	O	0.635555	0.0282657	0.881964
0	O	0.137919	0.42416	0.881124
0	O	0.342099	0.924905	0.0800328
0	O	0.839575	0.645665	0.145545
0	O	0.636796	0.145117	0.818185
0	O	0.138192	0.307384	0.8167
0	O	0.340896	0.807996	0.143795
0	O	0.739021	0.499477	0.177409
0	O	0.737718	0.999243	0.787085
0	O	0.238698	0.453643	0.784784
0	O	0.240017	0.953834	0.174977
0	O	0.834194	0.339503	0.0937286
0	O	0.642019	0.838948	0.869084
0	O	0.143638	0.613595	0.868533
0	O	0.335603	0.114208	0.0929278
0	O	0.913364	0.412854	0.075823
0	O	0.561814	0.911858	0.885649
0	O	0.0644521	0.540275	0.886413
0	O	0.41585	0.041355	0.076424
0	O	0.0723368	0.437825	0.247951
0	O	0.404862	0.941543	0.712959
0	O	0.905335	0.515332	0.714334
0	O	0.572891	0.0116559	0.249203
0	O	0.0591089	0.625894	0.256183
0	O	0.419865	0.129118	0.703981
0	O	0.918651	0.327304	0.706094
0	O	0.557868	0.824052	0.258091
0	O	0.0377604	0.543495	0.186891
0	O	0.437873	0.0491052	0.773621
0	O	0.939776	0.409584	0.775417
0	O	0.539988	0.904206	0.188465
0	O	0.162735	0.475821	0.246838
0	O	0.315148	0.981517	0.714292
0	O	0.814944	0.477364	0.715347
0	O	0.662592	0.971598	0.247859
0	O	0.148836	0.666033	0.257371
0	O	0.330646	0.172123	0.703025
0	O	0.828893	0.287133	0.704804
0	O	0.647105	0.781016	0.259116
0	O	0.114934	0.699323	0.32297
0	O	0.364373	0.206565	0.637857
0	O	0.862887	0.253918	0.639245
0	O	0.613342	0.746645	0.324259
0	O	0.199056	0.640074	0.361191
0	O	0.280564	0.144176	0.599163
0	O	0.778742	0.313083	0.601013
0	O	0.69715	0.808956	0.362983
0	O	0.216355	0.451749	0.351556
0	O	0.262131	0.955111	0.609052
0	O	0.761408	0.501389	0.610628
0	O	0.715583	0.998009	0.353125
0	O	0.141114	0.409746	0.381248
0	O	0.337999	0.912902	0.580874
0	O	0.836638	0.543412	0.580939
0	O	0.639666	0.0402027	0.381228
0	O	0.123492	0.596722	0.391278
0	O	0.356934	0.0998578	0.571083
0	O	0.854321	0.356455	0.570924
0	O	0.620742	0.853241	0.391044
0	O	0.143558	0.365169	0.304496
0	O	0.333552	0.867783	0.657199
0	O	0.834193	0.587976	0.657694
0	O	0.644231	0.0854222	0.304938
0	O	0.226899	0.580334	0.295675
0	O	0.25259	0.0860013	0.664599
0	O	0.750834	0.372791	0.666497
0	O	0.725155	0.86715	0.297565
0	O	0.0604698	0.458542	0.402001
0	O	0.41907	0.959484	0.560803
0	O	0.917323	0.494724	0.560238
0	O	0.558592	0.993595	0.401297
0	C	0.85656	0.790187	0.206928
0	C	0.619025	0.289931	0.757599
0	C	0.121104	0.162956	0.755254
0	C	0.358652	0.663101	0.204323
0	C	0.893163	0.849828	0.190319
0	C	0.581636	0.344952	0.775062
0	C	0.0845728	0.103163	0.771887
0	C	0.396139	0.608114	0.186972
0	C	0.907843	0.934213	0.219321
0	C	0.563756	0.428101	0.746352
0	C	0.0698831	0.0188544	0.742854
0	C	0.413869	0.524838	0.215665
0	C	0.887835	0.913092	0.256411
0	C	0.583197	0.411316	0.708694
0	C	0.0897088	0.0402788	0.705697
0	C	0.39424	0.541511	0.25324
0	C	0.866768	0.810272	0.251613
0	C	0.60867	0.312846	0.713186
0	C	0.110795	0.143082	0.710553
0	C	0.368772	0.639985	0.248719
0	C	0.744434	0.539538	0.260205
0	C	0.732508	0.0417855	0.703956
0	C	0.233155	0.413512	0.701964
0	C	0.245265	0.911195	0.258085
0	C	0.77156	0.599295	0.295034
0	C	0.704618	0.105863	0.6709
0	C	0.205996	0.35362	0.667194
0	C	0.273243	0.84739	0.291195
0	C	0.758892	0.557337	0.332897
0	C	0.713184	0.0652347	0.63146
0	C	0.218647	0.395356	0.629285
0	C	0.264513	0.887986	0.330592
0	C	0.725837	0.471189	0.320829
0	C	0.744595	0.975353	0.640567
0	C	0.25174	0.481488	0.641285
0	C	0.232968	0.977645	0.321404
0	C	0.729931	0.444675	0.278525
0	C	0.745114	0.948181	0.683692
0	C	0.247592	0.508303	0.683548
0	C	0.23249	0.00475931	0.27828
0	C	0.858033	0.239968	0.251349
0	C	0.619339	0.738078	0.712253
0	C	0.119681	0.713134	0.710864
0	C	0.358328	0.215022	0.249792
0	C	0.873258	0.262526	0.295589
0	C	0.602744	0.758164	0.667965
0	C	0.104391	0.690349	0.666649
0	C	0.375012	0.194978	0.294071
0	C	0.855347	0.1766	0.316953
0	C	0.616176	0.666025	0.647519
0	C	0.12223	0.776185	0.645185
0	C	0.361396	0.286885	0.314567
0	C	0.812911	0.134935	0.288562
0	C	0.659312	0.623599	0.674866
0	C	0.164672	0.818077	0.673508
0	C	0.318258	0.329247	0.287203
0	C	0.81249	0.180341	0.247842
0	C	0.664096	0.676433	0.714685
0	C	0.165215	0.772753	0.71426
0	C	0.313458	0.276281	0.247414
0	C	0.7857	0.173827	0.120459
0	C	0.690041	0.671234	0.844013
0	C	0.192129	0.779392	0.841828
0	C	0.287594	0.281894	0.118008
0	C	0.754998	0.156291	0.0794432
0	C	0.717163	0.64911	0.88597
0	C	0.22291	0.797072	0.882798
0	C	0.260568	0.303968	0.0760146
0	C	0.773497	0.0639638	0.0625999
0	C	0.695235	0.557069	0.900002
0	C	0.204226	0.889037	0.899762
0	C	0.282444	0.396182	0.0620707
0	C	0.82344	0.0492499	0.0855699
0	C	0.645884	0.550182	0.875053
0	C	0.154256	0.903527	0.876817
0	C	0.33177	0.403116	0.0870661
0	C	0.825227	0.0974576	0.12585
0	C	0.648308	0.599858	0.835772
0	C	0.152507	0.855546	0.836502
0	C	0.329302	0.353338	0.126319
0	C	0.670091	0.465121	0.107656
0	C	0.806406	0.969034	0.856719
0	C	0.307698	0.487907	0.854512
0	C	0.171269	0.984094	0.105393
0	C	0.64236	0.560937	0.106521
0	C	0.831612	0.0681151	0.858695
0	C	0.335418	0.39207	0.855672
0	C	0.146063	0.88504	0.103579
0	C	0.603122	0.553728	0.0700611
0	C	0.87107	0.062749	0.895041
0	C	0.374681	0.399387	0.892116
0	C	0.10662	0.890046	0.0672152
0	C	0.621434	0.486676	0.0410345
0	C	0.855163	0.989779	0.923285
0	C	0.356309	0.466324	0.921149
0	C	0.122482	0.962796	0.038867
0	C	0.66117	0.42573	0.0650371
0	C	0.816427	0.927017	0.898894
0	C	0.316636	0.527378	0.897121
0	C	0.161209	0.0257645	0.0631614
0	C	0.795898	0.717694	0.0706019
0	C	0.677886	0.218685	0.893207
0	C	0.181894	0.235315	0.89159
0	C	0.299707	0.734525	0.0687982
0	C	0.755102	0.703336	0.0354888
0	C	0.716562	0.20758	0.93009
0	C	0.222606	0.249667	0.926771
0	C	0.261042	0.745765	0.0319154
0	C	0.760912	0.783646	0.00582591
0	C	0.70779	0.28976	0.957993
0	C	0.216738	0.169259	0.956372
0	C	0.269685	0.66339	0.00405564
0	C	0.811894	0.818642	0.0161446
0	C	0.656199	0.319351	0.945765
0	C	0.165719	0.134511	0.946051
0	C	0.321257	0.633622	0.0162539
0	C	0.835875	0.759862	0.0522887
0	C	0.635629	0.260348	0.908665
0	C	0.141853	0.192971	0.909775
0	C	0.341911	0.692632	0.053334
0	C	0.830748	0.404022	0.0140982
0	C	0.641169	0.90216	0.948383
0	C	0.147012	0.548897	0.948164
0	C	0.336514	0.0509941	0.0136424
0	C	0.846408	0.311594	0.994831
0	C	0.622997	0.809562	0.965746
0	C	0.131348	0.641242	0.967483
0	C	0.354666	0.143558	0.996238
0	C	0.844642	0.335282	0.951035
0	C	0.622808	0.831301	0.009405
0	C	0.133095	0.617368	0.0112602
0	C	0.354804	0.121746	0.952578
0	C	0.833476	0.444135	0.945386
0	C	0.633087	0.940328	0.0159003
0	C	0.144094	0.508422	0.0168107
0	C	0.344529	0.0127085	0.946123
0	C	0.83921	0.488393	0.986854
0	C	0.629725	0.985696	0.974815
0	C	0.138423	0.464404	0.975306
0	C	0.347928	0.967405	0.987223
0	C	0.982424	0.363307	0.143416
0	C	0.492893	0.863098	0.81849
0	C	0.995447	0.589686	0.818758
0	C	0.48476	0.0900746	0.143595
0	C	0.999448	0.331696	0.060072
0	C	0.476783	0.826766	0.901715
0	C	0.978293	0.621498	0.902057
0	C	0.500888	0.126329	0.0603528
0	C	0.993875	0.35074	0.0196727
0	C	0.481648	0.844689	0.942141
0	C	0.984015	0.602887	0.942501
0	C	0.495968	0.108454	0.0199225
0	C	0.0180864	0.296311	0.99607
0	C	0.459256	0.785611	0.965603
0	C	0.959597	0.657074	0.966026
0	C	0.518375	0.167463	0.99645
0	C	0.0480886	0.221912	0.0124783
0	C	0.431773	0.707694	0.948996
0	C	0.929247	0.730784	0.949502
0	C	0.54595	0.245263	0.013063
0	C	0.0535467	0.201504	0.0525256
0	C	0.426895	0.688682	0.908877
0	C	0.923659	0.750801	0.909405
0	C	0.550882	0.264243	0.0531871
0	C	0.0292244	0.255843	0.0761183
0	C	0.449397	0.747652	0.885474
0	C	0.948171	0.696703	0.885889
0	C	0.52835	0.205353	0.0765915
0	C	0.993254	0.53584	0.0910655
0	C	0.481703	0.033609	0.870748
0	C	0.984503	0.417402	0.871186
0	C	0.495942	0.919539	0.0913429
0	C	0.0394632	0.552542	0.0867271
0	C	0.434473	0.0506002	0.871499
0	C	0.938265	0.400974	0.875519
0	C	0.543156	0.902525	0.0905601
0	C	0.0577159	0.646604	0.0889149
0	C	0.416215	0.144741	0.867363
0	C	0.919908	0.307017	0.873377
0	C	0.5614	0.808367	0.094652
0	C	0.0296266	0.725557	0.0945971
0	C	0.445252	0.22309	0.863175
0	C	0.9479	0.227861	0.867738
0	C	0.532352	0.730014	0.0988261
0	C	0.983388	0.710155	0.0981567
0	C	0.492528	0.207445	0.863433
0	C	0.994162	0.242993	0.86418
0	C	0.485094	0.745695	0.0986133
0	C	0.965356	0.615693	0.0965371
0	C	0.510615	0.113189	0.867058
0	C	0.0123065	0.337357	0.865757
0	C	0.467016	0.839953	0.0950319
0	C	0.125814	0.282736	0.226761
0	C	0.351853	0.787379	0.735223
0	C	0.851771	0.670521	0.7354
0	C	0.625896	0.165721	0.22688
0	C	0.108611	0.298219	0.182206
0	C	0.370102	0.802869	0.779616
0	C	0.869037	0.655201	0.779957
0	C	0.607571	0.150169	0.182502
0	C	0.130443	0.214836	0.162234
0	C	0.353251	0.712877	0.799276
0	C	0.846998	0.738283	0.799937
0	C	0.624382	0.24012	0.162787
0	C	0.174607	0.182947	0.191224
0	C	0.308301	0.678916	0.771775
0	C	0.802873	0.770127	0.770892
0	C	0.669336	0.274217	0.190254
0	C	0.174474	0.235615	0.230427
0	C	0.304173	0.737157	0.733241
0	C	0.803028	0.717257	0.73174
0	C	0.673568	0.215917	0.228781
0	C	0.218659	0.614027	0.211854
0	C	0.261115	0.12448	0.748368
0	C	0.759057	0.338947	0.750302
0	C	0.716612	0.828633	0.213772
0	C	0.184876	0.654356	0.175477
0	C	0.296381	0.167034	0.783397
0	C	0.792877	0.298942	0.786729
0	C	0.681312	0.785998	0.178786
0	C	0.206254	0.626248	0.139778
0	C	0.278166	0.138128	0.820556
0	C	0.771372	0.326896	0.822378
0	C	0.699441	0.814859	0.141582
0	C	0.233628	0.532121	0.151399
0	C	0.250764	0.0434757	0.810263
0	C	0.743836	0.420793	0.810687
0	C	0.726894	0.90948	0.151823
0	C	0.245525	0.529603	0.19669
0	C	0.234958	0.0416935	0.765232
0	C	0.731961	0.423098	0.765394
0	C	0.742722	0.911409	0.19685
0	C	0.082274	0.824883	0.257527
0	C	0.399381	0.329112	0.703932
0	C	0.895415	0.128244	0.704652
0	C	0.578296	0.624112	0.258182
0	C	0.0942491	0.940914	0.205417
0	C	0.394737	0.447989	0.756983
0	C	0.88344	0.0121274	0.756733
0	C	0.583019	0.505446	0.205068
0	C	0.0765541	0.838179	0.212526
0	C	0.406747	0.341647	0.749067
0	C	0.901142	0.114874	0.749649
0	C	0.570906	0.611693	0.213039
0	C	0.109185	0.989524	0.245742
0	C	0.380919	0.498192	0.716864
0	C	0.868392	0.963673	0.716391
0	C	0.596676	0.455029	0.245154
0	C	0.114678	0.907514	0.276417
0	C	0.369338	0.416309	0.686357
0	C	0.862917	0.0457684	0.685755
0	C	0.608252	0.536769	0.275729
0	C	0.156979	0.796339	0.394654
0	C	0.324155	0.30023	0.565326
0	C	0.820764	0.156903	0.567547
0	C	0.653501	0.652833	0.396752
0	C	0.199248	0.79416	0.429205
0	C	0.284664	0.299417	0.528606
0	C	0.778462	0.15929	0.533026
0	C	0.692912	0.653563	0.433531
0	C	0.188079	0.865303	0.46044
0	C	0.299153	0.371822	0.499221
0	C	0.789442	0.0877774	0.501846
0	C	0.678318	0.581148	0.46286
0	C	0.136225	0.892752	0.448784
0	C	0.351125	0.395236	0.513518
0	C	0.841303	0.0602891	0.513385
0	C	0.626327	0.558001	0.448528
0	C	0.11533	0.831544	0.412487
0	C	0.368301	0.334006	0.550633
0	C	0.862327	0.121516	0.549647
0	C	0.609286	0.618976	0.411317
0	C	0.295517	0.589041	0.367604
0	C	0.1839	0.0943972	0.593191
0	C	0.68227	0.36405	0.594531
0	C	0.793833	0.858743	0.368974
0	C	0.330535	0.506245	0.3651
0	C	0.148526	0.0121448	0.595529
0	C	0.647213	0.44678	0.597025
0	C	0.829183	0.941105	0.366728
0	C	0.368698	0.512005	0.402504
0	C	0.110874	0.0178225	0.557768
0	C	0.609196	0.441349	0.559516
0	C	0.866894	0.93508	0.404442
0	C	0.352736	0.586812	0.430064
0	C	0.126589	0.0947099	0.530912
0	C	0.625115	0.366285	0.532037
0	C	0.851141	0.858132	0.431254
0	C	0.302307	0.615405	0.411666
0	C	0.177182	0.121982	0.549264
0	C	0.675532	0.337701	0.55047
0	C	0.800557	0.830881	0.412872
0	C	0.199054	0.25099	0.365022
0	C	0.281417	0.751872	0.595897
0	C	0.778669	0.702103	0.597131
0	C	0.696254	0.201312	0.366272
0	C	0.222749	0.244175	0.40885
0	C	0.261036	0.741251	0.551509
0	C	0.75504	0.708876	0.553285
0	C	0.716736	0.211909	0.410641
0	C	0.205302	0.149993	0.425163
0	C	0.280262	0.645492	0.538041
0	C	0.772427	0.803179	0.537018
0	C	0.697344	0.307368	0.424223
0	C	0.159501	0.123693	0.397385
0	C	0.325768	0.625642	0.567309
0	C	0.81822	0.829483	0.564811
0	C	0.651804	0.327132	0.394991
0	C	0.162613	0.16811	0.357277
0	C	0.319697	0.672889	0.606211
0	C	0.815075	0.785053	0.604909
0	C	0.657856	0.280082	0.356049
0	C	0.14766	0.478202	0.459526
0	C	0.332598	0.983708	0.50295
0	C	0.830126	0.474865	0.502683
0	C	0.645046	0.969395	0.459172
0	C	0.13157	0.547268	0.489359
0	C	0.350126	0.0555147	0.474811
0	C	0.846202	0.405683	0.472884
0	C	0.627484	0.89757	0.487285
0	C	0.150374	0.50242	0.530044
0	C	0.333357	0.0128363	0.433482
0	C	0.827318	0.450312	0.432174
0	C	0.644264	0.940165	0.528631
0	C	0.159091	0.393996	0.523413
0	C	0.329288	0.902426	0.438856
0	C	0.818665	0.5588	0.438728
0	C	0.648476	0.0505608	0.523299
0	C	0.149219	0.376657	0.478661
0	C	0.331713	0.883231	0.483006
0	C	0.828495	0.576324	0.48347
0	C	0.645913	0.069839	0.479137
0	C	0.998773	0.375196	0.336081
0	C	0.481433	0.873853	0.626185
0	C	0.978999	0.578132	0.626138
0	C	0.496294	0.0791633	0.335852
0	C	0.981054	0.35508	0.419772
0	C	0.499166	0.859345	0.542942
0	C	0.996718	0.598081	0.542424
0	C	0.478452	0.0938338	0.419062
0	C	0.00370779	0.343767	0.458978
0	C	0.477393	0.851808	0.503367
0	C	0.97407	0.60924	0.503212
0	C	0.500273	0.101765	0.458622
0	C	0.984746	0.283985	0.484556
0	C	0.495011	0.789049	0.47802
0	C	0.993004	0.668973	0.477602
0	C	0.482534	0.164436	0.483929
0	C	0.942748	0.235288	0.471327
0	C	0.53467	0.73338	0.491879
0	C	0.0349683	0.71783	0.490818
0	C	0.442718	0.219611	0.470057
0	C	0.919812	0.245976	0.432333
0	C	0.557087	0.741215	0.53114
0	C	0.0579042	0.707295	0.529824
0	C	0.420281	0.211426	0.43081
0	C	0.938885	0.305261	0.406759
0	C	0.539457	0.803829	0.556458
0	C	0.0388689	0.648024	0.555416
0	C	0.43802	0.148892	0.405531
0	C	0.973011	0.553344	0.379183
0	C	0.504967	0.05688	0.585481
0	C	0.00475981	0.399884	0.583074
0	C	0.472657	0.896298	0.376561
0	C	0.992724	0.63424	0.363771
0	C	0.48418	0.133008	0.602967
0	C	0.985106	0.319106	0.598613
0	C	0.493532	0.820009	0.359236
0	C	0.968794	0.722636	0.358424
0	C	0.506487	0.222879	0.609943
0	C	0.00896676	0.230644	0.603899
0	C	0.471201	0.730177	0.352232
0	C	0.924863	0.731442	0.368468
0	C	0.549719	0.238012	0.599328
0	C	0.0527992	0.221633	0.593665
0	C	0.427835	0.715264	0.362622
0	C	0.904984	0.65164	0.38385
0	C	0.5707	0.162872	0.582037
0	C	0.072625	0.30132	0.578154
0	C	0.406745	0.790569	0.379728
0	C	0.928981	0.563316	0.389298
0	C	0.548425	0.0728859	0.575068
0	C	0.0486891	0.389696	0.572765
0	C	0.429069	0.880507	0.386749
0	H	0.820558	0.819689	0.194218
0	H	0.654531	0.320379	0.770737
0	H	0.157126	0.133442	0.767886
0	H	0.323178	0.63277	0.191038
0	H	0.860954	0.96714	0.259782
0	H	0.607244	0.470473	0.704347
0	H	0.116537	0.986261	0.702165
0	H	0.370159	0.482333	0.25748
0	H	0.87876	0.876841	0.160559
0	H	0.596316	0.373089	0.804597
0	H	0.0990434	0.0760614	0.801621
0	H	0.381586	0.580098	0.157392
0	H	0.924144	0.805799	0.187883
0	H	0.552184	0.297158	0.778384
0	H	0.0535804	0.147081	0.774391
0	H	0.425646	0.655896	0.183783
0	H	0.717996	0.148089	0.0814997
0	H	0.754598	0.6382	0.886171
0	H	0.259856	0.805797	0.880644
0	H	0.223099	0.314646	0.0757235
0	H	0.946147	0.940509	0.226605
0	H	0.5253	0.429092	0.739799
0	H	0.0315829	0.0123738	0.735669
0	H	0.452323	0.523782	0.222342
0	H	0.894766	0.00412346	0.206192
0	H	0.574933	0.499222	0.759371
0	H	0.0830788	0.948939	0.755902
0	H	0.40272	0.453777	0.202578
0	H	0.930487	0.559409	0.309245
0	H	0.54968	0.0532395	0.654133
0	H	0.0470233	0.394487	0.653145
0	H	0.42805	0.8996	0.307781
0	H	0.91506	0.918391	0.28306
0	H	0.554982	0.411342	0.682616
0	H	0.0623808	0.0351813	0.679113
0	H	0.422361	0.541415	0.279389
0	H	0.834887	0.804929	0.264187
0	H	0.641027	0.315423	0.70119
0	H	0.142633	0.148505	0.697924
0	H	0.336317	0.637333	0.260572
0	H	0.892024	0.757636	0.267778
0	H	0.586286	0.256721	0.6962
0	H	0.0855132	0.195776	0.694462
0	H	0.391086	0.69605	0.265818
0	H	0.712026	0.581121	0.246865
0	H	0.765662	0.0809269	0.717227
0	H	0.265587	0.371987	0.715294
0	H	0.212181	0.8718	0.244832
0	H	0.809694	0.595714	0.296741
0	H	0.666806	0.106077	0.671195
0	H	0.167864	0.35727	0.6655
0	H	0.311066	0.847525	0.290947
0	H	0.761958	0.676885	0.291705
0	H	0.71626	0.182208	0.674683
0	H	0.215574	0.276024	0.670577
0	H	0.261768	0.770941	0.287436
0	H	0.790554	0.533324	0.353278
0	H	0.6798	0.0456782	0.612381
0	H	0.186985	0.419343	0.608903
0	H	0.297832	0.907778	0.34972
0	H	0.742233	0.613026	0.348491
0	H	0.729691	0.120376	0.615483
0	H	0.23527	0.339552	0.613719
0	H	0.248043	0.832737	0.346545
0	H	0.689578	0.492095	0.32203
0	H	0.780256	0.991595	0.636082
0	H	0.287998	0.460427	0.640148
0	H	0.197309	0.961158	0.325835
0	H	0.73466	0.409029	0.340872
0	H	0.731694	0.914611	0.620775
0	H	0.24298	0.543518	0.621166
0	H	0.245737	0.0384995	0.341184
0	H	0.69684	0.415483	0.261722
0	H	0.779724	0.919832	0.698205
0	H	0.280643	0.537717	0.700333
0	H	0.197857	0.0328858	0.263716
0	H	0.756478	0.386943	0.27913
0	H	0.719559	0.889485	0.685053
0	H	0.220977	0.565926	0.682857
0	H	0.257977	0.0635976	0.276923
0	H	0.885428	0.193483	0.24171
0	H	0.592137	0.692754	0.722903
0	H	0.0923002	0.759682	0.720493
0	H	0.385417	0.260592	0.239108
0	H	0.911436	0.271165	0.304085
0	H	0.564919	0.773227	0.660415
0	H	0.0662093	0.681643	0.658205
0	H	0.412872	0.180283	0.301593
0	H	0.85752	0.33094	0.303638
0	H	0.620684	0.822044	0.658391
0	H	0.120123	0.621897	0.658634
0	H	0.357235	0.130868	0.303643
0	H	0.882731	0.120992	0.324476
0	H	0.587232	0.613348	0.643124
0	H	0.0948066	0.831698	0.637633
0	H	0.390276	0.339724	0.319077
0	H	0.845918	0.199856	0.344767
0	H	0.623432	0.682363	0.618243
0	H	0.131631	0.7528	0.617378
0	H	0.354071	0.270258	0.343796
0	H	0.780306	0.152148	0.298763
0	H	0.690932	0.634064	0.662324
0	H	0.197259	0.800967	0.663261
0	H	0.286635	0.318896	0.299752
0	H	0.814496	0.0550588	0.28731
0	H	0.655928	0.544518	0.678396
0	H	0.163009	0.897947	0.674726
0	H	0.321661	0.408312	0.283625
0	H	0.781116	0.226498	0.239492
0	H	0.695825	0.722221	0.719592
0	H	0.196589	0.72657	0.722557
0	H	0.281827	0.230206	0.242618
0	H	0.810221	0.124154	0.224906
0	H	0.668333	0.624486	0.739301
0	H	0.167557	0.828984	0.737186
0	H	0.309027	0.328112	0.22275
0	H	0.764019	0.163003	0.143684
0	H	0.713497	0.658265	0.822309
0	H	0.213714	0.790315	0.818541
0	H	0.264057	0.294837	0.139649
0	H	0.0345676	0.551718	0.161021
0	H	0.438367	0.0581534	0.799089
0	H	0.942916	0.401273	0.801276
0	H	0.539513	0.89522	0.162997
0	H	0.756467	0.218295	0.0594432
0	H	0.714921	0.709934	0.906387
0	H	0.221695	0.734894	0.902765
0	H	0.26296	0.243222	0.0555981
0	H	0.751593	0.000755172	0.0664011
0	H	0.715712	0.491998	0.895634
0	H	0.226017	0.952497	0.896048
0	H	0.261905	0.461132	0.0664753
0	H	0.772511	0.0709728	0.0308434
0	H	0.694647	0.560576	0.931594
0	H	0.20522	0.881698	0.931507
0	H	0.283065	0.392866	0.0304819
0	H	0.848728	0.0846301	0.0702004
0	H	0.620699	0.588701	0.889591
0	H	0.129023	0.867891	0.892169
0	H	0.356982	0.364657	0.0725401
0	H	0.832794	0.971833	0.088422
0	H	0.633922	0.474507	0.870932
0	H	0.144793	0.980895	0.874018
0	H	0.34371	0.478801	0.0912199
0	H	0.860011	0.129067	0.136916
0	H	0.614887	0.636065	0.823547
0	H	0.117757	0.823792	0.825429
0	H	0.362723	0.317153	0.138564
0	H	0.819634	0.0430277	0.14789
0	H	0.653893	0.545671	0.813638
0	H	0.158017	0.910116	0.814486
0	H	0.323658	0.407459	0.148459
0	H	0.655586	0.411713	0.126777
0	H	0.822154	0.919401	0.83702
0	H	0.322193	0.541254	0.83536
0	H	0.155549	0.033925	0.12504
0	H	0.628363	0.571392	0.13361
0	H	0.845246	0.0827673	0.831708
0	H	0.349382	0.38152	0.828574
0	H	0.132404	0.870718	0.130582
0	H	0.664477	0.624922	0.103875
0	H	0.807771	0.128814	0.861902
0	H	0.313307	0.328112	0.858366
0	H	0.1699	0.824243	0.100495
0	H	0.571233	0.523167	0.0779687
0	H	0.903863	0.0385152	0.886671
0	H	0.406526	0.430114	0.88419
0	H	0.0737947	0.914267	0.0755335
0	H	0.593714	0.625669	0.0570119
0	H	0.878228	0.134381	0.909036
0	H	0.384164	0.327464	0.905154
0	H	0.0995233	0.818286	0.0533228
0	H	0.634674	0.530288	0.0188432
0	H	0.841441	0.0285103	0.946496
0	H	0.342983	0.422603	0.943262
0	H	0.136196	0.92389	0.0156947
0	H	0.593441	0.440479	0.0248642
0	H	0.884562	0.945278	0.938265
0	H	0.384281	0.512441	0.937403
0	H	0.093058	0.00716121	0.0238412
0	H	0.651792	0.348055	0.0646194
0	H	0.827328	0.850363	0.898484
0	H	0.326088	0.605013	0.897518
0	H	0.150279	0.102412	0.0634773
0	H	0.692519	0.430387	0.0515664
0	H	0.785103	0.927558	0.912514
0	H	0.285269	0.522905	0.910577
0	H	0.192517	0.0251302	0.0495212
0	H	0.78529	0.773512	0.0909792
0	H	0.689615	0.27407	0.873201
0	H	0.192591	0.179602	0.871215
0	H	0.28792	0.679198	0.0887975
0	H	0.756221	0.631089	0.021815
0	H	0.714946	0.136241	0.944384
0	H	0.221425	0.321872	0.940467
0	H	0.26277	0.81702	0.0175822
0	H	0.721008	0.708195	0.0445514
0	H	0.751665	0.213046	0.922946
0	H	0.256738	0.244896	0.917772
0	H	0.22593	0.740606	0.039063
0	H	0.752311	0.756134	0.975491
0	H	0.715923	0.26575	0.988824
0	H	0.225398	0.196606	0.986731
0	H	0.261527	0.687251	0.973206
0	H	0.736614	0.844118	0.00763305
0	H	0.73086	0.35213	0.955702
0	H	0.240956	0.108684	0.954493
0	H	0.24657	0.601146	0.006422
0	H	0.813308	0.896954	0.0227896
0	H	0.653088	0.397851	0.939689
0	H	0.164222	0.0561188	0.939568
0	H	0.324314	0.555124	0.0223428
0	H	0.829856	0.80837	0.991275
0	H	0.636921	0.305049	0.969541
0	H	0.147713	0.145268	0.970865
0	H	0.340511	0.647798	0.992451
0	H	0.859551	0.80546	0.0733087
0	H	0.613593	0.305986	0.886468
0	H	0.118366	0.147113	0.888721
0	H	0.363914	0.646937	0.0755325
0	H	0.857545	0.701812	0.0429875
0	H	0.612897	0.20209	0.916335
0	H	0.119992	0.250899	0.91891
0	H	0.364693	0.750763	0.0456367
0	H	0.792105	0.399035	0.0135259
0	H	0.680162	0.897261	0.951497
0	H	0.185666	0.553821	0.948799
0	H	0.297521	0.0559072	0.0105448
0	H	0.882316	0.290425	0.00860122
0	H	0.587122	0.791669	0.950557
0	H	0.0954402	0.662425	0.953718
0	H	0.390549	0.161481	0.011402
0	H	0.823894	0.249303	0.998364
0	H	0.644738	0.74608	0.962295
0	H	0.153862	0.703568	0.963993
0	H	0.332919	0.207035	0.999687
0	H	0.878484	0.318213	0.942927
0	H	0.588591	0.812568	0.0164007
0	H	0.099285	0.63461	0.0193916
0	H	0.388998	0.140489	0.94554
0	H	0.818408	0.290781	0.93177
0	H	0.648667	0.786891	0.029048
0	H	0.159407	0.661637	0.0305589
0	H	0.328914	0.166096	0.932939
0	H	0.797602	0.454777	0.928933
0	H	0.668187	0.951547	0.033758
0	H	0.179916	0.49749	0.0333292
0	H	0.309415	0.00146904	0.928295
0	H	0.856734	0.479691	0.928179
0	H	0.608376	0.974678	0.0320195
0	H	0.120712	0.472901	0.033912
0	H	0.369209	0.978315	0.929987
0	H	0.874616	0.519203	0.995715
0	H	0.594174	0.0144559	0.964225
0	H	0.102996	0.43375	0.966368
0	H	0.383479	0.938632	0.997802
0	H	0.814714	0.548947	0.987542
0	H	0.65368	0.047702	0.975427
0	H	0.16287	0.403768	0.974599
0	H	0.323972	0.905416	0.986643
0	H	0.965459	0.410484	0.162566
0	H	0.505507	0.916381	0.798873
0	H	0.0123401	0.542293	0.799631
0	H	0.472191	0.0366835	0.163194
0	H	0.020003	0.361152	0.156566
0	H	0.455123	0.852142	0.806971
0	H	0.957874	0.591974	0.805621
0	H	0.522519	0.101176	0.15512
0	H	0.968082	0.290181	0.145751
0	H	0.511161	0.794726	0.815127
0	H	0.00988027	0.662704	0.816363
0	H	0.46642	0.158348	0.146972
0	H	0.970452	0.408353	0.00621117
0	H	0.503205	0.904868	0.955814
0	H	0.00768164	0.545763	0.956046
0	H	0.474351	0.0483535	0.0062519
0	H	0.0135796	0.312075	0.964769
0	H	0.463227	0.80045	0.996926
0	H	0.9642	0.641597	0.997353
0	H	0.514352	0.152675	0.965118
0	H	0.0670533	0.179743	0.994145
0	H	0.414311	0.661801	0.967206
0	H	0.910101	0.772719	0.967766
0	H	0.563432	0.291093	0.994844
0	H	0.0766887	0.143371	0.0655049
0	H	0.405607	0.627995	0.895698
0	H	0.900244	0.808405	0.896336
0	H	0.572237	0.324852	0.0663691
0	H	0.033909	0.23798	0.10727
0	H	0.445285	0.730642	0.854267
0	H	0.943366	0.714233	0.854702
0	H	0.532493	0.222355	0.107803
0	H	0.0617302	0.492213	0.0813885
0	H	0.41132	0.990453	0.875199
0	H	0.916058	0.461436	0.880825
0	H	0.566315	0.962659	0.086864
0	H	0.0938691	0.658433	0.0863932
0	H	0.379303	0.156928	0.867103
0	H	0.883739	0.295407	0.8759
0	H	0.598305	0.796159	0.0948848
0	H	0.0437711	0.798874	0.0962857
0	H	0.431105	0.296283	0.859552
0	H	0.933674	0.154629	0.866079
0	H	0.54648	0.656801	0.102401
0	H	0.96146	0.771327	0.102485
0	H	0.515237	0.268408	0.860352
0	H	0.0160135	0.181667	0.859885
0	H	0.46238	0.684743	0.101691
0	H	0.929078	0.605464	0.0997948
0	H	0.547699	0.102594	0.866491
0	H	0.0485938	0.347374	0.862498
0	H	0.429942	0.850567	0.095633
0	H	0.101558	0.230673	0.23779
0	H	0.376199	0.736246	0.723665
0	H	0.87592	0.722741	0.724324
0	H	0.601576	0.216888	0.238457
0	H	0.0700385	0.298788	0.174069
0	H	0.408614	0.811069	0.786851
0	H	0.907607	0.655079	0.788074
0	H	0.569055	0.141991	0.175318
0	H	0.120582	0.368681	0.172388
0	H	0.355279	0.869365	0.790339
0	H	0.857268	0.584576	0.789793
0	H	0.622356	0.0836388	0.171774
0	H	0.138951	0.238519	0.134103
0	H	0.346978	0.729895	0.828837
0	H	0.838398	0.714293	0.827995
0	H	0.630636	0.223032	0.133227
0	H	0.105864	0.153729	0.155437
0	H	0.379888	0.655112	0.802945
0	H	0.871492	0.7995	0.80687
0	H	0.597721	0.297835	0.159103
0	H	0.206298	0.201515	0.179822
0	H	0.277527	0.691307	0.785305
0	H	0.771148	0.751734	0.782275
0	H	0.700089	0.261978	0.176683
0	H	0.17547	0.103452	0.195161
0	H	0.309219	0.600127	0.766233
0	H	0.802055	0.849605	0.766888
0	H	0.668353	0.352991	0.195814
0	H	0.202443	0.291087	0.235361
0	H	0.275723	0.791137	0.73123
0	H	0.775168	0.661545	0.726915
0	H	0.701991	0.161897	0.230716
0	H	0.18187	0.185456	0.255628
0	H	0.295179	0.690096	0.707189
0	H	0.795482	0.767205	0.706478
0	H	0.682645	0.262937	0.25484
0	H	0.244405	0.67293	0.223636
0	H	0.235122	0.182698	0.736402
0	H	0.733459	0.279792	0.738517
0	H	0.742622	0.770438	0.225732
0	H	0.149531	0.622813	0.172427
0	H	0.331985	0.137789	0.784868
0	H	0.828162	0.330797	0.789806
0	H	0.645701	0.815176	0.177351
0	H	0.180981	0.733791	0.177557
0	H	0.298947	0.246672	0.780798
0	H	0.796933	0.219539	0.784691
0	H	0.678783	0.706358	0.18141
0	H	0.179351	0.61657	0.11317
0	H	0.306808	0.128967	0.845984
0	H	0.798214	0.336794	0.849012
0	H	0.670752	0.82406	0.116195
0	H	0.229758	0.684371	0.133268
0	H	0.255135	0.195571	0.828394
0	H	0.747955	0.268588	0.828871
0	H	0.722414	0.757362	0.1337
0	H	0.265305	0.528568	0.138542
0	H	0.220825	0.038575	0.825256
0	H	0.712138	0.424148	0.823522
0	H	0.756822	0.914247	0.136812
0	H	0.212267	0.468526	0.140096
0	H	0.273164	0.980303	0.820072
0	H	0.765083	0.484571	0.821959
0	H	0.704514	0.972659	0.141984
0	H	0.283524	0.539063	0.207147
0	H	0.196729	0.0540255	0.757178
0	H	0.693984	0.413157	0.754943
0	H	0.780956	0.899159	0.204902
0	H	0.23645	0.457906	0.207394
0	H	0.241668	0.969504	0.753578
0	H	0.740843	0.494869	0.754634
0	H	0.735978	0.983616	0.208472
0	H	0.0471815	0.833697	0.266008
0	H	0.434318	0.334291	0.694776
0	H	0.930485	0.119293	0.696147
0	H	0.543351	0.61905	0.267335
0	H	0.124194	0.93619	0.190312
0	H	0.365401	0.450365	0.772884
0	H	0.853542	0.0168287	0.771895
0	H	0.612452	0.503271	0.189274
0	H	0.0674403	0.983832	0.186134
0	H	0.424167	0.485263	0.775723
0	H	0.910271	0.969108	0.775949
0	H	0.553677	0.468207	0.186207
0	H	0.096689	0.783615	0.199248
0	H	0.384184	0.29232	0.76235
0	H	0.880994	0.169402	0.762934
0	H	0.593382	0.661193	0.199743
0	H	0.0398316	0.82814	0.198002
0	H	0.44294	0.323534	0.762925
0	H	0.937862	0.124914	0.764181
0	H	0.53468	0.629641	0.199219
0	H	0.0829062	0.0427766	0.25104
0	H	0.409826	0.543226	0.710553
0	H	0.894595	0.91032	0.711028
0	H	0.567684	0.410102	0.251367
0	H	0.142448	0.0298921	0.247507
0	H	0.350968	0.547463	0.716192
0	H	0.835099	0.923432	0.714644
0	H	0.626579	0.405617	0.245853
0	H	0.151641	0.883742	0.283488
0	H	0.33155	0.399233	0.681599
0	H	0.825972	0.0696786	0.678752
0	H	0.646054	0.553743	0.280562
0	H	0.105754	0.932438	0.304245
0	H	0.37672	0.438059	0.657589
0	H	0.871751	0.0208876	0.657888
0	H	0.60078	0.514914	0.304454
0	H	0.164166	0.851487	0.372583
0	H	0.315203	0.355874	0.586502
0	H	0.81355	0.101747	0.589604
0	H	0.662516	0.597268	0.375575
0	H	0.205454	0.720748	0.442069
0	H	0.279586	0.226537	0.51511
0	H	0.772418	0.232665	0.520094
0	H	0.697987	0.726424	0.447047
0	H	0.231679	0.815312	0.419387
0	H	0.25076	0.320463	0.536049
0	H	0.745994	0.138587	0.542881
0	H	0.726834	0.632474	0.426142
0	H	0.19555	0.832018	0.489865
0	H	0.292977	0.34105	0.469339
0	H	0.781844	0.120735	0.472364
0	H	0.684517	0.611812	0.492763
0	H	0.210302	0.930484	0.462216
0	H	0.277974	0.438567	0.497379
0	H	0.767211	0.0226488	0.500259
0	H	0.699414	0.514289	0.46467
0	H	0.132519	0.970987	0.441976
0	H	0.355918	0.473362	0.520113
0	H	0.845017	0.982055	0.520193
0	H	0.621435	0.479846	0.442043
0	H	0.117743	0.879381	0.473132
0	H	0.371421	0.378919	0.490601
0	H	0.859684	0.0736259	0.488972
0	H	0.605998	0.574716	0.471384
0	H	0.0905482	0.874338	0.391157
0	H	0.391627	0.37638	0.573239
0	H	0.88712	0.078673	0.57095
0	H	0.586108	0.576393	0.388685
0	H	0.0953684	0.769946	0.421419
0	H	0.388975	0.27161	0.543312
0	H	0.882303	0.183021	0.540659
0	H	0.588475	0.681314	0.418488
0	H	0.305453	0.653885	0.351179
0	H	0.17426	0.158896	0.609952
0	H	0.672339	0.299161	0.610936
0	H	0.803499	0.79438	0.352152
0	H	0.34564	0.513137	0.338416
0	H	0.132958	0.0198207	0.621947
0	H	0.631961	0.439606	0.623623
0	H	0.844689	0.933771	0.340263
0	H	0.313553	0.434179	0.363467
0	H	0.165299	0.939818	0.597584
0	H	0.664206	0.518854	0.598828
0	H	0.812394	0.0134016	0.364824
0	H	0.374109	0.440396	0.416833
0	H	0.106472	0.946725	0.542964
0	H	0.60405	0.512971	0.545168
0	H	0.871422	0.00608863	0.419312
0	H	0.402586	0.533047	0.395435
0	H	0.0765527	0.0366829	0.564517
0	H	0.575185	0.420758	0.566449
0	H	0.901161	0.916073	0.397617
0	H	0.35465	0.556627	0.45975
0	H	0.124152	0.0670512	0.500793
0	H	0.623199	0.396225	0.50231
0	H	0.853556	0.885741	0.461379
0	H	0.375824	0.650908	0.433468
0	H	0.103627	0.158885	0.528554
0	H	0.602006	0.302228	0.528719
0	H	0.874094	0.793941	0.433607
0	H	0.296067	0.693323	0.415913
0	H	0.183799	0.199912	0.545408
0	H	0.681778	0.259783	0.546227
0	H	0.793962	0.752909	0.416647
0	H	0.277687	0.575563	0.426473
0	H	0.201548	0.0820627	0.534201
0	H	0.700168	0.377555	0.535683
0	H	0.776169	0.870627	0.42797
0	H	0.22592	0.240333	0.346148
0	H	0.253126	0.73884	0.613116
0	H	0.751749	0.712725	0.615957
0	H	0.724458	0.214537	0.348982
0	H	0.261037	0.243986	0.412257
0	H	0.222607	0.740946	0.545844
0	H	0.716746	0.708883	0.549828
0	H	0.755164	0.212614	0.416225
0	H	0.213951	0.307184	0.425892
0	H	0.271494	0.802497	0.534342
0	H	0.763936	0.645948	0.53625
0	H	0.706485	0.150427	0.427795
0	H	0.23115	0.0912727	0.425795
0	H	0.255236	0.585684	0.538553
0	H	0.746543	0.86181	0.536435
0	H	0.722277	0.367397	0.423792
0	H	0.200296	0.159366	0.455597
0	H	0.286029	0.650402	0.507668
0	H	0.777421	0.793968	0.506575
0	H	0.691579	0.302108	0.454589
0	H	0.12947	0.154885	0.408143
0	H	0.355637	0.658911	0.556981
0	H	0.84825	0.798264	0.554061
0	H	0.621972	0.293712	0.405322
0	H	0.154074	0.0445256	0.395534
0	H	0.333122	0.547353	0.570664
0	H	0.823656	0.908647	0.566665
0	H	0.644386	0.405407	0.391678
0	H	0.12793	0.193025	0.341941
0	H	0.353338	0.702059	0.622094
0	H	0.849755	0.760189	0.620277
0	H	0.624231	0.250756	0.340203
0	H	0.173787	0.11307	0.337872
0	H	0.3088	0.618441	0.626006
0	H	0.803841	0.840064	0.624297
0	H	0.668624	0.334671	0.336244
0	H	0.184303	0.499256	0.456872
0	H	0.295716	0.00406585	0.50502
0	H	0.793494	0.453791	0.505375
0	H	0.681933	0.949032	0.457124
0	H	0.144662	0.621737	0.487182
0	H	0.336557	0.129491	0.477317
0	H	0.833155	0.331205	0.475134
0	H	0.641015	0.823567	0.484762
0	H	0.0931063	0.552995	0.484562
0	H	0.388671	0.0616607	0.481021
0	H	0.884666	0.400029	0.477648
0	H	0.588938	0.891498	0.481072
0	H	0.182969	0.538525	0.544185
0	H	0.299271	0.0437298	0.419794
0	H	0.79468	0.414221	0.418133
0	H	0.678295	0.909073	0.542341
0	H	0.125408	0.512885	0.549822
0	H	0.357579	0.0310836	0.413821
0	H	0.852199	0.439642	0.412339
0	H	0.619983	0.92203	0.548255
0	H	0.136327	0.347963	0.537924
0	H	0.357966	0.864175	0.428693
0	H	0.841481	0.604675	0.424209
0	H	0.619913	0.0889764	0.53357
0	H	0.195429	0.373534	0.536462
0	H	0.296657	0.874031	0.421125
0	H	0.782354	0.579325	0.425638
0	H	0.681198	0.0787269	0.540968
0	H	0.115813	0.337651	0.469774
0	H	0.363275	0.840358	0.494888
0	H	0.861858	0.615494	0.492349
0	H	0.614287	0.112578	0.467319
0	H	0.176257	0.330587	0.469647
0	H	0.301675	0.839721	0.488143
0	H	0.801395	0.622318	0.492434
0	H	0.675881	0.113491	0.473946
0	H	0.0182143	0.416809	0.31701
0	H	0.463833	0.915225	0.646601
0	H	0.959653	0.53637	0.645237
0	H	0.513797	0.0376049	0.315426
0	H	0.962344	0.37066	0.320205
0	H	0.518325	0.86561	0.640724
0	H	0.0154251	0.583025	0.641996
0	H	0.459403	0.0876021	0.321346
0	H	0.0135548	0.301516	0.33848
0	H	0.465311	0.801414	0.623037
0	H	0.964059	0.651674	0.623714
0	H	0.512525	0.151501	0.338964
0	H	0.0364096	0.381767	0.470116
0	H	0.44631	0.894845	0.491859
0	H	0.941389	0.571158	0.49209
0	H	0.531458	0.0590486	0.470142
0	H	0.0025879	0.276302	0.514982
0	H	0.477853	0.78409	0.447272
0	H	0.975173	0.676513	0.447166
0	H	0.499722	0.16968	0.514662
0	H	0.927777	0.189779	0.49138
0	H	0.548277	0.684488	0.472134
0	H	0.0499088	0.763314	0.47074
0	H	0.428997	0.268396	0.489773
0	H	0.887114	0.208201	0.421974
0	H	0.588224	0.698659	0.541927
0	H	0.0905776	0.745191	0.540169
0	H	0.389024	0.253612	0.420013
0	H	0.920394	0.312096	0.376399
0	H	0.557449	0.80831	0.587035
0	H	0.0573646	0.64127	0.585778
0	H	0.420006	0.144136	0.374969
0	H	0.0270856	0.629211	0.35557
0	H	0.450272	0.122997	0.611638
0	H	0.950816	0.324271	0.606944
0	H	0.527531	0.829878	0.350717
0	H	0.984375	0.784373	0.346242
0	H	0.49014	0.280623	0.623909
0	H	0.993421	0.168985	0.616165
0	H	0.487621	0.672294	0.338408
0	H	0.90621	0.800377	0.364433
0	H	0.567059	0.308141	0.604432
0	H	0.0713931	0.152634	0.597648
0	H	0.410474	0.64516	0.3575
0	H	0.870687	0.657851	0.391911
0	H	0.604571	0.174333	0.573923
0	H	0.106838	0.294947	0.569938
0	H	0.372765	0.779269	0.387648
0	H	0.912878	0.502357	0.40193
0	H	0.565279	0.0152881	0.561125
0	H	0.0647395	0.450552	0.560018
0	H	0.412128	0.938219	0.400556
