#******************************************
#
# CIF file created by Zeo++
# Zeo++ is an open source package to
# analyze microporous materials
#
#*******************************************

_cell_length_a		25.1908(0)
_cell_length_b		24.4438(0)
_cell_length_c		25.7596(0)
_cell_angle_alpha		90(0)
_cell_angle_beta		90(0)
_cell_angle_gamma		90(0)

_symmetry_space_group_name_H-M		'P1'
_symmetry_Int_Tables_number		1
_symmetry_cell_setting		Monoclinic

loop_
_symmetry_equiv_pos_as_xyz
'+x,+y,+z'

loop_
_atom_site_label
_atom_site_type_symbol
_atom_site_fract_x
_atom_site_fract_y
_atom_site_fract_z
0	N	0.44324	0.180348	0.162533
0	N	0.580142	0.874293	0.162545
0	N	0.581278	0.181098	0.838859
0	N	0.442634	0.874469	0.837725
0	N	0.173276	0.452514	0.155217
0	N	0.174908	0.602827	0.845397
0	N	0.85075	0.601532	0.155382
0	N	0.851066	0.454588	0.846155
0	N	0.163558	0.190183	0.428979
0	N	0.85874	0.192122	0.570757
0	N	0.166546	0.862271	0.573033
0	N	0.857762	0.863264	0.430548
0	N	0.943316	0.686095	0.666586
0	N	0.0810462	0.370176	0.665058
0	N	0.0808788	0.685064	0.336219
0	N	0.941759	0.369263	0.334639
0	N	0.676085	0.952857	0.660489
0	N	0.67496	0.103239	0.341363
0	N	0.349141	0.104493	0.660141
0	N	0.348487	0.950866	0.341486
0	N	0.669758	0.695039	0.929872
0	N	0.353872	0.694475	0.0708803
0	N	0.670078	0.360575	0.0715762
0	N	0.35394	0.360351	0.929635
0	C	0.494019	0.16716	0.145294
0	C	0.52941	0.887406	0.145099
0	C	0.530437	0.168011	0.85601
0	C	0.493416	0.887655	0.854994
0	C	0.157254	0.505276	0.142119
0	C	0.158538	0.550251	0.858744
0	C	0.866849	0.548833	0.142167
0	C	0.867271	0.507269	0.859327
0	C	0.151605	0.174927	0.47974
0	C	0.870853	0.176132	0.520281
0	C	0.153882	0.877784	0.522542
0	C	0.870397	0.879253	0.480903
0	C	0.993514	0.671799	0.648391
0	C	0.0307143	0.384449	0.647125
0	C	0.0305676	0.670928	0.35432
0	C	0.992163	0.383198	0.352597
0	C	0.659271	0.00524188	0.646806
0	C	0.658311	0.0507298	0.354873
0	C	0.365501	0.0517734	0.646965
0	C	0.364718	0.00359689	0.354771
0	C	0.656603	0.678071	0.979829
0	C	0.366991	0.677653	0.0208679
0	C	0.656973	0.377609	0.0216327
0	C	0.367073	0.377191	0.97964
0	C	0.513851	0.19208	0.0938106
0	C	0.509908	0.862574	0.0934559
0	C	0.510684	0.192726	0.907609
0	C	0.513129	0.862858	0.906573
0	C	0.105987	0.52843	0.16627
0	C	0.107001	0.527381	0.834883
0	C	0.918089	0.525633	0.166327
0	C	0.918579	0.530284	0.835136
0	C	0.17538	0.121586	0.501603
0	C	0.846879	0.122648	0.498956
0	C	0.177228	0.931291	0.500609
0	C	0.846558	0.932666	0.5025
0	C	0.0130301	0.697008	0.596923
0	C	0.0108706	0.359042	0.595869
0	C	0.0109385	0.696409	0.405628
0	C	0.0117837	0.357788	0.403946
0	C	0.608205	0.0282067	0.671501
0	C	0.607289	0.027659	0.330189
0	C	0.416574	0.0287752	0.671583
0	C	0.415642	0.0268513	0.330055
0	C	0.68188	0.625292	0.001312
0	C	0.34203	0.624692	0.999459
0	C	0.682196	0.43045	0.000229051
0	C	0.342025	0.430095	0.00108639
0	H	0.48248	0.186044	0.0625933
0	H	0.541419	0.868707	0.0624049
0	H	0.542062	0.186534	0.93879
0	H	0.481633	0.86879	0.937678
0	H	0.0728079	0.497263	0.161438
0	H	0.0740351	0.558781	0.839718
0	H	0.951278	0.556805	0.161577
0	H	0.951672	0.499014	0.839915
0	H	0.169114	0.0871436	0.472555
0	H	0.853155	0.0885147	0.528347
0	H	0.17072	0.965682	0.529671
0	H	0.852778	0.966879	0.473183
0	H	0.981245	0.6919	0.566025
0	H	0.0425506	0.363793	0.564823
0	H	0.0426471	0.691394	0.436628
0	H	0.980096	0.362854	0.434942
0	H	0.575217	0.996763	0.667384
0	H	0.574259	0.0590684	0.334169
0	H	0.449604	0.0601841	0.667556
0	H	0.448768	0.995529	0.333992
0	H	0.67687	0.591112	0.971759
0	H	0.347212	0.590558	0.0290339
0	H	0.677047	0.464614	0.0297758
0	H	0.34721	0.464253	0.971532
0	N	0.524452	0.251215	0.100602
0	N	0.499341	0.80342	0.100142
0	N	0.500122	0.25189	0.901015
0	N	0.523948	0.803756	0.899781
0	N	0.114195	0.540244	0.222068
0	N	0.114897	0.515243	0.779112
0	N	0.909831	0.513707	0.222094
0	N	0.910315	0.542178	0.779358
0	N	0.232834	0.128711	0.511487
0	N	0.789416	0.12975	0.489091
0	N	0.234706	0.924647	0.490553
0	N	0.789115	0.925577	0.512524
0	N	0.0246712	0.755879	0.604643
0	N	0.998993	0.300265	0.604005
0	N	0.999389	0.755265	0.397608
0	N	0.0233168	0.29892	0.395981
0	N	0.617191	0.0407131	0.727063
0	N	0.61637	0.0150125	0.274682
0	N	0.407556	0.0161706	0.727098
0	N	0.406429	0.0394522	0.274555
0	N	0.739005	0.634261	0.0119113
0	N	0.284849	0.633371	0.988911
0	N	0.739364	0.421634	0.989755
0	N	0.284845	0.421374	0.0115819
0	H	0.543032	0.259332	0.135596
0	H	0.48051	0.795267	0.135
0	H	0.481456	0.260134	0.866089
0	H	0.542637	0.79572	0.864826
0	H	0.150877	0.55788	0.228911
0	H	0.151424	0.497308	0.772183
0	H	0.873155	0.49605	0.228903
0	H	0.873651	0.559872	0.772568
0	H	0.241178	0.166427	0.527807
0	H	0.781054	0.167345	0.472533
0	H	0.243297	0.886945	0.474328
0	H	0.780813	0.88786	0.528859
0	H	0.0432102	0.762961	0.639879
0	H	0.980671	0.293535	0.639413
0	H	0.981051	0.762187	0.362242
0	H	0.0417505	0.291984	0.36066
0	H	0.653821	0.0588281	0.73293
0	H	0.65294	0.996743	0.268917
0	H	0.371055	0.997758	0.732911
0	H	0.369726	0.0574579	0.268812
0	H	0.745842	0.672181	0.0284804
0	H	0.277774	0.671269	0.972397
0	H	0.746315	0.383775	0.973106
0	H	0.277816	0.383445	0.0280545
0	C	0.47799	0.287925	0.091956
0	C	0.545885	0.766739	0.0917921
0	C	0.54662	0.288569	0.909652
0	C	0.477557	0.766912	0.908274
0	C	0.103723	0.493642	0.257845
0	C	0.104573	0.561753	0.743198
0	C	0.920297	0.560214	0.257981
0	C	0.920688	0.495617	0.743519
0	C	0.268108	0.116566	0.466538
0	C	0.754222	0.117973	0.534184
0	C	0.270023	0.937223	0.535362
0	C	0.75378	0.937695	0.467613
0	C	0.978723	0.793454	0.596601
0	C	0.0447404	0.262445	0.595911
0	C	0.045374	0.792784	0.405721
0	C	0.977304	0.261404	0.403937
0	C	0.607953	0.994446	0.763568
0	C	0.607299	0.0611796	0.238036
0	C	0.416479	0.0624341	0.763686
0	C	0.415725	0.99329	0.237958
0	C	0.7753	0.623712	0.967346
0	C	0.248706	0.622501	0.033532
0	C	0.775562	0.432146	0.0344171
0	C	0.248707	0.432205	0.966948
0	H	0.476201	0.295026	0.0482323
0	H	0.547831	0.759463	0.0480994
0	H	0.54845	0.295652	0.95338
0	H	0.475817	0.759598	0.951965
0	H	0.0588987	0.492608	0.263578
0	H	0.0597329	0.563076	0.737615
0	H	0.965128	0.561323	0.263618
0	H	0.965516	0.494431	0.737871
0	H	0.272231	0.0701679	0.465459
0	H	0.750159	0.0715764	0.535692
0	H	0.273764	0.983655	0.536314
0	H	0.749984	0.984114	0.466248
0	H	0.977087	0.801365	0.552995
0	H	0.04603	0.254205	0.552353
0	H	0.0467749	0.800895	0.449298
0	H	0.975893	0.253076	0.447485
0	H	0.563325	0.993532	0.770782
0	H	0.562678	0.0622013	0.230743
0	H	0.461066	0.0634025	0.771193
0	H	0.460354	0.992439	0.230721
0	H	0.781479	0.577545	0.966324
0	H	0.242819	0.57629	0.0344549
0	H	0.781783	0.478311	0.0354612
0	H	0.242724	0.478403	0.966023
0	C	0.42465	0.264854	0.107255
0	C	0.599128	0.789977	0.10719
0	C	0.599929	0.265475	0.894292
0	C	0.424179	0.789975	0.893078
0	C	0.119061	0.437742	0.237987
0	C	0.12034	0.617608	0.76285
0	C	0.904785	0.616133	0.238306
0	C	0.905102	0.439748	0.763272
0	C	0.247342	0.13308	0.41381
0	C	0.775151	0.134997	0.586706
0	C	0.249493	0.920572	0.588139
0	C	0.774321	0.920673	0.414948
0	C	0.92514	0.770722	0.611461
0	C	0.0984972	0.285097	0.610285
0	C	0.0989648	0.769828	0.391201
0	C	0.923714	0.284446	0.38954
0	C	0.622568	0.938421	0.743614
0	C	0.621943	0.117259	0.257842
0	C	0.402041	0.118507	0.743718
0	C	0.401271	0.937152	0.25776
0	C	0.754163	0.639217	0.91451
0	C	0.269885	0.638004	0.0863553
0	C	0.754263	0.41665	0.0871916
0	C	0.269933	0.416757	0.914128
0	C	0.409467	0.217564	0.135922
0	C	0.614106	0.837264	0.135944
0	C	0.615064	0.218234	0.865547
0	C	0.40892	0.83721	0.864351
0	C	0.146806	0.419879	0.192905
0	C	0.148437	0.635484	0.807716
0	C	0.877094	0.634085	0.193235
0	C	0.877423	0.421923	0.8084
0	C	0.201157	0.162042	0.397603
0	C	0.821345	0.164166	0.60251
0	C	0.203773	0.890892	0.604415
0	C	0.820332	0.891311	0.398937
0	C	0.909629	0.723689	0.64034
0	C	0.114397	0.332217	0.638858
0	C	0.114518	0.722767	0.362392
0	C	0.908134	0.331641	0.360924
0	C	0.650097	0.920252	0.698512
0	C	0.649132	0.135639	0.30307
0	C	0.37497	0.136907	0.698431
0	C	0.374316	0.918623	0.303064
0	C	0.707688	0.667657	0.898322
0	C	0.316179	0.666808	0.102481
0	C	0.707847	0.388033	0.103246
0	C	0.31626	0.388021	0.898026
0	C	0.35343	0.213529	0.134682
0	C	0.670134	0.841518	0.134809
0	C	0.671103	0.214164	0.866718
0	C	0.352891	0.841193	0.86565
0	C	0.145281	0.361984	0.191779
0	C	0.147146	0.693392	0.808688
0	C	0.878408	0.692002	0.192359
0	C	0.878762	0.364015	0.809442
0	C	0.199078	0.160729	0.3427
0	C	0.823788	0.163171	0.657417
0	C	0.201611	0.892372	0.659312
0	C	0.822514	0.89232	0.344033
0	C	0.853567	0.720107	0.639051
0	C	0.170469	0.3355	0.637213
0	C	0.170586	0.719181	0.363796
0	C	0.852088	0.335347	0.362549
0	C	0.648181	0.862374	0.697594
0	C	0.647166	0.193519	0.303733
0	C	0.37711	0.194788	0.697701
0	C	0.376444	0.860742	0.303626
0	C	0.705313	0.665819	0.843469
0	C	0.318671	0.664929	0.157324
0	C	0.705289	0.389868	0.158089
0	C	0.318831	0.389978	0.843182
0	H	0.329441	0.182483	0.152621
0	H	0.693975	0.872643	0.152826
0	H	0.695043	0.183126	0.848712
0	H	0.328774	0.87215	0.847672
0	H	0.162571	0.335632	0.16302
0	H	0.164761	0.71972	0.837264
0	H	0.86109	0.718369	0.163647
0	H	0.861471	0.337723	0.838235
0	H	0.169258	0.178675	0.318026
0	H	0.853744	0.181461	0.681587
0	H	0.171984	0.874035	0.683953
0	H	0.852233	0.873998	0.319546
0	H	0.829236	0.689599	0.657356
0	H	0.195049	0.365978	0.655224
0	H	0.194938	0.688678	0.345537
0	H	0.827692	0.365971	0.344498
0	H	0.665295	0.835426	0.66909
0	H	0.664028	0.220678	0.332264
0	H	0.360369	0.221961	0.669123
0	H	0.359786	0.833467	0.332178
0	H	0.675369	0.683452	0.818685
0	H	0.348517	0.682803	0.182073
0	H	0.675346	0.372097	0.182781
0	H	0.348753	0.372217	0.818439
0	C	0.334689	0.258309	0.105613
0	C	0.689077	0.796831	0.105746
0	C	0.689902	0.258909	0.895795
0	C	0.334229	0.796441	0.894814
0	C	0.117117	0.344895	0.236072
0	C	0.118754	0.710466	0.764526
0	C	0.906351	0.709	0.23682
0	C	0.906664	0.34689	0.765001
0	C	0.244031	0.131642	0.325705
0	C	0.779047	0.134011	0.674815
0	C	0.246089	0.922272	0.676244
0	C	0.77779	0.921656	0.326843
0	C	0.835194	0.764643	0.609424
0	C	0.18845	0.290703	0.607708
0	C	0.188898	0.76372	0.39346
0	C	0.8338	0.290709	0.392087
0	C	0.619749	0.845651	0.741859
0	C	0.619106	0.210034	0.259176
0	C	0.405172	0.211288	0.742269
0	C	0.40434	0.844382	0.258922
0	C	0.750195	0.636606	0.826481
0	C	0.27405	0.635331	0.174368
0	C	0.750002	0.419275	0.175212
0	C	0.274196	0.41953	0.826118
0	N	0.378664	0.2893	0.0897044
0	N	0.64523	0.765709	0.0897071
0	N	0.645954	0.289882	0.91181
0	N	0.378238	0.765507	0.910709
0	N	0.101993	0.39162	0.263984
0	N	0.103296	0.663717	0.736824
0	N	0.92159	0.662203	0.264563
0	N	0.92186	0.393609	0.737109
0	N	0.273161	0.115619	0.369541
0	N	0.749635	0.117763	0.631208
0	N	0.275006	0.938599	0.632371
0	N	0.748649	0.938016	0.370567
0	N	0.879383	0.795288	0.593501
0	N	0.144014	0.260218	0.592147
0	N	0.144685	0.794354	0.409323
0	N	0.878016	0.259914	0.407667
0	N	0.605045	0.892529	0.769686
0	N	0.604646	0.163028	0.231431
0	N	0.419469	0.164267	0.770074
0	N	0.41856	0.891472	0.231194
0	N	0.77977	0.621348	0.870272
0	N	0.244526	0.619837	0.130624
0	N	0.779648	0.434658	0.131507
0	N	0.244597	0.434943	0.869844
0	H	0.377438	0.323316	0.0660357
0	H	0.646596	0.73171	0.0660425
0	H	0.647202	0.323903	0.935452
0	H	0.377076	0.731534	0.934429
0	H	0.0795952	0.391918	0.297478
0	H	0.0807712	0.663406	0.703417
0	H	0.943714	0.661854	0.298228
0	H	0.943963	0.393863	0.703428
0	H	0.307368	0.0924094	0.369125
0	H	0.715507	0.0944171	0.631936
0	H	0.308836	0.962382	0.632727
0	H	0.714588	0.961462	0.369989
0	H	0.87847	0.828793	0.569143
0	H	0.144616	0.22663	0.567878
0	H	0.145558	0.827733	0.433874
0	H	0.877174	0.226298	0.431871
0	H	0.582204	0.893177	0.802873
0	H	0.582176	0.162223	0.19801
0	H	0.442021	0.163449	0.803442
0	H	0.440899	0.892379	0.197692
0	H	0.813594	0.597589	0.87006
0	H	0.210903	0.595755	0.130898
0	H	0.81337	0.458567	0.131791
0	H	0.211052	0.45913	0.869591
0	C	0.425733	0.163364	0.215566
0	C	0.597281	0.890874	0.215811
0	C	0.598628	0.164582	0.785648
0	C	0.425314	0.89107	0.784529
0	C	0.226866	0.432826	0.13843
0	C	0.228617	0.622242	0.862027
0	C	0.79718	0.621215	0.138541
0	C	0.797459	0.434977	0.862954
0	C	0.148187	0.246016	0.410523
0	C	0.874501	0.247933	0.588906
0	C	0.151225	0.806509	0.591619
0	C	0.873546	0.807508	0.412239
0	C	0.92616	0.668821	0.719652
0	C	0.0984631	0.387615	0.718016
0	C	0.0980642	0.667574	0.283219
0	C	0.92453	0.386501	0.281575
0	C	0.729499	0.933394	0.642989
0	C	0.728515	0.122602	0.35862
0	C	0.295691	0.123918	0.64268
0	C	0.29513	0.931157	0.358972
0	C	0.653259	0.750638	0.911779
0	C	0.369989	0.750209	0.0889151
0	C	0.653659	0.304909	0.0895226
0	C	0.370129	0.304653	0.91156
0	H	0.455543	0.133622	0.232575
0	H	0.567385	0.920538	0.232789
0	H	0.568898	0.134757	0.768611
0	H	0.454921	0.921151	0.767669
0	H	0.244424	0.462756	0.109547
0	H	0.245927	0.592408	0.891188
0	H	0.779676	0.591325	0.109582
0	H	0.779841	0.465014	0.891703
0	H	0.119404	0.265027	0.439261
0	H	0.902959	0.266795	0.559777
0	H	0.122254	0.787526	0.563019
0	H	0.90214	0.788627	0.441232
0	H	0.955929	0.63879	0.736157
0	H	0.0689204	0.417878	0.734428
0	H	0.0683025	0.637505	0.26684
0	H	0.954182	0.416683	0.265114
0	H	0.74588	0.962654	0.612981
0	H	0.744841	0.0934249	0.3887
0	H	0.279706	0.0949333	0.61232
0	H	0.278763	0.960228	0.389113
0	H	0.62405	0.768799	0.94053
0	H	0.399045	0.768549	0.0601084
0	H	0.624466	0.286791	0.0607247
0	H	0.39917	0.286307	0.940378
0	H	0.388039	0.139531	0.212013
0	H	0.635048	0.914655	0.212678
0	H	0.636481	0.140973	0.788901
0	H	0.387303	0.914425	0.787733
0	H	0.222022	0.393794	0.11642
0	H	0.224066	0.661523	0.88371
0	H	0.802064	0.660281	0.116588
0	H	0.802308	0.396031	0.885114
0	H	0.125241	0.241752	0.373604
0	H	0.897917	0.24369	0.625549
0	H	0.128475	0.810787	0.628654
0	H	0.896817	0.811833	0.37552
0	H	0.888276	0.645262	0.716274
0	H	0.136472	0.410918	0.714423
0	H	0.135934	0.644018	0.286727
0	H	0.886539	0.409879	0.284966
0	H	0.724741	0.893654	0.622164
0	H	0.723928	0.162471	0.379266
0	H	0.300379	0.163922	0.622319
0	H	0.300064	0.891334	0.379608
0	H	0.630485	0.74632	0.874755
0	H	0.392822	0.746083	0.12593
0	H	0.630888	0.309091	0.126566
0	H	0.393001	0.308829	0.874577
0	C	0.419753	0.211289	0.252034
0	C	0.602913	0.842657	0.251987
0	C	0.604161	0.212759	0.749411
0	C	0.420221	0.842935	0.748185
0	C	0.264263	0.426772	0.183853
0	C	0.266142	0.627526	0.816627
0	C	0.759626	0.627204	0.183847
0	C	0.760082	0.428694	0.817548
0	C	0.195701	0.283014	0.404227
0	C	0.827166	0.285055	0.595741
0	C	0.198725	0.76946	0.597623
0	C	0.826229	0.770339	0.405518
0	C	0.920919	0.716613	0.756415
0	C	0.10353	0.339976	0.75498
0	C	0.10336	0.715146	0.246208
0	C	0.919528	0.338718	0.244768
0	C	0.767973	0.929374	0.687757
0	C	0.766874	0.12626	0.313725
0	C	0.256916	0.127235	0.687255
0	C	0.256562	0.92721	0.314273
0	C	0.700327	0.788368	0.906
0	C	0.322703	0.787636	0.0947003
0	C	0.700688	0.267113	0.0951635
0	C	0.322848	0.267229	0.905711
0	C	0.457748	0.253172	0.254033
0	C	0.56475	0.800916	0.253501
0	C	0.566259	0.254763	0.748244
0	C	0.458983	0.801782	0.746388
0	C	0.272683	0.470415	0.218278
0	C	0.273279	0.58397	0.781827
0	C	0.751954	0.583965	0.21889
0	C	0.752179	0.471896	0.782516
0	C	0.234641	0.286691	0.44303
0	C	0.787441	0.288328	0.557685
0	C	0.237862	0.766416	0.558957
0	C	0.786739	0.766804	0.4438
0	C	0.959848	0.757567	0.758844
0	C	0.0641253	0.29956	0.757991
0	C	0.0647558	0.756423	0.243885
0	C	0.958906	0.298242	0.242046
0	C	0.776469	0.974433	0.72048
0	C	0.775151	0.0809702	0.281246
0	C	0.248902	0.0820004	0.719864
0	C	0.247753	0.972448	0.281856
0	C	0.737432	0.794307	0.946261
0	C	0.285149	0.792791	0.054746
0	C	0.73843	0.262128	0.0553605
0	C	0.285686	0.261523	0.945951
0	H	0.492004	0.252405	0.228096
0	H	0.530629	0.802023	0.227403
0	H	0.532371	0.253923	0.774643
0	H	0.493173	0.803303	0.772384
0	H	0.25116	0.508761	0.213048
0	H	0.250679	0.546236	0.786736
0	H	0.774113	0.545923	0.214224
0	H	0.774049	0.510104	0.787281
0	H	0.231114	0.262458	0.478455
0	H	0.790242	0.263714	0.522437
0	H	0.234524	0.791211	0.523861
0	H	0.789719	0.791255	0.479143
0	H	0.994186	0.756142	0.733017
0	H	0.0295625	0.301306	0.732471
0	H	0.0305957	0.75544	0.269961
0	H	0.993369	0.300046	0.267694
0	H	0.75411	0.0121235	0.714407
0	H	0.752763	0.0433627	0.28765
0	H	0.271824	0.0446568	0.713882
0	H	0.269914	0.0102247	0.288127
0	H	0.732912	0.771083	0.982195
0	H	0.289446	0.769162	0.0190223
0	H	0.734532	0.286207	0.0198625
0	H	0.290296	0.284761	0.981872
0	C	0.451805	0.296204	0.289283
0	C	0.570345	0.757567	0.288448
0	C	0.571784	0.29804	0.713203
0	C	0.453918	0.758521	0.711277
0	C	0.30846	0.464771	0.259372
0	C	0.309173	0.588886	0.740753
0	C	0.716068	0.5896	0.259891
0	C	0.716475	0.465998	0.741398
0	C	0.278224	0.321336	0.436371
0	C	0.743998	0.323043	0.564887
0	C	0.281385	0.731632	0.565291
0	C	0.743324	0.732041	0.436714
0	C	0.954751	0.800509	0.794303
0	C	0.0690367	0.256744	0.793611
0	C	0.069912	0.799118	0.208162
0	C	0.954122	0.255316	0.206535
0	C	0.813257	0.971064	0.76092
0	C	0.811752	0.083984	0.240616
0	C	0.211792	0.0846991	0.760075
0	C	0.210874	0.969175	0.24149
0	C	0.7805	0.829774	0.940385
0	C	0.241902	0.828021	0.0606404
0	C	0.78135	0.226444	0.0610944
0	C	0.242466	0.226259	0.940097
0	H	0.48144	0.328583	0.290574
0	H	0.540582	0.725297	0.289341
0	H	0.542212	0.330504	0.712571
0	H	0.484147	0.726722	0.71015
0	H	0.314798	0.49881	0.28589
0	H	0.314475	0.554917	0.713937
0	H	0.710316	0.555866	0.286885
0	H	0.710552	0.49969	0.714393
0	H	0.308359	0.32379	0.466562
0	H	0.713226	0.325159	0.535296
0	H	0.311671	0.729669	0.535212
0	H	0.71274	0.729705	0.466476
0	H	0.985099	0.832159	0.795865
0	H	0.0383071	0.225516	0.795611
0	H	0.0398125	0.831023	0.206698
0	H	0.984824	0.224044	0.204764
0	H	0.819586	0.00624167	0.786082
0	H	0.817878	0.0486168	0.21565
0	H	0.20585	0.0493632	0.785132
0	H	0.204306	0.00449952	0.216575
0	H	0.809167	0.834033	0.971739
0	H	0.212866	0.831626	0.0295386
0	H	0.810514	0.222943	0.0300931
0	H	0.213758	0.222187	0.971436
0	C	0.408104	0.297694	0.322718
0	C	0.613864	0.755625	0.322094
0	C	0.614966	0.299666	0.679137
0	C	0.41031	0.756038	0.677769
0	C	0.336039	0.415659	0.266413
0	C	0.338185	0.63718	0.73411
0	C	0.687627	0.638293	0.266232
0	C	0.688447	0.41707	0.734943
0	C	0.283175	0.352661	0.391191
0	C	0.740023	0.354874	0.609834
0	C	0.28606	0.699503	0.609988
0	C	0.739106	0.700423	0.391645
0	C	0.910934	0.802899	0.827557
0	C	0.113143	0.253961	0.826471
0	C	0.113441	0.800923	0.174521
0	C	0.910156	0.25245	0.173505
0	C	0.841821	0.922733	0.769022
0	C	0.840392	0.132183	0.232099
0	C	0.182401	0.132518	0.768056
0	C	0.182506	0.920768	0.233168
0	C	0.786861	0.859579	0.894446
0	C	0.235852	0.858436	0.106258
0	C	0.786912	0.195442	0.10641
0	C	0.23601	0.19641	0.894199
0	H	0.403518	0.331117	0.350167
0	H	0.618168	0.721959	0.349314
0	H	0.619215	0.333277	0.651849
0	H	0.4064	0.722421	0.650435
0	H	0.363961	0.411218	0.298316
0	H	0.366163	0.641067	0.702192
0	H	0.659663	0.64274	0.298096
0	H	0.660617	0.412415	0.702993
0	H	0.317161	0.379485	0.385954
0	H	0.706137	0.381726	0.615511
0	H	0.319982	0.672545	0.614962
0	H	0.705241	0.673513	0.386078
0	H	0.907026	0.836231	0.855204
0	H	0.116922	0.220726	0.854238
0	H	0.117399	0.834055	0.146668
0	H	0.906487	0.219133	0.145814
0	H	0.870621	0.920069	0.800346
0	H	0.869017	0.134582	0.200604
0	H	0.153341	0.134637	0.799185
0	H	0.153637	0.918177	0.2019
0	H	0.820391	0.887127	0.889833
0	H	0.2022	0.885824	0.110859
0	H	0.820305	0.167699	0.110892
0	H	0.202389	0.168978	0.88963
0	C	0.370115	0.256009	0.320752
0	C	0.652016	0.797176	0.320631
0	C	0.652854	0.257847	0.680256
0	C	0.371537	0.796949	0.679556
0	C	0.327513	0.372001	0.232353
0	C	0.33097	0.680745	0.768566
0	C	0.695349	0.681527	0.231507
0	C	0.696412	0.373858	0.769642
0	C	0.24423	0.349375	0.35264
0	C	0.7798	0.352034	0.647614
0	C	0.246925	0.702176	0.648399
0	C	0.77861	0.70355	0.353628
0	C	0.871981	0.762217	0.82512
0	C	0.152569	0.294119	0.823468
0	C	0.152062	0.759892	0.176835
0	C	0.870731	0.292623	0.176252
0	C	0.833123	0.877605	0.736783
0	C	0.831958	0.177529	0.264139
0	C	0.190601	0.177828	0.735912
0	C	0.191523	0.875454	0.265091
0	C	0.749934	0.853788	0.854311
0	C	0.273249	0.853447	0.146079
0	C	0.74934	0.200286	0.146089
0	C	0.272949	0.202029	0.85405
0	H	0.335732	0.257316	0.346488
0	H	0.686244	0.795534	0.346545
0	H	0.686824	0.259238	0.654007
0	H	0.337201	0.794836	0.653801
0	H	0.348621	0.333433	0.238025
0	H	0.353138	0.718721	0.763159
0	H	0.673566	0.719776	0.236644
0	H	0.674958	0.335428	0.764402
0	H	0.24804	0.373588	0.317224
0	H	0.776736	0.376661	0.682837
0	H	0.25054	0.677351	0.683455
0	H	0.775358	0.679116	0.318299
0	H	0.837432	0.764296	0.850609
0	H	0.187327	0.291737	0.848663
0	H	0.186377	0.761503	0.151021
0	H	0.836051	0.29015	0.150961
0	H	0.854883	0.839575	0.743402
0	H	0.853798	0.215446	0.257215
0	H	0.168179	0.215467	0.742418
0	H	0.169912	0.837373	0.258296
0	H	0.754921	0.87668	0.818247
0	H	0.26851	0.876817	0.181897
0	H	0.753706	0.176466	0.181684
0	H	0.267856	0.179143	0.817998
0	C	0.375926	0.212892	0.285641
0	C	0.646554	0.840596	0.285798
0	C	0.647454	0.214478	0.715151
0	C	0.376491	0.84032	0.71453
0	C	0.291706	0.377484	0.191251
0	C	0.295075	0.675976	0.809678
0	C	0.731217	0.676036	0.190457
0	C	0.732118	0.379612	0.810799
0	C	0.200608	0.314744	0.359114
0	C	0.823256	0.317307	0.640623
0	C	0.20337	0.736963	0.642271
0	C	0.822067	0.73832	0.360519
0	C	0.876982	0.71915	0.789811
0	C	0.14776	0.33704	0.787973
0	C	0.147003	0.717074	0.212402
0	C	0.875427	0.335678	0.211623
0	C	0.796285	0.880839	0.696324
0	C	0.795286	0.174658	0.304765
0	C	0.227762	0.175272	0.695696
0	C	0.228481	0.878583	0.305456
0	C	0.706797	0.818353	0.860029
0	C	0.316534	0.818206	0.140368
0	C	0.706352	0.235932	0.140522
0	C	0.31624	0.237275	0.859741
0	H	0.346502	0.180224	0.284458
0	H	0.676119	0.873142	0.285004
0	H	0.676792	0.181709	0.715666
0	H	0.346418	0.872346	0.715559
0	H	0.285119	0.343273	0.165026
0	H	0.289605	0.710094	0.836266
0	H	0.737102	0.709873	0.163636
0	H	0.738226	0.345775	0.837576
0	H	0.170361	0.31239	0.328997
0	H	0.854158	0.315243	0.67014
0	H	0.173014	0.738826	0.672317
0	H	0.852747	0.740569	0.330803
0	H	0.846747	0.687334	0.788344
0	H	0.178373	0.368438	0.786051
0	H	0.176934	0.684946	0.213744
0	H	0.844796	0.367065	0.213326
0	H	0.789637	0.845384	0.671651
0	H	0.788845	0.210294	0.329262
0	H	0.233999	0.210869	0.671101
0	H	0.235405	0.842954	0.329834
0	H	0.678258	0.814033	0.828566
0	H	0.345435	0.814489	0.171593
0	H	0.677287	0.23949	0.171615
0	H	0.344769	0.241465	0.828246
0	O	0.520667	0.13571	0.172317
0	O	0.502539	0.918686	0.172081
0	O	0.503672	0.136809	0.828853
0	O	0.520157	0.91897	0.827927
0	O	0.185054	0.530759	0.110844
0	O	0.186257	0.524592	0.889954
0	O	0.839095	0.523378	0.110835
0	O	0.839542	0.532793	0.89063
0	O	0.121618	0.204883	0.504881
0	O	0.901057	0.205617	0.494874
0	O	0.123675	0.847863	0.497606
0	O	0.900936	0.849753	0.505921
0	O	0.0197857	0.639385	0.67472
0	O	0.00467612	0.417003	0.673501
0	O	0.0043915	0.63842	0.32804
0	O	0.0184849	0.415469	0.326175
0	O	0.686284	0.0302959	0.614588
0	O	0.68542	0.0256408	0.386981
0	O	0.338159	0.0264941	0.615196
0	O	0.33736	0.0286483	0.386694
0	O	0.624653	0.706371	0.00439522
0	O	0.398626	0.706231	0.9962
0	O	0.625094	0.349278	0.996995
0	O	0.398801	0.348657	0.00424402
0	C	0.565279	0.1624	0.0750109
0	C	0.458539	0.892189	0.0744065
0	C	0.459247	0.162993	0.926306
0	C	0.564381	0.892695	0.925605
0	C	0.088313	0.581843	0.137809
0	C	0.0890999	0.47423	0.86365
0	C	0.935758	0.472272	0.137773
0	C	0.936463	0.583633	0.863587
0	C	0.14635	0.10539	0.552922
0	C	0.875747	0.105779	0.447753
0	C	0.147939	0.947218	0.449352
0	C	0.875596	0.949376	0.553672
0	C	0.0637251	0.667044	0.576631
0	C	0.960199	0.389015	0.575534
0	C	0.960125	0.666694	0.425966
0	C	0.0625899	0.387564	0.424231
0	C	0.589395	0.0813003	0.643109
0	C	0.588491	0.974617	0.358689
0	C	0.435316	0.975767	0.643024
0	C	0.434353	0.0799244	0.358543
0	C	0.65339	0.606781	0.0522122
0	C	0.370638	0.606303	0.948589
0	C	0.653768	0.448866	0.949264
0	C	0.370576	0.448476	0.05199
0	H	0.594874	0.162932	0.107348
0	H	0.428792	0.891617	0.106607
0	H	0.429688	0.163626	0.893938
0	H	0.594155	0.892174	0.893429
0	H	0.122106	0.611471	0.138557
0	H	0.12282	0.444506	0.86318
0	H	0.901954	0.442655	0.138466
0	H	0.902828	0.613447	0.862733
0	H	0.146654	0.141544	0.579549
0	H	0.875354	0.141562	0.420682
0	H	0.148575	0.911093	0.422689
0	H	0.875003	0.913618	0.580763
0	H	0.0943777	0.667654	0.608009
0	H	0.929483	0.388337	0.606848
0	H	0.929439	0.667473	0.394625
0	H	0.093224	0.38683	0.39284
0	H	0.622469	0.111747	0.644057
0	H	0.621621	0.944229	0.35791
0	H	0.402174	0.945388	0.643828
0	H	0.401237	0.110325	0.35761
0	H	0.653899	0.641626	0.0803212
0	H	0.370042	0.641143	0.920477
0	H	0.654459	0.414016	0.921163
0	H	0.370123	0.413558	0.0800197
0	C	0.551794	0.102883	0.0618885
0	C	0.472011	0.951722	0.0613316
0	C	0.4727	0.103424	0.93926
0	C	0.550699	0.952198	0.938583
0	C	0.0747702	0.56845	0.0812774
0	C	0.0754861	0.488124	0.92006
0	C	0.949292	0.485736	0.0812528
0	C	0.949808	0.570234	0.92016
0	C	0.0886631	0.0906456	0.540371
0	C	0.933482	0.0912029	0.460269
0	C	0.0901107	0.961327	0.461962
0	C	0.933404	0.96358	0.541109
0	C	0.0498508	0.607499	0.56401
0	C	0.974027	0.448575	0.562932
0	C	0.97371	0.60708	0.438595
0	C	0.0489377	0.447161	0.436867
0	C	0.57623	0.0679619	0.586491
0	C	0.575203	0.988154	0.415239
0	C	0.448517	0.989304	0.58645
0	C	0.447437	0.0664836	0.415158
0	C	0.59564	0.592219	0.0398201
0	C	0.428425	0.591976	0.961077
0	C	0.595936	0.463215	0.961519
0	C	0.428305	0.463039	0.0394872
0	H	0.524425	0.0997286	0.0286532
0	H	0.499372	0.95491	0.0280891
0	H	0.499944	0.100127	0.972586
0	H	0.523198	0.955329	0.971719
0	H	0.0402008	0.541053	0.0779759
0	H	0.0408212	0.515437	0.923102
0	H	0.983839	0.513166	0.0779702
0	H	0.984277	0.542712	0.923552
0	H	0.085665	0.0541995	0.515348
0	H	0.936612	0.0551456	0.485779
0	H	0.0866992	0.99773	0.486993
0	H	0.93672	0.999652	0.515645
0	H	0.0222787	0.604114	0.530995
0	H	0.00162614	0.451978	0.529946
0	H	0.00139013	0.603573	0.471515
0	H	0.0213898	0.450668	0.469888
0	H	0.541928	0.0402395	0.582911
0	H	0.540814	0.0157878	0.41868
0	H	0.482849	0.0170077	0.582948
0	H	0.481737	0.0387586	0.418763
0	H	0.592497	0.556321	0.0141208
0	H	0.431662	0.556042	0.986723
0	H	0.5926	0.499046	0.987277
0	H	0.431403	0.498937	0.0137809
0	H	0.534081	0.0815241	0.0951516
0	H	0.48971	0.973068	0.0946062
0	H	0.490538	0.0822077	0.905982
0	H	0.533052	0.973452	0.905232
0	H	0.108405	0.549459	0.0609993
0	H	0.109045	0.50743	0.940184
0	H	0.915631	0.504714	0.0610006
0	H	0.916054	0.551351	0.940349
0	H	0.067862	0.124554	0.521201
0	H	0.954387	0.1254	0.47887
0	H	0.0696416	0.927213	0.481146
0	H	0.954061	0.929275	0.522415
0	H	0.0323607	0.586439	0.597561
0	H	0.99147	0.469659	0.596496
0	H	0.990966	0.5859	0.40499
0	H	0.0315121	0.468277	0.403316
0	H	0.610191	0.049491	0.566257
0	H	0.609089	0.00685121	0.435419
0	H	0.414586	0.00788748	0.566268
0	H	0.413437	0.0479286	0.43527
0	H	0.574595	0.626523	0.0215174
0	H	0.449288	0.626335	0.979482
0	H	0.57494	0.428795	0.979682
0	H	0.449291	0.42873	0.0211313
0	H	0.587929	0.0801693	0.051685
0	H	0.435857	0.974405	0.051135
0	H	0.436523	0.0806644	0.949229
0	H	0.586745	0.975013	0.948887
0	H	0.0653892	0.605993	0.059698
0	H	0.0661944	0.450752	0.94194
0	H	0.958686	0.448215	0.0596451
0	H	0.959239	0.607752	0.941749
0	H	0.0665193	0.081821	0.576159
0	H	0.95546	0.0818713	0.424497
0	H	0.0678257	0.969846	0.426183
0	H	0.955526	0.972694	0.576847
0	H	0.0858228	0.584527	0.553749
0	H	0.938042	0.471498	0.552625
0	H	0.937655	0.584323	0.448992
0	H	0.0849981	0.469989	0.447121
0	H	0.56658	0.105474	0.564982
0	H	0.565622	0.950702	0.43687
0	H	0.45812	0.951835	0.56485
0	H	0.457044	0.103955	0.436745
0	H	0.573719	0.5827	0.0755698
0	H	0.450446	0.582608	0.925353
0	H	0.574095	0.472728	0.925721
0	H	0.450306	0.472559	0.0751888
0	C	0.589556	0.191869	0.0277037
0	C	0.434523	0.862718	0.0269721
0	C	0.434923	0.19232	0.973667
0	C	0.588415	0.863342	0.973098
0	C	0.0404879	0.608033	0.165772
0	C	0.0412444	0.447942	0.835823
0	C	0.983567	0.446	0.165683
0	C	0.984495	0.609495	0.835693
0	C	0.174922	0.0576067	0.580213
0	C	0.847036	0.0576385	0.421183
0	C	0.176019	0.995307	0.422058
0	C	0.847148	0.997714	0.5802
0	C	0.0861948	0.696391	0.528368
0	C	0.937905	0.359662	0.527195
0	C	0.937899	0.696207	0.474251
0	C	0.0849636	0.358111	0.472481
0	C	0.540871	0.105959	0.671187
0	C	0.540079	0.949766	0.330582
0	C	0.483778	0.950937	0.671059
0	C	0.48287	0.104672	0.330521
0	C	0.682684	0.557867	0.0769343
0	C	0.341567	0.557278	0.923832
0	C	0.682938	0.497875	0.924577
0	C	0.341336	0.497327	0.0768827
0	H	0.561745	0.190248	0.994101
0	H	0.462399	0.864527	0.993432
0	H	0.462681	0.190577	0.00730778
0	H	0.560412	0.864971	0.00654558
0	H	0.0055309	0.580123	0.16393
0	H	0.00623689	0.475782	0.837731
0	H	0.0185512	0.473876	0.163901
0	H	0.0192831	0.581373	0.837609
0	H	0.173231	0.020212	0.555486
0	H	0.848319	0.0207728	0.446641
0	H	0.174356	0.0325044	0.447054
0	H	0.848267	0.03443	0.554544
0	H	0.0574709	0.694181	0.495575
0	H	0.966623	0.362127	0.494414
0	H	0.966684	0.69385	0.506988
0	H	0.0563138	0.360521	0.50532
0	H	0.506687	0.0771003	0.669181
0	H	0.505749	0.978444	0.332585
0	H	0.518017	0.97974	0.669191
0	H	0.517139	0.0759238	0.33259
0	H	0.681734	0.522004	0.0502272
0	H	0.342488	0.521449	0.95058
0	H	0.681756	0.533769	0.95124
0	H	0.342187	0.533247	0.0502407
0	H	0.594393	0.236417	0.0365321
0	H	0.42983	0.818128	0.035698
0	H	0.430115	0.236901	0.964951
0	H	0.59336	0.818788	0.964353
0	H	0.0495619	0.612688	0.207968
0	H	0.0501994	0.443243	0.793613
0	H	0.974486	0.44127	0.207891
0	H	0.975526	0.614154	0.793454
0	H	0.217961	0.0672295	0.584404
0	H	0.804056	0.0675014	0.416511
0	H	0.219085	0.985884	0.41736
0	H	0.804179	0.98791	0.585207
0	H	0.0907868	0.74112	0.536684
0	H	0.933599	0.314891	0.535389
0	H	0.933545	0.740943	0.465904
0	H	0.0892719	0.313362	0.464176
0	H	0.549707	0.110497	0.713503
0	H	0.548926	0.945311	0.288267
0	H	0.47488	0.946258	0.713355
0	H	0.474096	0.109131	0.288193
0	H	0.725689	0.567987	0.0817534
0	H	0.298543	0.567286	0.918845
0	H	0.725996	0.487939	0.919884
0	H	0.298357	0.48717	0.0818291
0	C	0.643229	0.168152	0.0121092
0	C	0.38079	0.886237	0.0112983
0	C	0.381206	0.168593	0.989103
0	C	0.641967	0.887154	0.988958
0	C	0.0256986	0.663729	0.143362
0	C	0.0266346	0.392235	0.858331
0	C	0.998291	0.390332	0.143174
0	C	0.999573	0.665129	0.858057
0	C	0.151643	0.045406	0.63363
0	C	0.870603	0.0441073	0.368182
0	C	0.152113	0.0078047	0.368966
0	C	0.871081	0.011583	0.632965
0	C	0.139667	0.673283	0.51135
0	C	0.884309	0.382466	0.510193
0	C	0.884337	0.673444	0.491408
0	C	0.138593	0.38091	0.489405
0	C	0.524532	0.161389	0.649246
0	C	0.523955	0.894234	0.35244
0	C	0.500022	0.895557	0.648951
0	C	0.49905	0.160174	0.352409
0	C	0.659562	0.541932	0.129517
0	C	0.364933	0.54134	0.871355
0	C	0.659893	0.51363	0.871912
0	C	0.364654	0.513121	0.129424
0	H	0.672203	0.171289	0.0438325
0	H	0.351789	0.883061	0.0429895
0	H	0.352381	0.171557	0.957241
0	H	0.670988	0.884452	0.957243
0	H	0.0583307	0.693207	0.147557
0	H	0.0592674	0.362785	0.853969
0	H	0.965397	0.361075	0.146739
0	H	0.966835	0.694575	0.854497
0	H	0.156315	0.0803632	0.660047
0	H	0.867207	0.0788388	0.341322
0	H	0.155963	0.972787	0.342494
0	H	0.868452	0.976805	0.659851
0	H	0.169439	0.676731	0.542323
0	H	0.854525	0.378688	0.541118
0	H	0.854519	0.677041	0.460497
0	H	0.168179	0.377652	0.458245
0	H	0.556812	0.191401	0.652476
0	H	0.556376	0.864384	0.349269
0	H	0.467564	0.865707	0.651765
0	H	0.466579	0.18999	0.349413
0	H	0.66206	0.575878	0.157352
0	H	0.362961	0.575419	0.843627
0	H	0.662328	0.479553	0.844217
0	H	0.362352	0.479051	0.157137
0	H	0.659902	0.190177	0.978787
0	H	0.364208	0.864105	0.978001
0	H	0.364345	0.190726	0.0222699
0	H	0.658704	0.864884	0.0221002
0	H	0.991117	0.68097	0.163438
0	H	0.991971	0.374939	0.83844
0	H	0.0324492	0.372706	0.163639
0	H	0.0337751	0.682517	0.837478
0	H	0.171671	0.0103926	0.651679
0	H	0.849893	0.00942531	0.350298
0	H	0.172206	0.0426525	0.35069
0	H	0.850044	0.0459409	0.65106
0	H	0.155184	0.695569	0.477641
0	H	0.868982	0.360216	0.47638
0	H	0.869028	0.695849	0.525137
0	H	0.154242	0.358277	0.522843
0	H	0.490356	0.178064	0.670397
0	H	0.489941	0.877406	0.331149
0	H	0.533942	0.878579	0.670278
0	H	0.532955	0.177077	0.331006
0	H	0.681186	0.507263	0.146371
0	H	0.343124	0.50695	0.854221
0	H	0.681599	0.548177	0.854931
0	H	0.343039	0.547679	0.146484
0	H	0.640443	0.12486	0.00146857
0	H	0.383454	0.929518	0.000592094
0	H	0.383993	0.125349	0.999917
0	H	0.638983	0.93033	0.999958
0	H	0.0160227	0.661416	0.101963
0	H	0.0171961	0.394554	0.899783
0	H	0.00860787	0.392831	0.101932
0	H	0.00996422	0.662665	0.89928
0	H	0.109133	0.0360368	0.631771
0	H	0.912815	0.0335355	0.370657
0	H	0.109744	0.0176958	0.371399
0	H	0.913101	0.0228459	0.630061
0	H	0.137035	0.629997	0.500685
0	H	0.886675	0.425812	0.499689
0	H	0.886749	0.630155	0.502111
0	H	0.136138	0.424104	0.500435
0	H	0.513478	0.158877	0.608203
0	H	0.512743	0.896643	0.393448
0	H	0.511405	0.898248	0.608003
0	H	0.510429	0.157692	0.393368
0	H	0.617695	0.530143	0.126712
0	H	0.406664	0.529117	0.874414
0	H	0.618047	0.525529	0.874644
0	H	0.406485	0.525014	0.126472
0	C	0.490048	0.3424	0.118039
0	C	0.533835	0.712338	0.118017
0	C	0.534531	0.343078	0.883644
0	C	0.489636	0.712575	0.88195
0	C	0.129707	0.507006	0.30963
0	C	0.130258	0.548021	0.691365
0	C	0.894478	0.54669	0.309807
0	C	0.894863	0.509087	0.691686
0	C	0.322276	0.140964	0.478749
0	C	0.699976	0.142119	0.5219
0	C	0.324391	0.913349	0.523104
0	C	0.699462	0.913821	0.480069
0	C	0.991307	0.847226	0.623735
0	C	0.0322496	0.208938	0.623553
0	C	0.0330994	0.846459	0.378274
0	C	0.989494	0.20785	0.376245
0	C	0.635794	0.00818467	0.814336
0	C	0.635145	0.0472394	0.18732
0	C	0.388374	0.0485878	0.814283
0	C	0.387856	0.0070878	0.187224
0	C	0.828216	0.650701	0.979921
0	C	0.195566	0.649124	0.0211675
0	C	0.828505	0.405144	0.0219605
0	C	0.195648	0.405423	0.979331
0	C	0.463861	0.359378	0.163187
0	C	0.560246	0.695348	0.163035
0	C	0.561205	0.360523	0.838931
0	C	0.463461	0.695887	0.836702
0	C	0.17951	0.485879	0.323133
0	C	0.18004	0.568945	0.677511
0	C	0.84478	0.56788	0.323597
0	C	0.845045	0.488089	0.678064
0	C	0.34019	0.189201	0.455252
0	C	0.681824	0.190291	0.54534
0	C	0.342983	0.865625	0.547043
0	C	0.681174	0.865509	0.456993
0	C	0.965309	0.863549	0.669215
0	C	0.0579006	0.193536	0.669512
0	C	0.0595442	0.86254	0.332958
0	C	0.963429	0.192364	0.330539
0	C	0.686308	0.987704	0.826054
0	C	0.685608	0.0677678	0.175458
0	C	0.338159	0.0697097	0.8262
0	C	0.337321	0.986644	0.17553
0	C	0.843807	0.700034	0.956882
0	C	0.179389	0.697951	0.044783
0	C	0.844447	0.356261	0.0456257
0	C	0.1798	0.35633	0.956001
0	H	0.433632	0.333577	0.181128
0	H	0.590639	0.721094	0.180786
0	H	0.591858	0.335073	0.821233
0	H	0.433322	0.721862	0.81884
0	H	0.200834	0.459056	0.296438
0	H	0.201532	0.595927	0.703933
0	H	0.823376	0.594815	0.29707
0	H	0.823571	0.461365	0.704732
0	H	0.315307	0.210725	0.427238
0	H	0.706626	0.212015	0.573287
0	H	0.318439	0.84404	0.5753
0	H	0.705898	0.843463	0.429213
0	H	0.934738	0.837725	0.686562
0	H	0.0881592	0.219858	0.686724
0	H	0.0902643	0.836612	0.315995
0	H	0.933054	0.218659	0.313494
0	H	0.706637	0.960641	0.798848
0	H	0.705944	0.0949592	0.202546
0	H	0.318175	0.0973412	0.799268
0	H	0.316965	0.959627	0.202758
0	H	0.818032	0.720367	0.928832
0	H	0.204903	0.718254	0.0730802
0	H	0.818938	0.336247	0.0741112
0	H	0.205469	0.336005	0.927855
0	C	0.47649	0.409751	0.185804
0	C	0.547634	0.645045	0.185794
0	C	0.548494	0.410907	0.816387
0	C	0.47596	0.645593	0.81387
0	C	0.202172	0.499246	0.371028
0	C	0.202466	0.555186	0.629612
0	C	0.822335	0.554453	0.371569
0	C	0.822586	0.501404	0.630068
0	C	0.390172	0.210261	0.467895
0	C	0.631691	0.211001	0.532749
0	C	0.393222	0.845156	0.534531
0	C	0.630973	0.845068	0.469726
0	C	0.978513	0.913229	0.692855
0	C	0.0447857	0.144169	0.693767
0	C	0.0466268	0.912115	0.308987
0	C	0.976272	0.142917	0.306287
0	C	0.710931	0.00191744	0.872802
0	C	0.710181	0.0534371	0.128719
0	C	0.313333	0.0553695	0.87281
0	C	0.312711	0.000844527	0.128775
0	C	0.89254	0.723705	0.969995
0	C	0.13038	0.721178	0.0319447
0	C	0.893208	0.332599	0.0326023
0	C	0.13092	0.332875	0.968928
0	H	0.455291	0.423087	0.220386
0	H	0.569028	0.631701	0.220264
0	H	0.570064	0.424598	0.782149
0	H	0.454721	0.632477	0.77923
0	H	0.240381	0.48185	0.3818
0	H	0.240649	0.572451	0.618554
0	H	0.784213	0.571898	0.382562
0	H	0.784379	0.484074	0.619196
0	H	0.404283	0.247234	0.448826
0	H	0.617378	0.2479	0.551803
0	H	0.407876	0.80863	0.553988
0	H	0.616564	0.808031	0.450992
0	H	0.957382	0.926069	0.72765
0	H	0.0656655	0.132039	0.728932
0	H	0.06812	0.92477	0.27434
0	H	0.955061	0.130726	0.27133
0	H	0.749744	0.985023	0.882139
0	H	0.748938	0.0703866	0.119248
0	H	0.274773	0.0727691	0.882327
0	H	0.273888	0.983976	0.119443
0	H	0.90482	0.761573	0.951302
0	H	0.117645	0.758638	0.0510878
0	H	0.905758	0.295099	0.0517969
0	H	0.118447	0.295195	0.950017
0	C	0.515733	0.442901	0.163893
0	C	0.508149	0.611985	0.164185
0	C	0.508655	0.44359	0.8379
0	C	0.515118	0.612237	0.835645
0	C	0.175625	0.534328	0.405126
0	C	0.175724	0.519882	0.595872
0	C	0.848989	0.519242	0.405474
0	C	0.849343	0.536325	0.595977
0	C	0.421994	0.183768	0.504543
0	C	0.599982	0.184268	0.496169
0	C	0.424584	0.87165	0.4975
0	C	0.599315	0.872232	0.506065
0	C	0.018224	0.946335	0.67167
0	C	0.00547182	0.110464	0.672731
0	C	0.00671098	0.945343	0.329631
0	C	0.0157343	0.109214	0.32706
0	C	0.685578	0.03718	0.907596
0	C	0.684869	0.0179613	0.0940981
0	C	0.338145	0.0193079	0.907236
0	C	0.338066	0.036091	0.0939669
0	C	0.925467	0.698674	0.00664515
0	C	0.0977637	0.696243	0.994975
0	C	0.925802	0.357147	0.995379
0	C	0.0980927	0.357866	0.00568879
0	H	0.52561	0.482006	0.181573
0	H	0.498281	0.572939	0.181983
0	H	0.498704	0.482694	0.820261
0	H	0.524889	0.573185	0.817805
0	H	0.193347	0.544769	0.442323
0	H	0.193284	0.50909	0.558692
0	H	0.83144	0.508767	0.442739
0	H	0.831789	0.546712	0.558689
0	H	0.460776	0.200268	0.51448
0	H	0.561084	0.200499	0.486271
0	H	0.463547	0.855561	0.487638
0	H	0.560363	0.85621	0.516071
0	H	0.0286602	0.984854	0.6902
0	H	0.995071	0.0722064	0.691757
0	H	0.99649	0.983773	0.310822
0	H	0.0259073	0.0708902	0.308042
0	H	0.704833	0.0483888	0.943874
0	H	0.704082	0.00666277	0.0578255
0	H	0.318694	0.00796044	0.943372
0	H	0.318829	0.0472683	0.0576738
0	H	0.963253	0.717248	0.0169769
0	H	0.059751	0.714463	0.984875
0	H	0.9636	0.338569	0.985103
0	H	0.0601823	0.339471	0.0158616
0	C	0.542287	0.425766	0.119025
0	C	0.481354	0.629132	0.119459
0	C	0.481598	0.425984	0.882312
0	C	0.54173	0.629111	0.880572
0	C	0.126181	0.555991	0.391381
0	C	0.126285	0.49845	0.609952
0	C	0.898306	0.497492	0.391433
0	C	0.898788	0.557898	0.609856
0	C	0.403866	0.13591	0.528504
0	C	0.618371	0.136505	0.472221
0	C	0.405742	0.918922	0.473025
0	C	0.617846	0.920133	0.52966
0	C	0.0445331	0.929899	0.626444
0	C	0.979543	0.125945	0.626999
0	C	0.979942	0.929154	0.374671
0	C	0.0421092	0.124794	0.372521
0	C	0.635284	0.0580358	0.89574
0	C	0.634652	0.997021	0.106116
0	C	0.388125	0.997793	0.895176
0	C	0.388351	0.0569653	0.105833
0	C	0.909747	0.649617	0.0300157
0	C	0.114093	0.647735	0.970982
0	C	0.909726	0.405732	0.971361
0	C	0.114095	0.406646	0.0293997
0	H	0.573085	0.451457	0.102013
0	H	0.450351	0.603518	0.102698
0	H	0.450316	0.451296	0.898995
0	H	0.572488	0.60327	0.897453
0	H	0.105572	0.583604	0.417774
0	H	0.105505	0.47069	0.583829
0	H	0.918988	0.469753	0.417657
0	H	0.919569	0.585391	0.583474
0	H	0.428488	0.115286	0.557268
0	H	0.593844	0.115699	0.443503
0	H	0.430005	0.939509	0.443943
0	H	0.593359	0.941273	0.558195
0	H	0.0757354	0.955512	0.60998
0	H	0.948658	0.0998363	0.610645
0	H	0.948574	0.954858	0.390706
0	H	0.0731206	0.0987345	0.388681
0	H	0.615554	0.0858384	0.92262
0	H	0.614962	0.969028	0.0793936
0	H	0.407411	0.969368	0.921778
0	H	0.408069	0.0847846	0.0789661
0	H	0.935233	0.630096	0.0587704
0	H	0.0888619	0.628308	0.941958
0	H	0.934938	0.424862	0.942143
0	H	0.088713	0.42611	0.0582764
0	C	0.529449	0.37579	0.0959853
0	C	0.494215	0.679017	0.0962477
0	C	0.494544	0.376013	0.905309
0	C	0.528984	0.679	0.903842
0	C	0.103094	0.542309	0.343823
0	C	0.103413	0.512561	0.657499
0	C	0.92117	0.511229	0.343783
0	C	0.921674	0.54425	0.657518
0	C	0.354221	0.114413	0.515653
0	C	0.66815	0.115328	0.485054
0	C	0.355848	0.939873	0.485784
0	C	0.667708	0.941016	0.516708
0	C	0.0310174	0.880668	0.602336
0	C	0.993035	0.174833	0.602242
0	C	0.993232	0.880058	0.399161
0	C	0.0288789	0.173755	0.397281
0	C	0.610256	0.0434015	0.849378
0	C	0.609635	0.0118285	0.152437
0	C	0.413378	0.0125685	0.848971
0	C	0.413396	0.0423005	0.152179
0	C	0.861348	0.625537	0.0166996
0	C	0.162763	0.624081	0.984039
0	C	0.861327	0.429842	0.984632
0	C	0.162642	0.430518	0.0162585
0	H	0.550403	0.362433	0.0609658
0	H	0.473107	0.692363	0.0613207
0	H	0.47321	0.362283	0.939977
0	H	0.549972	0.692142	0.938908
0	H	0.0644408	0.559468	0.333213
0	H	0.064744	0.49561	0.668353
0	H	0.959709	0.493979	0.332904
0	H	0.960334	0.56132	0.668256
0	H	0.340129	0.0771769	0.534884
0	H	0.682443	0.078144	0.465867
0	H	0.341189	0.976656	0.466169
0	H	0.682144	0.978281	0.535656
0	H	0.0515846	0.867844	0.566955
0	H	0.972862	0.186813	0.566389
0	H	0.972389	0.867525	0.434478
0	H	0.0494042	0.185811	0.432918
0	H	0.570868	0.0596852	0.840263
0	H	0.570269	0.995541	0.161635
0	H	0.45251	0.995745	0.839691
0	H	0.452802	0.05855	0.161274
0	H	0.849137	0.587268	0.0352659
0	H	0.175474	0.586247	0.96498
0	H	0.848877	0.467782	0.965615
0	H	0.175087	0.468561	0.0351104
0	C	0.280756	0.273971	0.0922405
0	C	0.743078	0.78128	0.0925349
0	C	0.743867	0.274587	0.909029
0	C	0.280271	0.780911	0.908225
0	C	0.103681	0.29017	0.253721
0	C	0.105216	0.765137	0.746801
0	C	0.919535	0.763678	0.254812
0	C	0.919911	0.29217	0.747188
0	C	0.261171	0.118693	0.273309
0	C	0.7622	0.12072	0.727224
0	C	0.262968	0.935851	0.728586
0	C	0.761023	0.934859	0.274391
0	C	0.781432	0.780156	0.595266
0	C	0.242007	0.274647	0.593399
0	C	0.242635	0.779361	0.407594
0	C	0.780122	0.275088	0.406408
0	C	0.605619	0.791017	0.759303
0	C	0.605088	0.26458	0.241396
0	C	0.419339	0.265793	0.760075
0	C	0.4184	0.78991	0.240957
0	C	0.766327	0.622789	0.773958
0	C	0.258072	0.6215	0.22694
0	C	0.765899	0.433095	0.227809
0	C	0.25827	0.433322	0.773519
0	O	0.266491	0.313813	0.067426
0	O	0.75743	0.741454	0.0677307
0	O	0.758155	0.314455	0.933809
0	O	0.265867	0.740915	0.932762
0	O	0.081461	0.27754	0.294055
0	O	0.0830731	0.777622	0.706385
0	O	0.941518	0.776149	0.295319
0	O	0.941564	0.279607	0.706531
0	O	0.302233	0.0961633	0.260169
0	O	0.721212	0.097989	0.740299
0	O	0.303938	0.958562	0.741708
0	O	0.72011	0.957568	0.261079
0	O	0.767511	0.819388	0.569421
0	O	0.255403	0.235081	0.567736
0	O	0.256487	0.81854	0.433535
0	O	0.766416	0.235634	0.432061
0	O	0.582791	0.778501	0.799329
0	O	0.582656	0.276879	0.201094
0	O	0.441781	0.278001	0.800411
0	O	0.440701	0.777798	0.200531
0	O	0.806737	0.599375	0.760343
0	O	0.2179	0.597717	0.240648
0	O	0.806213	0.456556	0.241611
0	O	0.218141	0.457154	0.759762
0	C	0.18857	0.248718	0.103781
0	C	0.835222	0.806596	0.10436
0	C	0.836036	0.249426	0.897167
0	C	0.188236	0.807039	0.897027
0	C	0.109969	0.194427	0.232313
0	C	0.110957	0.86093	0.768295
0	C	0.913104	0.859536	0.233628
0	C	0.914624	0.196398	0.769354
0	C	0.237166	0.126819	0.182861
0	C	0.786657	0.127501	0.817666
0	C	0.238653	0.928706	0.81898
0	C	0.785715	0.92754	0.184063
0	C	0.689108	0.755712	0.606605
0	C	0.334601	0.298093	0.603931
0	C	0.335	0.755626	0.395842
0	C	0.687744	0.299259	0.395539
0	C	0.611883	0.695274	0.737623
0	C	0.610967	0.360402	0.262881
0	C	0.413714	0.361652	0.738752
0	C	0.412906	0.694017	0.262151
0	C	0.740434	0.630946	0.683891
0	C	0.283969	0.630497	0.316981
0	C	0.739629	0.424603	0.317764
0	C	0.284164	0.424079	0.683489
0	H	0.182474	0.284554	0.0787148
0	H	0.841472	0.769436	0.0811284
0	H	0.842212	0.28611	0.921086
0	H	0.181831	0.770034	0.92043
0	H	0.0755562	0.19022	0.258196
0	H	0.0773075	0.864936	0.741436
0	H	0.945829	0.863627	0.261556
0	H	0.945053	0.192432	0.739011
0	H	0.271365	0.0993711	0.177866
0	H	0.752042	0.10058	0.822469
0	H	0.27042	0.959117	0.82387
0	H	0.751655	0.955169	0.179067
0	H	0.683549	0.787741	0.577174
0	H	0.339558	0.266682	0.57379
0	H	0.340483	0.785512	0.427243
0	H	0.68237	0.269091	0.426714
0	H	0.577272	0.690965	0.763214
0	H	0.576986	0.364513	0.236458
0	H	0.448283	0.365716	0.764431
0	H	0.447092	0.690081	0.235964
0	H	0.775237	0.604507	0.678236
0	H	0.248053	0.605748	0.322853
0	H	0.774049	0.451516	0.323638
0	H	0.248303	0.448898	0.677551
0	H	0.171978	0.255367	0.142834
0	H	0.852006	0.802321	0.143622
0	H	0.852658	0.254631	0.857936
0	H	0.171343	0.802679	0.857808
0	H	0.14653	0.17957	0.251171
0	H	0.147929	0.876256	0.750582
0	H	0.875529	0.874834	0.250057
0	H	0.876232	0.179776	0.756325
0	H	0.245411	0.167837	0.167173
0	H	0.779249	0.168323	0.834178
0	H	0.250537	0.888531	0.83445
0	H	0.77745	0.886728	0.167905
0	H	0.672949	0.768453	0.644532
0	H	0.350727	0.284106	0.641489
0	H	0.350411	0.77149	0.35866
0	H	0.672052	0.283828	0.358309
0	H	0.64833	0.680282	0.756668
0	H	0.64782	0.375555	0.244717
0	H	0.377253	0.376589	0.757819
0	H	0.376217	0.678922	0.243635
0	H	0.746942	0.672019	0.667511
0	H	0.279478	0.671802	0.333473
0	H	0.74664	0.383542	0.333982
0	H	0.279602	0.382761	0.667051
0	H	0.172846	0.211615	0.0857686
0	H	0.850593	0.842688	0.0843214
0	H	0.851635	0.212948	0.916394
0	H	0.173121	0.843352	0.916896
0	H	0.103314	0.174511	0.194888
0	H	0.102923	0.880561	0.805594
0	H	0.922437	0.879133	0.196599
0	H	0.927562	0.177957	0.805878
0	H	0.201126	0.109176	0.166235
0	H	0.822516	0.108822	0.833636
0	H	0.201275	0.942724	0.835904
0	H	0.821959	0.945221	0.167896
0	H	0.672445	0.716672	0.593861
0	H	0.351825	0.337175	0.592026
0	H	0.352474	0.716012	0.405615
0	H	0.67048	0.338837	0.405786
0	H	0.605549	0.675588	0.700027
0	H	0.603581	0.380081	0.300296
0	H	0.42013	0.381558	0.701271
0	H	0.419999	0.674157	0.299533
0	H	0.70445	0.611985	0.668486
0	H	0.319131	0.60971	0.332084
0	H	0.703325	0.442933	0.333151
0	H	0.319393	0.444732	0.668363
0	O	0.244647	0.237217	0.112016
0	O	0.779105	0.817994	0.112493
0	O	0.779935	0.237898	0.889109
0	O	0.244389	0.818061	0.888772
0	O	0.119099	0.251339	0.218169
0	O	0.120348	0.804046	0.782378
0	O	0.904152	0.802627	0.219373
0	O	0.905125	0.253378	0.783005
0	O	0.224052	0.13494	0.237389
0	O	0.799399	0.136632	0.763193
0	O	0.225653	0.920064	0.764499
0	O	0.798345	0.918758	0.238611
0	O	0.745021	0.743973	0.61551
0	O	0.278906	0.31059	0.613211
0	O	0.27916	0.743402	0.387141
0	O	0.743569	0.311375	0.386593
0	O	0.621277	0.752233	0.72384
0	O	0.620332	0.303496	0.276882
0	O	0.404252	0.304795	0.724623
0	O	0.403393	0.75084	0.276369
0	O	0.728836	0.639626	0.738652
0	O	0.295378	0.63899	0.262161
0	O	0.728289	0.416097	0.26293
0	O	0.295533	0.415664	0.738327
