#******************************************
#
# CIF file created by Zeo++
# Zeo++ is an open source package to
# analyze microporous materials
#
#*******************************************

_cell_length_a		24.7362(0)
_cell_length_b		25.0917(0)
_cell_length_c		24.8703(0)
_cell_angle_alpha		90(0)
_cell_angle_beta		90(0)
_cell_angle_gamma		90(0)

_symmetry_space_group_name_H-M		'P1'
_symmetry_Int_Tables_number		1
_symmetry_cell_setting		Monoclinic

loop_
_symmetry_equiv_pos_as_xyz
'+x,+y,+z'

loop_
_atom_site_label
_atom_site_type_symbol
_atom_site_fract_x
_atom_site_fract_y
_atom_site_fract_z
0	C	0.630868	0.590962	0.354686
0	C	0.858737	0.387005	0.854122
0	C	0.357608	0.0898762	0.138211
0	C	0.1346	0.889085	0.632936
0	C	0.358567	0.621709	0.595667
0	C	0.860703	0.852773	0.392588
0	C	0.135951	0.354608	0.0942906
0	C	0.63413	0.126338	0.892726
0	C	0.598746	0.35298	0.6264
0	C	0.395091	0.851653	0.857724
0	C	0.0960618	0.129015	0.362774
0	C	0.895479	0.625411	0.126374
0	C	0.360826	0.386929	0.631163
0	C	0.132592	0.590148	0.13189
0	C	0.633288	0.889911	0.850445
0	C	0.85738	0.0884671	0.353465
0	C	0.633287	0.35533	0.390127
0	C	0.131824	0.12639	0.595058
0	C	0.855438	0.624088	0.891602
0	C	0.358699	0.850206	0.0944426
0	C	0.392748	0.625198	0.359759
0	C	0.597185	0.126201	0.129786
0	C	0.894951	0.849302	0.627239
0	C	0.0982384	0.352459	0.856608
0	H	0.608578	0.627366	0.34803
0	H	0.880894	0.350502	0.847581
0	H	0.37863	0.126774	0.146024
0	H	0.112737	0.852491	0.639892
0	H	0.351873	0.599237	0.632086
0	H	0.854513	0.875955	0.356534
0	H	0.143068	0.376686	0.130873
0	H	0.640924	0.104024	0.856225
0	H	0.635576	0.346882	0.603931
0	H	0.358372	0.845613	0.880392
0	H	0.132623	0.135528	0.38554
0	H	0.859188	0.631464	0.103061
0	H	0.383115	0.350506	0.637718
0	H	0.110307	0.62659	0.138359
0	H	0.611679	0.853238	0.843148
0	H	0.879173	0.125081	0.346375
0	H	0.640036	0.377542	0.353552
0	H	0.138165	0.103518	0.631289
0	H	0.848295	0.602194	0.85491
0	H	0.351964	0.872385	0.131042
0	H	0.355838	0.631384	0.382072
0	H	0.634018	0.132271	0.107312
0	H	0.857879	0.842802	0.605292
0	H	0.135109	0.346193	0.878958
0	C	0.647419	0.569066	0.401862
0	C	0.842392	0.409259	0.901208
0	C	0.342067	0.068699	0.0903509
0	C	0.152006	0.910218	0.585698
0	C	0.405991	0.638328	0.573786
0	C	0.907794	0.835495	0.414685
0	C	0.0882832	0.338077	0.0728626
0	C	0.586667	0.143366	0.914226
0	C	0.57616	0.399418	0.643285
0	C	0.418119	0.898057	0.841309
0	C	0.0738544	0.082299	0.346141
0	C	0.91709	0.579078	0.144768
0	C	0.344231	0.408944	0.584059
0	C	0.148936	0.567838	0.0848333
0	C	0.649615	0.911245	0.897976
0	C	0.840233	0.0673795	0.400817
0	C	0.585823	0.339002	0.412139
0	C	0.084622	0.143107	0.572763
0	C	0.903148	0.640241	0.913241
0	C	0.406118	0.83329	0.0727619
0	C	0.415368	0.578694	0.343112
0	C	0.574041	0.0797783	0.145978
0	C	0.91782	0.896031	0.642929
0	C	0.0759874	0.398998	0.839539
0	H	0.640338	0.586194	0.441295
0	H	0.849581	0.392449	0.940742
0	H	0.348757	0.0870274	0.0514276
0	H	0.146259	0.892206	0.546477
0	H	0.44565	0.631114	0.590946
0	H	0.947714	0.842884	0.398271
0	H	0.0488295	0.344938	0.0905661
0	H	0.547081	0.136689	0.896742
0	H	0.593051	0.438729	0.636356
0	H	0.401886	0.93748	0.848975
0	H	0.0907635	0.043127	0.353719
0	H	0.89992	0.539823	0.138355
0	H	0.351282	0.391942	0.544567
0	H	0.141631	0.584524	0.0452633
0	H	0.643068	0.893329	0.937117
0	H	0.846177	0.0854539	0.43998
0	H	0.546168	0.346241	0.394968
0	H	0.0447365	0.13554	0.589194
0	H	0.94261	0.633203	0.895621
0	H	0.445741	0.839917	0.0901749
0	H	0.398465	0.539408	0.350142
0	H	0.590302	0.0403627	0.138336
0	H	0.900999	0.935232	0.63535
0	H	0.0931609	0.438218	0.846201
0	C	0.676581	0.519541	0.395492
0	C	0.813292	0.458807	0.894617
0	C	0.314524	0.0180863	0.0951546
0	C	0.180273	0.960301	0.591664
0	C	0.399575	0.667745	0.524213
0	C	0.900643	0.80512	0.463568
0	C	0.0940986	0.309231	0.022863
0	C	0.592913	0.17252	0.963987
0	C	0.526231	0.392412	0.672644
0	C	0.467747	0.890866	0.811453
0	C	0.0241487	0.0887361	0.316244
0	C	0.966459	0.586096	0.175054
0	C	0.315046	0.458436	0.590586
0	C	0.178196	0.518389	0.0915068
0	C	0.677809	0.961429	0.892453
0	C	0.811997	0.0172617	0.39506
0	C	0.592183	0.309852	0.461882
0	C	0.0915884	0.173146	0.523638
0	C	0.897355	0.668938	0.963332
0	C	0.399773	0.804332	0.0229066
0	C	0.465378	0.585583	0.313856
0	C	0.524242	0.0869277	0.17557
0	C	0.9681	0.889523	0.671841
0	C	0.0259357	0.392256	0.810337
0	H	0.691506	0.497752	0.430336
0	H	0.798483	0.480786	0.929396
0	H	0.300383	0.996867	0.0596508
0	H	0.195812	0.981503	0.556707
0	H	0.434622	0.682698	0.502391
0	H	0.935385	0.789553	0.485482
0	H	0.0588	0.294344	0.00140799
0	H	0.557799	0.187823	0.985473
0	H	0.503888	0.426623	0.68788
0	H	0.490296	0.925057	0.796477
0	H	0.00219303	0.0542772	0.301092
0	H	0.987997	0.55193	0.19152
0	H	0.300072	0.480296	0.555798
0	H	0.192972	0.496345	0.0567582
0	H	0.692535	0.98279	0.927626
0	H	0.796665	0.996066	0.430112
0	H	0.557098	0.295096	0.483794
0	H	0.0567409	0.188246	0.501557
0	H	0.932689	0.683533	0.984933
0	H	0.434835	0.789125	0.001257
0	H	0.487729	0.551301	0.298786
0	H	0.501581	0.0527182	0.190324
0	H	0.9906	0.923971	0.686208
0	H	0.00386263	0.426568	0.794889
0	C	0.681929	0.503925	0.343213
0	C	0.807825	0.474162	0.842265
0	C	0.309425	0.000878649	0.146953
0	C	0.184117	0.977178	0.643692
0	C	0.347012	0.673238	0.508533
0	C	0.847885	0.799607	0.478571
0	C	0.146442	0.304084	0.00634871
0	C	0.645367	0.177419	0.980254
0	C	0.511015	0.340389	0.677791
0	C	0.482327	0.83875	0.805507
0	C	0.00868886	0.140629	0.310436
0	C	0.982312	0.638022	0.179422
0	C	0.309754	0.47394	0.642908
0	C	0.18381	0.503212	0.143896
0	C	0.68265	0.978099	0.840449
0	C	0.807911	0.000355437	0.343066
0	C	0.644728	0.304321	0.477592
0	C	0.144316	0.178971	0.508665
0	C	0.844988	0.674329	0.979704
0	C	0.347288	0.799474	0.00673388
0	C	0.480651	0.637576	0.308581
0	C	0.509661	0.139039	0.181559
0	C	0.983303	0.837577	0.677823
0	C	0.0102182	0.340337	0.805521
0	C	0.707532	0.457134	0.320083
0	C	0.782316	0.520908	0.818879
0	C	0.284777	0.953125	0.169009
0	C	0.208963	0.0245459	0.666381
0	C	0.323739	0.698839	0.46153
0	C	0.82399	0.77353	0.525001
0	C	0.169226	0.278917	0.958863
0	C	0.668439	0.202899	0.0274299
0	C	0.463998	0.316898	0.703532
0	C	0.528932	0.814796	0.779418
0	C	0.961791	0.163902	0.284313
0	C	0.0291789	0.661382	0.205516
0	C	0.28424	0.520718	0.66616
0	C	0.209427	0.456602	0.167428
0	C	0.707579	0.025451	0.817861
0	C	0.783033	0.952992	0.320444
0	C	0.667976	0.278925	0.524721
0	C	0.168114	0.204884	0.462087
0	C	0.822214	0.699442	0.0272247
0	C	0.324184	0.774181	0.959477
0	C	0.527734	0.660982	0.282882
0	C	0.462963	0.162972	0.207504
0	C	0.0304338	0.814219	0.703453
0	C	0.962987	0.317142	0.77995
0	C	0.753196	0.434735	0.344754
0	C	0.736611	0.543595	0.843197
0	C	0.238848	0.930991	0.14458
0	C	0.254918	0.0467538	0.642037
0	C	0.348605	0.743864	0.439016
0	C	0.84833	0.728263	0.547573
0	C	0.144604	0.233708	0.936468
0	C	0.643764	0.248121	0.0497567
0	C	0.441335	0.34116	0.74908
0	C	0.551602	0.838462	0.733569
0	C	0.939572	0.139947	0.238389
0	C	0.0513945	0.637247	0.251365
0	C	0.2386	0.543275	0.641601
0	C	0.255243	0.433996	0.143251
0	C	0.75357	0.0476598	0.842131
0	C	0.737132	0.930738	0.344838
0	C	0.643241	0.233875	0.547312
0	C	0.143754	0.250087	0.439427
0	C	0.846918	0.74455	0.0497408
0	C	0.348817	0.729035	0.93695
0	C	0.550434	0.636677	0.237376
0	C	0.440143	0.139251	0.253247
0	C	0.0530696	0.838219	0.749156
0	C	0.94033	0.341461	0.734417
0	H	0.769925	0.45305	0.380836
0	H	0.719788	0.525594	0.879399
0	H	0.221708	0.949731	0.108912
0	H	0.272083	0.0281504	0.606316
0	H	0.384994	0.760186	0.457438
0	H	0.884882	0.711928	0.529501
0	H	0.108414	0.217155	0.955064
0	H	0.607433	0.264483	0.0312763
0	H	0.459677	0.377103	0.7656
0	H	0.533639	0.874562	0.717007
0	H	0.957968	0.103998	0.221954
0	H	0.0327831	0.601472	0.267911
0	H	0.221777	0.525079	0.605502
0	H	0.272084	0.451959	0.107041
0	H	0.770703	0.0290848	0.877895
0	H	0.720043	0.949265	0.380637
0	H	0.606921	0.217408	0.5289
0	H	0.107259	0.266516	0.457532
0	H	0.883107	0.761124	0.0311487
0	H	0.38513	0.712561	0.955363
0	H	0.532097	0.600735	0.220863
0	H	0.45802	0.103099	0.269793
0	H	0.0349044	0.874257	0.765654
0	H	0.958744	0.377345	0.717875
0	C	0.777935	0.389036	0.323551
0	C	0.711913	0.589116	0.821502
0	C	0.214234	0.885165	0.165639
0	C	0.279526	0.0925152	0.663214
0	C	0.327222	0.768503	0.393059
0	C	0.826285	0.703454	0.593143
0	C	0.165986	0.209121	0.89048
0	C	0.665247	0.272956	0.0955533
0	C	0.395345	0.319734	0.773969
0	C	0.597116	0.816241	0.708456
0	C	0.893976	0.161699	0.213015
0	C	0.0972801	0.65859	0.276555
0	C	0.213987	0.588983	0.662937
0	C	0.279992	0.388569	0.165088
0	C	0.778209	0.0933362	0.820793
0	C	0.712477	0.885031	0.3236
0	C	0.664681	0.209393	0.593329
0	C	0.165704	0.274707	0.393695
0	C	0.82561	0.769001	0.0958356
0	C	0.327334	0.704414	0.891039
0	C	0.59646	0.65808	0.212515
0	C	0.394564	0.161457	0.278251
0	C	0.0987607	0.816349	0.774236
0	C	0.894283	0.320144	0.709523
0	H	0.813314	0.371961	0.343762
0	H	0.676491	0.606305	0.841504
0	H	0.178503	0.868478	0.145707
0	H	0.315207	0.109324	0.643308
0	H	0.347616	0.803358	0.375882
0	H	0.846387	0.668423	0.610272
0	H	0.145821	0.174006	0.873551
0	H	0.644973	0.30801	0.112466
0	H	0.378068	0.339615	0.809273
0	H	0.614286	0.835718	0.672898
0	H	0.877176	0.142043	0.177375
0	H	0.114145	0.638766	0.312078
0	H	0.178602	0.606168	0.642824
0	H	0.315486	0.371407	0.145186
0	H	0.813953	0.110112	0.840632
0	H	0.676824	0.86819	0.34353
0	H	0.644411	0.174491	0.61055
0	H	0.145588	0.309681	0.376476
0	H	0.845853	0.804012	0.112888
0	H	0.34759	0.669428	0.873964
0	H	0.613751	0.638187	0.177231
0	H	0.377248	0.141923	0.313713
0	H	0.115894	0.836017	0.809715
0	H	0.877081	0.34008	0.674231
0	C	0.757261	0.365529	0.277392
0	C	0.732676	0.612275	0.775186
0	C	0.235243	0.861197	0.211409
0	C	0.258468	0.116345	0.70903
0	C	0.28065	0.748385	0.369423
0	C	0.779617	0.723696	0.6165
0	C	0.21231	0.229466	0.866569
0	C	0.711718	0.252826	0.11936
0	C	0.371806	0.273772	0.753551
0	C	0.62032	0.770159	0.729016
0	C	0.870257	0.207622	0.233351
0	C	0.121213	0.704359	0.25615
0	C	0.234797	0.612364	0.709107
0	C	0.259179	0.365458	0.211395
0	C	0.757155	0.117094	0.774938
0	C	0.733431	0.861311	0.277681
0	C	0.711158	0.229725	0.616959
0	C	0.212295	0.25434	0.370299
0	C	0.779291	0.748625	0.119725
0	C	0.280867	0.72465	0.867322
0	C	0.620006	0.704039	0.232949
0	C	0.371454	0.20759	0.257707
0	C	0.122153	0.770308	0.753801
0	C	0.870639	0.274217	0.729915
0	C	0.773932	0.318022	0.246712
0	C	0.716239	0.659529	0.743924
0	C	0.218456	0.813842	0.242257
0	C	0.275114	0.163822	0.739755
0	C	0.249552	0.765175	0.321777
0	C	0.748063	0.707333	0.664053
0	C	0.243579	0.212667	0.819013
0	C	0.742859	0.269597	0.167009
0	C	0.32388	0.243089	0.770338
0	C	0.667948	0.738829	0.712469
0	C	0.822654	0.238661	0.216262
0	C	0.169194	0.734914	0.273064
0	C	0.218276	0.659825	0.73993
0	C	0.275615	0.31824	0.242722
0	C	0.773787	0.164433	0.74398
0	C	0.716739	0.81392	0.246853
0	C	0.742335	0.213065	0.664602
0	C	0.243766	0.270543	0.322637
0	C	0.74812	0.765267	0.167405
0	C	0.24966	0.708065	0.819646
0	C	0.667921	0.734731	0.216156
0	C	0.323841	0.238938	0.274226
0	C	0.169757	0.739161	0.770669
0	C	0.822698	0.24356	0.713158
0	C	0.815867	0.282695	0.253547
0	C	0.674288	0.694973	0.750049
0	C	0.176123	0.778929	0.235803
0	C	0.317312	0.198897	0.733224
0	C	0.256098	0.80688	0.286495
0	C	0.75394	0.665754	0.69959
0	C	0.237357	0.170787	0.783897
0	C	0.736532	0.311403	0.202197
0	C	0.288139	0.249726	0.812145
0	C	0.70368	0.744675	0.670554
0	C	0.787294	0.232445	0.174078
0	C	0.204798	0.728326	0.314988
0	C	0.176319	0.695172	0.733299
0	C	0.317547	0.282788	0.236637
0	C	0.81605	0.199444	0.750333
0	C	0.674524	0.778868	0.253339
0	C	0.736003	0.171312	0.699846
0	C	0.237868	0.312053	0.287027
0	C	0.754424	0.807041	0.202637
0	C	0.255813	0.666324	0.784356
0	C	0.703579	0.728186	0.174261
0	C	0.288093	0.233137	0.316152
0	C	0.205251	0.745281	0.812756
0	C	0.78696	0.250081	0.671318
0	C	0.860787	0.281427	0.296054
0	C	0.628832	0.696448	0.791952
0	C	0.131045	0.77816	0.193502
0	C	0.362578	0.199754	0.691083
0	C	0.298672	0.851311	0.285437
0	C	0.795785	0.620683	0.700686
0	C	0.19491	0.126248	0.782937
0	C	0.694371	0.356213	0.202804
0	C	0.287009	0.291772	0.856899
0	C	0.704816	0.786037	0.625201
0	C	0.786499	0.190658	0.129107
0	C	0.20556	0.686505	0.359958
0	C	0.13121	0.696556	0.690993
0	C	0.363035	0.281293	0.194755
0	C	0.86132	0.200257	0.792441
0	C	0.629254	0.778021	0.295473
0	C	0.693576	0.126748	0.701009
0	C	0.195955	0.357064	0.285816
0	C	0.796898	0.851564	0.203669
0	C	0.297852	0.621403	0.783597
0	C	0.704647	0.686257	0.129389
0	C	0.286936	0.191813	0.361545
0	C	0.206151	0.786949	0.857856
0	C	0.786085	0.291838	0.626296
0	C	0.897288	0.331377	0.292979
0	C	0.592355	0.646506	0.788182
0	C	0.095152	0.82857	0.196574
0	C	0.398534	0.149415	0.694255
0	C	0.295661	0.886793	0.336192
0	C	0.791575	0.585013	0.650131
0	C	0.197707	0.0910587	0.833929
0	C	0.697838	0.391282	0.151791
0	C	0.337899	0.288703	0.892918
0	C	0.653993	0.781731	0.589194
0	C	0.837589	0.194339	0.0934261
0	C	0.154439	0.690003	0.395593
0	C	0.0947381	0.646588	0.693976
0	C	0.399484	0.331271	0.198438
0	C	0.897237	0.149879	0.789181
0	C	0.593329	0.828386	0.292383
0	C	0.696627	0.0912128	0.650307
0	C	0.200017	0.392853	0.336316
0	C	0.794032	0.886892	0.152785
0	C	0.294276	0.586219	0.834524
0	C	0.653643	0.689289	0.093552
0	C	0.337878	0.195891	0.397418
0	C	0.155059	0.783212	0.893531
0	C	0.837168	0.288287	0.590617
0	H	0.874727	0.366457	0.308329
0	H	0.614946	0.611281	0.803103
0	H	0.117938	0.863166	0.180429
0	H	0.375646	0.114652	0.678624
0	H	0.31081	0.86414	0.371417
0	H	0.805792	0.607633	0.614512
0	H	0.181517	0.113682	0.868726
0	H	0.683059	0.36823	0.116662
0	H	0.373406	0.303692	0.870224
0	H	0.61816	0.795865	0.611904
0	H	0.873075	0.179689	0.116346
0	H	0.118947	0.675555	0.372516
0	H	0.117275	0.611586	0.678401
0	H	0.376831	0.366441	0.183475
0	H	0.874372	0.115162	0.804944
0	H	0.616181	0.863081	0.308213
0	H	0.681331	0.113746	0.615066
0	H	0.18553	0.370345	0.371908
0	H	0.809819	0.864262	0.117816
0	H	0.309268	0.609067	0.869705
0	H	0.618236	0.674168	0.1163
0	H	0.373561	0.181487	0.374647
0	H	0.119554	0.797836	0.870631
0	H	0.872632	0.303099	0.613495
0	H	0.932169	0.326067	0.32035
0	H	0.557412	0.651456	0.815532
0	H	0.0598486	0.823347	0.169741
0	H	0.433572	0.15442	0.667043
0	H	0.323423	0.921044	0.33124
0	H	0.819472	0.550796	0.654513
0	H	0.170574	0.0563503	0.828733
0	H	0.669932	0.425502	0.156118
0	H	0.332804	0.316003	0.92752
0	H	0.658405	0.809027	0.554518
0	H	0.833034	0.167083	0.058748
0	H	0.158856	0.662477	0.430087
0	H	0.0597997	0.651994	0.666694
0	H	0.434396	0.326322	0.171056
0	H	0.932401	0.154904	0.816237
0	H	0.558202	0.823275	0.319476
0	H	0.668983	0.0568786	0.655345
0	H	0.172231	0.427139	0.331721
0	H	0.821423	0.921407	0.157879
0	H	0.321941	0.551832	0.830043
0	H	0.658677	0.662078	0.0588724
0	H	0.333399	0.168694	0.432161
0	H	0.159569	0.810448	0.92825
0	H	0.832578	0.315466	0.555873
0	C	0.917465	0.342969	0.235833
0	C	0.572292	0.635461	0.730847
0	C	0.075868	0.841325	0.253778
0	C	0.418318	0.137164	0.751375
0	C	0.23827	0.906937	0.347877
0	C	0.733954	0.564757	0.639759
0	C	0.25516	0.071862	0.846809
0	C	0.755222	0.411423	0.140315
0	C	0.349494	0.232078	0.913117
0	C	0.643655	0.724772	0.569121
0	C	0.848801	0.251171	0.0734301
0	C	0.143304	0.746654	0.415886
0	C	0.074662	0.634699	0.75108
0	C	0.419602	0.342409	0.255732
0	C	0.916846	0.137537	0.731988
0	C	0.57368	0.840884	0.235273
0	C	0.754055	0.0712331	0.638574
0	C	0.257638	0.412921	0.346867
0	C	0.736591	0.906461	0.140415
0	C	0.236753	0.566426	0.845975
0	C	0.641894	0.745939	0.0735347
0	C	0.348584	0.252842	0.417326
0	C	0.143965	0.72636	0.913465
0	C	0.848466	0.231484	0.57087
0	H	0.936787	0.30689	0.218684
0	H	0.55307	0.671716	0.713965
0	H	0.0550083	0.806189	0.271109
0	H	0.439728	0.172279	0.768065
0	H	0.220753	0.925302	0.311256
0	H	0.717535	0.545769	0.676567
0	H	0.272933	0.0521158	0.811077
0	H	0.77151	0.432193	0.176179
0	H	0.312753	0.21512	0.9321
0	H	0.680744	0.7085	0.550187
0	H	0.812068	0.267734	0.0541017
0	H	0.179719	0.762699	0.436256
0	H	0.0551139	0.670615	0.768322
0	H	0.439434	0.306375	0.272385
0	H	0.938118	0.172669	0.715156
0	H	0.552566	0.805753	0.218256
0	H	0.771702	0.0530273	0.675221
0	H	0.274119	0.432099	0.310186
0	H	0.71922	0.926244	0.176336
0	H	0.220145	0.546227	0.809921
0	H	0.678612	0.763065	0.0546505
0	H	0.311704	0.269207	0.436584
0	H	0.180548	0.710037	0.933274
0	H	0.812058	0.215113	0.550755
0	H	0.882514	0.351706	0.20934
0	H	0.607305	0.626925	0.704374
0	H	0.111284	0.848619	0.280095
0	H	0.383116	0.130517	0.77816
0	H	0.211697	0.872663	0.357536
0	H	0.706971	0.599043	0.631378
0	H	0.281445	0.106695	0.855146
0	H	0.782477	0.377007	0.133441
0	H	0.358555	0.205801	0.878416
0	H	0.635167	0.698408	0.603892
0	H	0.857179	0.277469	0.108259
0	H	0.135923	0.773415	0.381164
0	H	0.109675	0.626097	0.777541
0	H	0.384569	0.350343	0.282371
0	H	0.881569	0.130782	0.70535
0	H	0.608917	0.847956	0.208654
0	H	0.780493	0.105572	0.628774
0	H	0.28456	0.378533	0.355072
0	H	0.710036	0.871802	0.132232
0	H	0.209836	0.600998	0.853375
0	H	0.632702	0.772071	0.108314
0	H	0.356806	0.27914	0.382437
0	H	0.136208	0.699957	0.878548
0	H	0.856005	0.205095	0.605856
0	C	0.957454	0.389674	0.234751
0	C	0.532193	0.588835	0.729143
0	C	0.0381552	0.889884	0.25487
0	C	0.455555	0.0882519	0.752594
0	C	0.23761	0.947291	0.394191
0	C	0.732113	0.52507	0.592885
0	C	0.255922	0.0336113	0.894919
0	C	0.756604	0.448851	0.0915646
0	C	0.396563	0.230914	0.953234
0	C	0.59665	0.722448	0.528962
0	C	0.89628	0.252909	0.0338101
0	C	0.0948963	0.748372	0.45438
0	C	0.0349799	0.58775	0.752035
0	C	0.458965	0.389627	0.25746
0	C	0.95416	0.0886573	0.730696
0	C	0.536081	0.889542	0.234306
0	C	0.754799	0.0307635	0.592389
0	C	0.259594	0.45232	0.393995
0	C	0.735658	0.944825	0.0924132
0	C	0.235201	0.528421	0.89424
0	C	0.594896	0.747091	0.0333516
0	C	0.395973	0.255129	0.457011
0	C	0.0959692	0.724325	0.952436
0	C	0.896775	0.229493	0.532306
0	H	0.995118	0.378487	0.255875
0	H	0.494121	0.600228	0.749474
0	H	0.00106831	0.881311	0.231623
0	H	0.492538	0.0962388	0.728894
0	H	0.259329	0.983897	0.382168
0	H	0.752935	0.487727	0.604344
0	H	0.232617	0.997264	0.885327
0	H	0.733207	0.485415	0.100253
0	H	0.385513	0.252973	0.990122
0	H	0.608181	0.742691	0.491134
0	H	0.885631	0.231248	0.996575
0	H	0.104052	0.725342	0.491205
0	H	0.997473	0.598536	0.730429
0	H	0.496819	0.379228	0.236241
0	H	0.991107	0.0967297	0.754378
0	H	0.499123	0.881149	0.257883
0	H	0.732995	0.994207	0.604432
0	H	0.238412	0.489593	0.383005
0	H	0.758963	0.981165	0.102032
0	H	0.258089	0.491676	0.884992
0	H	0.60599	0.725018	0.996487
0	H	0.38508	0.23436	0.494722
0	H	0.105981	0.745995	0.989843
0	H	0.887422	0.251849	0.495121
0	H	0.940443	0.424129	0.257537
0	H	0.548657	0.554411	0.752364
0	H	0.0578761	0.924174	0.234366
0	H	0.435418	0.0539572	0.732738
0	H	0.260266	0.930868	0.429275
0	H	0.755041	0.54136	0.557912
0	H	0.234878	0.0523776	0.929794
0	H	0.736071	0.429605	0.0566881
0	H	0.432077	0.252341	0.935965
0	H	0.561353	0.745059	0.545097
0	H	0.931641	0.231348	0.0512489
0	H	0.0594287	0.728312	0.435595
0	H	0.0524657	0.553281	0.729607
0	H	0.441475	0.424114	0.235065
0	H	0.934035	0.0543307	0.7506
0	H	0.555978	0.923858	0.254454
0	H	0.73226	0.0471015	0.557178
0	H	0.23705	0.435621	0.429029
0	H	0.7566	0.926173	0.057407
0	H	0.256215	0.547035	0.929239
0	H	0.559337	0.72569	0.0505583
0	H	0.431284	0.233002	0.440234
0	H	0.0606944	0.74568	0.934572
0	H	0.932172	0.250104	0.550716
0	C	0.969948	0.406795	0.17686
0	C	0.520657	0.571404	0.671112
0	C	0.0234876	0.905266	0.312806
0	C	0.470641	0.0733843	0.810555
0	C	0.179561	0.960763	0.411141
0	C	0.673719	0.513162	0.575835
0	C	0.313971	0.0189361	0.910812
0	C	0.814957	0.463198	0.0764216
0	C	0.412479	0.173445	0.967093
0	C	0.579794	0.664704	0.517458
0	C	0.912471	0.310489	0.0206623
0	C	0.0804343	0.80607	0.468877
0	C	0.02202	0.570848	0.809887
0	C	0.471238	0.406398	0.315525
0	C	0.969288	0.0737596	0.672744
0	C	0.520999	0.904714	0.176436
0	C	0.812879	0.0171731	0.575668
0	C	0.318051	0.464425	0.410649
0	C	0.677552	0.959455	0.076676
0	C	0.176812	0.514668	0.909714
0	C	0.579077	0.804585	0.0194769
0	C	0.412436	0.31291	0.468933
0	C	0.0799977	0.666613	0.965283
0	C	0.911646	0.171654	0.518852
0	H	0.983583	0.371943	0.153114
0	H	0.50691	0.605978	0.646987
0	H	0.00736258	0.870053	0.334381
0	H	0.487338	0.108627	0.831658
0	H	0.15594	0.973838	0.375671
0	H	0.649933	0.499313	0.610916
0	H	0.336206	0.0041555	0.875148
0	H	0.836746	0.478341	0.112238
0	H	0.376296	0.150867	0.980132
0	H	0.615254	0.641182	0.504098
0	H	0.876549	0.333277	0.00723792
0	H	0.116971	0.82742	0.483065
0	H	0.00848629	0.605856	0.833459
0	H	0.485668	0.371627	0.338962
0	H	0.986231	0.108931	0.651728
0	H	0.5047	0.869452	0.155052
0	H	0.836349	0.00410503	0.611253
0	H	0.341572	0.478199	0.375366
0	H	0.655361	0.974215	0.112402
0	H	0.154525	0.500154	0.873946
0	H	0.615373	0.827213	0.00682248
0	H	0.376779	0.336095	0.48237
0	H	0.115835	0.644057	0.97925
0	H	0.875213	0.149793	0.5052
0	H	0.932414	0.420745	0.157037
0	H	0.558587	0.557759	0.651834
0	H	0.0604794	0.916971	0.334937
0	H	0.433733	0.0622474	0.833116
0	H	0.159077	0.924355	0.42596
0	H	0.653822	0.550393	0.562348
0	H	0.335915	0.0551408	0.924025
0	H	0.836946	0.426758	0.0640221
0	H	0.427141	0.152886	0.930459
0	H	0.565909	0.645478	0.55511
0	H	0.926693	0.330758	0.0576166
0	H	0.0671392	0.827605	0.432296
0	H	0.0593418	0.556679	0.829958
0	H	0.433475	0.419432	0.33555
0	H	0.932383	0.0628431	0.650051
0	H	0.557832	0.916358	0.154008
0	H	0.833487	0.0535346	0.560874
0	H	0.338117	0.427277	0.424133
0	H	0.655624	0.923251	0.0635286
0	H	0.155387	0.551258	0.922668
0	H	0.564033	0.825042	0.0560161
0	H	0.426241	0.332448	0.431413
0	H	0.0665393	0.646292	0.92806
0	H	0.925228	0.150891	0.55578
0	C	0.0129361	0.45082	0.174615
0	C	0.478136	0.526904	0.668532
0	C	0.982046	0.950715	0.314879
0	C	0.5117	0.0275441	0.812644
0	C	0.177994	0.00407802	0.454651
0	C	0.671238	0.471334	0.53089
0	C	0.315489	0.976828	0.9555
0	C	0.81732	0.50485	0.031293
0	C	0.455923	0.171033	0.0110505
0	C	0.535019	0.661578	0.474836
0	C	0.956552	0.312956	0.977315
0	C	0.0362428	0.809011	0.512067
0	C	0.978688	0.527148	0.811997
0	C	0.513385	0.451235	0.318101
0	C	0.010042	0.0276787	0.670704
0	C	0.479485	0.95014	0.174568
0	C	0.814561	0.973811	0.532237
0	C	0.320782	0.506431	0.455427
0	C	0.675928	0.00160014	0.0320317
0	C	0.174312	0.472641	0.954484
0	C	0.53608	0.807078	0.975092
0	C	0.457088	0.316104	0.511645
0	C	0.0352062	0.663759	0.00786376
0	C	0.955705	0.168245	0.475583
0	H	0.0508325	0.436791	0.193653
0	H	0.439608	0.54086	0.68634
0	H	0.9444	0.938558	0.294125
0	H	0.549307	0.0391839	0.791532
0	H	0.197216	0.0410015	0.439482
0	H	0.689404	0.433429	0.544856
0	H	0.294456	0.94021	0.942035
0	H	0.797876	0.542339	0.0446863
0	H	0.441021	0.190542	0.0481551
0	H	0.54947	0.678801	0.436424
0	H	0.941934	0.294126	0.939756
0	H	0.0504873	0.789905	0.549639
0	H	0.940928	0.541465	0.792919
0	H	0.551891	0.437747	0.299894
0	H	0.047778	0.0392046	0.691681
0	H	0.442066	0.93814	0.195835
0	H	0.795076	0.93698	0.547301
0	H	0.302764	0.544357	0.441334
0	H	0.696502	0.0383947	0.0456527
0	H	0.193892	0.435294	0.940886
0	H	0.55151	0.788037	0.937955
0	H	0.442614	0.298813	0.550012
0	H	0.0491464	0.682444	0.0457643
0	H	0.941426	0.187056	0.437876
0	H	0.999507	0.485872	0.198607
0	H	0.49126	0.492408	0.693502
0	H	0.997485	0.985908	0.292405
0	H	0.495782	0.992333	0.790509
0	H	0.202418	0.991473	0.490055
0	H	0.696193	0.48448	0.496041
0	H	0.292776	0.991173	0.991304
0	H	0.79349	0.49097	0.995987
0	H	0.492228	0.194109	0.998403
0	H	0.499887	0.686457	0.487314
0	H	0.992349	0.289206	0.990158
0	H	0.000150168	0.785777	0.499094
0	H	0.991876	0.492002	0.788008
0	H	0.499796	0.485816	0.293492
0	H	0.993963	0.992647	0.692977
0	H	0.49517	0.985488	0.196658
0	H	0.790434	0.986455	0.496644
0	H	0.295811	0.493542	0.490361
0	H	0.699054	0.987482	0.996376
0	H	0.197931	0.486282	0.990027
0	H	0.499823	0.783609	0.987142
0	H	0.492338	0.29134	0.499239
0	H	0.999542	0.687441	0.994615
0	H	0.991894	0.191509	0.488259
0	C	0.0242817	0.468358	0.116926
0	C	0.468369	0.508089	0.610966
0	C	0.969096	0.967134	0.372584
0	C	0.524846	0.0114941	0.870398
0	C	0.120257	0.0159661	0.472712
0	C	0.613384	0.46138	0.512002
0	C	0.373316	0.963234	0.972028
0	C	0.875351	0.516109	0.0137393
0	C	0.472451	0.113697	0.0233683
0	C	0.516022	0.604405	0.465619
0	C	0.974235	0.370122	0.965791
0	C	0.0195009	0.866467	0.523512
0	C	0.967133	0.509651	0.869657
0	C	0.523418	0.469671	0.375755
0	C	0.0230147	0.0112509	0.613008
0	C	0.465922	0.96612	0.116893
0	C	0.872363	0.961639	0.51459
0	C	0.378727	0.516144	0.474156
0	C	0.618088	0.0146245	0.0150782
0	C	0.116193	0.461147	0.971593
0	C	0.519228	0.8644	0.963185
0	C	0.475866	0.373345	0.520915
0	C	0.0175927	0.606452	0.0187801
0	C	0.972218	0.110634	0.464645
0	H	0.0381107	0.435098	0.0918753
0	H	0.454968	0.540696	0.584836
0	H	0.952345	0.933975	0.395957
0	H	0.54274	0.044511	0.893136
0	H	0.0945044	0.0280537	0.438972
0	H	0.587292	0.447848	0.544909
0	H	0.397034	0.947952	0.938123
0	H	0.900109	0.530935	0.0471098
0	H	0.437976	0.0896322	0.0366902
0	H	0.549201	0.578401	0.452755
0	H	0.940487	0.394835	0.95184
0	H	0.0535125	0.890418	0.538182
0	H	0.953526	0.543003	0.894709
0	H	0.537509	0.436989	0.401435
0	H	0.0409599	0.0440575	0.589985
0	H	0.448556	0.932861	0.0941109
0	H	0.897732	0.94918	0.548482
0	H	0.404762	0.529577	0.441159
0	H	0.593996	0.0296958	0.0488056
0	H	0.091685	0.446566	0.937932
0	H	0.553637	0.888866	0.950465
0	H	0.442616	0.399147	0.53401
0	H	0.05113	0.581908	0.0335367
0	H	0.938052	0.0866587	0.450385
0	H	0.056016	0.498951	0.115553
0	H	0.436782	0.477315	0.609519
0	H	0.93898	0.999246	0.373585
0	H	0.554076	0.978595	0.871483
0	H	0.119302	0.0485796	0.502164
0	H	0.612083	0.430377	0.480826
0	H	0.373967	0.932356	0.00330396
0	H	0.876654	0.546535	0.982033
0	H	0.502763	0.112152	0.055593
0	H	0.484991	0.60265	0.43405
0	H	0.00525166	0.371351	0.93421
0	H	0.987904	0.868219	0.554467
0	H	0.935178	0.479294	0.87098
0	H	0.554557	0.500871	0.377239
0	H	0.0521778	0.978289	0.612077
0	H	0.436091	0.998504	0.115956
0	H	0.873361	0.929196	0.484963
0	H	0.380263	0.547123	0.505346
0	H	0.617371	0.0454538	0.983763
0	H	0.114747	0.430436	0.00301507
0	H	0.489225	0.866043	0.930668
0	H	0.507056	0.375193	0.552326
0	H	0.985775	0.604952	0.0495413
0	H	0.00364925	0.108481	0.433554
0	H	0.988272	0.48527	0.0977777
0	H	0.504917	0.490888	0.593084
0	H	0.00503307	0.981483	0.39384
0	H	0.48875	0.998323	0.892198
0	H	0.101346	0.981247	0.49165
0	H	0.595118	0.497362	0.494852
0	H	0.394656	0.997999	0.988074
0	H	0.895114	0.480346	0.997817
0	H	0.489994	0.0940229	0.988122
0	H	0.498374	0.587056	0.502058
0	H	0.991343	0.389325	0.0015047
0	H	0.00348254	0.886134	0.487547
0	H	0.0029968	0.492475	0.888846
0	H	0.486772	0.486169	0.394109
0	H	0.986862	0.998062	0.591347
0	H	0.501721	0.979956	0.0950349
0	H	0.891678	0.996337	0.49603
0	H	0.396887	0.480064	0.491222
0	H	0.59721	0.979641	0.998912
0	H	0.096268	0.496736	0.987703
0	H	0.501153	0.883584	0.998445
0	H	0.493227	0.390859	0.484425
0	H	0.00156277	0.587254	0.982583
0	H	0.988338	0.0912726	0.500732
0	C	0.710982	0.388493	0.252309
0	C	0.779034	0.589018	0.75053
0	C	0.28199	0.883695	0.236026
0	C	0.21177	0.0937396	0.733661
0	C	0.255457	0.702669	0.392439
0	C	0.754913	0.769551	0.593262
0	C	0.237145	0.27548	0.889348
0	C	0.736662	0.206865	0.0965904
0	C	0.395074	0.249042	0.707435
0	C	0.596943	0.746042	0.775399
0	C	0.893071	0.231955	0.279896
0	C	0.0983535	0.728986	0.209768
0	C	0.281074	0.589253	0.734061
0	C	0.212726	0.388663	0.235935
0	C	0.710408	0.0944772	0.750443
0	C	0.78009	0.883963	0.253025
0	C	0.73621	0.275486	0.593881
0	C	0.236995	0.208515	0.393614
0	C	0.754384	0.702711	0.096824
0	C	0.255964	0.770532	0.890302
0	C	0.596728	0.728774	0.279062
0	C	0.394918	0.231718	0.211372
0	C	0.0990141	0.746013	0.707401
0	C	0.893861	0.249486	0.77606
0	C	0.686244	0.4335	0.27294
0	C	0.803726	0.544199	0.771623
0	C	0.306746	0.928707	0.215426
0	C	0.187074	0.0487292	0.712968
0	C	0.276234	0.678059	0.4377
0	C	0.776261	0.794293	0.548354
0	C	0.216319	0.300088	0.934592
0	C	0.715764	0.182026	0.051514
0	C	0.440377	0.269911	0.682541
0	C	0.55211	0.767637	0.800481
0	C	0.937921	0.210763	0.305288
0	C	0.0532203	0.708171	0.184559
0	C	0.305654	0.544218	0.71332
0	C	0.187957	0.433357	0.214679
0	C	0.685666	0.0495554	0.771252
0	C	0.804837	0.928918	0.273765
0	C	0.71538	0.299928	0.548554
0	C	0.215736	0.183958	0.438663
0	C	0.77511	0.678249	0.0514563
0	C	0.276867	0.79517	0.935494
0	C	0.551378	0.707949	0.303896
0	C	0.439814	0.21013	0.186393
0	C	0.0540088	0.767283	0.682334
0	C	0.939183	0.270269	0.800973
0	H	0.650663	0.450246	0.253433
0	H	0.839384	0.527294	0.752397
0	H	0.342773	0.945036	0.234456
0	H	0.151096	0.0323066	0.732012
0	H	0.25657	0.642954	0.454476
0	H	0.756902	0.829544	0.531539
0	H	0.235672	0.335462	0.951135
0	H	0.735196	0.146654	0.0350492
0	H	0.457315	0.250746	0.647045
0	H	0.535191	0.748954	0.836251
0	H	0.954402	0.229586	0.341187
0	H	0.0367144	0.727218	0.148789
0	H	0.341209	0.527341	0.732752
0	H	0.152193	0.4502	0.233766
0	H	0.649648	0.0331345	0.752295
0	H	0.840774	0.945372	0.254674
0	H	0.734933	0.335051	0.531703
0	H	0.235059	0.148718	0.455537
0	H	0.755713	0.642948	0.0348148
0	H	0.257431	0.830462	0.952127
0	H	0.53441	0.727126	0.339371
0	H	0.456818	0.22881	0.150658
0	H	0.0371837	0.748494	0.646585
0	H	0.956052	0.251124	0.83652
0	C	0.838666	0.273821	0.353667
0	C	0.650244	0.704069	0.849843
0	C	0.153186	0.770382	0.13587
0	C	0.340805	0.207344	0.633279
0	C	0.356575	0.82969	0.277189
0	C	0.854165	0.641361	0.708209
0	C	0.136997	0.147894	0.774522
0	C	0.636122	0.33521	0.210545
0	C	0.279096	0.348953	0.835162
0	C	0.712569	0.843596	0.646022
0	C	0.778575	0.133395	0.150656
0	C	0.213094	0.629143	0.338556
0	C	0.153071	0.704276	0.633285
0	C	0.341679	0.273662	0.136842
0	C	0.839414	0.208036	0.850176
0	C	0.65097	0.770398	0.353301
0	C	0.635615	0.1482	0.70932
0	C	0.137628	0.336262	0.278257
0	C	0.854791	0.829848	0.212066
0	C	0.356151	0.64227	0.77582
0	C	0.712773	0.629045	0.150956
0	C	0.278901	0.134282	0.340786
0	C	0.214217	0.844271	0.836511
0	C	0.778477	0.349251	0.647514
0	H	0.872876	0.265473	0.38115
0	H	0.615718	0.712593	0.87687
0	H	0.118985	0.761891	0.108442
0	H	0.375122	0.216532	0.606209
0	H	0.383975	0.86345	0.268182
0	H	0.880965	0.607257	0.717644
0	H	0.109606	0.114138	0.765522
0	H	0.609228	0.369183	0.220196
0	H	0.269858	0.37586	0.869266
0	H	0.721776	0.870017	0.611538
0	H	0.769852	0.106456	0.116469
0	H	0.222585	0.602474	0.372779
0	H	0.11875	0.712824	0.606008
0	H	0.37619	0.26478	0.109918
0	H	0.873641	0.217114	0.877377
0	H	0.616625	0.76122	0.380323
0	H	0.608257	0.114331	0.718022
0	H	0.110716	0.370323	0.268996
0	H	0.882304	0.863586	0.220754
0	H	0.382966	0.608214	0.766258
0	H	0.721266	0.602097	0.116698
0	H	0.270263	0.107815	0.375377
0	H	0.223305	0.871029	0.870753
0	H	0.768866	0.375787	0.613221
0	H	0.820466	0.311625	0.368226
0	H	0.668098	0.666204	0.864682
0	H	0.171247	0.808224	0.121218
0	H	0.323554	0.169249	0.618309
0	H	0.371757	0.812056	0.315276
0	H	0.869452	0.658017	0.6697
0	H	0.121778	0.165555	0.81258
0	H	0.620724	0.318623	0.172043
0	H	0.317617	0.363851	0.817794
0	H	0.67401	0.858705	0.663117
0	H	0.816937	0.118604	0.168457
0	H	0.174351	0.614213	0.321697
0	H	0.171062	0.666449	0.618527
0	H	0.32417	0.311623	0.12184
0	H	0.82197	0.170024	0.865119
0	H	0.668224	0.808485	0.368307
0	H	0.620471	0.166089	0.671342
0	H	0.12243	0.319376	0.316693
0	H	0.869837	0.81186	0.174099
0	H	0.371575	0.658927	0.814277
0	H	0.674544	0.614289	0.169066
0	H	0.31719	0.119243	0.323048
0	H	0.175808	0.859318	0.819031
0	H	0.817216	0.364339	0.664252
0	C	0.796603	0.229091	0.357493
0	C	0.692466	0.748649	0.854255
0	C	0.195486	0.725836	0.132036
0	C	0.297769	0.251152	0.629164
0	C	0.359975	0.787923	0.232302
0	C	0.858769	0.683863	0.752286
0	C	0.133638	0.189672	0.72962
0	C	0.631876	0.292517	0.254446
0	C	0.234404	0.352834	0.792602
0	C	0.757256	0.84817	0.688557
0	C	0.733391	0.129499	0.192715
0	C	0.257296	0.624805	0.295559
0	C	0.19527	0.748872	0.62936
0	C	0.299093	0.229433	0.132425
0	C	0.7965	0.252013	0.85402
0	C	0.693975	0.726575	0.357419
0	C	0.632086	0.189618	0.754531
0	C	0.133122	0.293951	0.233983
0	C	0.858096	0.788385	0.257277
0	C	0.360402	0.684814	0.731781
0	C	0.758288	0.625091	0.192619
0	C	0.233533	0.129685	0.298973
0	C	0.259135	0.848113	0.794163
0	C	0.734316	0.353557	0.690538
0	H	0.758034	0.242505	0.339252
0	H	0.731121	0.735216	0.83624
0	H	0.234004	0.739444	0.15022
0	H	0.25922	0.236712	0.646643
0	H	0.341498	0.750075	0.24614
0	H	0.840906	0.721801	0.737917
0	H	0.152357	0.227427	0.743414
0	H	0.649533	0.254617	0.239725
0	H	0.248713	0.335118	0.754317
0	H	0.743142	0.830369	0.726874
0	H	0.747128	0.14775	0.230954
0	H	0.242561	0.642076	0.257237
0	H	0.23379	0.735393	0.647641
0	H	0.2605	0.24323	0.150291
0	H	0.758091	0.23775	0.836111
0	H	0.732422	0.740883	0.339602
0	H	0.650769	0.227517	0.7411
0	H	0.151327	0.256063	0.248069
0	H	0.839103	0.750643	0.243835
0	H	0.342473	0.722681	0.746299
0	H	0.745008	0.643456	0.230956
0	H	0.24685	0.14785	0.260554
0	H	0.245086	0.829972	0.755988
0	H	0.749084	0.336155	0.728793
0	H	0.809599	0.194289	0.333239
0	H	0.679822	0.783618	0.830098
0	H	0.18269	0.691015	0.156342
0	H	0.30958	0.285997	0.653947
0	H	0.335497	0.800666	0.197233
0	H	0.83432	0.672237	0.787757
0	H	0.15796	0.176796	0.694514
0	H	0.656672	0.303986	0.289752
0	H	0.199009	0.328544	0.804759
0	H	0.7929	0.824223	0.676483
0	H	0.697976	0.153407	0.17991
0	H	0.292797	0.649261	0.307068
0	H	0.182363	0.783774	0.653508
0	H	0.311346	0.194418	0.156712
0	H	0.808661	0.286847	0.829424
0	H	0.681948	0.691621	0.332902
0	H	0.656315	0.176498	0.789638
0	H	0.157308	0.305941	0.198456
0	H	0.83396	0.801673	0.292366
0	H	0.33581	0.673069	0.696426
0	H	0.793737	0.648769	0.179409
0	H	0.197899	0.153246	0.311812
0	H	0.294548	0.824072	0.806715
0	H	0.698784	0.329165	0.678981
0	C	0.787179	0.211641	0.415846
0	C	0.701487	0.765677	0.912812
0	C	0.204946	0.708463	0.0736616
0	C	0.288805	0.268907	0.570813
0	C	0.418519	0.778222	0.21456
0	C	0.917643	0.692829	0.769402
0	C	0.0750941	0.1997	0.712045
0	C	0.573144	0.283573	0.27203
0	C	0.21675	0.410729	0.783448
0	C	0.774381	0.906232	0.697761
0	C	0.715968	0.071639	0.202437
0	C	0.274929	0.566835	0.286839
0	C	0.204747	0.766083	0.570944
0	C	0.290101	0.212375	0.0738814
0	C	0.787048	0.26961	0.912326
0	C	0.703341	0.709103	0.415794
0	C	0.573475	0.199361	0.772024
0	C	0.0742426	0.284651	0.217081
0	C	0.916615	0.778153	0.274783
0	C	0.419128	0.694044	0.714319
0	C	0.775455	0.567118	0.202183
0	C	0.216738	0.071552	0.289684
0	C	0.276683	0.905933	0.784415
0	C	0.716711	0.411496	0.699523
0	H	0.775567	0.246256	0.440908
0	H	0.712744	0.73078	0.937641
0	H	0.216589	0.743154	0.0487079
0	H	0.277574	0.234401	0.545445
0	H	0.44374	0.766818	0.249481
0	H	0.942642	0.703759	0.734183
0	H	0.0500866	0.211336	0.747049
0	H	0.547867	0.27246	0.237076
0	H	0.251967	0.435617	0.772303
0	H	0.738772	0.930774	0.708481
0	H	0.751364	0.0470304	0.213616
0	H	0.239715	0.541898	0.275861
0	H	0.216347	0.731367	0.546028
0	H	0.279234	0.247321	0.0489522
0	H	0.776144	0.234883	0.93754
0	H	0.715061	0.743651	0.440864
0	H	0.548505	0.2112	0.737075
0	H	0.0494987	0.273259	0.252335
0	H	0.941481	0.766298	0.239764
0	H	0.444243	0.705553	0.74926
0	H	0.740168	0.54273	0.214179
0	H	0.25239	0.047301	0.278476
0	H	0.241274	0.930667	0.773552
0	H	0.751878	0.436398	0.710727
0	H	0.825329	0.196296	0.433302
0	H	0.66326	0.781059	0.930054
0	H	0.166758	0.693219	0.056219
0	H	0.32705	0.284511	0.553819
0	H	0.43621	0.815678	0.198857
0	H	0.934971	0.655231	0.78514
0	H	0.0571364	0.162337	0.696492
0	H	0.555892	0.321245	0.28769
0	H	0.200947	0.427772	0.821415
0	H	0.790514	0.923402	0.66
0	H	0.699977	0.054173	0.164764
0	H	0.290726	0.550043	0.324923
0	H	0.166636	0.781401	0.553401
0	H	0.328239	0.196631	0.0567788
0	H	0.825036	0.285648	0.929485
0	H	0.665136	0.693852	0.433226
0	H	0.555536	0.161834	0.787257
0	H	0.0565291	0.322229	0.201703
0	H	0.934801	0.815462	0.290234
0	H	0.436682	0.656391	0.698943
0	H	0.790491	0.549446	0.164204
0	H	0.201131	0.0541055	0.327533
0	H	0.293053	0.923295	0.821956
0	H	0.700989	0.428486	0.661501
0	C	0.743126	0.16869	0.418804
0	C	0.745674	0.808441	0.916724
0	C	0.24887	0.665423	0.0703083
0	C	0.244657	0.311758	0.567657
0	C	0.421307	0.734575	0.171425
0	C	0.921392	0.736619	0.812343
0	C	0.0723631	0.24329	0.668827
0	C	0.569852	0.240037	0.31523
0	C	0.173467	0.414121	0.739394
0	C	0.817115	0.910134	0.742344
0	C	0.672968	0.0684623	0.246831
0	C	0.318267	0.563161	0.242862
0	C	0.248868	0.808978	0.567864
0	C	0.245547	0.169999	0.0698765
0	C	0.742321	0.311891	0.915655
0	C	0.747207	0.665946	0.418705
0	C	0.570678	0.2426	0.815576
0	C	0.0706828	0.241168	0.173841
0	C	0.919157	0.734647	0.318112
0	C	0.42214	0.737332	0.670841
0	C	0.81937	0.563949	0.245638
0	C	0.173549	0.0675243	0.24555
0	C	0.319308	0.908982	0.739644
0	C	0.673264	0.414811	0.743435
0	H	0.703957	0.185488	0.405521
0	H	0.784706	0.792039	0.902585
0	H	0.288084	0.681854	0.0838886
0	H	0.205225	0.294524	0.579454
0	H	0.40783	0.69607	0.18852
0	H	0.907893	0.775133	0.795313
0	H	0.0867617	0.28159	0.685549
0	H	0.582004	0.201207	0.297928
0	H	0.190767	0.401582	0.700347
0	H	0.800489	0.894218	0.780432
0	H	0.689544	0.0845037	0.284889
0	H	0.300877	0.574978	0.203632
0	H	0.28801	0.79214	0.581161
0	H	0.206643	0.186714	0.0839952
0	H	0.703412	0.294744	0.902102
0	H	0.786668	0.682932	0.406605
0	H	0.584645	0.281146	0.798974
0	H	0.0845707	0.202632	0.190524
0	H	0.904259	0.696455	0.301543
0	H	0.409745	0.776175	0.687937
0	H	0.802791	0.577449	0.284674
0	H	0.189556	0.0838468	0.207381
0	H	0.302383	0.8929	0.701777
0	H	0.690707	0.402987	0.782637
0	H	0.75247	0.136123	0.390151
0	H	0.736162	0.841945	0.889262
0	H	0.239355	0.632496	0.0984696
0	H	0.253106	0.343652	0.597346
0	H	0.392561	0.743726	0.138502
0	H	0.893063	0.727725	0.845699
0	H	0.100392	0.233566	0.635458
0	H	0.599426	0.24849	0.347619
0	H	0.140456	0.385499	0.748074
0	H	0.852143	0.884391	0.7324
0	H	0.638232	0.0944065	0.236525
0	H	0.350999	0.592196	0.251147
0	H	0.239582	0.841604	0.596457
0	H	0.254704	0.136377	0.0973139
0	H	0.751238	0.344935	0.887449
0	H	0.738332	0.634124	0.389076
0	H	0.599047	0.232871	0.848651
0	H	0.0988032	0.250532	0.140434
0	H	0.891428	0.744734	0.351611
0	H	0.392548	0.728496	0.638569
0	H	0.852596	0.591997	0.235923
0	H	0.138363	0.0928118	0.256064
0	H	0.354099	0.883009	0.749724
0	H	0.640781	0.385539	0.735026
0	C	0.737649	0.145857	0.475763
0	C	0.751663	0.829323	0.974414
0	C	0.254273	0.64348	0.0129742
0	C	0.240623	0.336022	0.511172
0	C	0.478615	0.729019	0.148532
0	C	0.979019	0.742048	0.83448
0	C	0.0147494	0.249636	0.64691
0	C	0.512897	0.235863	0.33927
0	C	0.15019	0.470601	0.734714
0	C	0.836185	0.967737	0.750603
0	C	0.653425	0.0110481	0.255319
0	C	0.34211	0.506833	0.239006
0	C	0.254347	0.831694	0.51086
0	C	0.239444	0.149246	0.0121592
0	C	0.73659	0.333819	0.972968
0	C	0.751523	0.641618	0.475137
0	C	0.513228	0.248449	0.838025
0	C	0.0130334	0.235421	0.151862
0	C	0.976828	0.727777	0.339708
0	C	0.479001	0.741766	0.64664
0	C	0.842045	0.507305	0.251134
0	C	0.155019	0.00975784	0.237128
0	C	0.338872	0.96635	0.730858
0	C	0.64893	0.470907	0.747493
0	H	0.777236	0.130479	0.489636
0	H	0.712059	0.843706	0.989298
0	H	0.214202	0.630175	0.998298
0	H	0.280912	0.350208	0.498022
0	H	0.492516	0.767954	0.132748
0	H	0.993638	0.70278	0.848726
0	H	0.999753	0.210683	0.632178
0	H	0.499391	0.275551	0.353409
0	H	0.134781	0.483842	0.77434
0	H	0.851745	0.984082	0.712236
0	H	0.637904	0.994644	0.216968
0	H	0.356497	0.493819	0.279093
0	H	0.214776	0.847071	0.496964
0	H	0.278928	0.134535	0.99729
0	H	0.776281	0.348459	0.987358
0	H	0.711205	0.627898	0.488693
0	H	0.49892	0.209545	0.853529
0	H	0.998128	0.27461	0.137694
0	H	0.991889	0.766367	0.355292
0	H	0.492813	0.702065	0.632831
0	H	0.857402	0.493377	0.211735
0	H	0.140001	0.993067	0.275551
0	H	0.355423	0.982553	0.768857
0	H	0.634644	0.48404	0.70742
0	H	0.726644	0.178076	0.504267
0	H	0.763426	0.796262	0.00160445
0	H	0.26711	0.675743	0.985328
0	H	0.228654	0.304883	0.481864
0	H	0.507202	0.718482	0.181197
0	H	0.00693339	0.754057	0.801763
0	H	0.987104	0.261388	0.679923
0	H	0.483726	0.223874	0.307651
0	H	0.182771	0.499028	0.72396
0	H	0.801319	0.993203	0.761805
0	H	0.688062	0.985413	0.266752
0	H	0.310076	0.478144	0.227389
0	H	0.265328	0.799422	0.482419
0	H	0.228004	0.182445	0.985003
0	H	0.724995	0.301202	0.000745632
0	H	0.76417	0.672608	0.504328
0	H	0.484967	0.259315	0.805186
0	H	0.985274	0.223214	0.184629
0	H	0.00436825	0.716742	0.306346
0	H	0.508133	0.754277	0.678096
0	H	0.809166	0.479348	0.262236
0	H	0.190034	0.984712	0.225473
0	H	0.304067	0.992167	0.720365
0	H	0.680651	0.499793	0.759466
0	C	0.695468	0.101462	0.478034
0	C	0.793293	0.874136	0.977968
0	C	0.294273	0.597216	0.0100105
0	C	0.200294	0.382102	0.509472
0	C	0.481172	0.687122	0.104068
0	C	0.981777	0.78245	0.880345
0	C	0.0119159	0.290627	0.6016
0	C	0.511038	0.196176	0.385807
0	C	0.104903	0.473381	0.693074
0	C	0.879904	0.971654	0.793846
0	C	0.60952	0.00766572	0.298396
0	C	0.38863	0.504309	0.1987
0	C	0.296563	0.876063	0.508522
0	C	0.197429	0.10479	0.00845517
0	C	0.695064	0.378754	0.976198
0	C	0.791323	0.595068	0.476384
0	C	0.510635	0.290206	0.882631
0	C	0.0104263	0.195038	0.105963
0	C	0.979779	0.685725	0.384018
0	C	0.480379	0.781052	0.599732
0	C	0.887209	0.504724	0.292939
0	C	0.110936	0.00560396	0.194299
0	C	0.381659	0.96967	0.686684
0	C	0.602142	0.472755	0.78755
0	H	0.654396	0.11736	0.474762
0	H	0.834515	0.85906	0.973071
0	H	0.335959	0.61084	0.0153765
0	H	0.158615	0.367875	0.512977
0	H	0.477806	0.646734	0.120327
0	H	0.977466	0.823314	0.865576
0	H	0.0183267	0.331141	0.616631
0	H	0.514498	0.155059	0.371535
0	H	0.120698	0.470225	0.652098
0	H	0.864533	0.959053	0.833166
0	H	0.624663	0.020898	0.337585
0	H	0.374072	0.507658	0.157281
0	H	0.337604	0.860149	0.51199
0	H	0.156369	0.120097	0.0139612
0	H	0.653914	0.363915	0.970048
0	H	0.833108	0.608828	0.472277
0	H	0.514333	0.330629	0.86652
0	H	0.0150482	0.154187	0.120686
0	H	0.972668	0.645655	0.368123
0	H	0.476315	0.822233	0.613676
0	H	0.871282	0.508607	0.333808
0	H	0.126196	0.0170567	0.154596
0	H	0.365498	0.956411	0.647904
0	H	0.616513	0.468818	0.828986
0	H	0.698492	0.0791974	0.516202
0	H	0.790832	0.89439	0.0173255
0	H	0.291501	0.576953	0.970703
0	H	0.203943	0.404456	0.471405
0	H	0.519727	0.689982	0.0819077
0	H	0.0207461	0.779461	0.901768
0	H	0.972126	0.289238	0.581643
0	H	0.472734	0.199891	0.4083
0	H	0.0826818	0.511403	0.696411
0	H	0.894705	0.0127471	0.797641
0	H	0.594841	0.966606	0.302761
0	H	0.410818	0.466304	0.202501
0	H	0.29367	0.898159	0.470246
0	H	0.199364	0.0850398	0.968828
0	H	0.69674	0.398447	0.015814
0	H	0.787928	0.572784	0.5145
0	H	0.471916	0.287487	0.90455
0	H	0.9714	0.197802	0.0846266
0	H	0.0197936	0.686209	0.403487
0	H	0.518731	0.777667	0.577304
0	H	0.909134	0.466501	0.290213
0	H	0.0953925	0.964629	0.191655
0	H	0.396228	0.0106802	0.681851
0	H	0.579851	0.510722	0.784194
0	H	0.701032	0.0727022	0.445313
0	H	0.786637	0.904446	0.94693
0	H	0.28616	0.567282	0.0410732
0	H	0.207322	0.410399	0.54234
0	H	0.448513	0.692416	0.0747649
0	H	0.949736	0.775671	0.910017
0	H	0.0426034	0.283045	0.570751
0	H	0.54404	0.203103	0.414412
0	H	0.0754995	0.441174	0.698673
0	H	0.914713	0.946313	0.784313
0	H	0.574704	0.0327636	0.288312
0	H	0.417792	0.536554	0.205346
0	H	0.290906	0.90496	0.541098
0	H	0.204176	0.0740421	0.0390281
0	H	0.702561	0.409398	0.945677
0	H	0.78352	0.56683	0.443628
0	H	0.543082	0.284631	0.912111
0	H	0.0423551	0.202054	0.0762183
0	H	0.949542	0.692916	0.415406
0	H	0.447471	0.773456	0.571185
0	H	0.916871	0.536643	0.286989
0	H	0.0765899	0.03166	0.203493
0	H	0.416694	0.944536	0.695895
0	H	0.573152	0.440487	0.780281
0	S	0.651232	0.551104	0.300992
0	S	0.838284	0.426606	0.80025
0	S	0.338377	0.0478813	0.190638
0	S	0.153	0.93047	0.686179
0	S	0.304561	0.642424	0.555795
0	S	0.806138	0.831503	0.431385
0	S	0.189444	0.334516	0.0534276
0	S	0.687928	0.146263	0.933274
0	S	0.55909	0.299205	0.646712
0	S	0.433889	0.797708	0.836305
0	S	0.0564165	0.182376	0.341385
0	S	0.935365	0.679108	0.146487
0	S	0.340481	0.426643	0.684981
0	S	0.153287	0.550789	0.185837
0	S	0.652684	0.931115	0.797453
0	S	0.838764	0.0470402	0.300364
0	S	0.687248	0.334733	0.43012
0	S	0.186259	0.147725	0.556115
0	S	0.801951	0.644309	0.932402
0	S	0.304823	0.83045	0.0539156
0	S	0.432504	0.678881	0.339394
0	S	0.558255	0.180115	0.151054
0	S	0.934733	0.795876	0.648181
0	S	0.0580325	0.298924	0.836738
