#******************************************
#
# CIF file created by Zeo++
# Zeo++ is an open source package to
# analyze microporous materials
#
#*******************************************

_cell_length_a		33.8368(0)
_cell_length_b		29.0979(0)
_cell_length_c		23.5262(0)
_cell_angle_alpha		90(0)
_cell_angle_beta		112.785(0)
_cell_angle_gamma		90(0)

_symmetry_space_group_name_H-M		'P1'
_symmetry_Int_Tables_number		1
_symmetry_cell_setting		Monoclinic

loop_
_symmetry_equiv_pos_as_xyz
'+x,+y,+z'

loop_
_atom_site_label
_atom_site_type_symbol
_atom_site_fract_x
_atom_site_fract_y
_atom_site_fract_z
0	C	0.126357	0.491226	0.246376
0	C	0.868117	0.490959	0.254526
0	C	0.869236	0.511958	0.754115
0	C	0.129187	0.51081	0.746646
0	C	0.625781	0.990583	0.245628
0	C	0.368769	0.99164	0.255453
0	C	0.371103	0.0112597	0.753622
0	C	0.62717	0.0108558	0.746911
0	C	0.164821	0.512497	0.288515
0	C	0.829615	0.512177	0.212377
0	C	0.830713	0.490778	0.711984
0	C	0.16778	0.489787	0.788848
0	C	0.664166	0.0118773	0.287947
0	C	0.330365	0.0128785	0.213116
0	C	0.332836	0.989845	0.711203
0	C	0.665491	0.98953	0.789351
0	H	0.184619	0.531492	0.269306
0	H	0.809755	0.531081	0.231569
0	H	0.810819	0.471959	0.731196
0	H	0.187676	0.470915	0.769689
0	H	0.684144	0.0307673	0.268963
0	H	0.310404	0.0318313	0.23207
0	H	0.312971	0.970689	0.730127
0	H	0.685389	0.970414	0.770445
0	C	0.115374	0.489605	0.18027
0	C	0.879117	0.489552	0.320636
0	C	0.880324	0.513381	0.820248
0	C	0.118098	0.512274	0.680509
0	C	0.614754	0.989193	0.179517
0	C	0.379775	0.990249	0.321556
0	C	0.382009	0.0127075	0.819721
0	C	0.616264	0.0122601	0.680813
0	C	0.188807	0.349519	0.013666
0	C	0.805828	0.349499	0.485851
0	C	0.807347	0.653143	0.987146
0	C	0.190825	0.652828	0.515009
0	C	0.687202	0.848543	0.0138352
0	C	0.307502	0.848935	0.485552
0	C	0.309447	0.153364	0.98599
0	C	0.688669	0.153217	0.515909
0	C	0.14285	0.213294	0.507113
0	C	0.852473	0.213501	0.993981
0	C	0.853482	0.78914	0.493283
0	C	0.143776	0.788519	0.0065707
0	C	0.640832	0.713843	0.507869
0	C	0.354527	0.714571	0.99347
0	C	0.355466	0.289028	0.492232
0	C	0.641672	0.288508	0.00777237
0	C	0.211302	0.269105	0.0317006
0	C	0.783451	0.269056	0.467349
0	C	0.784961	0.733575	0.968876
0	C	0.213003	0.733337	0.533494
0	C	0.70931	0.768027	0.0326417
0	C	0.285511	0.768388	0.466404
0	C	0.28714	0.233853	0.967812
0	C	0.710773	0.233769	0.534482
0	C	0.118104	0.292825	0.485191
0	C	0.877128	0.293077	0.0155966
0	C	0.878177	0.709586	0.515159
0	C	0.119402	0.708841	0.985017
0	C	0.616057	0.79331	0.485121
0	C	0.379041	0.794144	0.0160389
0	C	0.380368	0.209597	0.514871
0	C	0.617041	0.208952	0.985553
0	C	0.175472	0.511222	0.350952
0	C	0.81896	0.510924	0.149944
0	C	0.820151	0.491845	0.649561
0	C	0.178455	0.491139	0.851286
0	C	0.674462	0.0108816	0.350331
0	C	0.319962	0.0116571	0.150717
0	C	0.322467	0.991103	0.648815
0	C	0.675912	0.990897	0.851743
0	C	0.0753607	0.277267	0.454337
0	C	0.919848	0.277595	0.0468938
0	C	0.920924	0.725099	0.546118
0	C	0.0766429	0.724154	0.953564
0	C	0.573379	0.777681	0.453904
0	C	0.421722	0.778671	0.0476603
0	C	0.423014	0.22529	0.546172
0	C	0.574374	0.224455	0.953931
0	C	0.193435	0.274038	0.560807
0	C	0.802159	0.274128	0.939055
0	C	0.802903	0.728412	0.439466
0	C	0.194229	0.728083	0.0617533
0	C	0.691166	0.774782	0.56153
0	C	0.304383	0.775333	0.938579
0	C	0.305227	0.228007	0.438538
0	C	0.691792	0.227733	0.0627032
0	H	0.198397	0.310148	0.574115
0	H	0.79733	0.310164	0.925352
0	H	0.79796	0.692311	0.426105
0	H	0.199156	0.692062	0.0755127
0	H	0.695999	0.810928	0.574691
0	H	0.299636	0.811409	0.925062
0	H	0.300477	0.191871	0.425307
0	H	0.696513	0.19167	0.0763062
0	C	0.0539193	0.464184	0.227916
0	C	0.940554	0.463864	0.273115
0	C	0.941799	0.538614	0.772543
0	C	0.0566957	0.537813	0.728159
0	C	0.553242	0.96365	0.227
0	C	0.441185	0.964242	0.274142
0	C	0.443555	0.038512	0.772403
0	C	0.554744	0.0382661	0.728058
0	H	0.0312654	0.453207	0.247789
0	H	0.963201	0.452773	0.253286
0	H	0.964457	0.549532	0.752646
0	H	0.0340669	0.548839	0.748059
0	H	0.530558	0.952628	0.246799
0	H	0.463822	0.953025	0.254358
0	H	0.466248	0.0496481	0.752677
0	H	0.532054	0.0494642	0.747763
0	C	0.0976671	0.471548	0.269166
0	C	0.896833	0.471293	0.231784
0	C	0.898022	0.531397	0.731317
0	C	0.100437	0.530393	0.76941
0	C	0.59698	0.970969	0.268274
0	C	0.397496	0.971811	0.232828
0	C	0.399837	0.0311546	0.731075
0	C	0.59843	0.0307687	0.769432
0	C	0.150902	0.482408	0.375643
0	C	0.843658	0.48228	0.125269
0	C	0.844844	0.52044	0.624823
0	C	0.153694	0.519722	0.875926
0	C	0.649754	0.982189	0.374924
0	C	0.344689	0.982954	0.126173
0	C	0.347035	0.0201297	0.624379
0	C	0.651236	0.0197937	0.876147
0	C	0.0720152	0.483193	0.140067
0	C	0.922464	0.483151	0.360893
0	C	0.923735	0.519561	0.860403
0	C	0.0747299	0.518696	0.640314
0	C	0.571363	0.982999	0.139292
0	C	0.423125	0.983827	0.361826
0	C	0.425371	0.0189961	0.860009
0	C	0.572933	0.0186773	0.640481
0	C	0.170047	0.254656	0.990936
0	C	0.824885	0.254599	0.50751
0	C	0.826249	0.748002	0.00956862
0	C	0.171517	0.747679	0.493387
0	C	0.667978	0.753678	0.992021
0	C	0.327008	0.754038	0.506464
0	C	0.328452	0.248233	0.0084708
0	C	0.669273	0.248084	0.494393
0	C	0.246105	0.457385	0.0921408
0	C	0.748288	0.457548	0.40839
0	C	0.749903	0.545268	0.908919
0	C	0.248688	0.544947	0.592532
0	C	0.745063	0.956578	0.0908836
0	C	0.249304	0.957094	0.409504
0	C	0.251662	0.0453863	0.908615
0	C	0.746783	0.0451857	0.592547
0	H	0.278527	0.471531	0.110453
0	H	0.715833	0.471609	0.390057
0	H	0.717469	0.531161	0.890693
0	H	0.28118	0.530985	0.610852
0	H	0.777538	0.970585	0.108865
0	H	0.216776	0.970965	0.391475
0	H	0.219204	0.0313354	0.890699
0	H	0.77929	0.0312566	0.610575
0	C	0.164447	0.472894	0.43984
0	C	0.83026	0.472999	0.0610326
0	C	0.831402	0.52978	0.560597
0	C	0.167089	0.529143	0.940131
0	C	0.662856	0.973047	0.439156
0	C	0.331613	0.973824	0.0619393
0	C	0.333827	0.0295637	0.560214
0	C	0.66434	0.0291187	0.940329
0	H	0.191086	0.49274	0.472475
0	H	0.803645	0.492897	0.0284295
0	H	0.804732	0.509952	0.528004
0	H	0.193806	0.509408	0.972796
0	H	0.689299	0.993056	0.471911
0	H	0.305171	0.993831	0.0291758
0	H	0.30737	0.00960583	0.5274
0	H	0.690807	0.00917416	0.973155
0	C	0.139323	0.28909	0.955469
0	C	0.855796	0.288992	0.542608
0	C	0.856917	0.713564	0.0451589
0	C	0.140695	0.713218	0.458296
0	C	0.637373	0.788144	0.956381
0	C	0.357792	0.788486	0.541702
0	C	0.359151	0.21374	0.0438277
0	C	0.638433	0.213597	0.459427
0	C	0.224117	0.0811522	0.349062
0	C	0.769897	0.0809001	0.150417
0	C	0.772207	0.921343	0.651362
0	C	0.226254	0.921425	0.850332
0	C	0.722473	0.581119	0.350945
0	C	0.271509	0.581259	0.148509
0	C	0.273796	0.421023	0.64991
0	C	0.724683	0.421254	0.851836
0	C	0.0404793	0.47328	0.166188
0	C	0.953984	0.472977	0.334845
0	C	0.955258	0.529463	0.834258
0	C	0.0432247	0.528854	0.666395
0	C	0.539824	0.972928	0.165334
0	C	0.454623	0.973435	0.335834
0	C	0.456936	0.0290854	0.834023
0	C	0.541376	0.0289828	0.666401
0	C	0.170559	0.463891	0.0729296
0	C	0.823858	0.464376	0.427882
0	C	0.825409	0.538665	0.928006
0	C	0.173149	0.537865	0.573109
0	C	0.669617	0.963617	0.0718939
0	C	0.324771	0.964588	0.428847
0	C	0.327063	0.0384982	0.92728
0	C	0.67134	0.0379011	0.573488
0	C	0.113326	0.460566	0.334357
0	C	0.88123	0.460417	0.166557
0	C	0.882468	0.54222	0.666086
0	C	0.116012	0.541362	0.834602
0	C	0.612375	0.96015	0.333473
0	C	0.382071	0.960928	0.167643
0	C	0.38436	0.0421968	0.665939
0	C	0.61388	0.0417976	0.834572
0	C	0.239589	0.236707	0.0725787
0	C	0.754954	0.236664	0.426738
0	C	0.756694	0.765957	0.927945
0	C	0.241446	0.765801	0.574052
0	C	0.737517	0.735593	0.0735689
0	C	0.257093	0.735962	0.425745
0	C	0.258855	0.266301	0.927028
0	C	0.739224	0.266273	0.574956
0	H	0.270865	0.248659	0.104736
0	H	0.723558	0.248621	0.394995
0	H	0.72539	0.754022	0.895869
0	H	0.272893	0.753924	0.605733
0	H	0.76885	0.747479	0.105641
0	H	0.225656	0.747862	0.394048
0	H	0.227545	0.254403	0.894918
0	H	0.770669	0.254414	0.606676
0	C	0.239382	0.411905	0.0677213
0	C	0.755081	0.411986	0.432543
0	C	0.756692	0.590779	0.933241
0	C	0.24175	0.590491	0.568323
0	C	0.738089	0.910904	0.0671123
0	C	0.256397	0.911344	0.433008
0	C	0.258614	0.0910055	0.932572
0	C	0.739722	0.0908454	0.568729
0	C	0.128479	0.33894	0.476428
0	C	0.866585	0.33918	0.0241212
0	C	0.867739	0.66348	0.523842
0	C	0.130123	0.662769	0.976659
0	C	0.626537	0.839345	0.47619
0	C	0.368312	0.840126	0.0247926
0	C	0.369941	0.163519	0.523679
0	C	0.627709	0.162917	0.976966
0	H	0.161837	0.349905	0.498298
0	H	0.833201	0.350019	0.00208607
0	H	0.83437	0.652565	0.501923
0	H	0.16354	0.652066	0.998813
0	H	0.659861	0.850358	0.498408
0	H	0.334946	0.850951	0.00242189
0	H	0.336638	0.152458	0.50137
0	H	0.661056	0.152039	0.999414
0	C	0.151561	0.260186	0.518656
0	C	0.843826	0.260357	0.981946
0	C	0.844763	0.742256	0.481679
0	C	0.152562	0.741694	0.0187083
0	C	0.649431	0.760774	0.519137
0	C	0.345905	0.761465	0.981772
0	C	0.346948	0.242091	0.480897
0	C	0.650245	0.241623	0.0196285
0	C	0.0933428	0.482588	0.0523262
0	C	0.901131	0.483123	0.448668
0	C	0.902551	0.51983	0.948288
0	C	0.0959456	0.518912	0.552434
0	C	0.592604	0.982918	0.0515108
0	C	0.401834	0.98398	0.44958
0	C	0.404054	0.0192721	0.94771
0	C	0.594279	0.0186607	0.55278
0	H	0.0852188	0.481811	0.00239712
0	H	0.909302	0.482579	0.498592
0	H	0.910735	0.520423	0.998239
0	H	0.0877317	0.519523	0.502499
0	H	0.584527	0.982414	0.00157105
0	H	0.409937	0.983516	0.499517
0	H	0.412101	0.019876	0.997638
0	H	0.58619	0.0191753	0.502852
0	C	0.220105	0.195973	0.563027
0	C	0.775335	0.19616	0.93706
0	C	0.776222	0.806451	0.437355
0	C	0.220827	0.806157	0.0637477
0	C	0.718061	0.696746	0.564325
0	C	0.277465	0.697326	0.935867
0	C	0.278163	0.305925	0.436014
0	C	0.718798	0.305661	0.065043
0	C	0.226225	0.243076	0.585019
0	C	0.76941	0.243153	0.914649
0	C	0.770105	0.759364	0.415296
0	C	0.226864	0.759183	0.0862265
0	C	0.723974	0.743901	0.586136
0	C	0.271691	0.744374	0.913659
0	C	0.272328	0.258799	0.414092
0	C	0.724555	0.258648	0.0873806
0	C	0.14804	0.334618	0.969322
0	C	0.846833	0.334558	0.529463
0	C	0.848136	0.668029	0.0314589
0	C	0.149776	0.667666	0.471415
0	C	0.646334	0.833696	0.969723
0	C	0.348603	0.834061	0.528949
0	C	0.350314	0.168215	0.0301158
0	C	0.647564	0.168045	0.472477
0	H	0.124515	0.361069	0.945629
0	H	0.870408	0.360975	0.553081
0	H	0.871609	0.641554	0.0552416
0	H	0.126269	0.641193	0.447805
0	H	0.622922	0.860192	0.94579
0	H	0.372075	0.860528	0.552747
0	H	0.373807	0.141721	0.0537906
0	H	0.624049	0.141565	0.448898
0	C	0.19669	0.396168	0.0372834
0	C	0.797797	0.396295	0.462855
0	C	0.799405	0.606468	0.963653
0	C	0.198988	0.606039	0.538012
0	C	0.695329	0.89534	0.0368458
0	C	0.299195	0.895863	0.463135
0	C	0.30137	0.106636	0.962704
0	C	0.696933	0.106362	0.538643
0	C	0.0616139	0.483499	0.0752875
0	C	0.932847	0.483759	0.425668
0	C	0.934213	0.518993	0.925198
0	C	0.0642764	0.518163	0.575516
0	C	0.560899	0.983728	0.0745044
0	C	0.43355	0.984617	0.426604
0	C	0.43579	0.0184112	0.924782
0	C	0.562539	0.0179914	0.575708
0	H	0.0280057	0.483066	0.0438455
0	H	0.966452	0.483346	0.457119
0	H	0.967841	0.51927	0.956577
0	H	0.0306584	0.518545	0.544128
0	H	0.527289	0.983524	0.0430827
0	H	0.467152	0.984311	0.458052
0	H	0.469391	0.0187095	0.956253
0	H	0.528949	0.0183578	0.544224
0	C	0.14522	0.438852	0.460767
0	C	0.849593	0.439118	0.0400087
0	C	0.850764	0.563641	0.539592
0	C	0.147602	0.562938	0.961048
0	C	0.643413	0.939169	0.460012
0	C	0.351079	0.939972	0.0410776
0	C	0.353173	0.0636264	0.539505
0	C	0.644859	0.0630403	0.961054
0	H	0.155917	0.431738	0.509921
0	H	0.839005	0.432192	0.990817
0	H	0.840132	0.570643	0.490417
0	H	0.15818	0.569952	0.0102185
0	H	0.653743	0.932368	0.509192
0	H	0.34077	0.933213	0.99189
0	H	0.342794	0.0705939	0.490357
0	H	0.655142	0.0699047	0.0102157
0	C	0.137158	0.481357	0.0933518
0	C	0.857319	0.481858	0.407602
0	C	0.85872	0.521242	0.907377
0	C	0.139773	0.520219	0.593445
0	C	0.636403	0.981347	0.0924863
0	C	0.358044	0.982506	0.408518
0	C	0.360269	0.0207745	0.906657
0	C	0.638063	0.0200965	0.593899
0	C	0.147738	0.488753	0.155795
0	C	0.846749	0.488976	0.345109
0	C	0.848028	0.514142	0.844852
0	C	0.150408	0.512962	0.655926
0	C	0.647093	0.988423	0.155008
0	C	0.347406	0.989629	0.346016
0	C	0.34963	0.0135613	0.844161
0	C	0.648656	0.0129379	0.656391
0	H	0.181262	0.49081	0.187514
0	H	0.813224	0.490999	0.31338
0	H	0.814479	0.512247	0.813203
0	H	0.18395	0.510929	0.687591
0	H	0.680636	0.990248	0.186694
0	H	0.313874	0.99157	0.314309
0	H	0.316102	0.0116859	0.812443
0	H	0.68218	0.0109945	0.688134
0	C	0.111377	0.412198	0.41813
0	C	0.883402	0.412397	0.082593
0	C	0.884676	0.590252	0.582183
0	C	0.113638	0.589445	0.918391
0	C	0.609816	0.912289	0.417279
0	C	0.384678	0.913091	0.0838087
0	C	0.386727	0.0904806	0.582372
0	C	0.611294	0.0898761	0.918195
0	C	0.274318	0.379797	0.0783398
0	C	0.720231	0.379749	0.421804
0	C	0.721792	0.622952	0.922507
0	C	0.276514	0.622846	0.579058
0	C	0.772849	0.878462	0.0784017
0	C	0.221739	0.878764	0.421645
0	C	0.223807	0.123317	0.921691
0	C	0.774413	0.123331	0.579714
0	C	0.265406	0.334013	0.0670459
0	C	0.729249	0.333941	0.432685
0	C	0.730767	0.668738	0.933674
0	C	0.267371	0.668626	0.56816
0	C	0.763692	0.832672	0.0676887
0	C	0.231022	0.832968	0.432008
0	C	0.232881	0.169102	0.932654
0	C	0.76519	0.169118	0.569081
0	H	0.291206	0.30875	0.0787479
0	H	0.703487	0.308626	0.420835
0	H	0.704997	0.694045	0.921869
0	H	0.293063	0.694032	0.58001
0	H	0.789365	0.807219	0.0799756
0	H	0.205402	0.807454	0.419642
0	H	0.207158	0.194473	0.920698
0	H	0.790846	0.194578	0.581171
0	C	0.232468	0.095672	0.251605
0	C	0.761361	0.0951392	0.247786
0	C	0.763803	0.906938	0.748798
0	C	0.234858	0.907256	0.752992
0	C	0.730622	0.595141	0.253244
0	C	0.263175	0.595011	0.246119
0	C	0.265676	0.40691	0.747609
0	C	0.732987	0.407383	0.754219
0	C	0.212673	0.482568	0.0956623
0	C	0.781695	0.482917	0.405094
0	C	0.783288	0.520015	0.905378
0	C	0.215366	0.519466	0.595889
0	C	0.711786	0.982118	0.0942596
0	C	0.282529	0.98289	0.406412
0	C	0.284924	0.0199368	0.90503
0	C	0.713556	0.0195393	0.595911
0	H	0.218188	0.516412	0.117266
0	H	0.776122	0.516802	0.383614
0	H	0.777737	0.486153	0.883834
0	H	0.221031	0.48559	0.617392
0	H	0.71746	0.0160795	0.115499
0	H	0.276764	0.0169052	0.385338
0	H	0.279256	0.986004	0.883714
0	H	0.719304	0.985589	0.617173
0	C	0.159462	0.207168	0.989622
0	C	0.835406	0.207098	0.50866
0	C	0.836915	0.795453	0.0107011
0	C	0.160859	0.795136	0.492284
0	C	0.657232	0.706252	0.990916
0	C	0.337667	0.706588	0.507449
0	C	0.339085	0.295712	0.00982645
0	C	0.658639	0.295559	0.493147
0	H	0.128501	0.195498	0.956482
0	H	0.866492	0.195391	0.541411
0	H	0.867921	0.807103	0.0437423
0	H	0.129716	0.806752	0.459606
0	H	0.626188	0.694661	0.957927
0	H	0.368823	0.694952	0.540074
0	H	0.370091	0.307335	0.0428959
0	H	0.627493	0.307158	0.460456
0	C	0.0978347	0.368465	0.437258
0	C	0.897095	0.368799	0.0633469
0	C	0.898325	0.633905	0.563018
0	C	0.0997577	0.63301	0.93746
0	C	0.596048	0.868715	0.436447
0	C	0.398616	0.869627	0.0646097
0	C	0.400446	0.134159	0.563403
0	C	0.597376	0.133421	0.93721
0	C	0.0943219	0.424929	0.356554
0	C	0.900314	0.424919	0.144256
0	C	0.901662	0.577615	0.643793
0	C	0.096748	0.57676	0.856795
0	C	0.593192	0.924637	0.355573
0	C	0.401234	0.925393	0.145536
0	C	0.403375	0.0779721	0.644017
0	C	0.594771	0.0774808	0.856507
0	H	0.0676728	0.405774	0.323337
0	H	0.92693	0.405695	0.177443
0	H	0.9284	0.596697	0.676963
0	H	0.0699993	0.595781	0.823552
0	H	0.566742	0.905303	0.322245
0	H	0.427651	0.90602	0.178883
0	H	0.429731	0.0973628	0.677449
0	H	0.568421	0.0968747	0.823063
0	C	0.226956	0.191653	0.0749677
0	C	0.767474	0.191599	0.424126
0	C	0.769373	0.810977	0.925433
0	C	0.228818	0.810818	0.576692
0	C	0.724788	0.690592	0.0760648
0	C	0.269692	0.690939	0.423064
0	C	0.271513	0.311353	0.924689
0	C	0.726619	0.311319	0.577462
0	C	0.0991711	0.198102	0.478208
0	C	0.896118	0.19835	0.0235635
0	C	0.89717	0.804296	0.522307
0	C	0.10009	0.803492	0.976799
0	C	0.597209	0.698576	0.47865
0	C	0.39815	0.699444	0.0233143
0	C	0.399073	0.304369	0.521442
0	C	0.598047	0.303671	0.978054
0	H	0.0931509	0.161226	0.476275
0	H	0.902158	0.161469	0.0259602
0	H	0.903221	0.841168	0.524315
0	H	0.0939176	0.840349	0.974305
0	H	0.591191	0.661709	0.476994
0	H	0.404271	0.662588	0.0253794
0	H	0.405038	0.341247	0.523108
0	H	0.591969	0.340535	0.975935
0	C	0.178747	0.181794	0.522521
0	C	0.816529	0.182034	0.97822
0	C	0.817581	0.820637	0.477863
0	C	0.179627	0.820127	0.0224296
0	C	0.676797	0.682403	0.523696
0	C	0.318564	0.683086	0.977217
0	C	0.319428	0.320354	0.476553
0	C	0.677684	0.319907	0.0237471
0	C	0.320054	0.153271	0.215933
0	C	0.674027	0.153222	0.283524
0	C	0.676237	0.849316	0.784485
0	C	0.322226	0.849187	0.717324
0	C	0.818105	0.652101	0.216675
0	C	0.175989	0.652486	0.282831
0	C	0.178173	0.350019	0.784204
0	C	0.820263	0.350028	0.717591
0	H	0.354722	0.158329	0.238206
0	H	0.63938	0.158401	0.261326
0	H	0.641571	0.844232	0.762218
0	H	0.356874	0.843984	0.739564
0	H	0.852794	0.657014	0.238708
0	H	0.14132	0.65751	0.260921
0	H	0.143474	0.345202	0.762229
0	H	0.854945	0.345085	0.73952
0	C	0.0543528	0.353777	0.410595
0	C	0.940626	0.354271	0.0901383
0	C	0.941827	0.648534	0.589747
0	C	0.0561848	0.647379	0.910512
0	C	0.552589	0.854	0.409346
0	C	0.442139	0.855123	0.0918894
0	C	0.443874	0.148964	0.590674
0	C	0.55388	0.147985	0.909821
0	H	0.0298196	0.377761	0.382576
0	H	0.965076	0.378392	0.118016
0	H	0.966316	0.624495	0.617733
0	H	0.0318384	0.62316	0.88264
0	H	0.52816	0.877886	0.380813
0	H	0.466445	0.879152	0.120369
0	H	0.468319	0.125102	0.619229
0	H	0.529558	0.123973	0.881358
0	C	0.222177	0.317632	0.0371084
0	C	0.772515	0.317564	0.46232
0	C	0.774018	0.685067	0.963603
0	C	0.224058	0.684862	0.538526
0	C	0.720395	0.816495	0.0376934
0	C	0.274368	0.816834	0.461677
0	C	0.276165	0.18535	0.962511
0	C	0.721856	0.185299	0.539475
0	C	0.162384	0.423374	0.0392805
0	C	0.832073	0.42375	0.461281
0	C	0.833664	0.579177	0.961673
0	C	0.164799	0.578458	0.539631
0	C	0.661181	0.922937	0.0385879
0	C	0.333281	0.923764	0.461829
0	C	0.335497	0.0791519	0.960662
0	C	0.662845	0.0786147	0.540257
0	H	0.129788	0.409993	0.0183122
0	H	0.864711	0.410485	0.482319
0	H	0.866285	0.592503	0.982614
0	H	0.132119	0.591602	0.518577
0	H	0.628512	0.909731	0.0178311
0	H	0.366003	0.910707	0.482648
0	H	0.368151	0.0924188	0.981313
0	H	0.630139	0.0917131	0.519448
0	C	0.0660134	0.228671	0.455427
0	C	0.929242	0.228972	0.0463313
0	C	0.9303	0.773692	0.545116
0	C	0.0670779	0.772745	0.95398
0	C	0.564072	0.729094	0.455174
0	C	0.431187	0.7301	0.0467544
0	C	0.43225	0.273895	0.544904
0	C	0.564968	0.273048	0.954799
0	C	0.254938	0.164604	0.57578
0	C	0.740416	0.164867	0.923949
0	C	0.741367	0.837778	0.424672
0	C	0.255668	0.837569	0.0769194
0	C	0.753004	0.665495	0.577334
0	C	0.242465	0.666103	0.922409
0	C	0.243142	0.337033	0.423239
0	C	0.753829	0.336819	0.0782824
0	H	0.285947	0.173168	0.611857
0	H	0.709568	0.173395	0.887493
0	H	0.710352	0.829202	0.388622
0	H	0.286505	0.829146	0.113478
0	H	0.783947	0.674218	0.613453
0	H	0.211698	0.674767	0.88586
0	H	0.212186	0.328262	0.387193
0	H	0.784611	0.328175	0.114815
0	C	0.250526	0.0955389	0.316151
0	C	0.743385	0.0951682	0.183234
0	C	0.745768	0.907013	0.684253
0	C	0.252789	0.907171	0.817543
0	C	0.748788	0.595289	0.317788
0	C	0.245095	0.595337	0.18157
0	C	0.247497	0.4068	0.683065
0	C	0.751081	0.407139	0.818769
0	C	0.298285	0.132466	0.250524
0	C	0.695663	0.132183	0.248912
0	C	0.697985	0.870145	0.749883
0	C	0.300561	0.870199	0.751915
0	C	0.796419	0.631569	0.251571
0	C	0.197526	0.631739	0.247874
0	C	0.199862	0.37051	0.749282
0	C	0.798681	0.370743	0.752511
0	C	0.252565	0.163081	0.128606
0	C	0.741623	0.162979	0.370692
0	C	0.743735	0.839538	0.871804
0	C	0.254655	0.839485	0.630089
0	C	0.750461	0.661986	0.129632
0	C	0.243768	0.662299	0.369692
0	C	0.245833	0.339995	0.871169
0	C	0.752509	0.340057	0.630755
0	C	0.254713	0.120076	0.218969
0	C	0.739191	0.11964	0.28044
0	C	0.741548	0.882567	0.781441
0	C	0.257045	0.882772	0.72035
0	C	0.752802	0.619266	0.220289
0	C	0.241097	0.61926	0.279109
0	C	0.243494	0.382774	0.78055
0	C	0.755087	0.383129	0.721264
0	C	0.18504	0.0577333	0.317251
0	C	0.808876	0.0572986	0.182253
0	C	0.811302	0.94474	0.683178
0	C	0.187284	0.945036	0.818477
0	C	0.683444	0.557525	0.319432
0	C	0.310407	0.557426	0.180049
0	C	0.312817	0.444635	0.681434
0	C	0.685774	0.445057	0.820275
0	C	0.298046	0.167863	0.156365
0	C	0.69616	0.167937	0.343009
0	C	0.698258	0.834719	0.84405
0	C	0.300121	0.83453	0.657806
0	C	0.795969	0.666616	0.157104
0	C	0.198276	0.667114	0.342319
0	C	0.200323	0.335425	0.843738
0	C	0.79801	0.335343	0.658125
0	H	0.314715	0.183863	0.129962
0	H	0.679586	0.184156	0.369384
0	H	0.681594	0.818692	0.870438
0	H	0.316704	0.81834	0.631426
0	H	0.812557	0.682447	0.130476
0	H	0.1818	0.683159	0.368948
0	H	0.183731	0.319593	0.87036
0	H	0.814504	0.319317	0.631509
0	C	0.171074	0.0557868	0.411575
0	C	0.823203	0.055736	0.088224
0	C	0.825268	0.946607	0.588846
0	C	0.172876	0.946542	0.912443
0	C	0.669723	0.555848	0.413954
0	C	0.324538	0.556117	0.085862
0	C	0.326433	0.446527	0.586831
0	C	0.671707	0.446541	0.914507
0	H	0.152049	0.04487	0.437377
0	H	0.842294	0.0448995	0.0624845
0	H	0.844294	0.957498	0.56303
0	H	0.15375	0.957349	0.938143
0	H	0.650849	0.544934	0.439987
0	H	0.343477	0.545256	0.0599046
0	H	0.34525	0.457546	0.560761
0	H	0.65279	0.457463	0.94047
0	C	0.0435269	0.309499	0.419429
0	C	0.95158	0.309968	0.0816818
0	C	0.952711	0.692808	0.581001
0	C	0.0450526	0.691646	0.9188
0	C	0.54165	0.809831	0.418479
0	C	0.453284	0.810973	0.0830931
0	C	0.454764	0.193175	0.581642
0	C	0.54278	0.192176	0.918533
0	H	0.0101907	0.298297	0.398194
0	H	0.984928	0.298848	0.10316
0	H	0.986057	0.703974	0.602303
0	H	0.01167	0.702627	0.897207
0	H	0.508313	0.798649	0.39712
0	H	0.486642	0.799906	0.104742
0	H	0.488079	0.204419	0.603129
0	H	0.509435	0.203271	0.896831
0	C	0.31816	0.126468	0.31684
0	C	0.675784	0.126138	0.182605
0	C	0.678124	0.876114	0.683564
0	C	0.320404	0.876175	0.818238
0	C	0.816421	0.625812	0.317921
0	C	0.177519	0.625959	0.181529
0	C	0.179873	0.376259	0.682932
0	C	0.818685	0.376577	0.818848
0	C	0.232184	0.136436	0.157867
0	C	0.761831	0.136038	0.34148
0	C	0.764087	0.866225	0.842544
0	C	0.234429	0.866417	0.659286
0	C	0.730161	0.63548	0.159141
0	C	0.263873	0.635497	0.340198
0	C	0.266138	0.366505	0.841667
0	C	0.732344	0.366821	0.660205
0	H	0.197757	0.130079	0.13592
0	H	0.796227	0.129475	0.363397
0	H	0.798507	0.87263	0.8645
0	H	0.20004	0.872996	0.637343
0	H	0.695721	0.62916	0.137392
0	H	0.29828	0.628952	0.361891
0	H	0.300585	0.372789	0.8634
0	H	0.697923	0.37327	0.638511
0	C	0.174239	0.140091	0.489065
0	C	0.820746	0.14041	0.0117451
0	C	0.822079	0.862339	0.511323
0	C	0.175343	0.861726	0.988826
0	C	0.672475	0.64062	0.490461
0	C	0.322601	0.641359	0.0104812
0	C	0.323698	0.36207	0.509911
0	C	0.673656	0.361509	0.99023
0	H	0.142617	0.13043	0.455745
0	H	0.852224	0.130758	0.0454997
0	H	0.853707	0.872027	0.54461
0	H	0.14387	0.871265	0.954964
0	H	0.640919	0.630817	0.457072
0	H	0.354003	0.63158	0.0443376
0	H	0.355265	0.371942	0.543213
0	H	0.642248	0.371253	0.956365
0	C	0.294108	0.110307	0.347867
0	C	0.699814	0.109974	0.151535
0	C	0.702186	0.89225	0.652534
0	C	0.296342	0.892313	0.849276
0	C	0.792415	0.610023	0.349228
0	C	0.201487	0.61014	0.150167
0	C	0.203873	0.392068	0.651625
0	C	0.794698	0.392377	0.850192
0	H	0.308163	0.10737	0.397979
0	H	0.685723	0.107043	0.101415
0	H	0.688141	0.895153	0.602419
0	H	0.310397	0.895184	0.899401
0	H	0.806539	0.607352	0.399369
0	H	0.187312	0.607474	0.100018
0	H	0.189743	0.39475	0.601486
0	H	0.808865	0.395071	0.900336
0	C	0.206582	0.0856634	0.440358
0	C	0.787869	0.085843	0.059543
0	C	0.789749	0.916748	0.56008
0	C	0.208197	0.916421	0.941132
0	C	0.705061	0.586021	0.442321
0	C	0.289424	0.586577	0.0576068
0	C	0.291108	0.416348	0.558435
0	C	0.70682	0.416082	0.942796
0	C	0.250404	0.125263	0.541317
0	C	0.744649	0.125612	0.958477
0	C	0.745892	0.877099	0.459175
0	C	0.251377	0.876783	0.0422971
0	C	0.748656	0.626075	0.543067
0	C	0.246513	0.626761	0.956724
0	C	0.247444	0.376371	0.457653
0	C	0.749777	0.376053	0.0437648
0	H	0.277489	0.10226	0.549231
0	H	0.71749	0.102647	0.950256
0	H	0.718784	0.900058	0.451315
0	H	0.278483	0.899836	0.0505527
0	H	0.775832	0.603163	0.551185
0	H	0.219281	0.603854	0.948237
0	H	0.220211	0.399157	0.449725
0	H	0.777026	0.398906	0.0520784
0	C	0.234344	0.0947229	0.411214
0	C	0.759934	0.0947831	0.0884411
0	C	0.76197	0.907752	0.589217
0	C	0.236154	0.907488	0.912269
0	C	0.732715	0.595028	0.412979
0	C	0.261583	0.5955	0.0866731
0	C	0.263508	0.407217	0.587827
0	C	0.734621	0.407066	0.913696
0	H	0.263048	0.115379	0.434375
0	H	0.731335	0.115582	0.065278
0	H	0.733245	0.887131	0.566064
0	H	0.264726	0.886647	0.935432
0	H	0.761316	0.6159	0.43585
0	H	0.233116	0.616551	0.0637904
0	H	0.234916	0.38634	0.564951
0	H	0.763066	0.38598	0.936573
0	C	0.186905	0.176449	0.0306776
0	C	0.807702	0.176384	0.467965
0	C	0.809486	0.826152	0.969595
0	C	0.188512	0.825913	0.532943
0	C	0.684628	0.675492	0.0319554
0	C	0.310008	0.675827	0.466772
0	C	0.311628	0.326485	0.968892
0	C	0.68631	0.326386	0.533691
0	H	0.178256	0.140283	0.0301427
0	H	0.816271	0.140189	0.468468
0	H	0.818189	0.862298	0.97
0	H	0.179837	0.862074	0.53248
0	H	0.675856	0.639372	0.0315525
0	H	0.318684	0.639669	0.467179
0	H	0.320311	0.362646	0.969439
0	H	0.67764	0.362553	0.533139
0	C	0.169883	0.0529374	0.250887
0	C	0.82388	0.0522772	0.248568
0	C	0.826447	0.949573	0.749537
0	C	0.172321	0.950088	0.752169
0	C	0.668117	0.552547	0.253083
0	C	0.325561	0.552197	0.246344
0	C	0.32817	0.44955	0.747794
0	C	0.670584	0.450178	0.753963
0	C	0.210104	0.114935	0.493513
0	C	0.784738	0.115287	0.00671935
0	C	0.786206	0.887459	0.506932
0	C	0.211307	0.886967	0.993937
0	C	0.708445	0.615534	0.49521
0	C	0.286494	0.616265	0.00508025
0	C	0.287686	0.386977	0.505408
0	C	0.709775	0.386508	0.995432
0	C	0.160758	0.042275	0.351465
0	C	0.833249	0.0419039	0.148143
0	C	0.835585	0.960154	0.648945
0	C	0.162864	0.960392	0.852537
0	C	0.659375	0.542061	0.353945
0	C	0.334568	0.541991	0.145659
0	C	0.336828	0.460208	0.646892
0	C	0.661625	0.460554	0.854653
0	H	0.132933	0.0203722	0.328293
0	H	0.860928	0.0197965	0.171267
0	H	0.86342	0.982053	0.672101
0	H	0.135176	0.982478	0.829386
0	H	0.631672	0.519925	0.331056
0	H	0.362092	0.519611	0.1685
0	H	0.364524	0.482355	0.669799
0	H	0.634075	0.482888	0.831766
0	C	0.192396	0.0726076	0.219804
0	C	0.801321	0.0718915	0.27962
0	C	0.803883	0.929994	0.780606
0	C	0.194906	0.930509	0.721137
0	C	0.690522	0.572063	0.221735
0	C	0.303134	0.571697	0.277663
0	C	0.305787	0.429975	0.779133
0	C	0.692988	0.430618	0.722652
0	H	0.18044	0.0702942	0.169382
0	H	0.81316	0.0694248	0.330019
0	H	0.8158	0.932356	0.831018
0	H	0.183103	0.93302	0.670731
0	H	0.678457	0.569588	0.171313
0	H	0.315075	0.56907	0.328062
0	H	0.317878	0.432367	0.829546
0	H	0.680999	0.433149	0.67224
0	C	0.213259	0.538245	0.393458
0	C	0.781097	0.537835	0.107407
0	C	0.782423	0.464724	0.607115
0	C	0.216352	0.464307	0.893879
0	C	0.711973	0.038189	0.392982
0	C	0.2823	0.0387019	0.107957
0	C	0.28498	0.963815	0.606078
0	C	0.713535	0.963818	0.894552
0	H	0.211408	0.543433	0.439151
0	H	0.782908	0.542929	0.0616723
0	H	0.78424	0.459606	0.561385
0	H	0.214461	0.459127	0.939549
0	H	0.709673	0.0438108	0.438322
0	H	0.284561	0.0442454	0.0625791
0	H	0.287068	0.958627	0.560522
0	H	0.711364	0.958497	0.940028
0	H	0.212452	0.573556	0.374818
0	H	0.781899	0.573182	0.125936
0	H	0.783386	0.42939	0.625769
0	H	0.215649	0.428989	0.875317
0	H	0.711338	0.0733427	0.373949
0	H	0.282779	0.0738914	0.126795
0	H	0.28582	0.928501	0.624734
0	H	0.712922	0.928546	0.875889
0	C	0.993628	0.472004	0.1252
0	C	0.000812493	0.471327	0.375971
0	C	0.00213102	0.530713	0.875217
0	C	0.996391	0.530759	0.625321
0	C	0.492976	0.971812	0.124378
0	C	0.501443	0.971789	0.37691
0	C	0.503769	0.0300147	0.875046
0	C	0.494574	0.0304102	0.625263
0	H	0.974909	0.45409	0.148246
0	H	0.0194166	0.45321	0.352919
0	H	0.0208285	0.548625	0.852136
0	H	0.977884	0.548978	0.648438
0	H	0.47422	0.953861	0.147335
0	H	0.520041	0.953529	0.353969
0	H	0.522645	0.0476338	0.852013
0	H	0.475832	0.0482897	0.64829
0	H	0.988517	0.451314	0.0832418
0	H	0.00567655	0.450593	0.41781
0	H	0.00724123	0.551426	0.917162
0	H	0.991609	0.551524	0.583533
0	H	0.487762	0.951314	0.0822411
0	H	0.506371	0.951302	0.418953
0	H	0.509059	0.0507068	0.917048
0	H	0.489562	0.0511333	0.58338
0	C	0.0204912	0.211523	0.429819
0	C	0.97479	0.211902	0.072372
0	C	0.975839	0.790796	0.570819
0	C	0.0214784	0.789656	0.927768
0	C	0.518613	0.711811	0.429008
0	C	0.476728	0.713077	0.0731801
0	C	0.477699	0.291216	0.571074
0	C	0.519435	0.290088	0.928433
0	H	0.00252492	0.226817	0.383729
0	H	0.992525	0.227092	0.118599
0	H	0.993781	0.775423	0.616864
0	H	0.00385742	0.774446	0.881524
0	H	0.500586	0.727806	0.383406
0	H	0.494582	0.729112	0.118814
0	H	0.495686	0.275328	0.616765
0	H	0.501699	0.274372	0.882544
0	H	0.0196677	0.173906	0.421506
0	H	0.975629	0.174258	0.080454
0	H	0.976699	0.828399	0.579238
0	H	0.0205417	0.827304	0.919679
0	H	0.517875	0.67437	0.419533
0	H	0.477608	0.675622	0.0826241
0	H	0.47841	0.328682	0.580365
0	H	0.518584	0.327619	0.919501
0	C	0.320158	0.396002	0.104432
0	C	0.674365	0.395873	0.396218
0	C	0.675941	0.606797	0.89643
0	C	0.322417	0.60684	0.604678
0	C	0.818754	0.894433	0.104801
0	C	0.175797	0.894621	0.395749
0	C	0.17793	0.107254	0.895487
0	C	0.82033	0.107386	0.605499
0	H	0.339477	0.374811	0.0854547
0	H	0.655285	0.374644	0.41556
0	H	0.656599	0.628123	0.915222
0	H	0.341488	0.628202	0.585466
0	H	0.838299	0.872606	0.0869375
0	H	0.156519	0.872791	0.414074
0	H	0.158447	0.128901	0.913669
0	H	0.839572	0.129065	0.586937
0	H	0.322486	0.431594	0.0891118
0	H	0.672097	0.431455	0.411634
0	H	0.673571	0.571277	0.911953
0	H	0.324774	0.571312	0.589159
0	H	0.821397	0.929691	0.0886582
0	H	0.173207	0.9299	0.411887
0	H	0.175414	0.0719064	0.911451
0	H	0.822817	0.0720332	0.589516
0	C	0.364214	0.139871	0.352176
0	C	0.629733	0.139509	0.147285
0	C	0.632079	0.862698	0.648217
0	C	0.366432	0.862716	0.853586
0	C	0.862535	0.639166	0.35292
0	C	0.131414	0.639322	0.146564
0	C	0.133779	0.36286	0.647906
0	C	0.864799	0.363263	0.853832
0	H	0.368141	0.155121	0.397379
0	H	0.625832	0.1549	0.102165
0	H	0.628143	0.847549	0.602956
0	H	0.37031	0.847461	0.898771
0	H	0.866728	0.654002	0.39845
0	H	0.127222	0.654198	0.101052
0	H	0.129611	0.348048	0.602372
0	H	0.868978	0.348316	0.899301
0	H	0.374198	0.16755	0.328131
0	H	0.619688	0.167061	0.171432
0	H	0.622128	0.834939	0.672179
0	H	0.376387	0.835019	0.82954
0	H	0.872233	0.667169	0.329006
0	H	0.121709	0.667279	0.170529
0	H	0.124094	0.334829	0.671791
0	H	0.874552	0.335359	0.829844
0	C	0.0974777	0.275085	0.905503
0	C	0.898159	0.274989	0.591404
0	C	0.89876	0.727581	0.0951385
0	C	0.0982849	0.727127	0.409542
0	C	0.595406	0.774147	0.906686
0	C	0.400247	0.774542	0.590321
0	C	0.401076	0.227706	0.0936617
0	C	0.595965	0.227486	0.410794
0	H	0.0807359	0.250019	0.923876
0	H	0.91423	0.249691	0.572271
0	H	0.915503	0.752665	0.0767958
0	H	0.0821522	0.752348	0.428689
0	H	0.578758	0.74909	0.92522
0	H	0.416366	0.749403	0.57105
0	H	0.417741	0.252847	0.0752695
0	H	0.579916	0.252785	0.429963
0	H	0.0754721	0.305257	0.890414
0	H	0.920313	0.305039	0.605413
0	H	0.92077	0.697417	0.110226
0	H	0.076207	0.697019	0.395565
0	H	0.573401	0.804302	0.891769
0	H	0.422303	0.804665	0.604363
0	H	0.423097	0.197573	0.108529
0	H	0.573862	0.19742	0.397043
0	C	0.97534	0.520539	0.106381
0	C	0.0195567	0.519673	0.395079
0	C	0.0204584	0.482197	0.894106
0	C	0.977413	0.482526	0.606084
0	C	0.474845	0.0204219	0.105996
0	C	0.520103	0.0201947	0.395458
0	C	0.521621	0.981334	0.893722
0	C	0.476199	0.98195	0.606306
0	H	0.997504	0.541258	0.0916521
0	H	0.997788	0.540467	0.410438
0	H	0.998236	0.461441	0.908687
0	H	0.999219	0.461515	0.59103
0	H	0.497007	0.0411426	0.0912284
0	H	0.498253	0.0411718	0.410496
0	H	0.499431	0.960944	0.908801
0	H	0.498116	0.961327	0.590991
0	H	0.944582	0.517873	0.0653413
0	H	0.0505135	0.516673	0.435685
0	H	0.0511513	0.484875	0.935265
0	H	0.946611	0.485661	0.565242
0	H	0.443992	0.0180072	0.0650671
0	H	0.551042	0.0174708	0.43616
0	H	0.552569	0.983726	0.934502
0	H	0.445212	0.984696	0.565682
0	C	0.96776	0.545991	0.1583
0	C	0.0267723	0.545212	0.342921
0	C	0.0282116	0.456757	0.84232
0	C	0.969724	0.457154	0.65798
0	C	0.467542	0.045716	0.158215
0	C	0.527352	0.045292	0.343049
0	C	0.528621	0.95561	0.841574
0	C	0.46911	0.956293	0.658449
0	H	0.998785	0.552023	0.197283
0	H	0.995593	0.551339	0.304294
0	H	0.997258	0.450749	0.803193
0	H	0.00074105	0.450926	0.696894
0	H	0.498598	0.0510602	0.197418
0	H	0.496232	0.0508413	0.304056
0	H	0.497461	0.950175	0.802614
0	H	0.500283	0.950552	0.697264
0	H	0.948672	0.524373	0.177112
0	H	0.0455802	0.523588	0.323649
0	H	0.0474092	0.478368	0.823686
0	H	0.950803	0.478921	0.6769
0	H	0.448033	0.0243252	0.176551
0	H	0.546551	0.0236578	0.324459
0	H	0.548043	0.976743	0.822794
0	H	0.44995	0.977604	0.677467
0	C	0.103647	0.255248	0.848939
0	C	0.893097	0.255459	0.6489
0	C	0.892534	0.747392	0.151677
0	C	0.10324	0.746704	0.351991
0	C	0.60137	0.754295	0.849978
0	C	0.39534	0.754819	0.647831
0	C	0.394974	0.247409	0.150344
0	C	0.60083	0.246929	0.353114
0	H	0.127169	0.226769	0.862759
0	H	0.869796	0.226763	0.636062
0	H	0.86905	0.775906	0.137842
0	H	0.126486	0.77545	0.364769
0	H	0.624779	0.725708	0.863642
0	H	0.372125	0.726045	0.634991
0	H	0.371423	0.27586	0.136652
0	H	0.624138	0.275617	0.365764
0	H	0.117838	0.281831	0.828805
0	H	0.879121	0.282059	0.669323
0	H	0.878264	0.720811	0.171699
0	H	0.117217	0.720138	0.331521
0	H	0.615613	0.780813	0.829823
0	H	0.381333	0.781296	0.668396
0	H	0.380834	0.220752	0.170446
0	H	0.614707	0.220281	0.332617
0	C	0.060926	0.238447	0.800374
0	C	0.936329	0.239179	0.696689
0	C	0.935243	0.764108	0.200374
0	C	0.0599453	0.762894	0.304278
0	C	0.558531	0.737697	0.801513
0	C	0.438656	0.738622	0.695473
0	C	0.437706	0.264205	0.198878
0	C	0.557531	0.263183	0.3055
0	H	0.0487529	0.209362	0.819313
0	H	0.948515	0.210306	0.677406
0	H	0.947449	0.793256	0.181592
0	H	0.0477883	0.791793	0.323551
0	H	0.546603	0.708242	0.820145
0	H	0.450562	0.709395	0.676409
0	H	0.449596	0.293667	0.180208
0	H	0.545674	0.29244	0.324578
0	H	0.0363049	0.265733	0.790414
0	H	0.960575	0.266805	0.705966
0	H	0.959855	0.736816	0.210251
0	H	0.0357339	0.735252	0.295181
0	H	0.533848	0.764846	0.792343
0	H	0.463006	0.766072	0.704069
0	H	0.462478	0.237132	0.208251
0	H	0.533153	0.235772	0.296952
0	C	0.127651	0.0297606	0.215549
0	C	0.866075	0.0290648	0.284003
0	C	0.868727	0.972658	0.784902
0	C	0.130111	0.973258	0.716695
0	C	0.625824	0.529413	0.217966
0	C	0.367785	0.528958	0.281544
0	C	0.370469	0.472686	0.782903
0	C	0.628332	0.473354	0.718749
0	H	0.120211	0.0036319	0.244347
0	H	0.873697	0.00312364	0.255154
0	H	0.876267	0.998701	0.756097
0	H	0.122456	0.999211	0.745497
0	H	0.618124	0.503797	0.247122
0	H	0.37561	0.503484	0.252349
0	H	0.378153	0.498313	0.753743
0	H	0.620512	0.498883	0.747888
0	H	0.129045	0.0102944	0.175842
0	H	0.864528	0.00940288	0.32347
0	H	0.867345	0.992194	0.824564
0	H	0.131644	0.992889	0.677195
0	H	0.627295	0.509377	0.178737
0	H	0.366149	0.508771	0.320552
0	H	0.369015	0.492705	0.822154
0	H	0.629911	0.493465	0.679644
0	C	0.997734	0.222229	0.473534
0	C	0.997826	0.222944	0.0290876
0	C	0.998591	0.780127	0.527085
0	C	0.998372	0.778471	0.97092
0	C	0.495958	0.721296	0.473152
0	C	0.499515	0.72279	0.0292332
0	C	0.500435	0.281567	0.527073
0	C	0.496435	0.279898	0.971982
0	H	0.992862	0.25997	0.475124
0	H	0.00306217	0.260614	0.028422
0	H	0.00346069	0.742396	0.525469
0	H	0.993011	0.74082	0.971219
0	H	0.49167	0.759095	0.476616
0	H	0.504182	0.760526	0.0263364
0	H	0.504616	0.243746	0.523642
0	H	0.491906	0.242118	0.974579
0	H	0.0189758	0.212598	0.521329
0	H	0.976629	0.213885	0.981091
0	H	0.977354	0.789777	0.479298
0	H	0.0195875	0.787292	0.0189988
0	H	0.516989	0.710316	0.520415
0	H	0.478425	0.712258	0.981818
0	H	0.479514	0.292569	0.479772
0	H	0.517314	0.290326	0.0195459
0	C	0.94449	0.591729	0.135344
0	C	0.050214	0.590898	0.365728
0	C	0.05143	0.410995	0.865371
0	C	0.946168	0.411555	0.634979
0	C	0.445079	0.0919234	0.135712
0	C	0.550212	0.0913361	0.365367
0	C	0.551039	0.909428	0.864404
0	C	0.446262	0.910341	0.635475
0	H	0.961078	0.611626	0.110641
0	H	0.0340212	0.610647	0.390985
0	H	0.0348375	0.3912	0.890113
0	H	0.962417	0.391726	0.609885
0	H	0.462108	0.11144	0.111469
0	H	0.533673	0.110878	0.390214
0	H	0.533963	0.890077	0.888724
0	H	0.462866	0.89107	0.610475
0	H	0.911722	0.584867	0.100982
0	H	0.0831392	0.583926	0.399488
0	H	0.0842157	0.417855	0.899692
0	H	0.913332	0.418652	0.601026
0	H	0.412252	0.0857271	0.101093
0	H	0.583176	0.0848966	0.399375
0	H	0.58386	0.915658	0.899035
0	H	0.413333	0.916926	0.601442
0	C	0.064854	0.223295	0.740303
0	C	0.933303	0.223916	0.757296
0	C	0.931253	0.779078	0.260473
0	C	0.0628108	0.778062	0.243532
0	C	0.562085	0.723398	0.740893
0	C	0.435956	0.724106	0.756556
0	C	0.433947	0.278576	0.259338
0	C	0.560202	0.277662	0.244382
0	H	0.0366368	0.202133	0.713098
0	H	0.961701	0.202779	0.783868
0	H	0.959431	0.800258	0.287785
0	H	0.0343758	0.799162	0.217006
0	H	0.533906	0.702191	0.713647
0	H	0.464252	0.702807	0.783077
0	H	0.462016	0.299926	0.286603
0	H	0.531917	0.29898	0.217879
0	H	0.0929238	0.200336	0.750656
0	H	0.905337	0.200917	0.747643
0	H	0.903137	0.801964	0.250166
0	H	0.0907449	0.801071	0.25299
0	H	0.590248	0.700705	0.750476
0	H	0.407843	0.701449	0.747573
0	H	0.405679	0.301141	0.24954
0	H	0.588328	0.300286	0.253315
0	C	0.068367	0.264132	0.701198
0	C	0.930289	0.26472	0.796805
0	C	0.927778	0.738112	0.299407
0	C	0.0657436	0.73719	0.20408
0	C	0.565058	0.764801	0.702279
0	C	0.433596	0.765414	0.795734
0	C	0.431037	0.237202	0.298038
0	C	0.562505	0.236331	0.205206
0	H	0.0404871	0.287276	0.691249
0	H	0.958093	0.287879	0.806155
0	H	0.955751	0.715091	0.309443
0	H	0.0380251	0.713969	0.195072
0	H	0.537253	0.78786	0.693476
0	H	0.461323	0.788472	0.80391
0	H	0.458941	0.214252	0.307055
0	H	0.534849	0.213223	0.197268
0	H	0.096949	0.284999	0.728009
0	H	0.901578	0.285604	0.770602
0	H	0.899296	0.717167	0.272428
0	H	0.0945416	0.716394	0.230172
0	H	0.593765	0.785539	0.728946
0	H	0.404768	0.786222	0.769818
0	H	0.402442	0.216319	0.27134
0	H	0.591398	0.215581	0.231014
0	C	0.339476	0.393387	0.175209
0	C	0.654593	0.393288	0.325446
0	C	0.656674	0.609165	0.825636
0	C	0.342102	0.609298	0.675457
0	C	0.837403	0.892864	0.17563
0	C	0.156671	0.892959	0.324922
0	C	0.159057	0.109054	0.824661
0	C	0.839598	0.109245	0.676317
0	H	0.334017	0.35869	0.190199
0	H	0.659971	0.358624	0.310267
0	H	0.662115	0.643799	0.810441
0	H	0.33682	0.64397	0.690713
0	H	0.831994	0.858373	0.191274
0	H	0.162023	0.858482	0.309181
0	H	0.164497	0.14357	0.809121
0	H	0.834325	0.143791	0.691942
0	H	0.322268	0.417324	0.194254
0	H	0.671522	0.417316	0.306066
0	H	0.673923	0.585132	0.806778
0	H	0.325028	0.585327	0.694679
0	H	0.81968	0.917042	0.193524
0	H	0.174079	0.917208	0.306597
0	H	0.176588	0.0848724	0.806453
0	H	0.822215	0.0851265	0.694856
0	C	0.387595	0.40425	0.201466
0	C	0.606462	0.404053	0.299914
0	C	0.60857	0.598238	0.799394
0	C	0.390192	0.59831	0.701104
0	C	0.885424	0.904191	0.202554
0	C	0.10862	0.90412	0.298726
0	C	0.111004	0.0979032	0.797999
0	C	0.887636	0.0980094	0.702386
0	H	0.404502	0.379533	0.182938
0	H	0.589821	0.379242	0.318745
0	H	0.591617	0.622981	0.817815
0	H	0.406978	0.623048	0.682406
0	H	0.902792	0.879569	0.184651
0	H	0.0915617	0.879388	0.316992
0	H	0.0938021	0.12258	0.816103
0	H	0.904688	0.122663	0.684004
0	H	0.393153	0.438542	0.185639
0	H	0.600998	0.438288	0.316013
0	H	0.60305	0.563973	0.815338
0	H	0.395545	0.564051	0.684955
0	H	0.890862	0.938489	0.186604
0	H	0.103255	0.93837	0.314889
0	H	0.10553	0.0636147	0.813939
0	H	0.892925	0.063726	0.686237
0	C	0.406854	0.402332	0.272164
0	C	0.586704	0.402261	0.22922
0	C	0.589326	0.600004	0.728687
0	C	0.409848	0.599999	0.771802
0	C	0.904108	0.902602	0.273265
0	C	0.089401	0.902599	0.228015
0	C	0.0921074	0.0995591	0.727289
0	C	0.906948	0.0995834	0.773092
0	H	0.400475	0.368291	0.288023
0	H	0.592977	0.368298	0.213049
0	H	0.595752	0.633981	0.712699
0	H	0.403626	0.633967	0.788023
0	H	0.897841	0.86853	0.289185
0	H	0.0955754	0.868603	0.211813
0	H	0.0984455	0.133585	0.711332
0	H	0.900824	0.133604	0.789284
0	H	0.390707	0.427544	0.291144
0	H	0.602555	0.427605	0.209956
0	H	0.605443	0.57468	0.709813
0	H	0.393875	0.574682	0.790909
0	H	0.887479	0.927723	0.291613
0	H	0.105714	0.92784	0.209323
0	H	0.108534	0.0743463	0.708742
0	H	0.890663	0.0743881	0.791887
0	C	0.0711656	0.248552	0.64092
0	C	0.928279	0.248985	0.857513
0	C	0.924758	0.753504	0.359618
0	C	0.0674304	0.75281	0.143129
0	C	0.567047	0.750028	0.641196
0	C	0.432488	0.750398	0.857255
0	C	0.428833	0.25203	0.35897
0	C	0.563362	0.251291	0.143515
0	H	0.072515	0.278077	0.612647
0	H	0.927506	0.278426	0.886267
0	H	0.923562	0.723883	0.387838
0	H	0.0682353	0.723319	0.11448
0	H	0.56793	0.779907	0.61319
0	H	0.432158	0.780156	0.885775
0	H	0.428133	0.222171	0.387121
0	H	0.563769	0.221509	0.115079
0	H	0.0434126	0.227767	0.612958
0	H	0.956082	0.227962	0.884589
0	H	0.952343	0.774479	0.38767
0	H	0.0394666	0.773628	0.116107
0	H	0.539171	0.729326	0.613497
0	H	0.460453	0.72949	0.884016
0	H	0.456531	0.272988	0.386624
0	H	0.535247	0.271996	0.11677
0	H	0.099934	0.227845	0.64906
0	H	0.899509	0.228436	0.849969
0	H	0.895827	0.773949	0.351385
0	H	0.0960589	0.773515	0.150329
0	H	0.595743	0.729496	0.648215
0	H	0.40384	0.729968	0.850865
0	H	0.399964	0.272314	0.351746
0	H	0.591865	0.271904	0.149648
0	C	0.455319	0.41147	0.29827
0	C	0.53823	0.411289	0.203907
0	C	0.540852	0.590938	0.702605
0	C	0.458301	0.590822	0.797271
0	C	0.9525	0.912216	0.300107
0	C	0.0409974	0.912084	0.202004
0	C	0.0436874	0.0901625	0.700755
0	C	0.955346	0.0900634	0.798998
0	H	0.471331	0.386437	0.278745
0	H	0.522509	0.38611	0.223681
0	H	0.524863	0.616052	0.722059
0	H	0.474142	0.615944	0.777603
0	H	0.968971	0.887405	0.281005
0	H	0.0248359	0.88713	0.221399
0	H	0.0273972	0.115093	0.719982
0	H	0.971484	0.114992	0.779535
0	H	0.461773	0.445772	0.283337
0	H	0.531878	0.445503	0.219201
0	H	0.534356	0.556686	0.71763
0	H	0.464593	0.556583	0.781978
0	H	0.958811	0.946625	0.285309
0	H	0.0347714	0.946399	0.21716
0	H	0.0373013	0.05582	0.715656
0	H	0.961519	0.0557342	0.783822
0	C	0.941953	0.621273	0.187814
0	C	0.0521827	0.62057	0.312989
0	C	0.0539215	0.38134	0.812964
0	C	0.943866	0.381914	0.687533
0	C	0.442836	0.121388	0.188422
0	C	0.551963	0.120833	0.312372
0	C	0.553301	0.879748	0.811896
0	C	0.444361	0.880384	0.687979
0	H	0.974727	0.625551	0.224541
0	H	0.0191694	0.625103	0.276983
0	H	0.0211186	0.376968	0.776346
0	H	0.976771	0.377384	0.723838
0	H	0.475705	0.125367	0.225041
0	H	0.518875	0.125124	0.27645
0	H	0.520417	0.875529	0.775406
0	H	0.4774	0.875914	0.723969
0	H	0.93103	0.656404	0.169979
0	H	0.0634894	0.655565	0.330839
0	H	0.0649182	0.34625	0.830936
0	H	0.932635	0.346911	0.669645
0	H	0.432163	0.156609	0.170903
0	H	0.563082	0.155923	0.329843
0	H	0.564136	0.844619	0.829705
0	H	0.433264	0.845389	0.669969
0	C	0.878395	0.18779	0.37756
0	C	0.11693	0.187609	0.124687
0	C	0.117952	0.814462	0.62309
0	C	0.879398	0.814473	0.875676
0	C	0.376635	0.688849	0.374028
0	C	0.618513	0.688897	0.127967
0	C	0.619804	0.313576	0.626614
0	C	0.377488	0.313564	0.872508
0	H	0.88082	0.151638	0.393216
0	H	0.114364	0.151476	0.108917
0	H	0.115513	0.850661	0.607619
0	H	0.882195	0.850599	0.891523
0	H	0.37864	0.652637	0.389321
0	H	0.616202	0.652711	0.112479
0	H	0.617873	0.349846	0.611571
0	H	0.379761	0.349792	0.887828
0	H	0.863671	0.206863	0.405229
0	H	0.131698	0.206643	0.0970475
0	H	0.132657	0.795512	0.595297
0	H	0.864561	0.795567	0.90333
0	H	0.361359	0.707875	0.401019
0	H	0.633883	0.707808	0.101011
0	H	0.635101	0.294657	0.599563
0	H	0.361971	0.294763	0.89936
0	C	0.954764	0.197101	0.455978
0	C	0.0405874	0.197428	0.046353
0	C	0.0415642	0.805264	0.544689
0	C	0.955698	0.804121	0.953873
0	C	0.452557	0.696896	0.454206
0	C	0.54267	0.69789	0.0478789
0	C	0.543927	0.305809	0.546211
0	C	0.45315	0.304561	0.953109
0	H	0.940107	0.207111	0.488923
0	H	0.0552802	0.207413	0.0134368
0	H	0.0561758	0.795376	0.511646
0	H	0.941017	0.794096	0.986789
0	H	0.43759	0.706764	0.486834
0	H	0.557732	0.707744	0.0153592
0	H	0.558892	0.295975	0.513571
0	H	0.437983	0.294535	0.985436
0	H	0.960319	0.159586	0.46189
0	H	0.0347619	0.159969	0.040173
0	H	0.0360152	0.842789	0.538967
0	H	0.961646	0.841553	0.960238
0	H	0.457497	0.659263	0.459315
0	H	0.537339	0.660327	0.0423371
0	H	0.539117	0.343467	0.541302
0	H	0.458307	0.342145	0.95872
0	C	0.923203	0.207188	0.38997
0	C	0.0722093	0.207187	0.112418
0	C	0.0731565	0.79501	0.610625
0	C	0.923987	0.794578	0.887801
0	C	0.421734	0.708046	0.388142
0	C	0.573582	0.708489	0.114081
0	C	0.574661	0.294416	0.612241
0	C	0.422452	0.293919	0.886806
0	H	0.920947	0.244709	0.381404
0	H	0.0746341	0.244679	0.12124
0	H	0.0754243	0.757463	0.618985
0	H	0.92133	0.757103	0.878864
0	H	0.41987	0.745693	0.380657
0	H	0.575765	0.746086	0.122022
0	H	0.576457	0.256741	0.619468
0	H	0.420278	0.256314	0.878942
0	H	0.935449	0.192499	0.356526
0	H	0.059891	0.192447	0.145754
0	H	0.0609216	0.809546	0.644166
0	H	0.936354	0.80922	0.854463
0	H	0.434408	0.693875	0.354886
0	H	0.560781	0.694251	0.14716
0	H	0.561938	0.308449	0.645518
0	H	0.435429	0.308088	0.853885
0	C	0.849324	0.190704	0.309307
0	C	0.146012	0.190379	0.192949
0	C	0.147053	0.811369	0.691315
0	C	0.85023	0.811852	0.80744
0	C	0.348554	0.692089	0.305415
0	C	0.646675	0.691848	0.196581
0	C	0.647802	0.310083	0.695236
0	C	0.349525	0.310467	0.803834
0	H	0.816243	0.181001	0.301261
0	H	0.179044	0.180455	0.201021
0	H	0.180081	0.821341	0.699425
0	H	0.817262	0.821963	0.79949
0	H	0.315257	0.682513	0.296139
0	H	0.679888	0.681975	0.205751
0	H	0.681079	0.319882	0.704715
0	H	0.316277	0.320364	0.794391
0	H	0.8601	0.167817	0.281182
0	H	0.135087	0.167573	0.220993
0	H	0.13616	0.833953	0.719621
0	H	0.861214	0.834575	0.779377
0	H	0.359878	0.669253	0.277851
0	H	0.635198	0.669077	0.224038
0	H	0.636322	0.33262	0.722927
0	H	0.361119	0.33314	0.776412
0	H	0.848226	0.225661	0.291265
0	H	0.14729	0.225343	0.211049
0	H	0.148331	0.776299	0.709083
0	H	0.848754	0.776887	0.789263
0	H	0.347943	0.727105	0.287792
0	H	0.647571	0.726845	0.214403
0	H	0.648518	0.274946	0.712527
0	H	0.348688	0.275422	0.786195
0	C	0.0472289	0.044494	0.16401
0	C	0.946425	0.0440427	0.336411
0	C	0.949094	0.95765	0.83667
0	C	0.0497829	0.958201	0.664172
0	C	0.545563	0.544445	0.164594
0	C	0.447996	0.544101	0.335674
0	C	0.450735	0.457624	0.836144
0	C	0.548128	0.458155	0.664782
0	H	0.0387465	0.0282286	0.200326
0	H	0.95515	0.027836	0.300279
0	H	0.957632	0.973987	0.800445
0	H	0.0409663	0.974414	0.700211
0	H	0.536519	0.528374	0.200505
0	H	0.457251	0.528089	0.299927
0	H	0.459738	0.473719	0.800207
0	H	0.538838	0.474118	0.700525
0	H	0.0470668	0.01632	0.132309
0	H	0.946514	0.0158469	0.368053
0	H	0.949319	0.985748	0.868512
0	H	0.0497172	0.986379	0.632523
0	H	0.545691	0.516138	0.133243
0	H	0.447775	0.515762	0.366935
0	H	0.450651	0.485916	0.867548
0	H	0.54834	0.48652	0.633549
0	C	0.912031	0.601219	0.215962
0	C	0.0813113	0.600432	0.283532
0	C	0.0837253	0.401319	0.784555
0	C	0.914456	0.402086	0.716495
0	C	0.41298	0.101519	0.216797
0	C	0.581006	0.100712	0.282778
0	C	0.582977	0.899578	0.783184
0	C	0.415203	0.900126	0.717632
0	H	0.910787	0.622949	0.253284
0	H	0.0819998	0.622181	0.245903
0	H	0.0850015	0.379427	0.747399
0	H	0.913468	0.380318	0.753931
0	H	0.411694	0.123499	0.253888
0	H	0.581736	0.122579	0.245258
0	H	0.584462	0.877311	0.746472
0	H	0.414215	0.877832	0.754617
0	H	0.922402	0.566839	0.235338
0	H	0.0706088	0.566107	0.264207
0	H	0.0732104	0.43559	0.764875
0	H	0.925115	0.436388	0.735944
0	H	0.423431	0.0672658	0.236591
0	H	0.570209	0.0664691	0.263228
0	H	0.572215	0.93361	0.762812
0	H	0.426085	0.934165	0.737886
0	H	0.879198	0.59735	0.181617
0	H	0.114379	0.596414	0.317076
0	H	0.116566	0.405392	0.81881
0	H	0.881499	0.406153	0.682622
0	H	0.380159	0.0974506	0.182495
0	H	0.614062	0.0965503	0.3163
0	H	0.615759	0.904122	0.817427
0	H	0.382233	0.904621	0.683975
0	C	0.393858	0.0980657	0.362397
0	C	0.60011	0.0976637	0.1368
0	C	0.60239	0.90445	0.638132
0	C	0.396162	0.904457	0.863875
0	C	0.892295	0.597545	0.362245
0	C	0.101661	0.597693	0.137171
0	C	0.103981	0.404446	0.638567
0	C	0.894515	0.404942	0.863336
0	H	0.385397	0.0719399	0.390172
0	H	0.608706	0.0715571	0.109147
0	H	0.610814	0.930654	0.610418
0	H	0.387639	0.9307	0.891437
0	H	0.884462	0.571291	0.390486
0	H	0.109589	0.571388	0.109087
0	H	0.111827	0.430731	0.610371
0	H	0.886537	0.431201	0.891429
0	H	0.387765	0.0811936	0.317453
0	H	0.606028	0.080749	0.181657
0	H	0.608472	0.921243	0.683119
0	H	0.390272	0.921239	0.818942
0	H	0.885704	0.580761	0.317102
0	H	0.10812	0.580963	0.182309
0	H	0.110523	0.421203	0.683717
0	H	0.888076	0.42173	0.818238
0	C	0.441591	0.109989	0.393608
0	C	0.552427	0.109689	0.105278
0	C	0.554675	0.892467	0.606906
0	C	0.443822	0.892325	0.895426
0	C	0.940036	0.609759	0.39232
0	C	0.0539566	0.60996	0.106837
0	C	0.0562591	0.39219	0.608411
0	C	0.942218	0.392677	0.893712
0	H	0.44994	0.137632	0.367956
0	H	0.543951	0.137104	0.131113
0	H	0.54637	0.864761	0.632515
0	H	0.452233	0.864868	0.869579
0	H	0.947905	0.636988	0.365599
0	H	0.0459886	0.63707	0.133619
0	H	0.04839	0.364872	0.635011
0	H	0.950225	0.365662	0.866843
0	H	0.460686	0.0793958	0.390659
0	H	0.533213	0.0790243	0.107658
0	H	0.535536	0.923001	0.609924
0	H	0.463096	0.922942	0.893061
0	H	0.959143	0.579101	0.389722
0	H	0.0347695	0.579251	0.109101
0	H	0.037116	0.422804	0.611096
0	H	0.96141	0.423434	0.891623
0	C	0.0919222	0.0661183	0.192956
0	C	0.901695	0.0655233	0.307079
0	C	0.904345	0.936179	0.807576
0	C	0.0945248	0.936767	0.693657
0	C	0.590271	0.565911	0.194439
0	C	0.403284	0.565489	0.305498
0	C	0.406018	0.436179	0.806359
0	C	0.592854	0.436794	0.694967
0	H	0.0936827	0.0885259	0.231989
0	H	0.900088	0.0880403	0.26821
0	H	0.90258	0.913761	0.768548
0	H	0.0961005	0.914303	0.732554
0	H	0.591636	0.588452	0.233157
0	H	0.402073	0.588117	0.266929
0	H	0.404609	0.413654	0.767604
0	H	0.594102	0.414228	0.733608
0	H	0.0977319	0.0892575	0.159519
0	H	0.895603	0.0885375	0.340403
0	H	0.898404	0.913071	0.840933
0	H	0.100668	0.913701	0.660428
0	H	0.596611	0.588887	0.161303
0	H	0.396717	0.588372	0.338531
0	H	0.399694	0.413187	0.839495
0	H	0.5994	0.413849	0.661974
0	C	0.269277	0.258524	0.630577
0	C	0.72654	0.258533	0.868514
0	C	0.727063	0.743923	0.369717
0	C	0.269751	0.743926	0.132451
0	C	0.766862	0.759579	0.631882
0	C	0.229	0.759905	0.86722
0	C	0.22945	0.243043	0.368424
0	C	0.767295	0.243048	0.133616
0	H	0.284778	0.230986	0.664529
0	H	0.711066	0.230831	0.83483
0	H	0.711553	0.771469	0.335786
0	H	0.285212	0.771712	0.165998
0	H	0.782471	0.7321	0.665861
0	H	0.21351	0.732243	0.833494
0	H	0.213755	0.270504	0.334461
0	H	0.782972	0.270733	0.167209
0	H	0.265676	0.287702	0.658589
0	H	0.730387	0.287415	0.840265
0	H	0.730678	0.71477	0.341679
0	H	0.265935	0.71512	0.160831
0	H	0.762997	0.788663	0.659836
0	H	0.233117	0.788712	0.839067
0	H	0.233336	0.213995	0.340433
0	H	0.763216	0.214341	0.161941
0	C	0.416552	0.256596	0.714794
0	C	0.579485	0.256356	0.782985
0	C	0.579732	0.74592	0.285754
0	C	0.416834	0.746163	0.217728
0	C	0.914448	0.757913	0.71473
0	C	0.081571	0.757721	0.782822
0	C	0.0818685	0.244485	0.285857
0	C	0.914599	0.244669	0.217494
0	H	0.432625	0.273359	0.687238
0	H	0.563003	0.272968	0.810096
0	H	0.563721	0.729209	0.31343
0	H	0.43326	0.729524	0.19056
0	H	0.929924	0.775156	0.686728
0	H	0.0656665	0.774821	0.810363
0	H	0.0664423	0.22729	0.313957
0	H	0.930454	0.227555	0.1899
0	H	0.415623	0.282587	0.748657
0	H	0.580535	0.282384	0.749235
0	H	0.580574	0.719888	0.251887
0	H	0.415864	0.720169	0.251563
0	H	0.913968	0.783491	0.749331
0	H	0.0821555	0.783315	0.748298
0	H	0.082335	0.218849	0.251317
0	H	0.913976	0.219055	0.251972
0	C	0.370703	0.243055	0.672418
0	C	0.625273	0.243116	0.825972
0	C	0.625628	0.759439	0.327976
0	C	0.371005	0.759331	0.174835
0	C	0.868391	0.744432	0.673203
0	C	0.127589	0.74461	0.824987
0	C	0.127934	0.258033	0.327279
0	C	0.868601	0.257891	0.175378
0	H	0.371709	0.218663	0.636798
0	H	0.624134	0.218865	0.861654
0	H	0.624714	0.783812	0.363672
0	H	0.372059	0.783534	0.139048
0	H	0.868938	0.720169	0.637176
0	H	0.126932	0.720493	0.861096
0	H	0.127408	0.282284	0.363329
0	H	0.869288	0.281992	0.139267
0	H	0.355162	0.224274	0.699083
0	H	0.641131	0.22427	0.799779
0	H	0.641093	0.778224	0.301215
0	H	0.355182	0.778206	0.201053
0	H	0.853291	0.725532	0.700347
0	H	0.143038	0.725657	0.798339
0	H	0.142959	0.276955	0.300055
0	H	0.853206	0.276888	0.202065
0	C	0.442694	0.215045	0.748659
0	C	0.55377	0.21464	0.748904
0	C	0.553566	0.787455	0.251894
0	C	0.442549	0.787933	0.251649
0	C	0.94098	0.716215	0.747337
0	C	0.0554947	0.715815	0.750047
0	C	0.055271	0.286114	0.253148
0	C	0.940761	0.286513	0.250335
0	H	0.475553	0.224892	0.778031
0	H	0.520873	0.224215	0.719345
0	H	0.520664	0.777616	0.222723
0	H	0.475432	0.77838	0.281299
0	H	0.973962	0.72603	0.776117
0	H	0.0224668	0.725319	0.721059
0	H	0.0222775	0.276244	0.224512
0	H	0.973737	0.276909	0.279451
0	H	0.444533	0.18892	0.716159
0	H	0.55201	0.188349	0.781256
0	H	0.551853	0.813649	0.284397
0	H	0.444338	0.81411	0.219177
0	H	0.942388	0.690517	0.714055
0	H	0.0541756	0.689972	0.783216
0	H	0.0539023	0.311891	0.286365
0	H	0.942227	0.312296	0.217187
0	H	0.428369	0.198636	0.778074
0	H	0.568386	0.198526	0.719648
0	H	0.567777	0.803774	0.222278
0	H	0.427899	0.804167	0.280782
0	H	0.927249	0.699296	0.777127
0	H	0.0695317	0.699174	0.720433
0	H	0.06891	0.302953	0.223192
0	H	0.926679	0.30325	0.279831
0	C	0.454853	0.123798	0.461349
0	C	0.53951	0.124006	0.0377802
0	C	0.541411	0.878721	0.53914
0	C	0.456707	0.877999	0.962919
0	C	0.953815	0.624624	0.459774
0	C	0.0403901	0.625082	0.0395167
0	C	0.0425019	0.37747	0.540906
0	C	0.955725	0.37738	0.960953
0	H	0.439741	0.156987	0.464439
0	H	0.554506	0.157405	0.0353101
0	H	0.55644	0.845491	0.535993
0	H	0.441741	0.844576	0.965366
0	H	0.938599	0.657887	0.462246
0	H	0.0553218	0.658603	0.0374113
0	H	0.0576293	0.344171	0.538333
0	H	0.940659	0.343913	0.962895
0	H	0.441851	0.0985795	0.484956
0	H	0.55286	0.0991807	0.0141376
0	H	0.554481	0.903902	0.515578
0	H	0.443307	0.902786	0.986543
0	H	0.941311	0.59979	0.484496
0	H	0.0533193	0.600633	0.0148715
0	H	0.0550996	0.402311	0.516309
0	H	0.942895	0.401827	0.985724
0	C	0.503637	0.127088	0.496164
0	C	0.490777	0.127079	0.00238071
0	C	0.492624	0.875563	0.504309
0	C	0.505446	0.874982	0.998341
0	C	0.00262971	0.628477	0.493798
0	C	0.991582	0.628421	0.00504527
0	C	0.993681	0.37379	0.506813
0	C	0.00452298	0.373785	0.995384
0	H	0.519159	0.095046	0.489868
0	H	0.475402	0.0944316	0.00691769
0	H	0.477166	0.907623	0.510701
0	H	0.520811	0.907613	0.993707
0	H	0.0181374	0.595653	0.49032
0	H	0.976435	0.594956	0.00670897
0	H	0.978247	0.406604	0.510537
0	H	0.0198654	0.407038	0.993299
0	H	0.511032	0.129314	0.546325
0	H	0.483807	0.13069	0.952473
0	H	0.485223	0.873402	0.454142
0	H	0.512415	0.871454	0.0482571
0	H	0.0102118	0.633474	0.543676
0	H	0.984306	0.63488	0.955533
0	H	0.986109	0.369018	0.456899
0	H	0.0118159	0.367713	0.0449824
0	C	0.255714	0.514729	0.401328
0	C	0.738643	0.514348	0.0996244
0	C	0.739878	0.488006	0.599291
0	C	0.258788	0.487915	0.901843
0	C	0.754573	0.014553	0.401982
0	C	0.23981	0.0148681	0.0990898
0	C	0.242374	0.987152	0.597761
0	C	0.756052	0.98746	0.903084
0	H	0.255757	0.478807	0.417017
0	H	0.738651	0.478356	0.084213
0	H	0.739679	0.523951	0.583598
0	H	0.258752	0.523824	0.917525
0	H	0.75439	0.978706	0.417807
0	H	0.240223	0.978939	0.0836948
0	H	0.242301	0.0230727	0.582055
0	H	0.755912	0.0233376	0.918818
0	H	0.258218	0.512316	0.355821
0	H	0.73609	0.512145	0.145107
0	H	0.73737	0.490334	0.644801
0	H	0.261342	0.490375	0.856377
0	H	0.757603	0.0119068	0.356831
0	H	0.236711	0.012443	0.144205
0	H	0.239646	0.989568	0.643131
0	H	0.758863	0.990017	0.857787
0	C	0.294377	0.540764	0.447183
0	C	0.699991	0.540247	0.0535165
0	C	0.701333	0.46181	0.553445
0	C	0.297438	0.461895	0.947757
0	C	0.792959	0.0406697	0.448319
0	C	0.201331	0.040616	0.0523727
0	C	0.203908	0.960995	0.55169
0	C	0.794572	0.961417	0.949236
0	H	0.296595	0.534501	0.494754
0	H	0.697857	0.533806	0.00603068
0	H	0.699095	0.468099	0.505869
0	H	0.299535	0.468056	0.995286
0	H	0.794755	0.0344076	0.4957
0	H	0.199682	0.0341365	0.00511821
0	H	0.201831	0.967316	0.504186
0	H	0.796488	0.967639	0.996677
0	H	0.289597	0.578358	0.439896
0	H	0.704747	0.577861	0.0605888
0	H	0.706267	0.424234	0.560763
0	H	0.292719	0.424304	0.940364
0	H	0.788167	0.0782607	0.440918
0	H	0.205917	0.078256	0.0594073
0	H	0.208787	0.923405	0.55898
0	H	0.789829	0.923821	0.941835
0	C	0.474897	0.408573	0.368567
0	C	0.518154	0.408585	0.133614
0	C	0.521273	0.593721	0.632298
0	C	0.478271	0.59347	0.867571
0	C	0.971557	0.909379	0.370413
0	C	0.0213943	0.909424	0.131695
0	C	0.0244272	0.0929523	0.630447
0	C	0.975017	0.0927174	0.869303
0	H	0.509518	0.414883	0.386688
0	H	0.483537	0.414856	0.116043
0	H	0.486612	0.58769	0.614224
0	H	0.512893	0.587224	0.885249
0	H	0.00614943	0.91588	0.389066
0	H	0.986799	0.915857	0.11364
0	H	0.989784	0.0867932	0.612037
0	H	0.00962328	0.086356	0.887286
0	H	0.469878	0.374595	0.384826
0	H	0.523045	0.374685	0.117023
0	H	0.526516	0.62757	0.615917
0	H	0.473323	0.627341	0.884183
0	H	0.966541	0.875352	0.386546
0	H	0.0262907	0.875478	0.115234
0	H	0.0296583	0.126853	0.614188
0	H	0.970084	0.126635	0.885804
0	H	0.460718	0.433936	0.389526
0	H	0.532068	0.434073	0.112448
0	H	0.535263	0.56811	0.611405
0	H	0.464319	0.567934	0.888618
0	H	0.957006	0.934641	0.390979
0	H	0.0356326	0.934823	0.110866
0	H	0.0386486	0.0674268	0.609764
0	H	0.960848	0.0672652	0.890157
0	C	0.416657	0.535736	0.481143
0	C	0.577651	0.535541	0.0192882
0	C	0.579004	0.466355	0.519243
0	C	0.419747	0.466433	0.981795
0	C	0.915448	0.036004	0.483582
0	C	0.0788134	0.035796	0.0168786
0	C	0.0815426	0.965983	0.517302
0	C	0.916942	0.966055	0.983657
0	H	0.444842	0.551667	0.516412
0	H	0.549505	0.551351	0.983797
0	H	0.550878	0.450413	0.483877
0	H	0.447859	0.450359	0.017031
0	H	0.943504	0.0520452	0.518982
0	H	0.0507463	0.0516138	0.981229
0	H	0.0533595	0.950127	0.48193
0	H	0.945054	0.950005	0.0189341
0	H	0.415995	0.546435	0.436039
0	H	0.578195	0.546495	0.0642294
0	H	0.579597	0.45559	0.564284
0	H	0.419032	0.4557	0.936679
0	H	0.91494	0.0466717	0.438539
0	H	0.0791978	0.0467521	0.0617428
0	H	0.0820774	0.955302	0.562351
0	H	0.916316	0.95538	0.938561
0	H	0.421565	0.498441	0.484459
0	H	0.572744	0.498241	0.0162789
0	H	0.574045	0.503643	0.515973
0	H	0.424841	0.503699	0.985164
0	H	0.920453	0.998722	0.487035
0	H	0.073906	0.998497	0.0138293
0	H	0.076739	0.00329503	0.513986
0	H	0.921964	0.00333502	0.987092
0	C	0.336002	0.526334	0.440611
0	C	0.658296	0.52593	0.0599599
0	C	0.659632	0.476003	0.559958
0	C	0.33915	0.476417	0.941514
0	C	0.834837	0.0262435	0.44252
0	C	0.159439	0.0260951	0.0580545
0	C	0.162179	0.975302	0.558041
0	C	0.836353	0.975943	0.943211
0	H	0.333993	0.535249	0.393552
0	H	0.660254	0.534899	0.106977
0	H	0.661638	0.467004	0.606992
0	H	0.337174	0.467863	0.894385
0	H	0.833106	0.0349512	0.39553
0	H	0.161082	0.0348164	0.104992
0	H	0.164121	0.966367	0.605075
0	H	0.834453	0.967438	0.896089
0	H	0.339515	0.48849	0.44416
0	H	0.654702	0.488093	0.0563987
0	H	0.655967	0.513832	0.55639
0	H	0.342794	0.514227	0.945609
0	H	0.83844	0.988415	0.446477
0	H	0.155913	0.988262	0.0541536
0	H	0.158602	0.0131426	0.554417
0	H	0.839993	0.0137567	0.947398
0	C	0.375503	0.549323	0.489111
0	C	0.618867	0.548987	0.0114002
0	C	0.620236	0.452883	0.511429
0	C	0.378541	0.453064	0.989755
0	C	0.874121	0.0494708	0.491147
0	C	0.12015	0.0492319	0.009319
0	C	0.122733	0.952268	0.509504
0	C	0.875712	0.952569	0.991488
0	H	0.371772	0.587175	0.486079
0	H	0.622672	0.586835	0.0144203
0	H	0.624074	0.415045	0.514568
0	H	0.374584	0.415243	0.986424
0	H	0.870242	0.0873085	0.487869
0	H	0.123985	0.0870771	0.0124467
0	H	0.126438	0.914411	0.512695
0	H	0.871788	0.914737	0.988046
0	H	0.377933	0.539885	0.535956
0	H	0.61646	0.539512	0.964579
0	H	0.617848	0.462305	0.464597
0	H	0.381079	0.46234	0.0366981
0	H	0.876397	0.0401142	0.537957
0	H	0.117902	0.0397993	0.962549
0	H	0.120382	0.961611	0.462655
0	H	0.878183	0.961761	0.0384379
0	C	0.29835	0.272796	0.597026
0	C	0.697319	0.273352	0.901585
0	C	0.697987	0.729589	0.403236
0	C	0.298951	0.729004	0.0993971
0	C	0.795893	0.774191	0.598422
0	C	0.199714	0.774984	0.900058
0	C	0.200492	0.228305	0.401945
0	C	0.796335	0.227724	0.1005
0	H	0.299569	0.245085	0.565378
0	H	0.696062	0.246006	0.933687
0	H	0.696792	0.757239	0.43498
0	H	0.300181	0.756275	0.0671799
0	H	0.797176	0.746639	0.566603
0	H	0.198383	0.747786	0.932305
0	H	0.199218	0.255789	0.433859
0	H	0.797634	0.254832	0.0681178
0	H	0.283839	0.302657	0.566757
0	H	0.711765	0.303488	0.931323
0	H	0.712478	0.699667	0.433398
0	H	0.2845	0.698816	0.0697782
0	H	0.781302	0.804117	0.568329
0	H	0.21416	0.805201	0.929629
0	H	0.215134	0.198346	0.431942
0	H	0.781714	0.197509	0.0710389
0	C	0.343901	0.285293	0.641346
0	C	0.651792	0.285554	0.856924
0	C	0.652426	0.717161	0.358901
0	C	0.344496	0.716853	0.144049
0	C	0.841398	0.786728	0.642841
0	C	0.154242	0.787148	0.855195
0	C	0.154979	0.215753	0.357583
0	C	0.841838	0.215428	0.145147
0	H	0.342631	0.309764	0.676625
0	H	0.653094	0.309933	0.821568
0	H	0.653664	0.692758	0.323534
0	H	0.343225	0.69253	0.17948
0	H	0.84006	0.810776	0.678512
0	H	0.155631	0.811075	0.819433
0	H	0.156296	0.191732	0.321873
0	H	0.840489	0.191453	0.180883
0	H	0.359991	0.303974	0.615142
0	H	0.635477	0.30422	0.882829
0	H	0.636335	0.698419	0.385054
0	H	0.360788	0.698128	0.118161
0	H	0.85735	0.805895	0.616856
0	H	0.138005	0.806308	0.880792
0	H	0.139068	0.196546	0.383589
0	H	0.857942	0.19627	0.119366
0	C	0.523366	0.168331	0.476791
0	C	0.470351	0.16708	0.0230662
0	C	0.472793	0.834347	0.523562
0	C	0.525884	0.834936	0.977764
0	C	0.0221439	0.667808	0.470383
0	C	0.971211	0.666106	0.0298864
0	C	0.974047	0.334368	0.529873
0	C	0.0245961	0.33558	0.970922
0	H	0.516927	0.167419	0.42741
0	H	0.475076	0.163739	0.0717411
0	H	0.479254	0.83518	0.572956
0	H	0.520956	0.838053	0.928989
0	H	0.0179544	0.662269	0.422182
0	H	0.97364	0.65788	0.0768265
0	H	0.978374	0.339577	0.578175
0	H	0.0216214	0.342996	0.92356
0	H	0.558214	0.169429	0.502069
0	H	0.435744	0.168871	0.995918
0	H	0.437939	0.833382	0.498334
0	H	0.56053	0.833318	0.00470024
0	H	0.0566043	0.671123	0.497807
0	H	0.937104	0.670301	0.000859889
0	H	0.939553	0.33131	0.502545
0	H	0.058824	0.331649	0.999456
0	H	0.510324	0.200935	0.486126
0	H	0.484178	0.200219	0.01743
0	H	0.485714	0.801715	0.514081
0	H	0.512222	0.801795	0.98381
0	H	0.00718716	0.700896	0.472951
0	H	0.986807	0.699452	0.0316125
0	H	0.988799	0.30125	0.526803
0	H	0.00918182	0.302295	0.970509
0	C	0.0133457	0.0805129	0.129171
0	C	0.980116	0.0801856	0.371459
0	C	0.982866	0.921474	0.871336
0	C	0.0161701	0.922008	0.629077
0	C	0.511989	0.580511	0.128951
0	C	0.481407	0.580249	0.371539
0	C	0.484306	0.421524	0.871684
0	C	0.514763	0.421994	0.628855
0	H	0.0170738	0.111405	0.158334
0	H	0.976444	0.111054	0.342264
0	H	0.979026	0.89063	0.842053
0	H	0.019938	0.891074	0.658183
0	H	0.515777	0.61171	0.15759
0	H	0.477707	0.611421	0.342875
0	H	0.480491	0.390362	0.842968
0	H	0.518536	0.39076	0.657433
0	H	0.0190711	0.0925335	0.0883261
0	H	0.974108	0.0922122	0.412079
0	H	0.977126	0.909415	0.912152
0	H	0.0221747	0.910113	0.5884
0	H	0.517955	0.591935	0.088063
0	H	0.475156	0.591698	0.412192
0	H	0.478353	0.410044	0.91256
0	H	0.521002	0.410665	0.588143
0	C	0.967455	0.0618671	0.108706
0	C	0.0260836	0.0616768	0.392414
0	C	0.0288148	0.939967	0.891813
0	C	0.970151	0.940349	0.60821
0	C	0.465973	0.562254	0.108526
0	C	0.527486	0.562083	0.392487
0	C	0.530328	0.439777	0.892102
0	C	0.468652	0.440049	0.607997
0	H	0.966126	0.0259183	0.0925139
0	H	0.0274608	0.0258069	0.408903
0	H	0.0302907	0.975844	0.908319
0	H	0.968679	0.976285	0.591922
0	H	0.464341	0.52635	0.0920593
0	H	0.529113	0.526239	0.409153
0	H	0.531997	0.475629	0.90876
0	H	0.466963	0.475962	0.591546
0	H	0.946123	0.0816479	0.0681862
0	H	0.0472446	0.0816796	0.43283
0	H	0.0501324	0.919974	0.93212
0	H	0.949058	0.920416	0.567674
0	H	0.4447	0.582269	0.0682166
0	H	0.548575	0.582259	0.432761
0	H	0.551627	0.419655	0.932276
0	H	0.447607	0.419971	0.567586
0	C	0.950142	0.0643125	0.159703
0	C	0.0435893	0.0639089	0.341608
0	C	0.0459949	0.937708	0.840664
0	C	0.952619	0.93778	0.658968
0	C	0.448933	0.564753	0.159803
0	C	0.544793	0.56442	0.341481
0	C	0.54728	0.43745	0.840721
0	C	0.451318	0.437389	0.658952
0	H	0.917808	0.0497709	0.144568
0	H	0.0759578	0.0494244	0.357038
0	H	0.0783101	0.952296	0.855729
0	H	0.920154	0.952011	0.643531
0	H	0.416783	0.549828	0.145189
0	H	0.57701	0.549616	0.356482
0	H	0.579419	0.45241	0.85531
0	H	0.418993	0.451916	0.643925
0	H	0.948256	0.0998756	0.173894
0	H	0.0454517	0.0994155	0.327197
0	H	0.0478806	0.902186	0.826327
0	H	0.950975	0.902206	0.673307
0	H	0.446751	0.600352	0.173619
0	H	0.546906	0.599971	0.327441
0	H	0.549464	0.401888	0.826768
0	H	0.449443	0.401772	0.672952
0	H	0.970637	0.0454969	0.200966
0	H	0.0232226	0.0449324	0.300418
0	H	0.025416	0.95657	0.799503
0	H	0.97285	0.956801	0.700204
0	H	0.469785	0.546334	0.201205
0	H	0.524139	0.545811	0.30013
0	H	0.526373	0.455918	0.799404
0	H	0.471823	0.456076	0.700331
