data_image0
_cell_length_a       47.4317
_cell_length_b       46.5671
_cell_length_c       46.5645
_cell_angle_alpha    90
_cell_angle_beta     90
_cell_angle_gamma    90

_symmetry_space_group_name_H-M    "P 1"
_symmetry_int_tables_number       1

loop_
  _symmetry_equiv_pos_as_xyz
  'x, y, z'

loop_
  _atom_site_label
  _atom_site_occupancy
  _atom_site_fract_x
  _atom_site_fract_y
  _atom_site_fract_z
  _atom_site_thermal_displace_type
  _atom_site_B_iso_or_equiv
  _atom_site_type_symbol
  Ne1      1.0000 0.22505  0.32960  0.57479  Biso   1.000  Ne
  He1      1.0000 0.20157  0.30596  0.57333  Biso   1.000  He
  He2      1.0000 0.17090  0.31567  0.58654  Biso   1.000  He
  Ne2      1.0000 0.14755  0.29192  0.58587  Biso   1.000  Ne
  Ne3      1.0000 0.40544  0.75555  0.60742  Biso   1.000  Ne
  He3      1.0000 0.40742  0.72129  0.60890  Biso   1.000  He
  He4      1.0000 0.39914  0.70996  0.63690  Biso   1.000  He
  Ne4      1.0000 0.40231  0.67668  0.64146  Biso   1.000  Ne
  Ne5      1.0000 0.51571  0.76447  0.87828  Biso   1.000  Ne
  He5      1.0000 0.51247  0.75292  0.90849  Biso   1.000  He
  He6      1.0000 0.53435  0.76950  0.92766  Biso   1.000  He
  Ne6      1.0000 0.53574  0.75589  0.95637  Biso   1.000  Ne
  Ne7      1.0000 0.35332  0.88272  0.32991  Biso   1.000  Ne
  He7      1.0000 0.32173  0.87562  0.33874  Biso   1.000  He
  He8      1.0000 0.30315  0.86103  0.31492  Biso   1.000  He
  Ne8      1.0000 0.27105  0.86108  0.31770  Biso   1.000  Ne
  Ne9      1.0000 0.93978  0.02796  0.87782  Biso   1.000  Ne
  He9      1.0000 0.93969  0.04193  0.90765  Biso   1.000  He
  He10     1.0000 0.93057  0.02367  0.93210  Biso   1.000  He
  Ne10     1.0000 0.93345  0.03273  0.96329  Biso   1.000  Ne
  Ne11     1.0000 0.08130  0.66460  0.60248  Biso   1.000  Ne
  He11     1.0000 0.10096  0.64101  0.61470  Biso   1.000  He
  He12     1.0000 0.12714  0.63916  0.59441  Biso   1.000  He
  Ne12     1.0000 0.14966  0.61493  0.60371  Biso   1.000  Ne
  Ne13     1.0000 0.72892  0.36902  0.77462  Biso   1.000  Ne
  He13     1.0000 0.72760  0.34855  0.79940  Biso   1.000  He
  He14     1.0000 0.74701  0.36060  0.82171  Biso   1.000  He
  Ne14     1.0000 0.74807  0.34509  0.85072  Biso   1.000  Ne
  Ne15     1.0000 0.10004  0.88758  0.64971  Biso   1.000  Ne
  He15     1.0000 0.12723  0.89654  0.63550  Biso   1.000  He
  He16     1.0000 0.15509  0.88228  0.65027  Biso   1.000  He
  Ne16     1.0000 0.18338  0.89405  0.63601  Biso   1.000  Ne
  Ne17     1.0000 0.88676  0.30059  0.78061  Biso   1.000  Ne
  He17     1.0000 0.86770  0.31016  0.80767  Biso   1.000  He
  He18     1.0000 0.85654  0.34098  0.80835  Biso   1.000  He
  Ne18     1.0000 0.84361  0.35081  0.83496  Biso   1.000  Ne
  Ne19     1.0000 0.91935  0.53131  0.41543  Biso   1.000  Ne
  He19     1.0000 0.88695  0.52808  0.41141  Biso   1.000  He
  He20     1.0000 0.86741  0.52878  0.43920  Biso   1.000  He
  Ne20     1.0000 0.83344  0.52811  0.43324  Biso   1.000  Ne
  Ne21     1.0000 0.27015  0.78187  0.14780  Biso   1.000  Ne
  He21     1.0000 0.27381  0.81035  0.12884  Biso   1.000  He
  He22     1.0000 0.25008  0.81512  0.10824  Biso   1.000  He
  Ne22     1.0000 0.25276  0.84317  0.09192  Biso   1.000  Ne
  Ne23     1.0000 0.33820  0.55741  0.18353  Biso   1.000  Ne
  He23     1.0000 0.36808  0.54951  0.18656  Biso   1.000  He
  He24     1.0000 0.38621  0.53589  0.15976  Biso   1.000  He
  Ne24     1.0000 0.41789  0.53091  0.17054  Biso   1.000  Ne
  Ne25     1.0000 0.77357  0.59093  0.43397  Biso   1.000  Ne
  He25     1.0000 0.77931  0.61186  0.40851  Biso   1.000  He
  He26     1.0000 0.81002  0.62755  0.40582  Biso   1.000  He
  Ne26     1.0000 0.81184  0.64093  0.37412  Biso   1.000  Ne
  Ne27     1.0000 0.90963  0.75342  0.95058  Biso   1.000  Ne
  He27     1.0000 0.91656  0.77507  0.92773  Biso   1.000  He
  He28     1.0000 0.89507  0.79828  0.92378  Biso   1.000  He
  Ne28     1.0000 0.90364  0.81294  0.89668  Biso   1.000  Ne
  Ne29     1.0000 0.20396  0.38926  0.75219  Biso   1.000  Ne
  He29     1.0000 0.17285  0.37640  0.76001  Biso   1.000  He
  He30     1.0000 0.14933  0.39783  0.76605  Biso   1.000  He
  Ne30     1.0000 0.12306  0.38304  0.78232  Biso   1.000  Ne
  Ne31     1.0000 0.19606  0.39734  0.41778  Biso   1.000  Ne
  He31     1.0000 0.19568  0.39665  0.38430  Biso   1.000  He
  He32     1.0000 0.17221  0.41157  0.37194  Biso   1.000  He
  Ne32     1.0000 0.16712  0.40606  0.34145  Biso   1.000  Ne
  Ne33     1.0000 0.86158  0.93680  0.30567  Biso   1.000  Ne
  He33     1.0000 0.84095  0.95556  0.32041  Biso   1.000  He
  He34     1.0000 0.84653  0.98906  0.31844  Biso   1.000  He
  Ne34     1.0000 0.82344  0.00811  0.32901  Biso   1.000  Ne
  Ne35     1.0000 0.90563  0.56208  0.33821  Biso   1.000  Ne
  He35     1.0000 0.87204  0.56576  0.33250  Biso   1.000  He
  He36     1.0000 0.84853  0.54699  0.34573  Biso   1.000  He
  Ne36     1.0000 0.81868  0.55216  0.33526  Biso   1.000  Ne
  Ne37     1.0000 0.48104  0.54188  0.04234  Biso   1.000  Ne
  He37     1.0000 0.45110  0.55302  0.05335  Biso   1.000  He
  He38     1.0000 0.43435  0.52941  0.07231  Biso   1.000  He
  Ne38     1.0000 0.40110  0.53537  0.07891  Biso   1.000  Ne
  Ne39     1.0000 0.05118  0.04194  0.07654  Biso   1.000  Ne
  He39     1.0000 0.04545  0.03291  0.04494  Biso   1.000  He
  He40     1.0000 0.02454  0.05511  0.03106  Biso   1.000  He
  Ne40     1.0000 0.01666  0.04934  0.00011  Biso   1.000  Ne
  Ne41     1.0000 0.48783  0.87745  0.46155  Biso   1.000  Ne
  He41     1.0000 0.47195  0.88978  0.48857  Biso   1.000  He
  He42     1.0000 0.44088  0.90133  0.48574  Biso   1.000  He
  Ne42     1.0000 0.42411  0.91216  0.51486  Biso   1.000  Ne
  Ne43     1.0000 0.38607  0.15088  0.40082  Biso   1.000  Ne
  He43     1.0000 0.35356  0.14264  0.40889  Biso   1.000  He
  He44     1.0000 0.34857  0.11300  0.41803  Biso   1.000  He
  Ne44     1.0000 0.31618  0.10531  0.42519  Biso   1.000  Ne
  Ne45     1.0000 0.93663  0.33269  0.57069  Biso   1.000  Ne
  He45     1.0000 0.96133  0.35510  0.58251  Biso   1.000  He
  He46     1.0000 0.94669  0.37909  0.60123  Biso   1.000  He
  Ne46     1.0000 0.96786  0.40337  0.60834  Biso   1.000  Ne
  Ne47     1.0000 0.92819  0.39267  0.44026  Biso   1.000  Ne
  He47     1.0000 0.94692  0.41770  0.45194  Biso   1.000  He
  He48     1.0000 0.96210  0.43779  0.42995  Biso   1.000  He
  Ne48     1.0000 0.98466  0.45589  0.44497  Biso   1.000  Ne
  Ne49     1.0000 0.40076  0.30955  0.08226  Biso   1.000  Ne
  He49     1.0000 0.38659  0.27848  0.07999  Biso   1.000  He
  He50     1.0000 0.40019  0.25483  0.09578  Biso   1.000  He
  Ne50     1.0000 0.39384  0.22238  0.08522  Biso   1.000  Ne
  Ne51     1.0000 0.92722  0.37527  0.34841  Biso   1.000  Ne
  He51     1.0000 0.94460  0.34645  0.35104  Biso   1.000  He
  He52     1.0000 0.93145  0.32791  0.37215  Biso   1.000  He
  Ne52     1.0000 0.94792  0.30106  0.37773  Biso   1.000  Ne
  Ne53     1.0000 0.30247  0.80444  0.98999  Biso   1.000  Ne
  He53     1.0000 0.31636  0.78194  0.00986  Biso   1.000  He
  He54     1.0000 0.35028  0.78415  0.01215  Biso   1.000  He
  Ne54     1.0000 0.36182  0.75966  0.03132  Biso   1.000  Ne
  Ne55     1.0000 0.14371  0.69710  0.34855  Biso   1.000  Ne
  He55     1.0000 0.12484  0.71996  0.36367  Biso   1.000  He
  He56     1.0000 0.13195  0.72408  0.39585  Biso   1.000  He
  Ne56     1.0000 0.11941  0.74994  0.41212  Biso   1.000  Ne
  Ne57     1.0000 0.57645  0.84728  0.35394  Biso   1.000  Ne
  He57     1.0000 0.58264  0.82971  0.38080  Biso   1.000  He
  He58     1.0000 0.58975  0.84828  0.40859  Biso   1.000  He
  Ne58     1.0000 0.59632  0.82776  0.43545  Biso   1.000  Ne
  Ne59     1.0000 0.94445  0.86998  0.23184  Biso   1.000  Ne
  He59     1.0000 0.90876  0.87090  0.22938  Biso   1.000  He
  He60     1.0000 0.89821  0.88272  0.19995  Biso   1.000  He
  Ne60     1.0000 0.86708  0.88828  0.19832  Biso   1.000  Ne
  Ne61     1.0000 0.02703  0.54127  0.54847  Biso   1.000  Ne
  He61     1.0000 0.04177  0.51349  0.53540  Biso   1.000  He
  He62     1.0000 0.06508  0.51934  0.51179  Biso   1.000  He
  Ne62     1.0000 0.08398  0.49517  0.50810  Biso   1.000  Ne
  Ne63     1.0000 0.48178  0.45061  0.08299  Biso   1.000  Ne
  He63     1.0000 0.47240  0.41914  0.07096  Biso   1.000  He
  He64     1.0000 0.48241  0.40779  0.04024  Biso   1.000  He
  Ne64     1.0000 0.46871  0.37759  0.03445  Biso   1.000  Ne
  Ne65     1.0000 0.84167  0.84468  0.86486  Biso   1.000  Ne
  He65     1.0000 0.86320  0.85820  0.84126  Biso   1.000  He
  He66     1.0000 0.88669  0.83796  0.82726  Biso   1.000  He
  Ne66     1.0000 0.90178  0.85461  0.80429  Biso   1.000  Ne
  Ne67     1.0000 0.59370  0.10565  0.41417  Biso   1.000  Ne
  He67     1.0000 0.62105  0.11843  0.42296  Biso   1.000  He
  He68     1.0000 0.64563  0.11535  0.40122  Biso   1.000  He
  Ne68     1.0000 0.67497  0.12915  0.40553  Biso   1.000  Ne
  Ne69     1.0000 0.67246  0.47518  0.34880  Biso   1.000  Ne
  He69     1.0000 0.68175  0.44405  0.35598  Biso   1.000  He
  He70     1.0000 0.70891  0.43312  0.33833  Biso   1.000  He
  Ne70     1.0000 0.71818  0.40179  0.34386  Biso   1.000  Ne
  Ne71     1.0000 0.33056  0.81519  0.42796  Biso   1.000  Ne
  He71     1.0000 0.29777  0.82095  0.42483  Biso   1.000  He
  He72     1.0000 0.28772  0.85086  0.43399  Biso   1.000  He
  Ne72     1.0000 0.25444  0.85126  0.44137  Biso   1.000  Ne
  Ne73     1.0000 0.63026  0.54696  0.09399  Biso   1.000  Ne
  He73     1.0000 0.59712  0.54508  0.09076  Biso   1.000  He
  He74     1.0000 0.58433  0.53195  0.11814  Biso   1.000  He
  Ne74     1.0000 0.55044  0.52769  0.12038  Biso   1.000  Ne
  Ne75     1.0000 0.20338  0.05904  0.87438  Biso   1.000  Ne
  He75     1.0000 0.23061  0.04859  0.88666  Biso   1.000  He
  He76     1.0000 0.24118  0.07281  0.90635  Biso   1.000  He
  Ne76     1.0000 0.27205  0.06533  0.91697  Biso   1.000  Ne
  Ne77     1.0000 0.55366  0.04686  0.47228  Biso   1.000  Ne
  He77     1.0000 0.55214  0.03706  0.44015  Biso   1.000  He
  He78     1.0000 0.58161  0.02563  0.42474  Biso   1.000  He
  Ne78     1.0000 0.57831  0.02071  0.39190  Biso   1.000  Ne
  Ne79     1.0000 0.59028  0.20472  0.77994  Biso   1.000  Ne
  He79     1.0000 0.58839  0.20338  0.81367  Biso   1.000  He
  He80     1.0000 0.56458  0.18634  0.82790  Biso   1.000  He
  Ne80     1.0000 0.56087  0.19131  0.86074  Biso   1.000  Ne
  Ne81     1.0000 0.08772  0.73518  0.93711  Biso   1.000  Ne
  He81     1.0000 0.07437  0.75673  0.91866  Biso   1.000  He
  He82     1.0000 0.08566  0.75840  0.88748  Biso   1.000  He
  Ne82     1.0000 0.07188  0.78705  0.87183  Biso   1.000  Ne
  Ne83     1.0000 0.11855  0.28789  0.69624  Biso   1.000  Ne
  He83     1.0000 0.09432  0.30779  0.70921  Biso   1.000  He
  He84     1.0000 0.10392  0.34019  0.70848  Biso   1.000  He
  Ne84     1.0000 0.08039  0.36169  0.72138  Biso   1.000  Ne
  Ne85     1.0000 0.87022  0.88922  0.09351  Biso   1.000  Ne
  He85     1.0000 0.90400  0.89105  0.09864  Biso   1.000  He
  He86     1.0000 0.92209  0.86851  0.08665  Biso   1.000  He
  Ne86     1.0000 0.95425  0.86888  0.09607  Biso   1.000  Ne
  Ne87     1.0000 0.30375  0.61743  0.79867  Biso   1.000  Ne
  He87     1.0000 0.29769  0.59311  0.77719  Biso   1.000  He
  He88     1.0000 0.29256  0.56267  0.79149  Biso   1.000  He
  Ne88     1.0000 0.25948  0.55455  0.79881  Biso   1.000  Ne
  Ne89     1.0000 0.91156  0.69703  0.35600  Biso   1.000  Ne
  He89     1.0000 0.92378  0.70710  0.32719  Biso   1.000  He
  He90     1.0000 0.90229  0.72594  0.30965  Biso   1.000  He
  Ne90     1.0000 0.91671  0.73848  0.28176  Biso   1.000  Ne
  Ne91     1.0000 0.58081  0.82185  0.70804  Biso   1.000  Ne
  He91     1.0000 0.58861  0.85254  0.69917  Biso   1.000  He
  He92     1.0000 0.60929  0.85283  0.67312  Biso   1.000  He
  Ne92     1.0000 0.61471  0.88309  0.66023  Biso   1.000  Ne
  Ne93     1.0000 0.94578  0.04798  0.06263  Biso   1.000  Ne
  He93     1.0000 0.92029  0.05981  0.07838  Biso   1.000  He
  He94     1.0000 0.89462  0.03868  0.07904  Biso   1.000  He
  Ne94     1.0000 0.86744  0.05073  0.09264  Biso   1.000  Ne
  Ne95     1.0000 0.59885  0.64072  0.09136  Biso   1.000  Ne
  He95     1.0000 0.59388  0.63346  0.12265  Biso   1.000  He
  He96     1.0000 0.60057  0.65722  0.14235  Biso   1.000  He
  Ne96     1.0000 0.59574  0.64996  0.17386  Biso   1.000  Ne
  Ne97     1.0000 0.65657  0.85418  0.32687  Biso   1.000  Ne
  He97     1.0000 0.66758  0.86805  0.35145  Biso   1.000  He
  He98     1.0000 0.67521  0.84978  0.37756  Biso   1.000  He
  Ne98     1.0000 0.68155  0.86771  0.40593  Biso   1.000  Ne
  Ne99     1.0000 0.35546  0.29353  0.55728  Biso   1.000  Ne
  He99     1.0000 0.37564  0.26750  0.56499  Biso   1.000  He
  He100    1.0000 0.38946  0.27350  0.59232  Biso   1.000  He
  Ne100    1.0000 0.40613  0.24717  0.60560  Biso   1.000  Ne
  Ne101    1.0000 0.10861  0.29679  0.31492  Biso   1.000  Ne
  He101    1.0000 0.10425  0.32544  0.33183  Biso   1.000  He
  He102    1.0000 0.10079  0.35084  0.31487  Biso   1.000  He
  Ne102    1.0000 0.09321  0.37562  0.33233  Biso   1.000  Ne
  Ne103    1.0000 0.75040  0.56399  0.57669  Biso   1.000  Ne
  He103    1.0000 0.78075  0.56566  0.59186  Biso   1.000  He
  He104    1.0000 0.79506  0.53553  0.59976  Biso   1.000  He
  Ne104    1.0000 0.82292  0.53954  0.61609  Biso   1.000  Ne
  Ne105    1.0000 0.20567  0.13424  0.52175  Biso   1.000  Ne
  He105    1.0000 0.21343  0.15606  0.54837  Biso   1.000  He
  He106    1.0000 0.24277  0.17134  0.54583  Biso   1.000  He
  Ne106    1.0000 0.24861  0.19043  0.57081  Biso   1.000  Ne
  Ne107    1.0000 0.28480  0.68636  0.61367  Biso   1.000  Ne
  He107    1.0000 0.25772  0.67012  0.61173  Biso   1.000  He
  He108    1.0000 0.22949  0.68922  0.61241  Biso   1.000  He
  Ne108    1.0000 0.21396  0.69359  0.64193  Biso   1.000  Ne
  Ne109    1.0000 0.21759  0.32003  0.40843  Biso   1.000  Ne
  He109    1.0000 0.23459  0.29342  0.40954  Biso   1.000  He
  He110    1.0000 0.23269  0.27653  0.38152  Biso   1.000  He
  Ne110    1.0000 0.24801  0.24809  0.38036  Biso   1.000  Ne
  Ne111    1.0000 0.01746  0.00498  0.93236  Biso   1.000  Ne
  He111    1.0000 0.04831  0.99425  0.93604  Biso   1.000  He
  He112    1.0000 0.06268  0.99719  0.96632  Biso   1.000  He
  Ne112    1.0000 0.09260  0.98715  0.96740  Biso   1.000  Ne
  Ne113    1.0000 0.37112  0.54473  0.85423  Biso   1.000  Ne
  He113    1.0000 0.34244  0.55670  0.85210  Biso   1.000  He
  He114    1.0000 0.32774  0.56907  0.87957  Biso   1.000  He
  Ne114    1.0000 0.29680  0.58231  0.87598  Biso   1.000  Ne
  Ne115    1.0000 0.88562  0.37713  0.67800  Biso   1.000  Ne
  He115    1.0000 0.88474  0.34525  0.66729  Biso   1.000  He
  He116    1.0000 0.91188  0.32918  0.67430  Biso   1.000  He
  Ne116    1.0000 0.90996  0.30134  0.65945  Biso   1.000  Ne
  Ne117    1.0000 0.42258  0.41922  0.72188  Biso   1.000  Ne
  He117    1.0000 0.42407  0.39607  0.69929  Biso   1.000  He
  He118    1.0000 0.43948  0.40817  0.67011  Biso   1.000  He
  Ne118    1.0000 0.44334  0.38499  0.64667  Biso   1.000  Ne
  Ne119    1.0000 0.97367  0.23534  0.85964  Biso   1.000  Ne
  He119    1.0000 0.96930  0.22323  0.82942  Biso   1.000  He
  He120    1.0000 0.94234  0.23614  0.81803  Biso   1.000  He
  Ne120    1.0000 0.93706  0.22319  0.78804  Biso   1.000  Ne
  Ne121    1.0000 0.69646  0.57255  0.17858  Biso   1.000  Ne
  He121    1.0000 0.66570  0.57792  0.19008  Biso   1.000  He
  He122    1.0000 0.64348  0.55238  0.18693  Biso   1.000  He
  Ne122    1.0000 0.61320  0.55726  0.19771  Biso   1.000  Ne
  Ne123    1.0000 0.34607  0.38667  0.81801  Biso   1.000  Ne
  He123    1.0000 0.33887  0.38782  0.78684  Biso   1.000  He
  He124    1.0000 0.33059  0.35821  0.77668  Biso   1.000  He
  Ne124    1.0000 0.32069  0.35514  0.74683  Biso   1.000  Ne
  Ne125    1.0000 0.10313  0.62148  0.70062  Biso   1.000  Ne
  He125    1.0000 0.08294  0.59448  0.70719  Biso   1.000  He
  He126    1.0000 0.10090  0.56995  0.71447  Biso   1.000  He
  Ne126    1.0000 0.08654  0.54068  0.72306  Biso   1.000  Ne
  Ne127    1.0000 0.73873  0.89090  0.90033  Biso   1.000  Ne
  He127    1.0000 0.76802  0.88527  0.91494  Biso   1.000  He
  He128    1.0000 0.77219  0.85652  0.92924  Biso   1.000  He
  Ne128    1.0000 0.80238  0.85590  0.94322  Biso   1.000  Ne
  Ne129    1.0000 0.24814  0.84261  0.70301  Biso   1.000  Ne
  He129    1.0000 0.26543  0.81956  0.72420  Biso   1.000  He
  He130    1.0000 0.24644  0.80972  0.75053  Biso   1.000  He
  Ne130    1.0000 0.26037  0.79353  0.77525  Biso   1.000  Ne
  Ne131    1.0000 0.16838  0.36973  0.67003  Biso   1.000  Ne
  He131    1.0000 0.19302  0.38124  0.65234  Biso   1.000  He
  He132    1.0000 0.18716  0.39040  0.62151  Biso   1.000  He
  Ne132    1.0000 0.21343  0.40059  0.60170  Biso   1.000  Ne
  Ne133    1.0000 0.63211  0.73608  0.86188  Biso   1.000  Ne
  He133    1.0000 0.60147  0.74577  0.85787  Biso   1.000  He
  He134    1.0000 0.58305  0.72668  0.83680  Biso   1.000  He
  Ne134    1.0000 0.58245  0.73848  0.80643  Biso   1.000  Ne
  Ne135    1.0000 0.57561  0.74238  0.42747  Biso   1.000  Ne
  He135    1.0000 0.56630  0.73017  0.45695  Biso   1.000  He
  He136    1.0000 0.55014  0.70169  0.45585  Biso   1.000  He
  Ne136    1.0000 0.54228  0.69270  0.48746  Biso   1.000  Ne
  Ne137    1.0000 0.67073  0.59116  0.92993  Biso   1.000  Ne
  He137    1.0000 0.65790  0.62290  0.92824  Biso   1.000  He
  He138    1.0000 0.62376  0.62668  0.92770  Biso   1.000  He
  Ne138    1.0000 0.61516  0.65672  0.92405  Biso   1.000  Ne
  Ne139    1.0000 0.78787  0.35387  0.37932  Biso   1.000  Ne
  He139    1.0000 0.82224  0.35400  0.37999  Biso   1.000  He
  He140    1.0000 0.83566  0.36318  0.40892  Biso   1.000  He
  Ne140    1.0000 0.86935  0.35965  0.40995  Biso   1.000  Ne
  Ne141    1.0000 0.72823  0.38627  0.09113  Biso   1.000  Ne
  He141    1.0000 0.71347  0.36359  0.11139  Biso   1.000  He
  He142    1.0000 0.68762  0.37441  0.12897  Biso   1.000  He
  Ne142    1.0000 0.67112  0.35358  0.15063  Biso   1.000  Ne
  Ne143    1.0000 0.28439  0.51130  0.55761  Biso   1.000  Ne
  He143    1.0000 0.26000  0.53276  0.54998  Biso   1.000  He
  He144    1.0000 0.24578  0.54480  0.57698  Biso   1.000  He
  Ne144    1.0000 0.21424  0.55801  0.57225  Biso   1.000  Ne
  Ne145    1.0000 0.14140  0.03260  0.10505  Biso   1.000  Ne
  He145    1.0000 0.16524  0.05171  0.08854  Biso   1.000  He
  He146    1.0000 0.19727  0.05086  0.10305  Biso   1.000  He
  Ne146    1.0000 0.22068  0.06757  0.08348  Biso   1.000  Ne
  Ne147    1.0000 0.70956  0.21259  0.37205  Biso   1.000  Ne
  He147    1.0000 0.73463  0.19070  0.36286  Biso   1.000  He
  He148    1.0000 0.72506  0.17197  0.33747  Biso   1.000  He
  Ne148    1.0000 0.74962  0.15401  0.32964  Biso   1.000  Ne
  Ne149    1.0000 0.24650  0.53942  0.07154  Biso   1.000  Ne
  He149    1.0000 0.27052  0.55617  0.08704  Biso   1.000  He
  He150    1.0000 0.29791  0.56254  0.06864  Biso   1.000  He
  Ne150    1.0000 0.32238  0.57755  0.08539  Biso   1.000  Ne
  Ne151    1.0000 0.93140  0.43262  0.53869  Biso   1.000  Ne
  He151    1.0000 0.94098  0.46413  0.53970  Biso   1.000  He
  He152    1.0000 0.92597  0.48064  0.56305  Biso   1.000  He
  Ne152    1.0000 0.93560  0.51242  0.56400  Biso   1.000  Ne
  Ne153    1.0000 0.78445  0.40130  0.70204  Biso   1.000  Ne
  He153    1.0000 0.78504  0.36947  0.71373  Biso   1.000  He
  He154    1.0000 0.81511  0.36215  0.72823  Biso   1.000  He
  Ne154    1.0000 0.81772  0.33232  0.74199  Biso   1.000  Ne
  Ne155    1.0000 0.64187  0.01863  0.34700  Biso   1.000  Ne
  He155    1.0000 0.62140  0.03947  0.33207  Biso   1.000  He
  He156    1.0000 0.63233  0.06730  0.31975  Biso   1.000  He
  Ne156    1.0000 0.60910  0.09184  0.31215  Biso   1.000  Ne
  Ne157    1.0000 0.78712  0.77444  0.45066  Biso   1.000  Ne
  He157    1.0000 0.75985  0.79157  0.44486  Biso   1.000  He
  He158    1.0000 0.73395  0.77346  0.44045  Biso   1.000  He
  Ne158    1.0000 0.70678  0.79321  0.43202  Biso   1.000  Ne
  Ne159    1.0000 0.16005  0.54314  0.66190  Biso   1.000  Ne
  He159    1.0000 0.18407  0.56048  0.67479  Biso   1.000  He
  He160    1.0000 0.21259  0.55114  0.66761  Biso   1.000  He
  Ne160    1.0000 0.23719  0.56503  0.68653  Biso   1.000  Ne
  Ne161    1.0000 0.18516  0.30351  0.81781  Biso   1.000  Ne
  He161    1.0000 0.21887  0.29965  0.82098  Biso   1.000  He
  He162    1.0000 0.22704  0.31075  0.85061  Biso   1.000  He
  Ne162    1.0000 0.25792  0.31510  0.85406  Biso   1.000  Ne
  Ne163    1.0000 0.64375  0.22896  0.62587  Biso   1.000  Ne
  He163    1.0000 0.63010  0.25628  0.62625  Biso   1.000  He
  He164    1.0000 0.59929  0.25461  0.63841  Biso   1.000  He
  Ne164    1.0000 0.58278  0.28194  0.63564  Biso   1.000  Ne
  Ne165    1.0000 0.84310  0.29437  0.60159  Biso   1.000  Ne
  He165    1.0000 0.84636  0.32714  0.59335  Biso   1.000  He
  He166    1.0000 0.83019  0.34875  0.61120  Biso   1.000  He
  Ne166    1.0000 0.83571  0.38138  0.60288  Biso   1.000  Ne
  Ne167    1.0000 0.59099  0.16451  0.58164  Biso   1.000  Ne
  He167    1.0000 0.61966  0.14370  0.57598  Biso   1.000  He
  He168    1.0000 0.64775  0.16291  0.57636  Biso   1.000  He
  Ne168    1.0000 0.67310  0.14366  0.58025  Biso   1.000  Ne
  Ne169    1.0000 0.34684  0.72103  0.21491  Biso   1.000  Ne
  He169    1.0000 0.37771  0.72689  0.22346  Biso   1.000  He
  He170    1.0000 0.40091  0.71998  0.20002  Biso   1.000  He
  Ne170    1.0000 0.43298  0.72931  0.20809  Biso   1.000  Ne
  Ne171    1.0000 0.08645  0.04497  0.79194  Biso   1.000  Ne
  He171    1.0000 0.11465  0.04477  0.80393  Biso   1.000  He
  He172    1.0000 0.13955  0.03466  0.78485  Biso   1.000  He
  Ne172    1.0000 0.16975  0.03531  0.80037  Biso   1.000  Ne
  Ne173    1.0000 0.45073  0.05676  0.56628  Biso   1.000  Ne
  He173    1.0000 0.47916  0.04159  0.55008  Biso   1.000  He
  He174    1.0000 0.47337  0.02217  0.52157  Biso   1.000  He
  Ne174    1.0000 0.47130  0.04032  0.49446  Biso   1.000  Ne
  Ne175    1.0000 0.07874  0.40354  0.42196  Biso   1.000  Ne
  He175    1.0000 0.10425  0.38436  0.42366  Biso   1.000  He
  He176    1.0000 0.09405  0.35192  0.42405  Biso   1.000  He
  Ne176    1.0000 0.11958  0.32947  0.42096  Biso   1.000  Ne
  Ne177    1.0000 0.23872  0.70311  0.42619  Biso   1.000  Ne
  He177    1.0000 0.26583  0.71231  0.44309  Biso   1.000  He
  He178    1.0000 0.28856  0.72604  0.42671  Biso   1.000  He
  Ne178    1.0000 0.31558  0.73640  0.44271  Biso   1.000  Ne
  Ne179    1.0000 0.44430  0.91070  0.63657  Biso   1.000  Ne
  He179    1.0000 0.43329  0.90667  0.60624  Biso   1.000  He
  He180    1.0000 0.45658  0.89857  0.58285  Biso   1.000  He
  Ne180    1.0000 0.45352  0.86778  0.57432  Biso   1.000  Ne
  Ne181    1.0000 0.74172  0.72039  0.63626  Biso   1.000  Ne
  He181    1.0000 0.72238  0.70396  0.65774  Biso   1.000  He
  He182    1.0000 0.69440  0.71814  0.66617  Biso   1.000  He
  Ne182    1.0000 0.67685  0.69952  0.68545  Biso   1.000  Ne
  Ne183    1.0000 0.58291  0.30193  0.14382  Biso   1.000  Ne
  He183    1.0000 0.58965  0.28005  0.16912  Biso   1.000  He
  He184    1.0000 0.61946  0.28398  0.18410  Biso   1.000  He
  Ne184    1.0000 0.62401  0.26335  0.20746  Biso   1.000  Ne
  Ne185    1.0000 0.58147  0.62889  0.84574  Biso   1.000  Ne
  He185    1.0000 0.58824  0.62402  0.81461  Biso   1.000  He
  He186    1.0000 0.58761  0.65338  0.79931  Biso   1.000  He
  Ne186    1.0000 0.58891  0.65462  0.76630  Biso   1.000  Ne
  Ne187    1.0000 0.40863  0.55159  0.72106  Biso   1.000  Ne
  He187    1.0000 0.41322  0.56156  0.75324  Biso   1.000  He
  He188    1.0000 0.43574  0.54409  0.76762  Biso   1.000  He
  Ne188    1.0000 0.43485  0.55017  0.80014  Biso   1.000  Ne
  Ne189    1.0000 0.42022  0.11774  0.61449  Biso   1.000  Ne
  He189    1.0000 0.43002  0.15183  0.61154  Biso   1.000  He
  He190    1.0000 0.43327  0.16069  0.58039  Biso   1.000  He
  Ne190    1.0000 0.44624  0.19098  0.57525  Biso   1.000  Ne
  Ne191    1.0000 0.09042  0.72024  0.73472  Biso   1.000  Ne
  He191    1.0000 0.08037  0.71537  0.70398  Biso   1.000  He
  He192    1.0000 0.04898  0.72295  0.69578  Biso   1.000  He
  Ne192    1.0000 0.03921  0.71528  0.66659  Biso   1.000  Ne
  Ne193    1.0000 0.94648  0.22427  0.05987  Biso   1.000  Ne
  He193    1.0000 0.93470  0.19300  0.06510  Biso   1.000  He
  He194    1.0000 0.90402  0.18530  0.06035  Biso   1.000  He
  Ne194    1.0000 0.89795  0.15199  0.06524  Biso   1.000  Ne
  Ne195    1.0000 0.63088  0.12906  0.00376  Biso   1.000  Ne
  He195    1.0000 0.65986  0.11220  0.99491  Biso   1.000  He
  He196    1.0000 0.68605  0.13007  0.98752  Biso   1.000  He
  Ne196    1.0000 0.71469  0.11244  0.98198  Biso   1.000  Ne
  Ne197    1.0000 0.09500  0.17579  0.12548  Biso   1.000  Ne
  He197    1.0000 0.10606  0.14585  0.11662  Biso   1.000  He
  He198    1.0000 0.08715  0.13099  0.09466  Biso   1.000  He
  Ne198    1.0000 0.09736  0.09914  0.08730  Biso   1.000  Ne
  Ne199    1.0000 0.94886  0.28675  0.24510  Biso   1.000  Ne
  He199    1.0000 0.96458  0.30371  0.21983  Biso   1.000  He
  He200    1.0000 0.98789  0.28648  0.20738  Biso   1.000  He
  Ne200    1.0000 0.00481  0.30511  0.18490  Biso   1.000  Ne
  Ne201    1.0000 0.44943  0.58758  0.94515  Biso   1.000  Ne
  He201    1.0000 0.42904  0.60883  0.93181  Biso   1.000  He
  He202    1.0000 0.42954  0.64341  0.94198  Biso   1.000  He
  Ne202    1.0000 0.40988  0.66482  0.92513  Biso   1.000  Ne
  Ne203    1.0000 0.92381  0.55287  0.73443  Biso   1.000  Ne
  He203    1.0000 0.91948  0.58430  0.73639  Biso   1.000  He
  He204    1.0000 0.88987  0.59612  0.72221  Biso   1.000  He
  Ne204    1.0000 0.88571  0.62743  0.72628  Biso   1.000  Ne
  Ne205    1.0000 0.09004  0.22458  0.44306  Biso   1.000  Ne
  He205    1.0000 0.11600  0.22437  0.42720  Biso   1.000  He
  He206    1.0000 0.12479  0.25429  0.41580  Biso   1.000  He
  Ne206    1.0000 0.15336  0.25321  0.39971  Biso   1.000  Ne
  Ne207    1.0000 0.68697  0.04338  0.64121  Biso   1.000  Ne
  He207    1.0000 0.71622  0.04934  0.62684  Biso   1.000  He
  He208    1.0000 0.71873  0.04461  0.59334  Biso   1.000  He
  Ne208    1.0000 0.74890  0.04521  0.57986  Biso   1.000  Ne
  Ne209    1.0000 0.65220  0.62009  0.56866  Biso   1.000  Ne
  He209    1.0000 0.65516  0.61652  0.53567  Biso   1.000  He
  He210    1.0000 0.63759  0.63972  0.52242  Biso   1.000  He
  Ne210    1.0000 0.63652  0.63665  0.48796  Biso   1.000  Ne
  Ne211    1.0000 0.21103  0.79995  0.85676  Biso   1.000  Ne
  He211    1.0000 0.20865  0.83303  0.84969  Biso   1.000  He
  He212    1.0000 0.23643  0.84692  0.85455  Biso   1.000  He
  Ne212    1.0000 0.23656  0.87878  0.84171  Biso   1.000  Ne
  Ne213    1.0000 0.08142  0.18029  0.70801  Biso   1.000  Ne
  He213    1.0000 0.05572  0.16163  0.70572  Biso   1.000  He
  He214    1.0000 0.05403  0.13532  0.72554  Biso   1.000  He
  Ne214    1.0000 0.02725  0.11447  0.72332  Biso   1.000  Ne
  Ne215    1.0000 0.16925  0.59963  0.15563  Biso   1.000  Ne
  He215    1.0000 0.19599  0.58252  0.15056  Biso   1.000  He
  He216    1.0000 0.21260  0.58018  0.17871  Biso   1.000  He
  Ne216    1.0000 0.23558  0.55771  0.17702  Biso   1.000  Ne
  Ne217    1.0000 0.99197  0.94573  0.02155  Biso   1.000  Ne
  He217    1.0000 0.00066  0.94194  0.05251  Biso   1.000  He
  He218    1.0000 0.97732  0.94904  0.07453  Biso   1.000  He
  Ne218    1.0000 0.98406  0.94329  0.10543  Biso   1.000  Ne
  Ne219    1.0000 0.53723  0.68050  0.68279  Biso   1.000  Ne
  He219    1.0000 0.50747  0.66902  0.69650  Biso   1.000  He
  He220    1.0000 0.50374  0.63528  0.68604  Biso   1.000  He
  Ne220    1.0000 0.47583  0.62111  0.69538  Biso   1.000  Ne
  Ne221    1.0000 0.90218  0.53127  0.65546  Biso   1.000  Ne
  He221    1.0000 0.89595  0.55872  0.63871  Biso   1.000  He
  He222    1.0000 0.91590  0.58632  0.64437  Biso   1.000  He
  Ne222    1.0000 0.90667  0.61489  0.62665  Biso   1.000  Ne
  Ne223    1.0000 0.67216  0.53693  0.72301  Biso   1.000  Ne
  He223    1.0000 0.64331  0.53980  0.73489  Biso   1.000  He
  He224    1.0000 0.63052  0.56992  0.73696  Biso   1.000  He
  Ne224    1.0000 0.59959  0.57057  0.74696  Biso   1.000  Ne
  Ne225    1.0000 0.40012  0.71105  0.83365  Biso   1.000  Ne
  He225    1.0000 0.38785  0.68456  0.81700  Biso   1.000  He
  He226    1.0000 0.40052  0.65338  0.82234  Biso   1.000  He
  Ne226    1.0000 0.39207  0.63267  0.79994  Biso   1.000  Ne
  Ne227    1.0000 0.81961  0.05456  0.22584  Biso   1.000  Ne
  He227    1.0000 0.85288  0.04784  0.22237  Biso   1.000  He
  He228    1.0000 0.87026  0.07031  0.20612  Biso   1.000  He
  Ne228    1.0000 0.86645  0.07286  0.17300  Biso   1.000  Ne
  Ne229    1.0000 0.62781  0.36925  0.21486  Biso   1.000  Ne
  He229    1.0000 0.61934  0.38269  0.24628  Biso   1.000  He
  He230    1.0000 0.64302  0.39265  0.26604  Biso   1.000  He
  Ne230    1.0000 0.63094  0.40863  0.29400  Biso   1.000  Ne
  Ne231    1.0000 0.30962  0.27627  0.43132  Biso   1.000  Ne
  He231    1.0000 0.34103  0.27554  0.43751  Biso   1.000  He
  He232    1.0000 0.36027  0.25886  0.41409  Biso   1.000  He
  Ne232    1.0000 0.39046  0.25829  0.42376  Biso   1.000  Ne
  Ne233    1.0000 0.84518  0.34346  0.30143  Biso   1.000  Ne
  He233    1.0000 0.85056  0.37306  0.28680  Biso   1.000  He
  He234    1.0000 0.88100  0.37732  0.27698  Biso   1.000  He
  Ne234    1.0000 0.88492  0.39964  0.25725  Biso   1.000  Ne
  Ne235    1.0000 0.90976  0.61283  0.41488  Biso   1.000  Ne
  He235    1.0000 0.90890  0.63948  0.43422  Biso   1.000  He
  He236    1.0000 0.88579  0.66231  0.42288  Biso   1.000  He
  Ne236    1.0000 0.88970  0.69089  0.44056  Biso   1.000  Ne
  Ne237    1.0000 0.87343  0.16699  0.90602  Biso   1.000  Ne
  He237    1.0000 0.90075  0.16629  0.88679  Biso   1.000  He
  He238    1.0000 0.92673  0.14858  0.89858  Biso   1.000  He
  Ne238    1.0000 0.94876  0.13866  0.87462  Biso   1.000  Ne
  Ne239    1.0000 0.42925  0.45071  0.97995  Biso   1.000  Ne
  He239    1.0000 0.42633  0.47310  0.95339  Biso   1.000  He
  He240    1.0000 0.40814  0.50013  0.96406  Biso   1.000  He
  Ne240    1.0000 0.39907  0.52145  0.93978  Biso   1.000  Ne
  Ne241    1.0000 0.44770  0.04908  0.34586  Biso   1.000  Ne
  He241    1.0000 0.43459  0.04536  0.37659  Biso   1.000  He
  He242    1.0000 0.42805  0.07355  0.39106  Biso   1.000  He
  Ne242    1.0000 0.41029  0.06882  0.41847  Biso   1.000  Ne
  Ne243    1.0000 0.66668  0.03644  0.42942  Biso   1.000  Ne
  He243    1.0000 0.69692  0.04627  0.41769  Biso   1.000  He
  He244    1.0000 0.71063  0.02879  0.39141  Biso   1.000  He
  Ne244    1.0000 0.74134  0.03381  0.38138  Biso   1.000  Ne
  Ne245    1.0000 0.08718  0.53569  0.23856  Biso   1.000  Ne
  He245    1.0000 0.11126  0.55663  0.25082  Biso   1.000  He
  He246    1.0000 0.13914  0.56551  0.23561  Biso   1.000  He
  Ne246    1.0000 0.15884  0.58294  0.25613  Biso   1.000  Ne
  Ne247    1.0000 0.60664  0.34267  0.73950  Biso   1.000  Ne
  He247    1.0000 0.61529  0.37381  0.73406  Biso   1.000  He
  He248    1.0000 0.62183  0.39380  0.75955  Biso   1.000  He
  Ne248    1.0000 0.65276  0.38709  0.77059  Biso   1.000  Ne
  Ne249    1.0000 0.57474  0.50313  0.02631  Biso   1.000  Ne
  He249    1.0000 0.57400  0.49034  0.99452  Biso   1.000  He
  He250    1.0000 0.54225  0.48525  0.99030  Biso   1.000  He
  Ne250    1.0000 0.53375  0.47693  0.95952  Biso   1.000  Ne
  Ne251    1.0000 0.77608  0.28964  0.12570  Biso   1.000  Ne
  He251    1.0000 0.80434  0.28177  0.10946  Biso   1.000  He
  He252    1.0000 0.82861  0.30144  0.11872  Biso   1.000  He
  Ne252    1.0000 0.85658  0.29852  0.10045  Biso   1.000  Ne
  Ne253    1.0000 0.47538  0.76424  0.04310  Biso   1.000  Ne
  He253    1.0000 0.49656  0.74843  0.06401  Biso   1.000  He
  He254    1.0000 0.52654  0.75734  0.06682  Biso   1.000  He
  Ne254    1.0000 0.54354  0.73625  0.08867  Biso   1.000  Ne
  Ne255    1.0000 0.33851  0.30771  0.91387  Biso   1.000  Ne
  He255    1.0000 0.31745  0.32699  0.89893  Biso   1.000  He
  He256    1.0000 0.32419  0.35922  0.90521  Biso   1.000  He
  Ne256    1.0000 0.30526  0.37716  0.88784  Biso   1.000  Ne
  Ne257    1.0000 0.47550  0.29251  0.72384  Biso   1.000  Ne
  He257    1.0000 0.47049  0.29663  0.69325  Biso   1.000  He
  He258    1.0000 0.47178  0.26790  0.67474  Biso   1.000  He
  Ne258    1.0000 0.46857  0.27294  0.64335  Biso   1.000  Ne
  Ne259    1.0000 0.58874  0.73892  0.62140  Biso   1.000  Ne
  He259    1.0000 0.61296  0.75970  0.61180  Biso   1.000  He
  He260    1.0000 0.63993  0.74457  0.60226  Biso   1.000  He
  Ne260    1.0000 0.66545  0.76684  0.59287  Biso   1.000  Ne
  Ne261    1.0000 0.06471  0.79299  0.28871  Biso   1.000  Ne
  He261    1.0000 0.09251  0.81174  0.28394  Biso   1.000  He
  He262    1.0000 0.08437  0.84320  0.27720  Biso   1.000  He
  Ne262    1.0000 0.11109  0.86031  0.26562  Biso   1.000  Ne
  Ne263    1.0000 0.10517  0.56442  0.57423  Biso   1.000  Ne
  He263    1.0000 0.09457  0.54046  0.59205  Biso   1.000  He
  He264    1.0000 0.08765  0.54524  0.62108  Biso   1.000  He
  Ne264    1.0000 0.07369  0.51649  0.63214  Biso   1.000  Ne
  Ne265    1.0000 0.10280  0.56715  0.33677  Biso   1.000  Ne
  He265    1.0000 0.08967  0.59549  0.32396  Biso   1.000  He
  He266    1.0000 0.07784  0.61245  0.34499  Biso   1.000  He
  Ne266    1.0000 0.07473  0.64408  0.33906  Biso   1.000  Ne
  Ne267    1.0000 0.52300  0.26227  0.34647  Biso   1.000  Ne
  He267    1.0000 0.54112  0.25493  0.31842  Biso   1.000  He
  He268    1.0000 0.54618  0.27933  0.29831  Biso   1.000  He
  Ne268    1.0000 0.57000  0.27224  0.27741  Biso   1.000  Ne
  Ne269    1.0000 0.21059  0.93592  0.55578  Biso   1.000  Ne
  He269    1.0000 0.20418  0.91040  0.53364  Biso   1.000  He
  He270    1.0000 0.20343  0.87863  0.54060  Biso   1.000  He
  Ne270    1.0000 0.19454  0.86063  0.51277  Biso   1.000  Ne
  Ne271    1.0000 0.52955  0.96286  0.51487  Biso   1.000  Ne
  He271    1.0000 0.52714  0.93866  0.49299  Biso   1.000  He
  He272    1.0000 0.55414  0.93473  0.47614  Biso   1.000  He
  Ne272    1.0000 0.55214  0.94443  0.44429  Biso   1.000  Ne
  Ne273    1.0000 0.70187  0.26905  0.80854  Biso   1.000  Ne
  He273    1.0000 0.71942  0.25893  0.78225  Biso   1.000  He
  He274    1.0000 0.72826  0.22831  0.78309  Biso   1.000  He
  Ne274    1.0000 0.74570  0.21925  0.75759  Biso   1.000  Ne
  Ne275    1.0000 0.72911  0.13085  0.10216  Biso   1.000  Ne
  He275    1.0000 0.71566  0.15467  0.08581  Biso   1.000  He
  He276    1.0000 0.73877  0.17153  0.06422  Biso   1.000  He
  Ne276    1.0000 0.72397  0.19545  0.04712  Biso   1.000  Ne
  Ne277    1.0000 0.61267  0.74445  0.71185  Biso   1.000  Ne
  He277    1.0000 0.64166  0.74977  0.72995  Biso   1.000  He
  He278    1.0000 0.65137  0.77937  0.72606  Biso   1.000  He
  Ne278    1.0000 0.67622  0.78714  0.70128  Biso   1.000  Ne
  Ne279    1.0000 0.74401  0.81623  0.15969  Biso   1.000  Ne
  He279    1.0000 0.76590  0.82927  0.13823  Biso   1.000  He
  He280    1.0000 0.78183  0.85588  0.14936  Biso   1.000  He
  Ne280    1.0000 0.79887  0.87360  0.12648  Biso   1.000  Ne
  Ne281    1.0000 0.50936  0.38709  0.95296  Biso   1.000  Ne
  He281    1.0000 0.53987  0.40313  0.95172  Biso   1.000  He
  He282    1.0000 0.55262  0.40403  0.91979  Biso   1.000  He
  Ne282    1.0000 0.58358  0.41228  0.91796  Biso   1.000  Ne
  Ne283    1.0000 0.53879  0.96454  0.59951  Biso   1.000  Ne
  He283    1.0000 0.55525  0.93689  0.59396  Biso   1.000  He
  He284    1.0000 0.54287  0.91170  0.61112  Biso   1.000  He
  Ne284    1.0000 0.55855  0.88584  0.60273  Biso   1.000  Ne
  Ne285    1.0000 0.15411  0.03948  0.93818  Biso   1.000  Ne
  He285    1.0000 0.14419  0.01878  0.91502  Biso   1.000  He
  He286    1.0000 0.11969  0.03265  0.89601  Biso   1.000  He
  Ne286    1.0000 0.10303  0.01484  0.87369  Biso   1.000  Ne
  Ne287    1.0000 0.41420  0.31772  0.19017  Biso   1.000  Ne
  He287    1.0000 0.43026  0.33386  0.16378  Biso   1.000  He
  He288    1.0000 0.41828  0.36659  0.15789  Biso   1.000  He
  Ne288    1.0000 0.43232  0.38423  0.13236  Biso   1.000  Ne
  Ne289    1.0000 0.59047  0.04020  0.65214  Biso   1.000  Ne
  He289    1.0000 0.58489  0.04548  0.68324  Biso   1.000  He
  He290    1.0000 0.61006  0.03909  0.70322  Biso   1.000  He
  Ne290    1.0000 0.60297  0.04295  0.73618  Biso   1.000  Ne
  Ne291    1.0000 0.58430  0.88234  0.80065  Biso   1.000  Ne
  He291    1.0000 0.57035  0.85161  0.80469  Biso   1.000  He
  He292    1.0000 0.53566  0.85011  0.80703  Biso   1.000  He
  Ne292    1.0000 0.52486  0.82044  0.81226  Biso   1.000  Ne
  Ne293    1.0000 0.75379  0.27860  0.59405  Biso   1.000  Ne
  He293    1.0000 0.75493  0.27134  0.62618  Biso   1.000  He
  He294    1.0000 0.77816  0.28617  0.63890  Biso   1.000  He
  Ne294    1.0000 0.78110  0.28049  0.67318  Biso   1.000  Ne
  Ne295    1.0000 0.70775  0.77779  0.08013  Biso   1.000  Ne
  He295    1.0000 0.71531  0.80639  0.06653  Biso   1.000  He
  He296    1.0000 0.70217  0.83340  0.07705  Biso   1.000  He
  Ne296    1.0000 0.71750  0.86039  0.06556  Biso   1.000  Ne
  Ne297    1.0000 0.42792  0.89683  0.73406  Biso   1.000  Ne
  He297    1.0000 0.41924  0.87627  0.70768  Biso   1.000  He
  He298    1.0000 0.42189  0.84514  0.71201  Biso   1.000  He
  Ne298    1.0000 0.40686  0.82795  0.68729  Biso   1.000  Ne
  Ne299    1.0000 0.41892  0.89629  0.38071  Biso   1.000  Ne
  He299    1.0000 0.41719  0.88341  0.41079  Biso   1.000  He
  He300    1.0000 0.41394  0.85083  0.40618  Biso   1.000  He
  Ne300    1.0000 0.41284  0.83500  0.43345  Biso   1.000  Ne
  Ne301    1.0000 0.00357  0.88433  0.72888  Biso   1.000  Ne
  He301    1.0000 0.99602  0.91556  0.73398  Biso   1.000  He
  He302    1.0000 0.96609  0.92789  0.72444  Biso   1.000  He
  Ne302    1.0000 0.95891  0.96020  0.73520  Biso   1.000  Ne
  Ne303    1.0000 0.17755  0.90159  0.30427  Biso   1.000  Ne
  He303    1.0000 0.18371  0.87199  0.29287  Biso   1.000  He
  He304    1.0000 0.17680  0.84750  0.31551  Biso   1.000  He
  Ne304    1.0000 0.18192  0.81669  0.30235  Biso   1.000  Ne
  Ne305    1.0000 0.33544  0.37096  0.46496  Biso   1.000  Ne
  He305    1.0000 0.30478  0.37206  0.45452  Biso   1.000  He
  He306    1.0000 0.30114  0.39992  0.43562  Biso   1.000  He
  Ne306    1.0000 0.27020  0.40301  0.42889  Biso   1.000  Ne
  Ne307    1.0000 0.10912  0.87481  0.94941  Biso   1.000  Ne
  He307    1.0000 0.10942  0.84355  0.93508  Biso   1.000  He
  He308    1.0000 0.14202  0.83640  0.92566  Biso   1.000  He
  Ne308    1.0000 0.14539  0.80331  0.91983  Biso   1.000  Ne
  Ne309    1.0000 0.17751  0.61209  0.40618  Biso   1.000  Ne
  He309    1.0000 0.15265  0.60231  0.42600  Biso   1.000  He
  He310    1.0000 0.13780  0.57336  0.41875  Biso   1.000  He
  Ne310    1.0000 0.11278  0.56469  0.43576  Biso   1.000  Ne
  Ne311    1.0000 0.26981  0.73489  0.07018  Biso   1.000  Ne
  He311    1.0000 0.28295  0.71404  0.08950  Biso   1.000  He
  He312    1.0000 0.30003  0.68832  0.07555  Biso   1.000  He
  Ne312    1.0000 0.31725  0.67082  0.09664  Biso   1.000  Ne
  Ne313    1.0000 0.93767  0.88200  0.92209  Biso   1.000  Ne
  He313    1.0000 0.93939  0.90205  0.94976  Biso   1.000  He
  He314    1.0000 0.92140  0.93045  0.94468  Biso   1.000  He
  Ne314    1.0000 0.91996  0.95315  0.96893  Biso   1.000  Ne
  Ne315    1.0000 0.13866  0.73544  0.59296  Biso   1.000  Ne
  He315    1.0000 0.15241  0.76244  0.58407  Biso   1.000  He
  He316    1.0000 0.13116  0.78898  0.59273  Biso   1.000  He
  Ne316    1.0000 0.14586  0.81709  0.58595  Biso   1.000  Ne
  Ne317    1.0000 0.36960  0.08875  0.32580  Biso   1.000  Ne
  He317    1.0000 0.34014  0.07817  0.33790  Biso   1.000  He
  He318    1.0000 0.31489  0.08843  0.31994  Biso   1.000  He
  Ne318    1.0000 0.28354  0.07791  0.33152  Biso   1.000  Ne
  Ne319    1.0000 0.79912  0.25666  0.80581  Biso   1.000  Ne
  He319    1.0000 0.78834  0.26752  0.83539  Biso   1.000  He
  He320    1.0000 0.76679  0.24552  0.85082  Biso   1.000  He
  Ne320    1.0000 0.75408  0.25947  0.87772  Biso   1.000  Ne
  Ne321    1.0000 0.43589  0.30414  0.92087  Biso   1.000  Ne
  He321    1.0000 0.41081  0.32751  0.92691  Biso   1.000  He
  He322    1.0000 0.42268  0.35724  0.92561  Biso   1.000  He
  Ne322    1.0000 0.40452  0.37890  0.94058  Biso   1.000  Ne
  Ne323    1.0000 0.20664  0.87229  0.18050  Biso   1.000  Ne
  He323    1.0000 0.18561  0.86180  0.15415  Biso   1.000  He
  He324    1.0000 0.17864  0.88486  0.13051  Biso   1.000  He
  Ne324    1.0000 0.16559  0.87609  0.10170  Biso   1.000  Ne
  Ne325    1.0000 0.69663  0.44351  0.68510  Biso   1.000  Ne
  He325    1.0000 0.69426  0.46816  0.66216  Biso   1.000  He
  He326    1.0000 0.72066  0.48350  0.65893  Biso   1.000  He
  Ne326    1.0000 0.72070  0.50303  0.63200  Biso   1.000  Ne
  Ne327    1.0000 0.55478  0.38711  0.10825  Biso   1.000  Ne
  He327    1.0000 0.58761  0.38113  0.10163  Biso   1.000  He
  He328    1.0000 0.59625  0.36921  0.07171  Biso   1.000  He
  Ne328    1.0000 0.62849  0.36324  0.06755  Biso   1.000  Ne
  Ne329    1.0000 0.04022  0.39740  0.55542  Biso   1.000  Ne
  He329    1.0000 0.07024  0.40518  0.57050  Biso   1.000  He
  He330    1.0000 0.09179  0.38108  0.56867  Biso   1.000  He
  Ne330    1.0000 0.12224  0.38844  0.58419  Biso   1.000  Ne
  Ne331    1.0000 0.40822  0.19750  0.68521  Biso   1.000  Ne
  He331    1.0000 0.39285  0.22624  0.69263  Biso   1.000  He
  He332    1.0000 0.36266  0.23129  0.68022  Biso   1.000  He
  Ne332    1.0000 0.34874  0.25791  0.69805  Biso   1.000  Ne
  Ne333    1.0000 0.16356  0.93634  0.70723  Biso   1.000  Ne
  He333    1.0000 0.17086  0.96168  0.72525  Biso   1.000  He
  He334    1.0000 0.18642  0.98387  0.70514  Biso   1.000  He
  Ne334    1.0000 0.19076  0.01102  0.72195  Biso   1.000  Ne
  Ne335    1.0000 0.79537  0.05236  0.90675  Biso   1.000  Ne
  He335    1.0000 0.82137  0.05751  0.88609  Biso   1.000  He
  He336    1.0000 0.82738  0.03354  0.86179  Biso   1.000  He
  Ne336    1.0000 0.85255  0.04370  0.84322  Biso   1.000  Ne
  Ne337    1.0000 0.78776  0.42561  0.13512  Biso   1.000  Ne
  He337    1.0000 0.78474  0.40213  0.15810  Biso   1.000  He
  He338    1.0000 0.77725  0.41842  0.18817  Biso   1.000  He
  Ne338    1.0000 0.76509  0.39860  0.21063  Biso   1.000  Ne
  Ne339    1.0000 0.92627  0.78903  0.18965  Biso   1.000  Ne
  He339    1.0000 0.91060  0.80463  0.16655  Biso   1.000  He
  He340    1.0000 0.91032  0.79051  0.13769  Biso   1.000  He
  Ne340    1.0000 0.88419  0.79861  0.12040  Biso   1.000  Ne
  Ne341    1.0000 0.68478  0.87625  0.72150  Biso   1.000  Ne
  He341    1.0000 0.70133  0.85583  0.73629  Biso   1.000  He
  He342    1.0000 0.73147  0.86929  0.74486  Biso   1.000  He
  Ne342    1.0000 0.75377  0.84637  0.74738  Biso   1.000  Ne
  Ne343    1.0000 0.43119  0.34689  0.77217  Biso   1.000  Ne
  He343    1.0000 0.43042  0.35179  0.80453  Biso   1.000  He
  He344    1.0000 0.43260  0.38002  0.81905  Biso   1.000  He
  Ne344    1.0000 0.42706  0.37914  0.85308  Biso   1.000  Ne
  Ne345    1.0000 0.16790  0.78513  0.08559  Biso   1.000  Ne
  He345    1.0000 0.14338  0.80803  0.08827  Biso   1.000  He
  He346    1.0000 0.11365  0.79199  0.09031  Biso   1.000  He
  Ne346    1.0000 0.08694  0.81035  0.08932  Biso   1.000  Ne
  Ne347    1.0000 0.94687  0.08564  0.22846  Biso   1.000  Ne
  He347    1.0000 0.94874  0.07121  0.25682  Biso   1.000  He
  He348    1.0000 0.95272  0.04061  0.25316  Biso   1.000  He
  Ne348    1.0000 0.94146  0.01648  0.27939  Biso   1.000  Ne
  Ne349    1.0000 0.33180  0.33454  0.62912  Biso   1.000  Ne
  He349    1.0000 0.34791  0.32935  0.65647  Biso   1.000  He
  He350    1.0000 0.37895  0.33492  0.65675  Biso   1.000  He
  Ne350    1.0000 0.39417  0.32778  0.68558  Biso   1.000  Ne
  Ne351    1.0000 0.58050  0.11948  0.75945  Biso   1.000  Ne
  He351    1.0000 0.59676  0.12980  0.73299  Biso   1.000  He
  He352    1.0000 0.62892  0.13402  0.73804  Biso   1.000  He
  Ne352    1.0000 0.64778  0.13828  0.70992  Biso   1.000  Ne
  Ne353    1.0000 0.60897  0.26799  0.90273  Biso   1.000  Ne
  He353    1.0000 0.62914  0.29309  0.90746  Biso   1.000  He
  He354    1.0000 0.66107  0.28853  0.89770  Biso   1.000  He
  Ne354    1.0000 0.68415  0.31317  0.90401  Biso   1.000  Ne
  Ne355    1.0000 0.56951  0.03784  0.54888  Biso   1.000  Ne
  He355    1.0000 0.60305  0.03694  0.54936  Biso   1.000  He
  He356    1.0000 0.61303  0.01928  0.57369  Biso   1.000  He
  Ne356    1.0000 0.64452  0.01851  0.57950  Biso   1.000  Ne
  Ne357    1.0000 0.00269  0.87294  0.98089  Biso   1.000  Ne
  He357    1.0000 0.02404  0.89092  0.96404  Biso   1.000  He
  He358    1.0000 0.02091  0.89562  0.93139  Biso   1.000  He
  Ne358    1.0000 0.04832  0.91517  0.91922  Biso   1.000  Ne
  Ne359    1.0000 0.31874  0.84945  0.66096  Biso   1.000  Ne
  He359    1.0000 0.33821  0.85981  0.63640  Biso   1.000  He
  He360    1.0000 0.33854  0.88987  0.62929  Biso   1.000  He
  Ne360    1.0000 0.35632  0.89800  0.59950  Biso   1.000  Ne
  Ne361    1.0000 0.42888  0.68329  0.42828  Biso   1.000  Ne
  He361    1.0000 0.40812  0.70763  0.42099  Biso   1.000  He
  He362    1.0000 0.40664  0.73192  0.44289  Biso   1.000  He
  Ne362    1.0000 0.40053  0.76128  0.42767  Biso   1.000  Ne
  Ne363    1.0000 0.65987  0.38848  0.87041  Biso   1.000  Ne
  He363    1.0000 0.63551  0.38501  0.85031  Biso   1.000  He
  He364    1.0000 0.62847  0.35433  0.84599  Biso   1.000  He
  Ne364    1.0000 0.60452  0.34404  0.82439  Biso   1.000  Ne
  Ne365    1.0000 0.55524  0.19009  0.00093  Biso   1.000  Ne
  He365    1.0000 0.56925  0.17947  0.97266  Biso   1.000  He
  He366    1.0000 0.55562  0.19355  0.94469  Biso   1.000  He
  Ne366    1.0000 0.52886  0.17717  0.93226  Biso   1.000  Ne
  Ne367    1.0000 0.05603  0.70139  0.09428  Biso   1.000  Ne
  He367    1.0000 0.07028  0.70013  0.12236  Biso   1.000  He
  He368    1.0000 0.10233  0.71034  0.12235  Biso   1.000  He
  Ne368    1.0000 0.11556  0.71076  0.15351  Biso   1.000  Ne
  Ne369    1.0000 0.08372  0.88235  0.04398  Biso   1.000  Ne
  He369    1.0000 0.09564  0.91190  0.04033  Biso   1.000  He
  He370    1.0000 0.08407  0.93490  0.06062  Biso   1.000  He
  Ne370    1.0000 0.09734  0.96527  0.05697  Biso   1.000  Ne
  Ne371    1.0000 0.29390  0.17564  0.89011  Biso   1.000  Ne
  He371    1.0000 0.32023  0.16582  0.90719  Biso   1.000  He
  He372    1.0000 0.34516  0.18873  0.90778  Biso   1.000  He
  Ne372    1.0000 0.36792  0.18252  0.93116  Biso   1.000  Ne
  Ne373    1.0000 0.35115  0.37249  0.11755  Biso   1.000  Ne
  He373    1.0000 0.32027  0.36724  0.12472  Biso   1.000  He
  He374    1.0000 0.29943  0.36641  0.10069  Biso   1.000  He
  Ne374    1.0000 0.26733  0.36652  0.10951  Biso   1.000  Ne
  Ne375    1.0000 0.42227  0.62951  0.10704  Biso   1.000  Ne
  He375    1.0000 0.40989  0.64729  0.13098  Biso   1.000  He
  He376    1.0000 0.37908  0.63357  0.14174  Biso   1.000  He
  Ne376    1.0000 0.36101  0.65300  0.15970  Biso   1.000  Ne
  Ne377    1.0000 0.93110  0.05153  0.73952  Biso   1.000  Ne
  He377    1.0000 0.91986  0.07255  0.76281  Biso   1.000  He
  He378    1.0000 0.92233  0.06117  0.79228  Biso   1.000  He
  Ne378    1.0000 0.91660  0.08659  0.81737  Biso   1.000  Ne
  Ne379    1.0000 0.32274  0.73463  0.74675  Biso   1.000  Ne
  He379    1.0000 0.34020  0.73519  0.71747  Biso   1.000  He
  He380    1.0000 0.33327  0.76129  0.69929  Biso   1.000  He
  Ne380    1.0000 0.34991  0.76340  0.66993  Biso   1.000  Ne
  Ne381    1.0000 0.34720  0.08488  0.67418  Biso   1.000  Ne
  He381    1.0000 0.36671  0.10473  0.69441  Biso   1.000  He
  He382    1.0000 0.39875  0.09541  0.69945  Biso   1.000  He
  Ne382    1.0000 0.40204  0.08054  0.72763  Biso   1.000  Ne
  Ne383    1.0000 0.81137  0.32064  0.02855  Biso   1.000  Ne
  He383    1.0000 0.82492  0.32040  0.99654  Biso   1.000  He
  He384    1.0000 0.80493  0.31211  0.97244  Biso   1.000  He
  Ne384    1.0000 0.81006  0.28586  0.95559  Biso   1.000  Ne
  Ne385    1.0000 0.75253  0.15594  0.59941  Biso   1.000  Ne
  He385    1.0000 0.73024  0.16594  0.62389  Biso   1.000  He
  He386    1.0000 0.73910  0.15450  0.65555  Biso   1.000  He
  Ne386    1.0000 0.71835  0.16382  0.67932  Biso   1.000  Ne
  Ne387    1.0000 0.65361  0.76645  0.35498  Biso   1.000  Ne
  He387    1.0000 0.66624  0.75112  0.37993  Biso   1.000  He
  He388    1.0000 0.64206  0.73618  0.39818  Biso   1.000  He
  Ne388    1.0000 0.64823  0.71131  0.41872  Biso   1.000  Ne
  Ne389    1.0000 0.27986  0.41604  0.33437  Biso   1.000  Ne
  He389    1.0000 0.29158  0.38562  0.32745  Biso   1.000  He
  He390    1.0000 0.27628  0.35895  0.34237  Biso   1.000  He
  Ne390    1.0000 0.29380  0.34967  0.36639  Biso   1.000  Ne
  Ne391    1.0000 0.58631  0.55420  0.86395  Biso   1.000  Ne
  He391    1.0000 0.57630  0.56022  0.89580  Biso   1.000  He
  He392    1.0000 0.59182  0.54419  0.91747  Biso   1.000  He
  Ne392    1.0000 0.58707  0.55324  0.94868  Biso   1.000  Ne
  Ne393    1.0000 0.12587  0.82475  0.74383  Biso   1.000  Ne
  He393    1.0000 0.11990  0.85074  0.76299  Biso   1.000  He
  He394    1.0000 0.10160  0.84416  0.79025  Biso   1.000  He
  Ne394    1.0000 0.09933  0.86913  0.81014  Biso   1.000  Ne
  Ne395    1.0000 0.63008  0.26928  0.07403  Biso   1.000  Ne
  He395    1.0000 0.61195  0.24380  0.08776  Biso   1.000  He
  He396    1.0000 0.62876  0.23231  0.11409  Biso   1.000  He
  Ne396    1.0000 0.61685  0.20479  0.12718  Biso   1.000  Ne
  Ne397    1.0000 0.09147  0.78955  0.18357  Biso   1.000  Ne
  He397    1.0000 0.08991  0.82429  0.18887  Biso   1.000  He
  He398    1.0000 0.10546  0.84212  0.16552  Biso   1.000  He
  Ne398    1.0000 0.10528  0.87761  0.16915  Biso   1.000  Ne
  Ne399    1.0000 0.44797  0.73864  0.96883  Biso   1.000  Ne
  He399    1.0000 0.43268  0.74165  0.94095  Biso   1.000  He
  He400    1.0000 0.41178  0.76624  0.94326  Biso   1.000  He
  Ne400    1.0000 0.38912  0.77017  0.91801  Biso   1.000  Ne
