data_image0
_cell_length_a       47.4163
_cell_length_b       46.6177
_cell_length_c       46.5839
_cell_angle_alpha    90
_cell_angle_beta     90
_cell_angle_gamma    90

_symmetry_space_group_name_H-M    "P 1"
_symmetry_int_tables_number       1

loop_
  _symmetry_equiv_pos_as_xyz
  'x, y, z'

loop_
  _atom_site_label
  _atom_site_occupancy
  _atom_site_fract_x
  _atom_site_fract_y
  _atom_site_fract_z
  _atom_site_thermal_displace_type
  _atom_site_B_iso_or_equiv
  _atom_site_type_symbol
  Ne1      1.0000 0.63147  0.65634  0.09662  Biso   1.000  Ne
  He1      1.0000 0.62659  0.66297  0.12983  Biso   1.000  He
  He2      1.0000 0.63631  0.63874  0.15030  Biso   1.000  He
  Ne2      1.0000 0.63477  0.65224  0.18342  Biso   1.000  Ne
  Ne3      1.0000 0.11154  0.93345  0.10569  Biso   1.000  Ne
  He3      1.0000 0.09269  0.94025  0.07813  Biso   1.000  He
  He4      1.0000 0.09603  0.91844  0.05276  Biso   1.000  He
  Ne4      1.0000 0.11952  0.92615  0.03046  Biso   1.000  Ne
  Ne5      1.0000 0.83246  0.40598  0.93301  Biso   1.000  Ne
  He5      1.0000 0.83607  0.40464  0.96564  Biso   1.000  He
  He6      1.0000 0.83364  0.43315  0.98033  Biso   1.000  He
  Ne6      1.0000 0.84670  0.43553  0.01101  Biso   1.000  Ne
  Ne7      1.0000 0.47237  0.18126  0.66784  Biso   1.000  Ne
  He7      1.0000 0.47297  0.17358  0.63417  Biso   1.000  He
  He8      1.0000 0.45288  0.19636  0.61734  Biso   1.000  He
  Ne8      1.0000 0.45282  0.18791  0.58481  Biso   1.000  Ne
  Ne9      1.0000 0.03721  0.21410  0.46430  Biso   1.000  Ne
  He9      1.0000 0.05591  0.19878  0.44355  Biso   1.000  He
  He10     1.0000 0.03876  0.17955  0.42385  Biso   1.000  He
  Ne10     1.0000 0.04480  0.14724  0.42722  Biso   1.000  Ne
  Ne11     1.0000 0.27916  0.42323  0.95461  Biso   1.000  Ne
  He11     1.0000 0.30058  0.42290  0.92756  Biso   1.000  He
  He12     1.0000 0.32477  0.39856  0.93009  Biso   1.000  He
  Ne12     1.0000 0.35437  0.41495  0.93402  Biso   1.000  Ne
  Ne13     1.0000 0.96203  0.20245  0.92422  Biso   1.000  Ne
  He13     1.0000 0.94348  0.17636  0.92538  Biso   1.000  He
  He14     1.0000 0.91292  0.18345  0.91883  Biso   1.000  He
  Ne14     1.0000 0.89379  0.15677  0.92271  Biso   1.000  Ne
  Ne15     1.0000 0.10880  0.20328  0.85335  Biso   1.000  Ne
  He15     1.0000 0.12077  0.22884  0.83890  Biso   1.000  He
  He16     1.0000 0.11221  0.26049  0.85138  Biso   1.000  He
  Ne16     1.0000 0.12489  0.28957  0.83921  Biso   1.000  Ne
  Ne17     1.0000 0.44771  0.93263  0.51598  Biso   1.000  Ne
  He17     1.0000 0.44178  0.93255  0.54870  Biso   1.000  He
  He18     1.0000 0.47012  0.92796  0.56893  Biso   1.000  He
  Ne18     1.0000 0.46064  0.92002  0.59980  Biso   1.000  Ne
  Ne19     1.0000 0.75469  0.08169  0.39732  Biso   1.000  Ne
  He19     1.0000 0.74825  0.09352  0.36651  Biso   1.000  He
  He20     1.0000 0.73021  0.07252  0.34871  Biso   1.000  He
  Ne20     1.0000 0.72574  0.08124  0.31892  Biso   1.000  Ne
  Ne21     1.0000 0.99922  0.04155  0.99259  Biso   1.000  Ne
  He21     1.0000 0.01229  0.05211  0.02112  Biso   1.000  He
  He22     1.0000 0.99993  0.03601  0.04670  Biso   1.000  He
  Ne22     1.0000 0.00970  0.04441  0.08023  Biso   1.000  Ne
  Ne23     1.0000 0.23438  0.19981  0.53492  Biso   1.000  Ne
  He23     1.0000 0.22293  0.17798  0.51262  Biso   1.000  He
  He24     1.0000 0.22688  0.14739  0.52199  Biso   1.000  He
  Ne24     1.0000 0.21931  0.12836  0.49656  Biso   1.000  Ne
  Ne25     1.0000 0.62079  0.79523  0.35651  Biso   1.000  Ne
  He25     1.0000 0.61166  0.76384  0.35290  Biso   1.000  He
  He26     1.0000 0.63142  0.74428  0.33244  Biso   1.000  He
  Ne26     1.0000 0.62137  0.71115  0.32373  Biso   1.000  Ne
  Ne27     1.0000 0.84808  0.87971  0.81186  Biso   1.000  Ne
  He27     1.0000 0.86139  0.87957  0.78018  Biso   1.000  He
  He28     1.0000 0.85148  0.85567  0.75946  Biso   1.000  He
  Ne28     1.0000 0.86664  0.85451  0.73077  Biso   1.000  Ne
  Ne29     1.0000 0.82566  0.38718  0.57763  Biso   1.000  Ne
  He29     1.0000 0.85575  0.38197  0.57159  Biso   1.000  He
  He30     1.0000 0.87754  0.40179  0.58930  Biso   1.000  He
  Ne30     1.0000 0.90886  0.39426  0.58236  Biso   1.000  Ne
  Ne31     1.0000 0.32925  0.80237  0.38256  Biso   1.000  Ne
  He31     1.0000 0.30032  0.81445  0.39309  Biso   1.000  He
  He32     1.0000 0.29153  0.80043  0.42233  Biso   1.000  He
  Ne32     1.0000 0.26535  0.81411  0.43796  Biso   1.000  Ne
  Ne33     1.0000 0.12021  0.50790  0.53762  Biso   1.000  Ne
  He33     1.0000 0.10062  0.53157  0.52477  Biso   1.000  He
  He34     1.0000 0.09905  0.56054  0.54247  Biso   1.000  He
  Ne34     1.0000 0.07730  0.58171  0.52889  Biso   1.000  Ne
  Ne35     1.0000 0.75587  0.58187  0.92306  Biso   1.000  Ne
  He35     1.0000 0.75182  0.61308  0.92077  Biso   1.000  He
  He36     1.0000 0.72561  0.62057  0.90184  Biso   1.000  He
  Ne36     1.0000 0.71698  0.65186  0.89704  Biso   1.000  Ne
  Ne37     1.0000 0.59390  0.82969  0.66361  Biso   1.000  Ne
  He37     1.0000 0.62310  0.84086  0.65973  Biso   1.000  He
  He38     1.0000 0.62718  0.87002  0.67414  Biso   1.000  He
  Ne38     1.0000 0.65513  0.88856  0.66722  Biso   1.000  Ne
  Ne39     1.0000 0.83739  0.05334  0.77349  Biso   1.000  Ne
  He39     1.0000 0.83801  0.04223  0.74227  Biso   1.000  He
  He40     1.0000 0.80987  0.03270  0.72952  Biso   1.000  He
  Ne40     1.0000 0.81466  0.02428  0.69679  Biso   1.000  Ne
  Ne41     1.0000 0.92602  0.22983  0.82755  Biso   1.000  Ne
  He41     1.0000 0.92381  0.20200  0.80976  Biso   1.000  He
  He42     1.0000 0.95108  0.18564  0.79787  Biso   1.000  He
  Ne42     1.0000 0.95950  0.15870  0.81449  Biso   1.000  Ne
  Ne43     1.0000 0.64164  0.87592  0.42648  Biso   1.000  Ne
  He43     1.0000 0.67028  0.85953  0.41909  Biso   1.000  He
  He44     1.0000 0.66792  0.82454  0.41315  Biso   1.000  He
  Ne44     1.0000 0.69469  0.80630  0.41181  Biso   1.000  Ne
  Ne45     1.0000 0.40143  0.16479  0.41722  Biso   1.000  Ne
  He45     1.0000 0.38303  0.14019  0.40457  Biso   1.000  He
  He46     1.0000 0.37654  0.11394  0.42318  Biso   1.000  He
  Ne46     1.0000 0.35715  0.08992  0.41140  Biso   1.000  Ne
  Ne47     1.0000 0.09704  0.89419  0.71962  Biso   1.000  Ne
  He47     1.0000 0.11155  0.89841  0.75165  Biso   1.000  He
  He48     1.0000 0.10510  0.92693  0.76937  Biso   1.000  He
  Ne48     1.0000 0.12187  0.92493  0.79770  Biso   1.000  Ne
  Ne49     1.0000 0.82973  0.30389  0.93357  Biso   1.000  Ne
  He49     1.0000 0.80506  0.28594  0.91868  Biso   1.000  He
  He50     1.0000 0.77722  0.28413  0.93636  Biso   1.000  He
  Ne50     1.0000 0.75440  0.26605  0.92089  Biso   1.000  Ne
  Ne51     1.0000 0.32275  0.30702  0.23679  Biso   1.000  Ne
  He51     1.0000 0.33543  0.31144  0.20476  Biso   1.000  He
  He52     1.0000 0.36929  0.30963  0.20601  Biso   1.000  He
  Ne52     1.0000 0.38219  0.29740  0.17984  Biso   1.000  Ne
  Ne53     1.0000 0.06236  0.49334  0.21066  Biso   1.000  Ne
  He53     1.0000 0.09156  0.47585  0.21516  Biso   1.000  He
  He54     1.0000 0.11826  0.48902  0.20224  Biso   1.000  He
  Ne54     1.0000 0.14455  0.46703  0.20012  Biso   1.000  Ne
  Ne55     1.0000 0.25114  0.91644  0.92509  Biso   1.000  Ne
  He55     1.0000 0.23397  0.91697  0.89526  Biso   1.000  He
  He56     1.0000 0.20382  0.93323  0.89780  Biso   1.000  He
  Ne56     1.0000 0.18320  0.93155  0.87238  Biso   1.000  Ne
  Ne57     1.0000 0.44392  0.25518  0.82141  Biso   1.000  Ne
  He57     1.0000 0.45115  0.26884  0.79331  Biso   1.000  He
  He58     1.0000 0.42933  0.26319  0.76702  Biso   1.000  He
  Ne58     1.0000 0.43981  0.27927  0.73937  Biso   1.000  Ne
  Ne59     1.0000 0.12263  0.56072  0.75645  Biso   1.000  Ne
  He59     1.0000 0.09257  0.54799  0.75487  Biso   1.000  He
  He60     1.0000 0.07982  0.53703  0.78417  Biso   1.000  He
  Ne60     1.0000 0.04939  0.52270  0.77953  Biso   1.000  Ne
  Ne61     1.0000 0.12716  0.33997  0.43789  Biso   1.000  Ne
  He61     1.0000 0.14326  0.33159  0.41146  Biso   1.000  He
  He62     1.0000 0.12403  0.31876  0.38734  Biso   1.000  He
  Ne62     1.0000 0.13529  0.31323  0.35785  Biso   1.000  Ne
  Ne63     1.0000 0.96730  0.43016  0.41613  Biso   1.000  Ne
  He63     1.0000 0.94962  0.40207  0.41400  Biso   1.000  He
  He64     1.0000 0.96615  0.37588  0.42532  Biso   1.000  He
  Ne64     1.0000 0.94797  0.34796  0.42895  Biso   1.000  Ne
  Ne65     1.0000 0.97199  0.31678  0.63991  Biso   1.000  Ne
  He65     1.0000 0.96781  0.30237  0.60967  Biso   1.000  He
  He66     1.0000 0.93575  0.28977  0.60960  Biso   1.000  He
  Ne66     1.0000 0.92749  0.27608  0.58049  Biso   1.000  Ne
  Ne67     1.0000 0.63402  0.10454  0.30900  Biso   1.000  Ne
  He67     1.0000 0.63650  0.07903  0.32851  Biso   1.000  He
  He68     1.0000 0.63270  0.08264  0.36161  Biso   1.000  He
  Ne68     1.0000 0.63240  0.05169  0.37498  Biso   1.000  Ne
  Ne69     1.0000 0.13864  0.81531  0.21213  Biso   1.000  Ne
  He69     1.0000 0.13006  0.84578  0.21605  Biso   1.000  He
  He70     1.0000 0.13717  0.86321  0.18824  Biso   1.000  He
  Ne70     1.0000 0.16198  0.88210  0.18770  Biso   1.000  Ne
  Ne71     1.0000 0.05241  0.28580  0.98087  Biso   1.000  Ne
  He71     1.0000 0.02102  0.28566  0.98942  Biso   1.000  He
  He72     1.0000 0.00133  0.25948  0.97903  Biso   1.000  He
  Ne72     1.0000 0.96966  0.26107  0.99074  Biso   1.000  Ne
  Ne73     1.0000 0.32074  0.21960  0.90644  Biso   1.000  Ne
  He73     1.0000 0.34098  0.24543  0.91204  Biso   1.000  He
  He74     1.0000 0.35669  0.25669  0.88608  Biso   1.000  He
  Ne74     1.0000 0.37261  0.28402  0.89449  Biso   1.000  Ne
  Ne75     1.0000 0.48543  0.76002  0.18596  Biso   1.000  Ne
  He75     1.0000 0.50983  0.76905  0.16655  Biso   1.000  He
  He76     1.0000 0.50139  0.76771  0.13449  Biso   1.000  He
  Ne76     1.0000 0.52194  0.78093  0.11076  Biso   1.000  Ne
  Ne77     1.0000 0.70980  0.39378  0.86114  Biso   1.000  Ne
  He77     1.0000 0.70583  0.38106  0.89178  Biso   1.000  He
  He78     1.0000 0.72603  0.35518  0.90062  Biso   1.000  He
  Ne78     1.0000 0.72247  0.34519  0.93243  Biso   1.000  Ne
  Ne79     1.0000 0.66307  0.30173  0.70163  Biso   1.000  Ne
  He79     1.0000 0.66262  0.26800  0.69070  Biso   1.000  He
  He80     1.0000 0.64287  0.24740  0.70441  Biso   1.000  He
  Ne80     1.0000 0.64773  0.21684  0.69359  Biso   1.000  Ne
  Ne81     1.0000 0.17799  0.67453  0.22641  Biso   1.000  Ne
  He81     1.0000 0.17521  0.69135  0.25461  Biso   1.000  He
  He82     1.0000 0.15285  0.68027  0.27464  Biso   1.000  He
  Ne82     1.0000 0.15049  0.69771  0.30419  Biso   1.000  Ne
  Ne83     1.0000 0.73897  0.32848  0.58309  Biso   1.000  Ne
  He83     1.0000 0.76790  0.31099  0.58572  Biso   1.000  He
  He84     1.0000 0.76602  0.27876  0.59446  Biso   1.000  He
  Ne84     1.0000 0.79388  0.26038  0.58760  Biso   1.000  Ne
  Ne85     1.0000 0.14602  0.61500  0.16076  Biso   1.000  Ne
  He85     1.0000 0.12580  0.58962  0.15311  Biso   1.000  He
  He86     1.0000 0.14370  0.56304  0.14191  Biso   1.000  He
  Ne86     1.0000 0.12727  0.53662  0.12996  Biso   1.000  Ne
  Ne87     1.0000 0.34515  0.04423  0.07904  Biso   1.000  Ne
  He87     1.0000 0.34046  0.03643  0.04848  Biso   1.000  He
  He88     1.0000 0.32677  0.00560  0.04409  Biso   1.000  He
  Ne88     1.0000 0.32149  0.99689  0.01193  Biso   1.000  Ne
  Ne89     1.0000 0.34623  0.53556  0.41521  Biso   1.000  Ne
  He89     1.0000 0.32342  0.55925  0.42371  Biso   1.000  He
  He90     1.0000 0.29249  0.54718  0.41058  Biso   1.000  He
  Ne90     1.0000 0.26823  0.56778  0.41034  Biso   1.000  Ne
  Ne91     1.0000 0.10640  0.09117  0.95109  Biso   1.000  Ne
  He91     1.0000 0.13033  0.11159  0.94035  Biso   1.000  He
  He92     1.0000 0.12334  0.12319  0.90955  Biso   1.000  He
  Ne92     1.0000 0.14736  0.14195  0.89858  Biso   1.000  Ne
  Ne93     1.0000 0.20839  0.85206  0.11366  Biso   1.000  Ne
  He93     1.0000 0.17745  0.86040  0.10438  Biso   1.000  He
  He94     1.0000 0.15446  0.83854  0.11083  Biso   1.000  He
  Ne94     1.0000 0.12499  0.84893  0.09591  Biso   1.000  Ne
  Ne95     1.0000 0.99571  0.89885  0.71242  Biso   1.000  Ne
  He95     1.0000 0.96226  0.90115  0.70248  Biso   1.000  He
  He96     1.0000 0.94568  0.93046  0.70545  Biso   1.000  He
  Ne96     1.0000 0.92446  0.93109  0.73242  Biso   1.000  Ne
  Ne97     1.0000 0.11770  0.94701  0.91691  Biso   1.000  Ne
  He97     1.0000 0.09978  0.93599  0.94246  Biso   1.000  He
  He98     1.0000 0.06662  0.93283  0.93604  Biso   1.000  He
  Ne98     1.0000 0.05208  0.91378  0.95667  Biso   1.000  Ne
  Ne99     1.0000 0.93554  0.91769  0.86088  Biso   1.000  Ne
  He99     1.0000 0.93886  0.92191  0.89108  Biso   1.000  He
  He100    1.0000 0.94385  0.89191  0.90679  Biso   1.000  He
  Ne100    1.0000 0.94520  0.89090  0.93913  Biso   1.000  Ne
  Ne101    1.0000 0.89243  0.82612  0.90340  Biso   1.000  Ne
  He101    1.0000 0.86019  0.83816  0.90255  Biso   1.000  He
  He102    1.0000 0.85607  0.87010  0.91486  Biso   1.000  He
  Ne102    1.0000 0.82652  0.88351  0.90974  Biso   1.000  Ne
  Ne103    1.0000 0.17348  0.42064  0.58714  Biso   1.000  Ne
  He103    1.0000 0.14091  0.41264  0.59181  Biso   1.000  He
  He104    1.0000 0.11926  0.43684  0.59186  Biso   1.000  He
  Ne104    1.0000 0.08878  0.42623  0.60072  Biso   1.000  Ne
  Ne105    1.0000 0.95081  0.55555  0.46393  Biso   1.000  Ne
  He105    1.0000 0.97084  0.55291  0.48621  Biso   1.000  He
  He106    1.0000 0.98749  0.52306  0.48550  Biso   1.000  He
  Ne106    1.0000 0.00581  0.51825  0.51228  Biso   1.000  Ne
  Ne107    1.0000 0.83934  0.89854  0.10647  Biso   1.000  Ne
  He107    1.0000 0.83807  0.87164  0.08637  Biso   1.000  He
  He108    1.0000 0.83305  0.84380  0.10302  Biso   1.000  He
  Ne108    1.0000 0.83672  0.81477  0.08526  Biso   1.000  Ne
  Ne109    1.0000 0.80119  0.07819  0.24457  Biso   1.000  Ne
  He109    1.0000 0.83431  0.07402  0.23524  Biso   1.000  He
  He110    1.0000 0.83668  0.07649  0.20224  Biso   1.000  He
  Ne110    1.0000 0.86678  0.06912  0.19194  Biso   1.000  Ne
  Ne111    1.0000 0.19445  0.70092  0.57890  Biso   1.000  Ne
  He111    1.0000 0.21231  0.72176  0.59636  Biso   1.000  He
  He112    1.0000 0.22367  0.74471  0.57742  Biso   1.000  He
  Ne112    1.0000 0.23664  0.77094  0.59419  Biso   1.000  Ne
  Ne113    1.0000 0.45425  0.27983  0.51879  Biso   1.000  Ne
  He113    1.0000 0.46306  0.28474  0.48792  Biso   1.000  He
  He114    1.0000 0.49547  0.28697  0.48191  Biso   1.000  He
  Ne114    1.0000 0.50287  0.28675  0.44841  Biso   1.000  Ne
  Ne115    1.0000 0.95534  0.87373  0.21447  Biso   1.000  Ne
  He115    1.0000 0.95672  0.84294  0.22806  Biso   1.000  He
  He116    1.0000 0.97580  0.82024  0.21031  Biso   1.000  He
  Ne116    1.0000 0.95808  0.79946  0.18810  Biso   1.000  Ne
  Ne117    1.0000 0.94595  0.41389  0.73247  Biso   1.000  Ne
  He117    1.0000 0.95253  0.39260  0.70674  Biso   1.000  He
  He118    1.0000 0.95728  0.40870  0.67978  Biso   1.000  He
  Ne118    1.0000 0.96648  0.39107  0.65216  Biso   1.000  Ne
  Ne119    1.0000 0.06016  0.65387  0.16764  Biso   1.000  Ne
  He119    1.0000 0.08064  0.67794  0.17755  Biso   1.000  He
  He120    1.0000 0.07283  0.70707  0.16539  Biso   1.000  He
  Ne120    1.0000 0.09375  0.73120  0.17608  Biso   1.000  Ne
  Ne121    1.0000 0.78494  0.38167  0.13913  Biso   1.000  Ne
  He121    1.0000 0.80758  0.37677  0.11282  Biso   1.000  He
  He122    1.0000 0.79145  0.38300  0.08470  Biso   1.000  He
  Ne122    1.0000 0.81139  0.38032  0.05880  Biso   1.000  Ne
  Ne123    1.0000 0.47100  0.38471  0.23809  Biso   1.000  Ne
  He123    1.0000 0.46131  0.36509  0.21051  Biso   1.000  He
  He124    1.0000 0.46161  0.37822  0.18158  Biso   1.000  He
  Ne124    1.0000 0.45658  0.35841  0.15762  Biso   1.000  Ne
  Ne125    1.0000 0.23470  0.03232  0.30141  Biso   1.000  Ne
  He125    1.0000 0.22305  0.05041  0.27567  Biso   1.000  He
  He126    1.0000 0.24448  0.07034  0.26221  Biso   1.000  He
  Ne126    1.0000 0.22721  0.08549  0.23732  Biso   1.000  Ne
  Ne127    1.0000 0.35207  0.41559  0.80644  Biso   1.000  Ne
  He127    1.0000 0.34794  0.40183  0.83576  Biso   1.000  He
  He128    1.0000 0.36337  0.37195  0.83869  Biso   1.000  He
  Ne128    1.0000 0.36327  0.35912  0.86843  Biso   1.000  Ne
  Ne129    1.0000 0.65217  0.32220  0.11697  Biso   1.000  Ne
  He129    1.0000 0.63380  0.29646  0.11323  Biso   1.000  He
  He130    1.0000 0.62417  0.28932  0.08304  Biso   1.000  He
  Ne130    1.0000 0.60254  0.26507  0.07741  Biso   1.000  Ne
  Ne131    1.0000 0.69614  0.89373  0.57374  Biso   1.000  Ne
  He131    1.0000 0.69611  0.86046  0.57628  Biso   1.000  He
  He132    1.0000 0.69198  0.84921  0.60744  Biso   1.000  He
  Ne132    1.0000 0.69660  0.81879  0.61094  Biso   1.000  Ne
  Ne133    1.0000 0.35093  0.63871  0.10756  Biso   1.000  Ne
  He133    1.0000 0.36799  0.61507  0.11751  Biso   1.000  He
  He134    1.0000 0.37490  0.59274  0.09494  Biso   1.000  He
  Ne134    1.0000 0.39250  0.56726  0.10614  Biso   1.000  Ne
  Ne135    1.0000 0.29223  0.04093  0.58395  Biso   1.000  Ne
  He135    1.0000 0.26049  0.04707  0.59786  Biso   1.000  He
  He136    1.0000 0.25671  0.07491  0.61329  Biso   1.000  He
  Ne136    1.0000 0.23073  0.07343  0.63436  Biso   1.000  Ne
  Ne137    1.0000 0.43876  0.30263  0.09104  Biso   1.000  Ne
  He137    1.0000 0.44841  0.32789  0.07081  Biso   1.000  He
  He138    1.0000 0.43360  0.35669  0.07988  Biso   1.000  He
  Ne138    1.0000 0.44708  0.38495  0.06619  Biso   1.000  Ne
  Ne139    1.0000 0.28006  0.64880  0.25913  Biso   1.000  Ne
  He139    1.0000 0.25746  0.66829  0.27673  Biso   1.000  He
  He140    1.0000 0.23501  0.65091  0.29547  Biso   1.000  He
  Ne140    1.0000 0.21713  0.66766  0.31686  Biso   1.000  Ne
  Ne141    1.0000 0.09285  0.41511  0.44958  Biso   1.000  Ne
  He141    1.0000 0.06673  0.42733  0.43513  Biso   1.000  He
  He142    1.0000 0.07455  0.45550  0.41830  Biso   1.000  He
  Ne142    1.0000 0.05086  0.47407  0.40837  Biso   1.000  Ne
  Ne143    1.0000 0.95783  0.11359  0.16517  Biso   1.000  Ne
  He143    1.0000 0.95577  0.14621  0.15401  Biso   1.000  He
  He144    1.0000 0.93896  0.14877  0.12698  Biso   1.000  He
  Ne144    1.0000 0.94481  0.17736  0.11326  Biso   1.000  Ne
  Ne145    1.0000 0.84469  0.55539  0.42495  Biso   1.000  Ne
  He145    1.0000 0.86683  0.55469  0.40315  Biso   1.000  He
  He146    1.0000 0.85809  0.55129  0.37217  Biso   1.000  He
  Ne146    1.0000 0.88447  0.54881  0.35021  Biso   1.000  Ne
  Ne147    1.0000 0.49797  0.51539  0.07242  Biso   1.000  Ne
  He147    1.0000 0.48309  0.53448  0.09706  Biso   1.000  He
  He148    1.0000 0.48583  0.56578  0.09503  Biso   1.000  He
  Ne148    1.0000 0.47452  0.58244  0.11894  Biso   1.000  Ne
  Ne149    1.0000 0.21459  0.57366  0.66570  Biso   1.000  Ne
  He149    1.0000 0.22317  0.60581  0.67338  Biso   1.000  He
  He150    1.0000 0.24196  0.61393  0.64843  Biso   1.000  He
  Ne150    1.0000 0.24918  0.64572  0.65072  Biso   1.000  Ne
  Ne151    1.0000 0.30060  0.34127  0.30577  Biso   1.000  Ne
  He151    1.0000 0.31321  0.34636  0.33585  Biso   1.000  He
  He152    1.0000 0.29371  0.36493  0.35590  Biso   1.000  He
  Ne152    1.0000 0.30610  0.37783  0.38453  Biso   1.000  Ne
  Ne153    1.0000 0.31302  0.30077  0.45012  Biso   1.000  Ne
  He153    1.0000 0.33243  0.28299  0.42689  Biso   1.000  He
  He154    1.0000 0.33418  0.30064  0.39952  Biso   1.000  He
  Ne154    1.0000 0.35839  0.28690  0.37920  Biso   1.000  Ne
  Ne155    1.0000 0.92659  0.05511  0.10993  Biso   1.000  Ne
  He155    1.0000 0.89541  0.06689  0.11205  Biso   1.000  He
  He156    1.0000 0.88609  0.09406  0.09451  Biso   1.000  He
  Ne156    1.0000 0.85296  0.09665  0.08577  Biso   1.000  Ne
  Ne157    1.0000 0.69997  0.56369  0.85495  Biso   1.000  Ne
  He157    1.0000 0.66804  0.55648  0.84944  Biso   1.000  He
  He158    1.0000 0.64800  0.58025  0.85644  Biso   1.000  He
  Ne158    1.0000 0.61962  0.56842  0.85396  Biso   1.000  Ne
  Ne159    1.0000 0.60878  0.85729  0.74898  Biso   1.000  Ne
  He159    1.0000 0.61510  0.82853  0.75970  Biso   1.000  He
  He160    1.0000 0.59775  0.80212  0.74476  Biso   1.000  He
  Ne160    1.0000 0.60616  0.77104  0.75646  Biso   1.000  Ne
  Ne161    1.0000 0.73276  0.05270  0.59322  Biso   1.000  Ne
  He161    1.0000 0.70797  0.07018  0.57712  Biso   1.000  He
  He162    1.0000 0.69754  0.09712  0.59339  Biso   1.000  He
  Ne162    1.0000 0.67749  0.11529  0.57787  Biso   1.000  Ne
  Ne163    1.0000 0.44275  0.59954  0.77868  Biso   1.000  Ne
  He163    1.0000 0.43799  0.57520  0.80086  Biso   1.000  He
  He164    1.0000 0.43991  0.58326  0.83475  Biso   1.000  He
  Ne164    1.0000 0.44114  0.55764  0.85680  Biso   1.000  Ne
  Ne165    1.0000 0.47384  0.56015  0.21370  Biso   1.000  Ne
  He165    1.0000 0.44228  0.56139  0.20624  Biso   1.000  He
  He166    1.0000 0.42328  0.55325  0.23202  Biso   1.000  He
  Ne166    1.0000 0.38919  0.55954  0.22741  Biso   1.000  Ne
  Ne167    1.0000 0.11196  0.23567  0.08621  Biso   1.000  Ne
  He167    1.0000 0.13645  0.21465  0.09225  Biso   1.000  He
  He168    1.0000 0.12775  0.18269  0.09334  Biso   1.000  He
  Ne168    1.0000 0.15170  0.16400  0.10216  Biso   1.000  Ne
  Ne169    1.0000 0.95313  0.05212  0.90941  Biso   1.000  Ne
  He169    1.0000 0.92533  0.06137  0.89313  Biso   1.000  He
  He170    1.0000 0.89953  0.06904  0.91368  Biso   1.000  He
  Ne170    1.0000 0.87221  0.07705  0.89732  Biso   1.000  Ne
  Ne171    1.0000 0.11698  0.11795  0.82377  Biso   1.000  Ne
  He171    1.0000 0.11821  0.09855  0.79653  Biso   1.000  He
  He172    1.0000 0.14765  0.08546  0.79365  Biso   1.000  He
  Ne172    1.0000 0.15026  0.07139  0.76512  Biso   1.000  Ne
  Ne173    1.0000 0.67914  0.88156  0.29834  Biso   1.000  Ne
  He173    1.0000 0.66280  0.89428  0.32541  Biso   1.000  He
  He174    1.0000 0.63195  0.88377  0.32161  Biso   1.000  He
  Ne174    1.0000 0.61108  0.88968  0.34913  Biso   1.000  Ne
  Ne175    1.0000 0.94716  0.73455  0.76547  Biso   1.000  Ne
  He175    1.0000 0.96680  0.72887  0.79312  Biso   1.000  He
  He176    1.0000 0.97319  0.69614  0.79445  Biso   1.000  He
  Ne176    1.0000 0.99114  0.69056  0.82146  Biso   1.000  Ne
  Ne177    1.0000 0.38476  0.63407  0.89795  Biso   1.000  Ne
  He177    1.0000 0.40036  0.60930  0.91470  Biso   1.000  He
  He178    1.0000 0.38131  0.58186  0.91919  Biso   1.000  He
  Ne178    1.0000 0.39583  0.55689  0.93495  Biso   1.000  Ne
  Ne179    1.0000 0.49056  0.95125  0.43721  Biso   1.000  Ne
  He179    1.0000 0.48417  0.91936  0.42674  Biso   1.000  He
  He180    1.0000 0.45491  0.90555  0.44168  Biso   1.000  He
  Ne180    1.0000 0.44648  0.87284  0.43274  Biso   1.000  Ne
  Ne181    1.0000 0.12548  0.66193  0.72029  Biso   1.000  Ne
  He181    1.0000 0.12629  0.66003  0.68689  Biso   1.000  He
  He182    1.0000 0.13151  0.69054  0.67496  Biso   1.000  He
  Ne182    1.0000 0.13178  0.68988  0.64158  Biso   1.000  Ne
  Ne183    1.0000 0.24001  0.35907  0.43253  Biso   1.000  Ne
  He183    1.0000 0.23628  0.34838  0.40270  Biso   1.000  He
  He184    1.0000 0.23395  0.31543  0.39754  Biso   1.000  He
  Ne184    1.0000 0.23397  0.30749  0.36705  Biso   1.000  Ne
  Ne185    1.0000 0.48020  0.02952  0.54401  Biso   1.000  Ne
  He185    1.0000 0.48786  0.05977  0.54838  Biso   1.000  He
  He186    1.0000 0.47307  0.07641  0.57489  Biso   1.000  He
  Ne186    1.0000 0.48224  0.10597  0.57453  Biso   1.000  Ne
  Ne187    1.0000 0.23118  0.49507  0.18067  Biso   1.000  Ne
  He187    1.0000 0.22595  0.52350  0.20026  Biso   1.000  He
  He188    1.0000 0.20127  0.51962  0.22007  Biso   1.000  He
  Ne188    1.0000 0.19285  0.54905  0.23731  Biso   1.000  Ne
  Ne189    1.0000 0.96172  0.64897  0.64287  Biso   1.000  Ne
  He189    1.0000 0.95649  0.62899  0.66883  Biso   1.000  He
  He190    1.0000 0.95328  0.59764  0.66126  Biso   1.000  He
  Ne190    1.0000 0.94260  0.58056  0.68837  Biso   1.000  Ne
  Ne191    1.0000 0.83693  0.74914  0.87366  Biso   1.000  Ne
  He191    1.0000 0.86921  0.75132  0.88133  Biso   1.000  He
  He192    1.0000 0.87988  0.73924  0.91052  Biso   1.000  He
  Ne192    1.0000 0.91092  0.73956  0.92122  Biso   1.000  Ne
  Ne193    1.0000 0.11409  0.06984  0.16737  Biso   1.000  Ne
  He193    1.0000 0.11990  0.10233  0.16493  Biso   1.000  He
  He194    1.0000 0.13979  0.11510  0.19107  Biso   1.000  He
  Ne194    1.0000 0.15739  0.14214  0.18096  Biso   1.000  Ne
  Ne195    1.0000 0.01190  0.42446  0.57623  Biso   1.000  Ne
  He195    1.0000 0.02035  0.40878  0.54724  Biso   1.000  He
  He196    1.0000 0.00022  0.42189  0.52583  Biso   1.000  He
  Ne196    1.0000 0.00522  0.41179  0.49436  Biso   1.000  Ne
  Ne197    1.0000 0.95271  0.58371  0.38056  Biso   1.000  Ne
  He197    1.0000 0.97231  0.57612  0.35526  Biso   1.000  He
  He198    1.0000 0.95630  0.58784  0.32772  Biso   1.000  He
  Ne198    1.0000 0.97046  0.58359  0.29728  Biso   1.000  Ne
  Ne199    1.0000 0.06737  0.01671  0.94808  Biso   1.000  Ne
  He199    1.0000 0.08024  0.00392  0.97271  Biso   1.000  He
  He200    1.0000 0.11364  0.01102  0.97443  Biso   1.000  He
  Ne200    1.0000 0.12225  0.00458  0.00759  Biso   1.000  Ne
  Ne201    1.0000 0.23950  0.32517  0.11358  Biso   1.000  Ne
  He201    1.0000 0.24306  0.35275  0.12950  Biso   1.000  He
  He202    1.0000 0.24610  0.37724  0.10901  Biso   1.000  He
  Ne202    1.0000 0.25506  0.40798  0.12491  Biso   1.000  Ne
  Ne203    1.0000 0.26890  0.92581  0.66539  Biso   1.000  Ne
  He203    1.0000 0.29456  0.90252  0.66468  Biso   1.000  He
  He204    1.0000 0.28555  0.87763  0.64154  Biso   1.000  He
  Ne204    1.0000 0.27481  0.85150  0.65843  Biso   1.000  Ne
  Ne205    1.0000 0.64323  0.33481  0.92478  Biso   1.000  Ne
  He205    1.0000 0.62169  0.31068  0.91924  Biso   1.000  He
  He206    1.0000 0.63075  0.28158  0.90495  Biso   1.000  He
  Ne206    1.0000 0.62711  0.28475  0.87260  Biso   1.000  Ne
  Ne207    1.0000 0.30567  0.19700  0.57154  Biso   1.000  Ne
  He207    1.0000 0.32915  0.17263  0.57746  Biso   1.000  He
  He208    1.0000 0.31833  0.14284  0.57414  Biso   1.000  He
  Ne208    1.0000 0.34066  0.11950  0.58202  Biso   1.000  Ne
  Ne209    1.0000 0.72205  0.28746  0.14805  Biso   1.000  Ne
  He209    1.0000 0.75313  0.28884  0.14288  Biso   1.000  He
  He210    1.0000 0.76404  0.29884  0.11441  Biso   1.000  He
  Ne210    1.0000 0.79842  0.29862  0.11026  Biso   1.000  Ne
  Ne211    1.0000 0.98783  0.90304  0.11136  Biso   1.000  Ne
  He211    1.0000 0.98868  0.91651  0.08271  Biso   1.000  He
  He212    1.0000 0.97676  0.94675  0.08037  Biso   1.000  He
  Ne212    1.0000 0.97204  0.95662  0.04812  Biso   1.000  Ne
  Ne213    1.0000 0.61405  0.41852  0.99932  Biso   1.000  Ne
  He213    1.0000 0.59185  0.40621  0.01985  Biso   1.000  He
  He214    1.0000 0.57881  0.42804  0.04032  Biso   1.000  He
  Ne214    1.0000 0.55437  0.41555  0.05960  Biso   1.000  Ne
  Ne215    1.0000 0.46587  0.64683  0.16093  Biso   1.000  Ne
  He215    1.0000 0.44521  0.66174  0.18233  Biso   1.000  He
  He216    1.0000 0.44325  0.69492  0.17736  Biso   1.000  He
  Ne216    1.0000 0.42510  0.71041  0.19836  Biso   1.000  Ne
  Ne217    1.0000 0.28587  0.10039  0.09061  Biso   1.000  Ne
  He217    1.0000 0.25930  0.10681  0.11162  Biso   1.000  He
  He218    1.0000 0.24195  0.08106  0.11895  Biso   1.000  He
  Ne218    1.0000 0.21959  0.08713  0.14011  Biso   1.000  Ne
  Ne219    1.0000 0.16261  0.26947  0.19874  Biso   1.000  Ne
  He219    1.0000 0.14777  0.24019  0.20034  Biso   1.000  He
  He220    1.0000 0.13396  0.23774  0.22844  Biso   1.000  He
  Ne220    1.0000 0.12048  0.20860  0.23205  Biso   1.000  Ne
  Ne221    1.0000 0.21921  0.83441  0.92409  Biso   1.000  Ne
  He221    1.0000 0.19158  0.85241  0.91431  Biso   1.000  He
  He222    1.0000 0.16174  0.83618  0.90836  Biso   1.000  He
  Ne222    1.0000 0.13700  0.85512  0.89537  Biso   1.000  Ne
  Ne223    1.0000 0.58939  0.99825  0.41627  Biso   1.000  Ne
  He223    1.0000 0.58475  0.02765  0.43210  Biso   1.000  He
  He224    1.0000 0.56193  0.02666  0.45555  Biso   1.000  He
  Ne224    1.0000 0.55506  0.05514  0.46846  Biso   1.000  Ne
  Ne225    1.0000 0.33406  0.91062  0.34719  Biso   1.000  Ne
  He225    1.0000 0.34029  0.91058  0.38018  Biso   1.000  He
  He226    1.0000 0.37031  0.91720  0.38897  Biso   1.000  He
  Ne226    1.0000 0.37397  0.92214  0.42141  Biso   1.000  Ne
  Ne227    1.0000 0.62204  0.05595  0.63071  Biso   1.000  Ne
  He227    1.0000 0.60031  0.05193  0.60646  Biso   1.000  He
  He228    1.0000 0.59790  0.07480  0.58753  Biso   1.000  He
  Ne228    1.0000 0.58005  0.06983  0.56331  Biso   1.000  Ne
  Ne229    1.0000 0.36854  0.06952  0.65159  Biso   1.000  Ne
  He229    1.0000 0.39792  0.06037  0.66699  Biso   1.000  He
  He230    1.0000 0.42084  0.08578  0.67421  Biso   1.000  He
  Ne230    1.0000 0.45058  0.07598  0.67914  Biso   1.000  Ne
  Ne231    1.0000 0.17772  0.65585  0.41533  Biso   1.000  Ne
  He231    1.0000 0.20602  0.64950  0.40385  Biso   1.000  He
  He232    1.0000 0.22340  0.67644  0.39448  Biso   1.000  He
  Ne232    1.0000 0.25827  0.67254  0.38875  Biso   1.000  Ne
  Ne233    1.0000 0.74944  0.19495  0.34185  Biso   1.000  Ne
  He233    1.0000 0.76144  0.19490  0.31197  Biso   1.000  He
  He234    1.0000 0.77609  0.16524  0.30028  Biso   1.000  He
  Ne234    1.0000 0.79283  0.17022  0.27494  Biso   1.000  Ne
  Ne235    1.0000 0.91227  0.79380  0.11387  Biso   1.000  Ne
  He235    1.0000 0.90210  0.82537  0.12305  Biso   1.000  He
  He236    1.0000 0.92690  0.84079  0.12910  Biso   1.000  He
  Ne236    1.0000 0.92232  0.86944  0.14499  Biso   1.000  Ne
  Ne237    1.0000 0.12563  0.51000  0.43535  Biso   1.000  Ne
  He237    1.0000 0.11376  0.53888  0.44505  Biso   1.000  He
  He238    1.0000 0.11179  0.56384  0.42369  Biso   1.000  He
  Ne238    1.0000 0.09501  0.59109  0.43560  Biso   1.000  Ne
  Ne239    1.0000 0.63197  0.55637  0.04037  Biso   1.000  Ne
  He239    1.0000 0.60473  0.54258  0.05508  Biso   1.000  He
  He240    1.0000 0.61087  0.51895  0.07442  Biso   1.000  He
  Ne240    1.0000 0.58502  0.50651  0.08858  Biso   1.000  Ne
  Ne241    1.0000 0.77209  0.58535  0.75948  Biso   1.000  Ne
  He241    1.0000 0.74233  0.58575  0.76852  Biso   1.000  He
  He242    1.0000 0.72495  0.56428  0.75126  Biso   1.000  He
  Ne242    1.0000 0.69333  0.56015  0.76127  Biso   1.000  Ne
  Ne243    1.0000 0.65403  0.31763  0.80130  Biso   1.000  Ne
  He243    1.0000 0.63983  0.34491  0.81704  Biso   1.000  He
  He244    1.0000 0.63764  0.37227  0.79918  Biso   1.000  He
  Ne244    1.0000 0.62327  0.39976  0.81275  Biso   1.000  Ne
  Ne245    1.0000 0.38494  0.72251  0.08793  Biso   1.000  Ne
  He245    1.0000 0.40796  0.70387  0.07784  Biso   1.000  He
  He246    1.0000 0.43486  0.71079  0.09397  Biso   1.000  He
  Ne246    1.0000 0.45999  0.69452  0.08474  Biso   1.000  Ne
  Ne247    1.0000 0.87663  0.40858  0.67256  Biso   1.000  Ne
  He247    1.0000 0.84642  0.39719  0.66312  Biso   1.000  He
  He248    1.0000 0.82092  0.41783  0.66830  Biso   1.000  He
  Ne248    1.0000 0.79109  0.40707  0.65648  Biso   1.000  Ne
  Ne249    1.0000 0.60001  0.27957  0.63710  Biso   1.000  Ne
  He249    1.0000 0.60764  0.27206  0.60573  Biso   1.000  He
  He250    1.0000 0.61710  0.23947  0.60027  Biso   1.000  He
  Ne250    1.0000 0.62341  0.23185  0.56804  Biso   1.000  Ne
  Ne251    1.0000 0.61015  0.95948  0.56825  Biso   1.000  Ne
  He251    1.0000 0.59465  0.93094  0.55978  Biso   1.000  He
  He252    1.0000 0.61213  0.90485  0.56749  Biso   1.000  He
  Ne252    1.0000 0.59257  0.87956  0.56699  Biso   1.000  Ne
  Ne253    1.0000 0.38277  0.87713  0.19366  Biso   1.000  Ne
  He253    1.0000 0.35893  0.90176  0.20266  Biso   1.000  He
  He254    1.0000 0.35794  0.90834  0.23697  Biso   1.000  He
  Ne254    1.0000 0.33177  0.93044  0.24406  Biso   1.000  Ne
  Ne255    1.0000 0.41292  0.70484  0.39899  Biso   1.000  Ne
  He255    1.0000 0.41128  0.73765  0.40312  Biso   1.000  He
  He256    1.0000 0.43579  0.74672  0.42097  Biso   1.000  He
  Ne256    1.0000 0.43724  0.78019  0.42472  Biso   1.000  Ne
  Ne257    1.0000 0.35099  0.82124  0.59988  Biso   1.000  Ne
  He257    1.0000 0.34109  0.84900  0.58488  Biso   1.000  He
  He258    1.0000 0.35903  0.87568  0.59000  Biso   1.000  He
  Ne258    1.0000 0.34649  0.90380  0.58025  Biso   1.000  Ne
  Ne259    1.0000 0.47862  0.11624  0.38231  Biso   1.000  Ne
  He259    1.0000 0.46177  0.09470  0.40141  Biso   1.000  He
  He260    1.0000 0.46676  0.06316  0.39355  Biso   1.000  He
  Ne260    1.0000 0.45271  0.04076  0.41346  Biso   1.000  Ne
  Ne261    1.0000 0.45362  0.84979  0.35258  Biso   1.000  Ne
  He261    1.0000 0.43942  0.87142  0.33527  Biso   1.000  He
  He262    1.0000 0.46343  0.89506  0.32859  Biso   1.000  He
  Ne262    1.0000 0.45406  0.91903  0.30730  Biso   1.000  Ne
  Ne263    1.0000 0.85645  0.32821  0.32470  Biso   1.000  Ne
  He263    1.0000 0.85712  0.34362  0.35633  Biso   1.000  He
  He264    1.0000 0.87145  0.37276  0.35567  Biso   1.000  He
  Ne264    1.0000 0.87643  0.39202  0.38117  Biso   1.000  Ne
  Ne265    1.0000 0.45004  0.85092  0.64071  Biso   1.000  Ne
  He265    1.0000 0.43322  0.87367  0.66066  Biso   1.000  He
  He266    1.0000 0.44969  0.87823  0.68851  Biso   1.000  He
  Ne266    1.0000 0.44513  0.90438  0.70829  Biso   1.000  Ne
  Ne267    1.0000 0.42151  0.67197  0.82820  Biso   1.000  Ne
  He267    1.0000 0.43157  0.69735  0.81083  Biso   1.000  He
  He268    1.0000 0.43763  0.68787  0.77791  Biso   1.000  He
  Ne268    1.0000 0.45253  0.71140  0.75964  Biso   1.000  Ne
  Ne269    1.0000 0.48659  0.57626  0.92590  Biso   1.000  Ne
  He269    1.0000 0.48810  0.55277  0.95178  Biso   1.000  He
  He270    1.0000 0.46483  0.55241  0.97480  Biso   1.000  He
  Ne270    1.0000 0.46505  0.52589  0.99374  Biso   1.000  Ne
  Ne271    1.0000 0.14772  0.79564  0.65637  Biso   1.000  Ne
  He271    1.0000 0.13517  0.79241  0.62638  Biso   1.000  He
  He272    1.0000 0.14227  0.81749  0.60797  Biso   1.000  He
  Ne272    1.0000 0.13085  0.81524  0.57676  Biso   1.000  Ne
  Ne273    1.0000 0.36573  0.39765  0.15186  Biso   1.000  Ne
  He273    1.0000 0.34725  0.37509  0.13517  Biso   1.000  He
  He274    1.0000 0.35166  0.37349  0.10226  Biso   1.000  He
  Ne274    1.0000 0.33572  0.34527  0.09065  Biso   1.000  Ne
  Ne275    1.0000 0.61769  0.62967  0.91437  Biso   1.000  Ne
  He275    1.0000 0.63915  0.65221  0.92061  Biso   1.000  He
  He276    1.0000 0.62806  0.68316  0.91929  Biso   1.000  He
  Ne276    1.0000 0.65398  0.70483  0.92367  Biso   1.000  Ne
  Ne277    1.0000 0.46389  0.21876  0.39710  Biso   1.000  Ne
  He277    1.0000 0.44997  0.24242  0.37791  Biso   1.000  He
  He278    1.0000 0.46899  0.25459  0.35369  Biso   1.000  He
  Ne278    1.0000 0.45493  0.27896  0.33298  Biso   1.000  Ne
  Ne279    1.0000 0.66611  0.40020  0.07504  Biso   1.000  Ne
  He279    1.0000 0.66956  0.39215  0.10921  Biso   1.000  He
  He280    1.0000 0.69945  0.40169  0.12303  Biso   1.000  He
  Ne280    1.0000 0.69760  0.39122  0.15395  Biso   1.000  Ne
  Ne281    1.0000 0.27065  0.06835  0.93876  Biso   1.000  Ne
  He281    1.0000 0.26120  0.09908  0.92992  Biso   1.000  He
  He282    1.0000 0.23062  0.10563  0.93202  Biso   1.000  He
  Ne282    1.0000 0.22800  0.13840  0.93193  Biso   1.000  Ne
  Ne283    1.0000 0.18806  0.55788  0.40554  Biso   1.000  Ne
  He283    1.0000 0.18797  0.57329  0.37727  Biso   1.000  He
  He284    1.0000 0.16405  0.56137  0.35480  Biso   1.000  He
  Ne284    1.0000 0.16147  0.57574  0.32419  Biso   1.000  Ne
  Ne285    1.0000 0.46510  0.07491  0.28314  Biso   1.000  Ne
  He285    1.0000 0.44783  0.07661  0.31078  Biso   1.000  He
  He286    1.0000 0.41324  0.08396  0.30963  Biso   1.000  He
  Ne286    1.0000 0.39945  0.07909  0.33957  Biso   1.000  Ne
  Ne287    1.0000 0.11271  0.71848  0.39186  Biso   1.000  Ne
  He287    1.0000 0.14503  0.72378  0.38307  Biso   1.000  He
  He288    1.0000 0.16266  0.74703  0.40282  Biso   1.000  He
  Ne288    1.0000 0.19403  0.75223  0.38817  Biso   1.000  Ne
  Ne289    1.0000 0.40242  0.47344  0.43910  Biso   1.000  Ne
  He289    1.0000 0.38523  0.44595  0.44694  Biso   1.000  He
  He290    1.0000 0.35231  0.44330  0.43487  Biso   1.000  He
  Ne290    1.0000 0.33542  0.42236  0.45520  Biso   1.000  Ne
  Ne291    1.0000 0.49895  0.04148  0.83967  Biso   1.000  Ne
  He291    1.0000 0.51124  0.06375  0.81743  Biso   1.000  He
  He292    1.0000 0.50025  0.09702  0.81933  Biso   1.000  He
  Ne292    1.0000 0.51033  0.11450  0.79479  Biso   1.000  Ne
  Ne293    1.0000 0.46009  0.68694  0.93140  Biso   1.000  Ne
  He293    1.0000 0.45655  0.71858  0.91709  Biso   1.000  He
  He294    1.0000 0.45774  0.71953  0.88365  Biso   1.000  He
  Ne294    1.0000 0.45212  0.75125  0.87127  Biso   1.000  Ne
  Ne295    1.0000 0.23167  0.41947  0.79907  Biso   1.000  Ne
  He295    1.0000 0.20907  0.39519  0.80699  Biso   1.000  He
  He296    1.0000 0.20952  0.36549  0.78849  Biso   1.000  He
  Ne296    1.0000 0.18345  0.36166  0.76860  Biso   1.000  Ne
  Ne297    1.0000 0.50547  0.41935  0.95188  Biso   1.000  Ne
  He297    1.0000 0.52455  0.42216  0.92598  Biso   1.000  He
  He298    1.0000 0.55369  0.43895  0.92991  Biso   1.000  He
  Ne298    1.0000 0.55271  0.47036  0.92477  Biso   1.000  Ne
  Ne299    1.0000 0.96186  0.39959  0.30001  Biso   1.000  Ne
  He299    1.0000 0.96363  0.36692  0.30223  Biso   1.000  He
  He300    1.0000 0.95309  0.35581  0.33178  Biso   1.000  He
  Ne300    1.0000 0.95542  0.32124  0.33032  Biso   1.000  Ne
  Ne301    1.0000 0.81653  0.55493  0.21167  Biso   1.000  Ne
  He301    1.0000 0.78562  0.54842  0.22596  Biso   1.000  He
  He302    1.0000 0.76380  0.55952  0.20692  Biso   1.000  He
  Ne302    1.0000 0.73200  0.55126  0.21600  Biso   1.000  Ne
  Ne303    1.0000 0.47078  0.88202  0.21093  Biso   1.000  Ne
  He303    1.0000 0.47932  0.86640  0.23851  Biso   1.000  He
  He304    1.0000 0.47051  0.83428  0.23691  Biso   1.000  He
  Ne304    1.0000 0.47618  0.81726  0.26671  Biso   1.000  Ne
  Ne305    1.0000 0.95581  0.86510  0.77777  Biso   1.000  Ne
  He305    1.0000 0.95218  0.85109  0.80834  Biso   1.000  He
  He306    1.0000 0.93766  0.82004  0.80546  Biso   1.000  He
  Ne306    1.0000 0.93221  0.80469  0.83436  Biso   1.000  Ne
  Ne307    1.0000 0.70950  0.19999  0.59322  Biso   1.000  Ne
  He307    1.0000 0.74162  0.19258  0.58606  Biso   1.000  He
  He308    1.0000 0.74839  0.15957  0.59369  Biso   1.000  He
  Ne308    1.0000 0.77912  0.15102  0.59133  Biso   1.000  Ne
  Ne309    1.0000 0.24028  0.55614  0.32511  Biso   1.000  Ne
  He309    1.0000 0.27347  0.55144  0.31915  Biso   1.000  He
  He310    1.0000 0.28275  0.55553  0.28855  Biso   1.000  He
  Ne310    1.0000 0.31057  0.54494  0.28338  Biso   1.000  Ne
  Ne311    1.0000 0.88839  0.63208  0.41331  Biso   1.000  Ne
  He311    1.0000 0.91425  0.64739  0.42273  Biso   1.000  He
  He312    1.0000 0.92279  0.66844  0.40101  Biso   1.000  He
  Ne312    1.0000 0.95113  0.68540  0.40980  Biso   1.000  Ne
  Ne313    1.0000 0.17197  0.59023  0.59488  Biso   1.000  Ne
  He313    1.0000 0.18254  0.60981  0.56910  Biso   1.000  He
  He314    1.0000 0.21425  0.62042  0.57628  Biso   1.000  He
  Ne314    1.0000 0.23754  0.60320  0.55959  Biso   1.000  Ne
  Ne315    1.0000 0.32830  0.10979  0.17547  Biso   1.000  Ne
  He315    1.0000 0.35096  0.10160  0.20052  Biso   1.000  He
  He316    1.0000 0.36344  0.07156  0.19630  Biso   1.000  He
  Ne316    1.0000 0.38741  0.06040  0.22120  Biso   1.000  Ne
  Ne317    1.0000 0.61496  0.96209  0.48669  Biso   1.000  Ne
  He317    1.0000 0.59572  0.93534  0.48520  Biso   1.000  He
  He318    1.0000 0.58766  0.92547  0.45549  Biso   1.000  He
  Ne318    1.0000 0.56906  0.89603  0.45550  Biso   1.000  Ne
  Ne319    1.0000 0.63958  0.13396  0.65569  Biso   1.000  Ne
  He319    1.0000 0.66703  0.11858  0.66748  Biso   1.000  He
  He320    1.0000 0.69299  0.13442  0.66156  Biso   1.000  He
  Ne320    1.0000 0.72122  0.11780  0.67069  Biso   1.000  Ne
  Ne321    1.0000 0.64595  0.53754  0.94653  Biso   1.000  Ne
  He321    1.0000 0.61999  0.55638  0.95696  Biso   1.000  He
  He322    1.0000 0.58943  0.54424  0.95633  Biso   1.000  He
  Ne322    1.0000 0.56598  0.56729  0.95819  Biso   1.000  Ne
  Ne323    1.0000 0.84721  0.55790  0.62030  Biso   1.000  Ne
  He323    1.0000 0.86853  0.58006  0.61464  Biso   1.000  He
  He324    1.0000 0.89465  0.56717  0.59969  Biso   1.000  He
  Ne324    1.0000 0.91299  0.59212  0.59105  Biso   1.000  Ne
  Ne325    1.0000 0.23258  0.99045  0.49151  Biso   1.000  Ne
  He325    1.0000 0.25006  0.01850  0.49103  Biso   1.000  He
  He326    1.0000 0.25415  0.02772  0.46037  Biso   1.000  He
  Ne326    1.0000 0.26996  0.05650  0.45966  Biso   1.000  Ne
  Ne327    1.0000 0.27717  0.38005  0.59977  Biso   1.000  Ne
  He327    1.0000 0.25528  0.37838  0.62604  Biso   1.000  He
  He328    1.0000 0.23940  0.40555  0.63013  Biso   1.000  He
  Ne328    1.0000 0.22110  0.40390  0.65704  Biso   1.000  Ne
  Ne329    1.0000 0.12673  0.33973  0.66715  Biso   1.000  Ne
  He329    1.0000 0.14185  0.36756  0.68085  Biso   1.000  He
  He330    1.0000 0.13193  0.39694  0.66803  Biso   1.000  He
  Ne330    1.0000 0.14953  0.42080  0.68348  Biso   1.000  Ne
  Ne331    1.0000 0.25522  0.89904  0.21992  Biso   1.000  Ne
  He331    1.0000 0.25504  0.89795  0.18801  Biso   1.000  He
  He332    1.0000 0.24214  0.92514  0.17681  Biso   1.000  He
  Ne332    1.0000 0.24074  0.92744  0.14168  Biso   1.000  Ne
  Ne333    1.0000 0.08547  0.08526  0.03589  Biso   1.000  Ne
  He333    1.0000 0.11450  0.08962  0.05161  Biso   1.000  He
  He334    1.0000 0.12789  0.06339  0.06600  Biso   1.000  He
  Ne334    1.0000 0.15615  0.06835  0.08448  Biso   1.000  Ne
  Ne335    1.0000 0.47028  0.34599  0.90119  Biso   1.000  Ne
  He335    1.0000 0.46944  0.34862  0.86556  Biso   1.000  He
  He336    1.0000 0.45826  0.37759  0.85720  Biso   1.000  He
  Ne336    1.0000 0.45335  0.38239  0.82595  Biso   1.000  Ne
  Ne337    1.0000 0.13596  0.40115  0.36669  Biso   1.000  Ne
  He337    1.0000 0.12263  0.39065  0.34027  Biso   1.000  He
  He338    1.0000 0.14532  0.38544  0.31359  Biso   1.000  He
  Ne338    1.0000 0.13031  0.37824  0.28375  Biso   1.000  Ne
  Ne339    1.0000 0.66595  0.11942  0.42256  Biso   1.000  Ne
  He339    1.0000 0.65872  0.15137  0.42514  Biso   1.000  He
  He340    1.0000 0.63496  0.15728  0.40272  Biso   1.000  He
  Ne340    1.0000 0.62208  0.18741  0.40651  Biso   1.000  Ne
