data_image0
_cell_length_a       47.72
_cell_length_b       46.6087
_cell_length_c       46.5619
_cell_angle_alpha    90
_cell_angle_beta     90
_cell_angle_gamma    90

_symmetry_space_group_name_H-M    "P 1"
_symmetry_int_tables_number       1

loop_
  _symmetry_equiv_pos_as_xyz
  'x, y, z'

loop_
  _atom_site_label
  _atom_site_occupancy
  _atom_site_fract_x
  _atom_site_fract_y
  _atom_site_fract_z
  _atom_site_thermal_displace_type
  _atom_site_B_iso_or_equiv
  _atom_site_type_symbol
  Ne1      1.0000 0.30227  0.07528  0.99722  Biso   1.000  Ne
  He1      1.0000 0.27729  0.07884  0.97502  Biso   1.000  He
  He2      1.0000 0.26031  0.05093  0.96759  Biso   1.000  He
  Ne2      1.0000 0.23447  0.05589  0.94672  Biso   1.000  Ne
  Ne3      1.0000 0.59227  0.62709  0.87897  Biso   1.000  Ne
  He3      1.0000 0.61420  0.63871  0.90004  Biso   1.000  He
  He4      1.0000 0.60261  0.64068  0.93102  Biso   1.000  He
  Ne4      1.0000 0.62269  0.65466  0.95206  Biso   1.000  Ne
  Ne5      1.0000 0.64836  0.55875  0.85960  Biso   1.000  Ne
  He5      1.0000 0.66843  0.57887  0.87661  Biso   1.000  He
  He6      1.0000 0.69745  0.57088  0.87145  Biso   1.000  He
  Ne6      1.0000 0.71903  0.59252  0.88555  Biso   1.000  Ne
  Ne7      1.0000 0.71933  0.18281  0.97155  Biso   1.000  Ne
  He7      1.0000 0.70328  0.15844  0.98530  Biso   1.000  He
  He8      1.0000 0.67063  0.16470  0.98311  Biso   1.000  He
  Ne8      1.0000 0.65038  0.13736  0.99265  Biso   1.000  Ne
  Ne9      1.0000 0.44311  0.04489  0.28858  Biso   1.000  Ne
  He9      1.0000 0.41115  0.05348  0.29284  Biso   1.000  He
  He10     1.0000 0.38823  0.04265  0.26813  Biso   1.000  He
  Ne10     1.0000 0.38551  0.06107  0.24287  Biso   1.000  Ne
  Ne11     1.0000 0.88760  0.87745  0.11369  Biso   1.000  Ne
  He11     1.0000 0.91870  0.87604  0.12463  Biso   1.000  He
  He12     1.0000 0.93404  0.85286  0.10880  Biso   1.000  He
  Ne12     1.0000 0.96614  0.84701  0.11886  Biso   1.000  Ne
  Ne13     1.0000 0.77558  0.39498  0.91689  Biso   1.000  Ne
  He13     1.0000 0.75615  0.39882  0.94463  Biso   1.000  He
  He14     1.0000 0.72413  0.39391  0.94100  Biso   1.000  He
  Ne14     1.0000 0.71134  0.36369  0.94337  Biso   1.000  Ne
  Ne15     1.0000 0.37616  0.83336  0.61481  Biso   1.000  Ne
  He15     1.0000 0.34646  0.81748  0.61560  Biso   1.000  He
  He16     1.0000 0.35075  0.78373  0.61402  Biso   1.000  He
  Ne16     1.0000 0.32150  0.76881  0.61672  Biso   1.000  Ne
  Ne17     1.0000 0.45504  0.29556  0.82238  Biso   1.000  Ne
  He17     1.0000 0.43528  0.29088  0.84778  Biso   1.000  He
  He18     1.0000 0.41060  0.26832  0.84090  Biso   1.000  He
  Ne18     1.0000 0.38439  0.26648  0.86384  Biso   1.000  Ne
  Ne19     1.0000 0.46298  0.88885  0.44875  Biso   1.000  Ne
  He19     1.0000 0.48982  0.90293  0.46312  Biso   1.000  He
  He20     1.0000 0.50571  0.88324  0.48461  Biso   1.000  He
  Ne20     1.0000 0.52898  0.89654  0.50279  Biso   1.000  Ne
  Ne21     1.0000 0.72465  0.30715  0.88449  Biso   1.000  Ne
  He21     1.0000 0.72190  0.28079  0.90314  Biso   1.000  He
  He22     1.0000 0.70125  0.28517  0.92931  Biso   1.000  He
  Ne22     1.0000 0.69722  0.25689  0.94499  Biso   1.000  Ne
  Ne23     1.0000 0.11301  0.33217  0.69616  Biso   1.000  Ne
  He23     1.0000 0.12746  0.31078  0.71494  Biso   1.000  He
  He24     1.0000 0.13742  0.31877  0.74479  Biso   1.000  He
  Ne24     1.0000 0.15747  0.29644  0.75772  Biso   1.000  Ne
  Ne25     1.0000 0.59251  0.51821  0.95313  Biso   1.000  Ne
  He25     1.0000 0.61788  0.52955  0.96951  Biso   1.000  He
  He26     1.0000 0.64275  0.54129  0.95015  Biso   1.000  He
  Ne26     1.0000 0.66880  0.55419  0.96494  Biso   1.000  Ne
  Ne27     1.0000 0.71207  0.90991  0.90257  Biso   1.000  Ne
  He27     1.0000 0.74078  0.91042  0.88315  Biso   1.000  He
  He28     1.0000 0.76016  0.88238  0.88742  Biso   1.000  He
  Ne28     1.0000 0.79050  0.88260  0.86951  Biso   1.000  Ne
  Ne29     1.0000 0.39362  0.38160  0.92121  Biso   1.000  Ne
  He29     1.0000 0.41758  0.39130  0.90015  Biso   1.000  He
  He30     1.0000 0.43417  0.36599  0.88441  Biso   1.000  He
  Ne30     1.0000 0.45550  0.37641  0.86086  Biso   1.000  Ne
  Ne31     1.0000 0.44550  0.31680  0.21834  Biso   1.000  Ne
  He31     1.0000 0.41557  0.32632  0.20485  Biso   1.000  He
  He32     1.0000 0.40103  0.35497  0.21627  Biso   1.000  He
  Ne32     1.0000 0.37528  0.36597  0.19723  Biso   1.000  Ne
  Ne33     1.0000 0.65432  0.89325  0.79595  Biso   1.000  Ne
  He33     1.0000 0.67827  0.87853  0.81420  Biso   1.000  He
  He34     1.0000 0.68185  0.84892  0.80243  Biso   1.000  He
  Ne34     1.0000 0.70788  0.83286  0.81266  Biso   1.000  Ne
  Ne35     1.0000 0.58941  0.88520  0.30734  Biso   1.000  Ne
  He35     1.0000 0.61688  0.89947  0.31094  Biso   1.000  He
  He36     1.0000 0.64435  0.88117  0.31693  Biso   1.000  He
  Ne36     1.0000 0.66337  0.87491  0.28959  Biso   1.000  Ne
  Ne37     1.0000 0.22120  0.54783  0.79000  Biso   1.000  Ne
  He37     1.0000 0.22228  0.55168  0.75894  Biso   1.000  He
  He38     1.0000 0.22158  0.58457  0.74957  Biso   1.000  He
  Ne38     1.0000 0.21029  0.58640  0.71693  Biso   1.000  Ne
  Ne39     1.0000 0.33885  0.84297  0.85231  Biso   1.000  Ne
  He39     1.0000 0.33722  0.87586  0.85497  Biso   1.000  He
  He40     1.0000 0.31484  0.88276  0.87814  Biso   1.000  He
  Ne40     1.0000 0.30941  0.91610  0.88452  Biso   1.000  Ne
  Ne41     1.0000 0.61671  0.59435  0.10653  Biso   1.000  Ne
  He41     1.0000 0.63432  0.61774  0.12204  Biso   1.000  He
  He42     1.0000 0.65009  0.60338  0.14986  Biso   1.000  He
  Ne42     1.0000 0.67987  0.61763  0.15789  Biso   1.000  Ne
  Ne43     1.0000 0.08255  0.93158  0.95478  Biso   1.000  Ne
  He43     1.0000 0.08209  0.90328  0.93329  Biso   1.000  He
  He44     1.0000 0.08367  0.87400  0.95082  Biso   1.000  He
  Ne44     1.0000 0.08130  0.84394  0.93471  Biso   1.000  Ne
  Ne45     1.0000 0.80707  0.16448  0.63629  Biso   1.000  Ne
  He45     1.0000 0.78290  0.17940  0.61719  Biso   1.000  He
  He46     1.0000 0.75316  0.16701  0.61934  Biso   1.000  He
  Ne46     1.0000 0.73206  0.18676  0.60254  Biso   1.000  Ne
  Ne47     1.0000 0.25214  0.89000  0.62878  Biso   1.000  Ne
  He47     1.0000 0.26851  0.89847  0.65686  Biso   1.000  He
  He48     1.0000 0.30163  0.90403  0.65331  Biso   1.000  He
  Ne48     1.0000 0.32055  0.90849  0.68270  Biso   1.000  Ne
  Ne49     1.0000 0.12008  0.71020  0.76187  Biso   1.000  Ne
  He49     1.0000 0.10617  0.68053  0.76463  Biso   1.000  He
  He50     1.0000 0.12451  0.65807  0.75292  Biso   1.000  He
  Ne50     1.0000 0.10645  0.63100  0.76100  Biso   1.000  Ne
  Ne51     1.0000 0.24646  0.65997  0.89602  Biso   1.000  Ne
  He51     1.0000 0.26800  0.67929  0.88470  Biso   1.000  He
  He52     1.0000 0.25232  0.70068  0.86469  Biso   1.000  He
  Ne52     1.0000 0.26937  0.72516  0.85013  Biso   1.000  Ne
  Ne53     1.0000 0.77763  0.22380  0.40006  Biso   1.000  Ne
  He53     1.0000 0.76175  0.19572  0.40502  Biso   1.000  He
  He54     1.0000 0.77557  0.17363  0.42427  Biso   1.000  He
  Ne54     1.0000 0.75580  0.14646  0.42987  Biso   1.000  Ne
  Ne55     1.0000 0.08246  0.04219  0.27556  Biso   1.000  Ne
  He55     1.0000 0.08259  0.05389  0.24533  Biso   1.000  He
  He56     1.0000 0.09860  0.08301  0.23970  Biso   1.000  He
  Ne56     1.0000 0.09029  0.09647  0.21056  Biso   1.000  Ne
  Ne57     1.0000 0.39230  0.82151  0.92387  Biso   1.000  Ne
  He57     1.0000 0.41598  0.81466  0.94707  Biso   1.000  He
  He58     1.0000 0.40660  0.81912  0.97904  Biso   1.000  He
  Ne58     1.0000 0.43264  0.81951  0.99993  Biso   1.000  Ne
  Ne59     1.0000 0.35910  0.54344  0.20088  Biso   1.000  Ne
  He59     1.0000 0.35228  0.53749  0.23286  Biso   1.000  He
  He60     1.0000 0.32986  0.55550  0.25032  Biso   1.000  He
  Ne60     1.0000 0.33277  0.54995  0.28393  Biso   1.000  Ne
  Ne61     1.0000 0.71453  0.05076  0.68956  Biso   1.000  Ne
  He61     1.0000 0.71698  0.05890  0.65846  Biso   1.000  He
  He62     1.0000 0.73972  0.04324  0.64132  Biso   1.000  He
  Ne62     1.0000 0.73974  0.05287  0.60805  Biso   1.000  Ne
  Ne63     1.0000 0.38338  0.63188  0.21943  Biso   1.000  Ne
  He63     1.0000 0.41015  0.63118  0.19973  Biso   1.000  He
  He64     1.0000 0.42944  0.65767  0.20259  Biso   1.000  He
  Ne64     1.0000 0.45241  0.66060  0.17972  Biso   1.000  Ne
  Ne65     1.0000 0.36253  0.64681  0.52662  Biso   1.000  Ne
  He65     1.0000 0.35687  0.61539  0.54135  Biso   1.000  He
  He66     1.0000 0.34330  0.61751  0.57267  Biso   1.000  He
  Ne66     1.0000 0.33200  0.58790  0.58873  Biso   1.000  Ne
  Ne67     1.0000 0.94300  0.26305  0.69027  Biso   1.000  Ne
  He67     1.0000 0.94415  0.28316  0.71819  Biso   1.000  He
  He68     1.0000 0.92763  0.27211  0.74441  Biso   1.000  He
  Ne68     1.0000 0.91665  0.29606  0.76604  Biso   1.000  Ne
  Ne69     1.0000 0.78135  0.40113  0.12006  Biso   1.000  Ne
  He69     1.0000 0.76745  0.37123  0.12011  Biso   1.000  He
  He70     1.0000 0.78600  0.35295  0.10015  Biso   1.000  He
  Ne70     1.0000 0.77472  0.32357  0.09298  Biso   1.000  Ne
  Ne71     1.0000 0.94382  0.13935  0.82198  Biso   1.000  Ne
  He71     1.0000 0.94779  0.16830  0.80721  Biso   1.000  He
  He72     1.0000 0.93841  0.16663  0.77423  Biso   1.000  He
  Ne72     1.0000 0.94747  0.19232  0.75608  Biso   1.000  Ne
  Ne73     1.0000 0.23416  0.89926  0.94716  Biso   1.000  Ne
  He73     1.0000 0.22472  0.87666  0.92552  Biso   1.000  He
  He74     1.0000 0.20196  0.85559  0.93928  Biso   1.000  He
  Ne74     1.0000 0.18507  0.83728  0.91737  Biso   1.000  Ne
  Ne75     1.0000 0.68725  0.34928  0.20662  Biso   1.000  Ne
  He75     1.0000 0.66360  0.36874  0.19234  Biso   1.000  He
  He76     1.0000 0.63362  0.36110  0.20234  Biso   1.000  He
  Ne76     1.0000 0.60977  0.37360  0.18475  Biso   1.000  Ne
  Ne77     1.0000 0.60461  0.07520  0.34089  Biso   1.000  Ne
  He77     1.0000 0.62407  0.05293  0.33609  Biso   1.000  He
  He78     1.0000 0.65495  0.06265  0.33918  Biso   1.000  He
  Ne78     1.0000 0.67800  0.03912  0.33426  Biso   1.000  Ne
  Ne79     1.0000 0.53352  0.04357  0.55793  Biso   1.000  Ne
  He79     1.0000 0.50286  0.03788  0.56782  Biso   1.000  He
  He80     1.0000 0.49491  0.05882  0.59196  Biso   1.000  He
  Ne80     1.0000 0.46535  0.05382  0.60922  Biso   1.000  Ne
  Ne81     1.0000 0.90048  0.53342  0.43750  Biso   1.000  Ne
  He81     1.0000 0.87144  0.54764  0.42892  Biso   1.000  He
  He82     1.0000 0.84302  0.53717  0.44883  Biso   1.000  He
  Ne82     1.0000 0.81669  0.54903  0.43875  Biso   1.000  Ne
  Ne83     1.0000 0.41591  0.68292  0.73161  Biso   1.000  Ne
  He83     1.0000 0.39946  0.71432  0.73024  Biso   1.000  He
  He84     1.0000 0.42222  0.74057  0.73631  Biso   1.000  He
  Ne84     1.0000 0.40996  0.77309  0.73840  Biso   1.000  Ne
  Ne85     1.0000 0.79800  0.29542  0.36555  Biso   1.000  Ne
  He85     1.0000 0.79158  0.31824  0.34584  Biso   1.000  He
  He86     1.0000 0.77353  0.34137  0.36313  Biso   1.000  He
  Ne86     1.0000 0.75863  0.36163  0.34320  Biso   1.000  Ne
  Ne87     1.0000 0.10975  0.77239  0.17819  Biso   1.000  Ne
  He87     1.0000 0.11896  0.76666  0.14702  Biso   1.000  He
  He88     1.0000 0.11293  0.79096  0.12798  Biso   1.000  He
  Ne88     1.0000 0.12137  0.78778  0.09524  Biso   1.000  Ne
  Ne89     1.0000 0.32976  0.87906  0.00814  Biso   1.000  Ne
  He89     1.0000 0.33319  0.90669  0.02850  Biso   1.000  He
  He90     1.0000 0.33127  0.93566  0.01179  Biso   1.000  He
  Ne90     1.0000 0.33363  0.96235  0.03193  Biso   1.000  Ne
  Ne91     1.0000 0.91894  0.14373  0.22444  Biso   1.000  Ne
  He91     1.0000 0.93478  0.11340  0.22526  Biso   1.000  He
  He92     1.0000 0.91632  0.08803  0.21340  Biso   1.000  He
  Ne92     1.0000 0.92833  0.05652  0.21510  Biso   1.000  Ne
  Ne93     1.0000 0.93054  0.07129  0.96267  Biso   1.000  Ne
  He93     1.0000 0.93226  0.06438  0.92941  Biso   1.000  He
  He94     1.0000 0.95927  0.07357  0.91399  Biso   1.000  He
  Ne94     1.0000 0.95910  0.07796  0.88094  Biso   1.000  Ne
  Ne95     1.0000 0.89978  0.04366  0.15000  Biso   1.000  Ne
  He95     1.0000 0.92256  0.04181  0.12764  Biso   1.000  He
  He96     1.0000 0.93762  0.07080  0.11663  Biso   1.000  He
  Ne96     1.0000 0.96208  0.06299  0.09443  Biso   1.000  Ne
  Ne97     1.0000 0.18113  0.13166  0.21491  Biso   1.000  Ne
  He97     1.0000 0.17898  0.15382  0.23830  Biso   1.000  He
  He98     1.0000 0.19442  0.14734  0.26571  Biso   1.000  He
  Ne98     1.0000 0.18541  0.16833  0.29305  Biso   1.000  Ne
  Ne99     1.0000 0.23856  0.79157  0.63497  Biso   1.000  Ne
  He99     1.0000 0.24859  0.78213  0.66460  Biso   1.000  He
  He100    1.0000 0.25124  0.80702  0.68613  Biso   1.000  He
  Ne100    1.0000 0.25553  0.80033  0.71755  Biso   1.000  Ne
  Ne101    1.0000 0.10387  0.05523  0.81514  Biso   1.000  Ne
  He101    1.0000 0.12914  0.05202  0.83466  Biso   1.000  He
  He102    1.0000 0.12199  0.06259  0.86224  Biso   1.000  He
  Ne102    1.0000 0.13884  0.05242  0.88580  Biso   1.000  Ne
  Ne103    1.0000 0.34772  0.31472  0.66086  Biso   1.000  Ne
  He103    1.0000 0.32156  0.33139  0.64907  Biso   1.000  He
  He104    1.0000 0.32099  0.33685  0.61618  Biso   1.000  He
  Ne104    1.0000 0.30574  0.31649  0.59696  Biso   1.000  Ne
  Ne105    1.0000 0.89526  0.27328  0.00230  Biso   1.000  Ne
  He105    1.0000 0.86677  0.28737  0.01167  Biso   1.000  He
  He106    1.0000 0.85446  0.30315  0.98797  Biso   1.000  He
  Ne106    1.0000 0.82582  0.31666  0.99468  Biso   1.000  Ne
  Ne107    1.0000 0.43616  0.54156  0.20777  Biso   1.000  Ne
  He107    1.0000 0.42978  0.56253  0.23167  Biso   1.000  He
  He108    1.0000 0.42258  0.54831  0.25863  Biso   1.000  He
  Ne108    1.0000 0.42380  0.56879  0.28520  Biso   1.000  Ne
  Ne109    1.0000 0.26631  0.18250  0.28851  Biso   1.000  Ne
  He109    1.0000 0.26371  0.19446  0.25626  Biso   1.000  He
  He110    1.0000 0.29159  0.20013  0.23911  Biso   1.000  He
  Ne110    1.0000 0.28993  0.21649  0.20838  Biso   1.000  Ne
  Ne111    1.0000 0.46934  0.45660  0.06938  Biso   1.000  Ne
  He111    1.0000 0.46364  0.44048  0.09380  Biso   1.000  He
  He112    1.0000 0.45028  0.40942  0.09243  Biso   1.000  He
  Ne112    1.0000 0.44038  0.39521  0.12055  Biso   1.000  Ne
  Ne113    1.0000 0.67717  0.50454  0.55591  Biso   1.000  Ne
  He113    1.0000 0.68177  0.50931  0.58733  Biso   1.000  He
  He114    1.0000 0.66439  0.53015  0.60354  Biso   1.000  He
  Ne114    1.0000 0.66777  0.53187  0.63822  Biso   1.000  Ne
  Ne115    1.0000 0.18895  0.19881  0.37986  Biso   1.000  Ne
  He115    1.0000 0.21738  0.21004  0.38115  Biso   1.000  He
  He116    1.0000 0.22037  0.23752  0.40127  Biso   1.000  He
  Ne116    1.0000 0.25177  0.24731  0.40711  Biso   1.000  Ne
  Ne117    1.0000 0.12160  0.63715  0.44110  Biso   1.000  Ne
  He117    1.0000 0.10186  0.66353  0.45059  Biso   1.000  He
  He118    1.0000 0.10544  0.69255  0.43284  Biso   1.000  He
  Ne118    1.0000 0.09111  0.71520  0.44811  Biso   1.000  Ne
  Ne119    1.0000 0.58983  0.58710  0.81069  Biso   1.000  Ne
  He119    1.0000 0.58692  0.55512  0.80018  Biso   1.000  He
  He120    1.0000 0.56872  0.54970  0.77178  Biso   1.000  He
  Ne120    1.0000 0.56407  0.51746  0.76389  Biso   1.000  Ne
  Ne121    1.0000 0.91471  0.62039  0.44252  Biso   1.000  Ne
  He121    1.0000 0.92701  0.64968  0.43876  Biso   1.000  He
  He122    1.0000 0.92039  0.66882  0.46472  Biso   1.000  He
  Ne122    1.0000 0.94145  0.69517  0.46928  Biso   1.000  Ne
  Ne123    1.0000 0.64583  0.20194  0.61812  Biso   1.000  Ne
  He123    1.0000 0.65491  0.18814  0.64929  Biso   1.000  He
  He124    1.0000 0.67575  0.20649  0.66911  Biso   1.000  He
  Ne124    1.0000 0.67781  0.19169  0.69931  Biso   1.000  Ne
  Ne125    1.0000 0.96059  0.00459  0.73535  Biso   1.000  Ne
  He125    1.0000 0.94587  0.03318  0.74576  Biso   1.000  He
  He126    1.0000 0.94802  0.04183  0.77721  Biso   1.000  He
  Ne126    1.0000 0.93544  0.07093  0.78218  Biso   1.000  Ne
  Ne127    1.0000 0.96923  0.94269  0.66968  Biso   1.000  Ne
  He127    1.0000 0.97135  0.93797  0.70321  Biso   1.000  He
  He128    1.0000 0.00205  0.94306  0.71302  Biso   1.000  He
  Ne128    1.0000 0.00402  0.93879  0.74471  Biso   1.000  Ne
  Ne129    1.0000 0.91673  0.23776  0.84882  Biso   1.000  Ne
  He129    1.0000 0.90233  0.24879  0.87651  Biso   1.000  He
  He130    1.0000 0.90013  0.22936  0.90234  Biso   1.000  He
  Ne130    1.0000 0.88783  0.24391  0.93047  Biso   1.000  Ne
  Ne131    1.0000 0.09345  0.08067  0.13359  Biso   1.000  Ne
  He131    1.0000 0.10988  0.10635  0.11826  Biso   1.000  He
  He132    1.0000 0.10221  0.13598  0.13035  Biso   1.000  He
  Ne132    1.0000 0.12136  0.16067  0.12288  Biso   1.000  Ne
  Ne133    1.0000 0.36498  0.68948  0.46681  Biso   1.000  Ne
  He133    1.0000 0.39811  0.69925  0.46412  Biso   1.000  He
  He134    1.0000 0.41398  0.70323  0.49313  Biso   1.000  He
  Ne134    1.0000 0.44504  0.71018  0.48843  Biso   1.000  Ne
  Ne135    1.0000 0.06473  0.42726  0.44984  Biso   1.000  Ne
  He135    1.0000 0.07946  0.41228  0.47272  Biso   1.000  He
  He136    1.0000 0.05787  0.40393  0.49827  Biso   1.000  He
  Ne136    1.0000 0.07276  0.39059  0.52597  Biso   1.000  Ne
  Ne137    1.0000 0.86297  0.11278  0.57660  Biso   1.000  Ne
  He137    1.0000 0.88109  0.09908  0.60058  Biso   1.000  He
  He138    1.0000 0.91415  0.10040  0.59377  Biso   1.000  He
  Ne138    1.0000 0.93494  0.09287  0.61837  Biso   1.000  Ne
  Ne139    1.0000 0.70655  0.76223  0.36253  Biso   1.000  Ne
  He139    1.0000 0.71342  0.79500  0.37132  Biso   1.000  He
  He140    1.0000 0.69219  0.81631  0.36223  Biso   1.000  He
  Ne140    1.0000 0.70034  0.84835  0.36940  Biso   1.000  Ne
  Ne141    1.0000 0.28462  0.05165  0.10300  Biso   1.000  Ne
  He141    1.0000 0.30727  0.03510  0.12219  Biso   1.000  He
  He142    1.0000 0.29893  0.00465  0.12774  Biso   1.000  He
  Ne142    1.0000 0.31800  0.98849  0.14644  Biso   1.000  Ne
  Ne143    1.0000 0.92189  0.63762  0.73446  Biso   1.000  Ne
  He143    1.0000 0.94144  0.66100  0.72021  Biso   1.000  He
  He144    1.0000 0.92406  0.68726  0.71032  Biso   1.000  He
  Ne144    1.0000 0.94116  0.70921  0.69149  Biso   1.000  Ne
  Ne145    1.0000 0.72220  0.61970  0.44533  Biso   1.000  Ne
  He145    1.0000 0.69659  0.61610  0.46961  Biso   1.000  He
  He146    1.0000 0.70605  0.62050  0.50117  Biso   1.000  He
  Ne146    1.0000 0.68498  0.63576  0.52416  Biso   1.000  Ne
  Ne147    1.0000 0.42638  0.75816  0.62909  Biso   1.000  Ne
  He147    1.0000 0.42250  0.72403  0.62860  Biso   1.000  He
  He148    1.0000 0.39594  0.70983  0.61388  Biso   1.000  He
  Ne148    1.0000 0.39503  0.67577  0.61701  Biso   1.000  Ne
  Ne149    1.0000 0.44125  0.01978  0.81063  Biso   1.000  Ne
  He149    1.0000 0.40852  0.01819  0.80961  Biso   1.000  He
  He150    1.0000 0.39691  0.00344  0.83654  Biso   1.000  He
  Ne150    1.0000 0.36668  0.99312  0.83581  Biso   1.000  Ne
  Ne151    1.0000 0.00082  0.93060  0.99846  Biso   1.000  Ne
  He151    1.0000 0.97441  0.93663  0.97857  Biso   1.000  He
  He152    1.0000 0.96925  0.90945  0.95817  Biso   1.000  He
  Ne152    1.0000 0.94172  0.91381  0.94210  Biso   1.000  Ne
  Ne153    1.0000 0.48190  0.22186  0.47303  Biso   1.000  Ne
  He153    1.0000 0.48587  0.25051  0.49106  Biso   1.000  He
  He154    1.0000 0.46910  0.25224  0.52031  Biso   1.000  He
  Ne154    1.0000 0.47393  0.28183  0.53202  Biso   1.000  Ne
  Ne155    1.0000 0.40470  0.25348  0.77007  Biso   1.000  Ne
  He155    1.0000 0.42161  0.22828  0.75678  Biso   1.000  He
  He156    1.0000 0.44801  0.23526  0.73762  Biso   1.000  He
  Ne156    1.0000 0.46105  0.20989  0.72547  Biso   1.000  Ne
  Ne157    1.0000 0.17767  0.03954  0.11816  Biso   1.000  Ne
  He157    1.0000 0.20148  0.04893  0.13691  Biso   1.000  He
  He158    1.0000 0.19018  0.05170  0.16940  Biso   1.000  He
  Ne158    1.0000 0.21287  0.05926  0.19332  Biso   1.000  Ne
  Ne159    1.0000 0.61935  0.62459  0.26046  Biso   1.000  Ne
  He159    1.0000 0.62044  0.62930  0.22718  Biso   1.000  He
  He160    1.0000 0.60124  0.65232  0.21438  Biso   1.000  He
  Ne160    1.0000 0.60453  0.65690  0.18101  Biso   1.000  Ne
  Ne161    1.0000 0.28242  0.30327  0.11086  Biso   1.000  Ne
  He161    1.0000 0.25628  0.30870  0.09076  Biso   1.000  He
  He162    1.0000 0.23600  0.33229  0.09769  Biso   1.000  He
  Ne162    1.0000 0.20599  0.32348  0.11070  Biso   1.000  Ne
  Ne163    1.0000 0.32951  0.04857  0.79361  Biso   1.000  Ne
  He163    1.0000 0.32049  0.07068  0.77222  Biso   1.000  He
  He164    1.0000 0.28939  0.06718  0.76337  Biso   1.000  He
  Ne164    1.0000 0.28566  0.09250  0.73950  Biso   1.000  Ne
  Ne165    1.0000 0.13856  0.92787  0.74827  Biso   1.000  Ne
  He165    1.0000 0.16155  0.91481  0.72419  Biso   1.000  He
  He166    1.0000 0.16300  0.88012  0.72559  Biso   1.000  He
  Ne166    1.0000 0.18766  0.86832  0.70475  Biso   1.000  Ne
  Ne167    1.0000 0.32100  0.12704  0.36848  Biso   1.000  Ne
  He167    1.0000 0.29964  0.12117  0.34237  Biso   1.000  He
  He168    1.0000 0.26685  0.11707  0.35391  Biso   1.000  He
  Ne168    1.0000 0.24767  0.10906  0.32750  Biso   1.000  Ne
  Ne169    1.0000 0.90737  0.20702  0.31638  Biso   1.000  Ne
  He169    1.0000 0.90442  0.23671  0.30076  Biso   1.000  He
  He170    1.0000 0.92932  0.25820  0.30692  Biso   1.000  He
  Ne170    1.0000 0.92865  0.28361  0.28713  Biso   1.000  Ne
  Ne171    1.0000 0.79119  0.53456  0.60720  Biso   1.000  Ne
  He171    1.0000 0.76563  0.54344  0.59340  Biso   1.000  He
  He172    1.0000 0.75801  0.57601  0.59898  Biso   1.000  He
  Ne172    1.0000 0.72782  0.58457  0.58674  Biso   1.000  Ne
  Ne173    1.0000 0.09531  0.60462  0.27307  Biso   1.000  Ne
  He173    1.0000 0.11856  0.61581  0.29207  Biso   1.000  He
  He174    1.0000 0.11561  0.64855  0.29884  Biso   1.000  He
  Ne174    1.0000 0.14236  0.66182  0.31664  Biso   1.000  Ne
  Ne175    1.0000 0.82315  0.76884  0.55945  Biso   1.000  Ne
  He175    1.0000 0.82178  0.77909  0.52743  Biso   1.000  He
  He176    1.0000 0.83006  0.81285  0.52464  Biso   1.000  He
  Ne176    1.0000 0.82622  0.82588  0.49472  Biso   1.000  Ne
  Ne177    1.0000 0.30753  0.53637  0.72768  Biso   1.000  Ne
  He177    1.0000 0.33413  0.53077  0.70834  Biso   1.000  He
  He178    1.0000 0.35040  0.55855  0.69729  Biso   1.000  He
  Ne178    1.0000 0.37691  0.55399  0.67607  Biso   1.000  Ne
  Ne179    1.0000 0.10808  0.83908  0.21024  Biso   1.000  Ne
  He179    1.0000 0.12202  0.86196  0.19048  Biso   1.000  He
  He180    1.0000 0.10488  0.87782  0.16540  Biso   1.000  He
  Ne180    1.0000 0.12285  0.90109  0.14888  Biso   1.000  Ne
  Ne181    1.0000 0.59941  0.09603  0.60516  Biso   1.000  Ne
  He181    1.0000 0.61150  0.06461  0.60846  Biso   1.000  He
  He182    1.0000 0.64246  0.06139  0.59925  Biso   1.000  He
  Ne182    1.0000 0.65735  0.03183  0.60374  Biso   1.000  Ne
  Ne183    1.0000 0.41537  0.78876  0.35323  Biso   1.000  Ne
  He183    1.0000 0.43437  0.76551  0.36612  Biso   1.000  He
  He184    1.0000 0.42228  0.73400  0.36638  Biso   1.000  He
  Ne184    1.0000 0.44386  0.71279  0.38035  Biso   1.000  Ne
  Ne185    1.0000 0.36390  0.89521  0.78555  Biso   1.000  Ne
  He185    1.0000 0.37324  0.88692  0.75598  Biso   1.000  He
  He186    1.0000 0.39901  0.86585  0.75523  Biso   1.000  He
  Ne186    1.0000 0.41191  0.85857  0.72370  Biso   1.000  Ne
  Ne187    1.0000 0.77340  0.58543  0.71687  Biso   1.000  Ne
  He187    1.0000 0.75082  0.57565  0.73909  Biso   1.000  He
  He188    1.0000 0.74706  0.59442  0.76707  Biso   1.000  He
  Ne188    1.0000 0.72533  0.58291  0.79172  Biso   1.000  Ne
  Ne189    1.0000 0.88975  0.88306  0.77863  Biso   1.000  Ne
  He189    1.0000 0.89922  0.87352  0.80868  Biso   1.000  He
  He190    1.0000 0.92617  0.88848  0.82220  Biso   1.000  He
  Ne190    1.0000 0.93209  0.87806  0.85305  Biso   1.000  Ne
  Ne191    1.0000 0.21032  0.54706  0.44255  Biso   1.000  Ne
  He191    1.0000 0.22020  0.57795  0.43279  Biso   1.000  He
  He192    1.0000 0.19988  0.60402  0.44112  Biso   1.000  He
  Ne192    1.0000 0.21398  0.63438  0.43129  Biso   1.000  Ne
  Ne193    1.0000 0.62002  0.35663  0.27874  Biso   1.000  Ne
  He193    1.0000 0.60629  0.32730  0.27928  Biso   1.000  He
  He194    1.0000 0.62322  0.30760  0.26043  Biso   1.000  He
  Ne194    1.0000 0.61609  0.27565  0.26666  Biso   1.000  Ne
  Ne195    1.0000 0.62329  0.00468  0.47451  Biso   1.000  Ne
  He195    1.0000 0.59537  0.99876  0.45662  Biso   1.000  He
  He196    1.0000 0.56571  0.00333  0.47120  Biso   1.000  He
  Ne196    1.0000 0.54111  0.99649  0.44739  Biso   1.000  Ne
  Ne197    1.0000 0.57056  0.37126  0.33739  Biso   1.000  Ne
  He197    1.0000 0.58009  0.40148  0.33507  Biso   1.000  He
  He198    1.0000 0.56895  0.42003  0.30958  Biso   1.000  He
  Ne198    1.0000 0.57122  0.45267  0.30903  Biso   1.000  Ne
  Ne199    1.0000 0.40223  0.24550  0.24538  Biso   1.000  Ne
  He199    1.0000 0.37023  0.24616  0.24969  Biso   1.000  He
  He200    1.0000 0.35992  0.27427  0.26210  Biso   1.000  He
  Ne200    1.0000 0.32938  0.27182  0.27377  Biso   1.000  Ne
  Ne201    1.0000 0.31378  0.86712  0.41292  Biso   1.000  Ne
  He201    1.0000 0.34037  0.87477  0.43045  Biso   1.000  He
  He202    1.0000 0.36221  0.85003  0.43514  Biso   1.000  He
  Ne202    1.0000 0.38625  0.85371  0.45499  Biso   1.000  Ne
  Ne203    1.0000 0.08998  0.80421  0.77262  Biso   1.000  Ne
  He203    1.0000 0.09474  0.79947  0.74108  Biso   1.000  He
  He204    1.0000 0.10759  0.82673  0.72154  Biso   1.000  He
  Ne204    1.0000 0.11268  0.82493  0.69066  Biso   1.000  Ne
  Ne205    1.0000 0.28125  0.86696  0.76072  Biso   1.000  Ne
  He205    1.0000 0.26564  0.88383  0.78573  Biso   1.000  He
  He206    1.0000 0.23697  0.87355  0.79382  Biso   1.000  He
  Ne206    1.0000 0.22812  0.88571  0.82309  Biso   1.000  Ne
  Ne207    1.0000 0.06962  0.04105  0.02727  Biso   1.000  Ne
  He207    1.0000 0.04411  0.02673  0.01401  Biso   1.000  He
  He208    1.0000 0.01381  0.03733  0.02053  Biso   1.000  He
  Ne208    1.0000 0.98991  0.02461  0.00438  Biso   1.000  Ne
  Ne209    1.0000 0.08333  0.67718  0.62868  Biso   1.000  Ne
  He209    1.0000 0.10506  0.65119  0.62893  Biso   1.000  He
  He210    1.0000 0.11781  0.64481  0.65870  Biso   1.000  He
  Ne210    1.0000 0.13251  0.61804  0.65931  Biso   1.000  Ne
  Ne211    1.0000 0.85003  0.15034  0.13711  Biso   1.000  Ne
  He211    1.0000 0.85223  0.11744  0.13634  Biso   1.000  He
  He212    1.0000 0.82974  0.10389  0.11754  Biso   1.000  He
  Ne212    1.0000 0.83818  0.07519  0.10676  Biso   1.000  Ne
  Ne213    1.0000 0.52674  0.78914  0.85313  Biso   1.000  Ne
  He213    1.0000 0.51229  0.77713  0.88038  Biso   1.000  He
  He214    1.0000 0.48157  0.78758  0.88454  Biso   1.000  He
  Ne214    1.0000 0.46771  0.77362  0.91412  Biso   1.000  Ne
  Ne215    1.0000 0.98438  0.35999  0.59320  Biso   1.000  Ne
  He215    1.0000 0.95741  0.37745  0.58111  Biso   1.000  He
  He216    1.0000 0.95629  0.40853  0.59095  Biso   1.000  He
  Ne216    1.0000 0.93525  0.42919  0.57368  Biso   1.000  Ne
  Ne217    1.0000 0.81392  0.05278  0.21345  Biso   1.000  Ne
  He217    1.0000 0.79279  0.07731  0.20930  Biso   1.000  He
  He218    1.0000 0.76011  0.07031  0.20781  Biso   1.000  He
  Ne218    1.0000 0.74820  0.06602  0.17754  Biso   1.000  Ne
  Ne219    1.0000 0.70560  0.04751  0.42157  Biso   1.000  Ne
  He219    1.0000 0.68503  0.07461  0.41964  Biso   1.000  He
  He220    1.0000 0.65760  0.07138  0.43551  Biso   1.000  He
  Ne220    1.0000 0.63605  0.09673  0.43084  Biso   1.000  Ne
  Ne221    1.0000 0.60067  0.29420  0.92315  Biso   1.000  Ne
  He221    1.0000 0.61739  0.32162  0.93089  Biso   1.000  He
  He222    1.0000 0.59743  0.34156  0.94721  Biso   1.000  He
  Ne222    1.0000 0.61439  0.36658  0.96107  Biso   1.000  Ne
  Ne223    1.0000 0.36411  0.05158  0.44544  Biso   1.000  Ne
  He223    1.0000 0.33797  0.04001  0.43365  Biso   1.000  He
  He224    1.0000 0.31150  0.06156  0.43418  Biso   1.000  He
  Ne224    1.0000 0.28525  0.05138  0.41640  Biso   1.000  Ne
  Ne225    1.0000 0.76442  0.10954  0.94447  Biso   1.000  Ne
  He225    1.0000 0.77759  0.07910  0.93830  Biso   1.000  He
  He226    1.0000 0.80981  0.07727  0.94513  Biso   1.000  He
  Ne226    1.0000 0.81820  0.04429  0.94570  Biso   1.000  Ne
  Ne227    1.0000 0.02729  0.64020  0.20530  Biso   1.000  Ne
  He227    1.0000 0.05110  0.66095  0.21743  Biso   1.000  He
  He228    1.0000 0.06532  0.67868  0.19166  Biso   1.000  He
  Ne228    1.0000 0.09748  0.69376  0.19849  Biso   1.000  Ne
  Ne229    1.0000 0.62617  0.11025  0.24234  Biso   1.000  Ne
  He229    1.0000 0.65965  0.10742  0.24388  Biso   1.000  He
  He230    1.0000 0.67579  0.13545  0.25463  Biso   1.000  He
  Ne230    1.0000 0.70645  0.12902  0.26386  Biso   1.000  Ne
  Ne231    1.0000 0.87441  0.25628  0.42875  Biso   1.000  Ne
  He231    1.0000 0.88293  0.26813  0.40057  Biso   1.000  He
  He232    1.0000 0.91549  0.27290  0.39964  Biso   1.000  He
  Ne232    1.0000 0.93311  0.28469  0.37282  Biso   1.000  Ne
  Ne233    1.0000 0.63206  0.22829  0.37254  Biso   1.000  Ne
  He233    1.0000 0.64036  0.20072  0.35633  Biso   1.000  He
  He234    1.0000 0.61770  0.19108  0.33423  Biso   1.000  He
  Ne234    1.0000 0.62405  0.16322  0.31764  Biso   1.000  Ne
  Ne235    1.0000 0.53741  0.41899  0.05018  Biso   1.000  Ne
  He235    1.0000 0.55915  0.41446  0.07355  Biso   1.000  He
  He236    1.0000 0.59063  0.41823  0.06441  Biso   1.000  He
  Ne236    1.0000 0.61171  0.41946  0.08726  Biso   1.000  Ne
  Ne237    1.0000 0.93324  0.78611  0.15164  Biso   1.000  Ne
  He237    1.0000 0.95457  0.76353  0.14112  Biso   1.000  He
  He238    1.0000 0.94978  0.74888  0.11376  Biso   1.000  He
  Ne238    1.0000 0.93066  0.71866  0.11533  Biso   1.000  Ne
  Ne239    1.0000 0.70420  0.81262  0.63010  Biso   1.000  Ne
  He239    1.0000 0.70107  0.79243  0.66050  Biso   1.000  He
  He240    1.0000 0.70810  0.76196  0.65474  Biso   1.000  He
  Ne240    1.0000 0.70881  0.73938  0.68119  Biso   1.000  Ne
  Ne241    1.0000 0.80110  0.38642  0.63826  Biso   1.000  Ne
  He241    1.0000 0.81741  0.36151  0.62735  Biso   1.000  He
  He242    1.0000 0.84853  0.36852  0.62191  Biso   1.000  He
  Ne242    1.0000 0.86550  0.34241  0.60737  Biso   1.000  Ne
  Ne243    1.0000 0.33461  0.47025  0.53808  Biso   1.000  Ne
  He243    1.0000 0.32619  0.48737  0.50940  Biso   1.000  He
  He244    1.0000 0.29987  0.50519  0.50710  Biso   1.000  He
  Ne244    1.0000 0.29410  0.51892  0.47965  Biso   1.000  Ne
  Ne245    1.0000 0.44566  0.98944  0.46958  Biso   1.000  Ne
  He245    1.0000 0.44854  0.02238  0.46000  Biso   1.000  He
  He246    1.0000 0.46067  0.04369  0.48360  Biso   1.000  He
  Ne246    1.0000 0.45791  0.07558  0.47431  Biso   1.000  Ne
  Ne247    1.0000 0.63731  0.03212  0.20963  Biso   1.000  Ne
  He247    1.0000 0.64801  0.00019  0.21636  Biso   1.000  He
  He248    1.0000 0.67424  0.99855  0.23939  Biso   1.000  He
  Ne248    1.0000 0.68314  0.96582  0.24524  Biso   1.000  Ne
  Ne249    1.0000 0.07162  0.89479  0.04256  Biso   1.000  Ne
  He249    1.0000 0.06570  0.92702  0.04568  Biso   1.000  He
  He250    1.0000 0.09455  0.94342  0.05263  Biso   1.000  He
  Ne250    1.0000 0.09196  0.97343  0.05742  Biso   1.000  Ne
  Ne251    1.0000 0.34311  0.54621  0.81101  Biso   1.000  Ne
  He251    1.0000 0.31899  0.56706  0.82648  Biso   1.000  He
  He252    1.0000 0.31004  0.59409  0.80892  Biso   1.000  He
  Ne252    1.0000 0.28793  0.61119  0.82250  Biso   1.000  Ne
  Ne253    1.0000 0.22777  0.07874  0.84857  Biso   1.000  Ne
  He253    1.0000 0.21152  0.05259  0.83143  Biso   1.000  He
  He254    1.0000 0.21401  0.05762  0.79771  Biso   1.000  He
  Ne254    1.0000 0.20086  0.03684  0.77720  Biso   1.000  Ne
  Ne255    1.0000 0.97649  0.20610  0.46354  Biso   1.000  Ne
  He255    1.0000 0.98714  0.17401  0.46562  Biso   1.000  He
  He256    1.0000 0.00242  0.16079  0.43823  Biso   1.000  He
  Ne256    1.0000 0.01615  0.13005  0.44037  Biso   1.000  Ne
  Ne257    1.0000 0.44371  0.10359  0.37297  Biso   1.000  Ne
  He257    1.0000 0.42454  0.11839  0.39512  Biso   1.000  He
  He258    1.0000 0.43855  0.13712  0.41852  Biso   1.000  He
  Ne258    1.0000 0.41590  0.15029  0.43921  Biso   1.000  Ne
  Ne259    1.0000 0.83539  0.64029  0.66939  Biso   1.000  Ne
  He259    1.0000 0.86285  0.64375  0.64880  Biso   1.000  He
  He260    1.0000 0.89143  0.63252  0.65969  Biso   1.000  He
  Ne260    1.0000 0.91760  0.63131  0.63834  Biso   1.000  Ne
  Ne261    1.0000 0.45768  0.32684  0.95835  Biso   1.000  Ne
  He261    1.0000 0.42859  0.31182  0.95949  Biso   1.000  He
  He262    1.0000 0.42898  0.28152  0.96610  Biso   1.000  He
  Ne262    1.0000 0.39980  0.26360  0.96244  Biso   1.000  Ne
  Ne263    1.0000 0.12662  0.55478  0.74230  Biso   1.000  Ne
  He263    1.0000 0.13371  0.54014  0.71609  Biso   1.000  He
  He264    1.0000 0.11243  0.54852  0.69184  Biso   1.000  He
  Ne264    1.0000 0.11512  0.53021  0.66246  Biso   1.000  Ne
  Ne265    1.0000 0.62699  0.11124  0.80455  Biso   1.000  Ne
  He265    1.0000 0.64991  0.08707  0.79726  Biso   1.000  He
  He266    1.0000 0.64369  0.05766  0.81267  Biso   1.000  He
  Ne266    1.0000 0.66458  0.03404  0.80696  Biso   1.000  Ne
  Ne267    1.0000 0.12480  0.53740  0.47503  Biso   1.000  Ne
  He267    1.0000 0.10720  0.53320  0.44912  Biso   1.000  He
  He268    1.0000 0.10955  0.55725  0.42506  Biso   1.000  He
  Ne268    1.0000 0.08970  0.55437  0.39916  Biso   1.000  Ne
  Ne269    1.0000 0.96748  0.21436  0.61176  Biso   1.000  Ne
  He269    1.0000 0.98760  0.19222  0.62769  Biso   1.000  He
  He270    1.0000 0.98142  0.18909  0.65930  Biso   1.000  He
  Ne270    1.0000 0.99927  0.16572  0.67736  Biso   1.000  Ne
  Ne271    1.0000 0.41635  0.71861  0.93247  Biso   1.000  Ne
  He271    1.0000 0.39847  0.69826  0.94957  Biso   1.000  He
  He272    1.0000 0.38358  0.67668  0.93362  Biso   1.000  He
  Ne272    1.0000 0.36178  0.66040  0.95258  Biso   1.000  Ne
  Ne273    1.0000 0.31045  0.14335  0.58743  Biso   1.000  Ne
  He273    1.0000 0.29370  0.11398  0.59086  Biso   1.000  He
  He274    1.0000 0.26035  0.11627  0.58804  Biso   1.000  He
  Ne274    1.0000 0.24726  0.10765  0.55832  Biso   1.000  Ne
  Ne275    1.0000 0.41476  0.89555  0.65117  Biso   1.000  Ne
  He275    1.0000 0.43466  0.88747  0.62645  Biso   1.000  He
  He276    1.0000 0.45204  0.91114  0.61248  Biso   1.000  He
  Ne276    1.0000 0.47393  0.89833  0.59300  Biso   1.000  Ne
  Ne277    1.0000 0.26187  0.61573  0.29387  Biso   1.000  Ne
  He277    1.0000 0.27019  0.59746  0.26834  Biso   1.000  He
  He278    1.0000 0.25133  0.57143  0.26480  Biso   1.000  He
  Ne278    1.0000 0.25544  0.55363  0.23629  Biso   1.000  Ne
  Ne279    1.0000 0.44197  0.35889  0.78122  Biso   1.000  Ne
  He279    1.0000 0.40909  0.35622  0.78058  Biso   1.000  He
  He280    1.0000 0.39543  0.35119  0.81236  Biso   1.000  He
  Ne280    1.0000 0.36304  0.34632  0.80985  Biso   1.000  Ne
  Ne281    1.0000 0.38886  0.27426  0.14611  Biso   1.000  Ne
  He281    1.0000 0.41327  0.25578  0.13275  Biso   1.000  He
  He282    1.0000 0.44249  0.27100  0.12956  Biso   1.000  He
  Ne282    1.0000 0.46408  0.24744  0.12135  Biso   1.000  Ne
  Ne283    1.0000 0.38641  0.26349  0.47647  Biso   1.000  Ne
  He283    1.0000 0.37611  0.24160  0.45392  Biso   1.000  He
  He284    1.0000 0.34506  0.23416  0.45711  Biso   1.000  He
  Ne284    1.0000 0.33545  0.21336  0.43246  Biso   1.000  Ne
  Ne285    1.0000 0.95652  0.36746  0.67147  Biso   1.000  Ne
  He285    1.0000 0.95812  0.36168  0.70399  Biso   1.000  He
  He286    1.0000 0.93574  0.38055  0.71989  Biso   1.000  He
  Ne286    1.0000 0.93808  0.38023  0.75205  Biso   1.000  Ne
  Ne287    1.0000 0.31732  0.73370  0.95430  Biso   1.000  Ne
  He287    1.0000 0.30089  0.76050  0.94426  Biso   1.000  He
  He288    1.0000 0.30028  0.78533  0.96894  Biso   1.000  He
  Ne288    1.0000 0.28074  0.81181  0.95834  Biso   1.000  Ne
  Ne289    1.0000 0.43838  0.62133  0.77979  Biso   1.000  Ne
  He289    1.0000 0.41890  0.60712  0.79833  Biso   1.000  He
  He290    1.0000 0.42522  0.60418  0.83058  Biso   1.000  He
  Ne290    1.0000 0.40273  0.58914  0.84558  Biso   1.000  Ne
  Ne291    1.0000 0.57659  0.82876  0.24075  Biso   1.000  Ne
  He291    1.0000 0.60242  0.84327  0.22759  Biso   1.000  He
  He292    1.0000 0.59867  0.87344  0.21824  Biso   1.000  He
  Ne292    1.0000 0.62435  0.88643  0.20631  Biso   1.000  Ne
  Ne293    1.0000 0.11303  0.87083  0.80008  Biso   1.000  Ne
  He293    1.0000 0.11233  0.87551  0.83353  Biso   1.000  He
  He294    1.0000 0.14222  0.88362  0.84402  Biso   1.000  He
  Ne294    1.0000 0.14333  0.88591  0.87566  Biso   1.000  Ne
  Ne295    1.0000 0.81129  0.88374  0.32530  Biso   1.000  Ne
  He295    1.0000 0.83789  0.88054  0.30435  Biso   1.000  He
  He296    1.0000 0.84407  0.90367  0.28115  Biso   1.000  He
  Ne296    1.0000 0.87123  0.89921  0.26514  Biso   1.000  Ne
  Ne297    1.0000 0.11378  0.06868  0.96857  Biso   1.000  Ne
  He297    1.0000 0.10495  0.10215  0.96872  Biso   1.000  He
  He298    1.0000 0.10947  0.11838  0.93965  Biso   1.000  He
  Ne298    1.0000 0.09941  0.14984  0.93826  Biso   1.000  Ne
  Ne299    1.0000 0.55633  0.48863  0.02762  Biso   1.000  Ne
  He299    1.0000 0.54413  0.51326  0.04891  Biso   1.000  He
  He300    1.0000 0.53151  0.50734  0.07784  Biso   1.000  He
  Ne300    1.0000 0.51846  0.53341  0.09156  Biso   1.000  Ne
  Ne301    1.0000 0.85218  0.37503  0.34033  Biso   1.000  Ne
  He301    1.0000 0.87471  0.36778  0.36559  Biso   1.000  He
  He302    1.0000 0.90515  0.37964  0.36086  Biso   1.000  He
  Ne302    1.0000 0.92604  0.36649  0.37895  Biso   1.000  Ne
  Ne303    1.0000 0.87210  0.12915  0.95034  Biso   1.000  Ne
  He303    1.0000 0.89870  0.15078  0.94747  Biso   1.000  He
  He304    1.0000 0.92242  0.14433  0.92637  Biso   1.000  He
  Ne304    1.0000 0.94874  0.16287  0.93059  Biso   1.000  Ne
  Ne305    1.0000 0.88711  0.03483  0.85386  Biso   1.000  Ne
  He305    1.0000 0.86830  0.06102  0.85705  Biso   1.000  He
  He306    1.0000 0.83473  0.05814  0.85510  Biso   1.000  He
  Ne306    1.0000 0.81552  0.08643  0.86226  Biso   1.000  Ne
  Ne307    1.0000 0.16584  0.37897  0.36599  Biso   1.000  Ne
  He307    1.0000 0.13624  0.36612  0.36568  Biso   1.000  He
  He308    1.0000 0.11760  0.37538  0.39361  Biso   1.000  He
  Ne308    1.0000 0.08830  0.36206  0.38843  Biso   1.000  Ne
  Ne309    1.0000 0.72071  0.75922  0.95854  Biso   1.000  Ne
  He309    1.0000 0.71647  0.73013  0.94554  Biso   1.000  He
  He310    1.0000 0.69730  0.72867  0.92053  Biso   1.000  He
  Ne310    1.0000 0.69505  0.69969  0.90411  Biso   1.000  Ne
  Ne311    1.0000 0.79356  0.04621  0.78287  Biso   1.000  Ne
  He311    1.0000 0.77556  0.07370  0.77129  Biso   1.000  He
  He312    1.0000 0.77949  0.07814  0.73740  Biso   1.000  He
  Ne312    1.0000 0.76515  0.10387  0.72315  Biso   1.000  Ne
  Ne313    1.0000 0.67021  0.09637  0.09621  Biso   1.000  Ne
  He313    1.0000 0.70163  0.10568  0.09074  Biso   1.000  He
  He314    1.0000 0.71300  0.12857  0.11482  Biso   1.000  He
  Ne314    1.0000 0.74355  0.13521  0.11127  Biso   1.000  Ne
  Ne315    1.0000 0.63337  0.70050  0.47504  Biso   1.000  Ne
  He315    1.0000 0.62369  0.73234  0.47087  Biso   1.000  He
  He316    1.0000 0.59025  0.73614  0.46847  Biso   1.000  He
  Ne316    1.0000 0.58418  0.76713  0.45935  Biso   1.000  Ne
  Ne317    1.0000 0.95211  0.56088  0.64354  Biso   1.000  Ne
  He317    1.0000 0.96510  0.53929  0.62291  Biso   1.000  He
  He318    1.0000 0.96187  0.54640  0.58932  Biso   1.000  He
  Ne318    1.0000 0.97205  0.52357  0.56874  Biso   1.000  Ne
  Ne319    1.0000 0.46382  0.19920  0.59380  Biso   1.000  Ne
  He319    1.0000 0.43441  0.18422  0.60675  Biso   1.000  He
  He320    1.0000 0.40742  0.19626  0.59578  Biso   1.000  He
  Ne320    1.0000 0.38306  0.18163  0.60947  Biso   1.000  Ne
  Ne321    1.0000 0.22998  0.63716  0.63448  Biso   1.000  Ne
  He321    1.0000 0.21150  0.60923  0.63346  Biso   1.000  He
  He322    1.0000 0.22497  0.58510  0.61830  Biso   1.000  He
  Ne322    1.0000 0.20484  0.55861  0.61489  Biso   1.000  Ne
  Ne323    1.0000 0.63246  0.03954  0.71423  Biso   1.000  Ne
  He323    1.0000 0.63359  0.06364  0.69648  Biso   1.000  He
  He324    1.0000 0.62370  0.09153  0.71096  Biso   1.000  He
  Ne324    1.0000 0.62388  0.11896  0.69372  Biso   1.000  Ne
  Ne325    1.0000 0.92330  0.21107  0.17377  Biso   1.000  Ne
  He325    1.0000 0.93853  0.20125  0.14564  Biso   1.000  He
  He326    1.0000 0.92090  0.17807  0.13205  Biso   1.000  He
  Ne326    1.0000 0.93383  0.16458  0.10671  Biso   1.000  Ne
  Ne327    1.0000 0.23428  0.39219  0.42870  Biso   1.000  Ne
  He327    1.0000 0.20858  0.36890  0.43531  Biso   1.000  He
  He328    1.0000 0.21888  0.33699  0.43491  Biso   1.000  He
  Ne328    1.0000 0.19428  0.31451  0.44170  Biso   1.000  Ne
  Ne329    1.0000 0.21908  0.26978  0.32580  Biso   1.000  Ne
  He329    1.0000 0.21386  0.30055  0.33832  Biso   1.000  He
  He330    1.0000 0.24391  0.31778  0.33600  Biso   1.000  He
  Ne330    1.0000 0.24298  0.34783  0.34747  Biso   1.000  Ne
  Ne331    1.0000 0.86628  0.70512  0.36660  Biso   1.000  Ne
  He331    1.0000 0.85403  0.67591  0.37718  Biso   1.000  He
  He332    1.0000 0.83889  0.67561  0.40697  Biso   1.000  He
  Ne332    1.0000 0.83087  0.64520  0.42211  Biso   1.000  Ne
  Ne333    1.0000 0.31008  0.32787  0.44704  Biso   1.000  Ne
  He333    1.0000 0.33169  0.34467  0.46681  Biso   1.000  He
  He334    1.0000 0.32181  0.34545  0.49605  Biso   1.000  He
  Ne334    1.0000 0.34146  0.36605  0.51410  Biso   1.000  Ne
  Ne335    1.0000 0.08910  0.16150  0.70564  Biso   1.000  Ne
  He335    1.0000 0.09530  0.17025  0.67502  Biso   1.000  He
  He336    1.0000 0.12175  0.18532  0.66484  Biso   1.000  He
  Ne336    1.0000 0.11958  0.19418  0.63110  Biso   1.000  Ne
  Ne337    1.0000 0.33712  0.76340  0.36586  Biso   1.000  Ne
  He337    1.0000 0.31801  0.76364  0.39268  Biso   1.000  He
  He338    1.0000 0.31975  0.73293  0.40838  Biso   1.000  He
  Ne338    1.0000 0.30989  0.73533  0.44040  Biso   1.000  Ne
  Ne339    1.0000 0.22132  0.87455  0.16974  Biso   1.000  Ne
  He339    1.0000 0.21407  0.87740  0.20219  Biso   1.000  He
  He340    1.0000 0.21966  0.85010  0.22103  Biso   1.000  He
  Ne340    1.0000 0.21900  0.85490  0.25429  Biso   1.000  Ne
  Ne341    1.0000 0.31957  0.25595  0.34697  Biso   1.000  Ne
  He341    1.0000 0.34846  0.24057  0.34838  Biso   1.000  He
  He342    1.0000 0.37415  0.25761  0.33405  Biso   1.000  He
  Ne342    1.0000 0.40084  0.24063  0.33830  Biso   1.000  Ne
  Ne343    1.0000 0.09161  0.16329  0.34300  Biso   1.000  Ne
  He343    1.0000 0.11431  0.18588  0.32924  Biso   1.000  He
  He344    1.0000 0.09893  0.20327  0.30496  Biso   1.000  He
  Ne344    1.0000 0.11856  0.22713  0.28925  Biso   1.000  Ne
  Ne345    1.0000 0.95354  0.33160  0.46164  Biso   1.000  Ne
  He345    1.0000 0.95295  0.36050  0.44836  Biso   1.000  He
  He346    1.0000 0.93820  0.38481  0.46563  Biso   1.000  He
  Ne346    1.0000 0.94232  0.41576  0.45288  Biso   1.000  Ne
  Ne347    1.0000 0.20428  0.39373  0.61910  Biso   1.000  Ne
  He347    1.0000 0.20673  0.38572  0.65188  Biso   1.000  He
  He348    1.0000 0.22920  0.40142  0.66614  Biso   1.000  He
  Ne348    1.0000 0.25747  0.38126  0.67687  Biso   1.000  Ne
  Ne349    1.0000 0.88972  0.26219  0.62535  Biso   1.000  Ne
  He349    1.0000 0.87074  0.24243  0.64228  Biso   1.000  He
  He350    1.0000 0.85047  0.25799  0.66288  Biso   1.000  He
  Ne350    1.0000 0.83404  0.23368  0.68397  Biso   1.000  Ne
  Ne351    1.0000 0.82756  0.77209  0.43944  Biso   1.000  Ne
  He351    1.0000 0.79765  0.75577  0.44802  Biso   1.000  He
  He352    1.0000 0.77412  0.77755  0.45616  Biso   1.000  He
  Ne352    1.0000 0.74260  0.76824  0.45322  Biso   1.000  Ne
  Ne353    1.0000 0.91117  0.54292  0.72610  Biso   1.000  Ne
  He353    1.0000 0.88070  0.54084  0.71216  Biso   1.000  He
  He354    1.0000 0.87593  0.55653  0.68275  Biso   1.000  He
  Ne354    1.0000 0.84849  0.55099  0.66699  Biso   1.000  Ne
  Ne355    1.0000 0.40616  0.54276  0.11753  Biso   1.000  Ne
  He355    1.0000 0.43725  0.55238  0.12601  Biso   1.000  He
  He356    1.0000 0.44999  0.57683  0.10544  Biso   1.000  He
  Ne356    1.0000 0.44183  0.60902  0.11238  Biso   1.000  Ne
  Ne357    1.0000 0.42788  0.41616  0.99551  Biso   1.000  Ne
  He357    1.0000 0.46050  0.41588  0.98114  Biso   1.000  He
  He358    1.0000 0.46742  0.44175  0.96269  Biso   1.000  He
  Ne358    1.0000 0.49796  0.44169  0.95195  Biso   1.000  Ne
  Ne359    1.0000 0.30772  0.33646  0.91337  Biso   1.000  Ne
  He359    1.0000 0.29058  0.36205  0.90186  Biso   1.000  He
  He360    1.0000 0.30126  0.37216  0.87176  Biso   1.000  He
  Ne360    1.0000 0.28763  0.40008  0.86169  Biso   1.000  Ne
  Ne361    1.0000 0.94112  0.41527  0.87540  Biso   1.000  Ne
  He361    1.0000 0.96430  0.39614  0.86120  Biso   1.000  He
  He362    1.0000 0.95918  0.39063  0.82957  Biso   1.000  He
  Ne362    1.0000 0.98320  0.36926  0.81632  Biso   1.000  Ne
  Ne363    1.0000 0.63498  0.22691  0.76374  Biso   1.000  Ne
  He363    1.0000 0.63774  0.20724  0.79001  Biso   1.000  He
  He364    1.0000 0.61272  0.21214  0.81284  Biso   1.000  He
  Ne364    1.0000 0.61438  0.19037  0.83849  Biso   1.000  Ne
  Ne365    1.0000 0.39978  0.79253  0.82046  Biso   1.000  Ne
  He365    1.0000 0.39430  0.76012  0.81731  Biso   1.000  He
  He366    1.0000 0.40928  0.74259  0.83818  Biso   1.000  He
  Ne366    1.0000 0.39719  0.71261  0.83804  Biso   1.000  Ne
  Ne367    1.0000 0.77667  0.35233  0.72692  Biso   1.000  Ne
  He367    1.0000 0.74788  0.35982  0.71194  Biso   1.000  He
  He368    1.0000 0.72740  0.33173  0.71014  Biso   1.000  He
  Ne368    1.0000 0.69547  0.33986  0.70072  Biso   1.000  Ne
  Ne369    1.0000 0.44556  0.59640  0.96074  Biso   1.000  Ne
  He369    1.0000 0.43076  0.57611  0.94083  Biso   1.000  He
  He370    1.0000 0.45432  0.55954  0.92477  Biso   1.000  He
  Ne370    1.0000 0.44111  0.54477  0.89853  Biso   1.000  Ne
  Ne371    1.0000 0.77914  0.79090  0.16463  Biso   1.000  Ne
  He371    1.0000 0.80409  0.79488  0.13956  Biso   1.000  He
  He372    1.0000 0.83283  0.79544  0.15274  Biso   1.000  He
  Ne372    1.0000 0.85934  0.80370  0.13295  Biso   1.000  Ne
  Ne373    1.0000 0.12834  0.23194  0.44896  Biso   1.000  Ne
  He373    1.0000 0.14288  0.20115  0.44826  Biso   1.000  He
  He374    1.0000 0.16923  0.19692  0.46496  Biso   1.000  He
  Ne374    1.0000 0.18103  0.16695  0.46121  Biso   1.000  Ne
  Ne375    1.0000 0.11331  0.61972  0.87453  Biso   1.000  Ne
  He375    1.0000 0.13896  0.61822  0.85362  Biso   1.000  He
  He376    1.0000 0.15036  0.64751  0.84509  Biso   1.000  He
  Ne376    1.0000 0.17780  0.64511  0.82405  Biso   1.000  Ne
  Ne377    1.0000 0.71279  0.54327  0.22141  Biso   1.000  Ne
  He377    1.0000 0.72039  0.56268  0.24958  Biso   1.000  He
  He378    1.0000 0.73655  0.54648  0.27122  Biso   1.000  He
  Ne378    1.0000 0.74044  0.56872  0.29606  Biso   1.000  Ne
  Ne379    1.0000 0.62581  0.26485  0.52070  Biso   1.000  Ne
  He379    1.0000 0.62352  0.24059  0.49546  Biso   1.000  He
  He380    1.0000 0.65483  0.23058  0.48547  Biso   1.000  He
  Ne380    1.0000 0.65916  0.20860  0.45694  Biso   1.000  Ne
  Ne381    1.0000 0.28646  0.54320  0.36517  Biso   1.000  Ne
  He381    1.0000 0.31373  0.54718  0.38207  Biso   1.000  He
  He382    1.0000 0.33285  0.51924  0.38470  Biso   1.000  He
  Ne382    1.0000 0.35635  0.52319  0.40428  Biso   1.000  Ne
  Ne383    1.0000 0.68314  0.03650  0.02570  Biso   1.000  Ne
  He383    1.0000 0.68420  0.01836  0.00129  Biso   1.000  He
  He384    1.0000 0.70429  0.99331  0.00486  Biso   1.000  He
  Ne384    1.0000 0.71207  0.97720  0.97670  Biso   1.000  Ne
  Ne385    1.0000 0.93158  0.86939  0.30738  Biso   1.000  Ne
  He385    1.0000 0.93338  0.85240  0.27941  Biso   1.000  He
  He386    1.0000 0.94093  0.87282  0.25471  Biso   1.000  He
  Ne386    1.0000 0.94305  0.85766  0.22481  Biso   1.000  Ne
  Ne387    1.0000 0.80792  0.28288  0.87319  Biso   1.000  Ne
  He387    1.0000 0.81822  0.31348  0.88111  Biso   1.000  He
  He388    1.0000 0.84946  0.31859  0.87500  Biso   1.000  He
  Ne388    1.0000 0.85956  0.34866  0.87612  Biso   1.000  Ne
  Ne389    1.0000 0.36907  0.39785  0.11330  Biso   1.000  Ne
  He389    1.0000 0.34441  0.38372  0.13074  Biso   1.000  He
  He390    1.0000 0.31352  0.39342  0.12496  Biso   1.000  He
  Ne390    1.0000 0.29062  0.38307  0.14824  Biso   1.000  Ne
  Ne391    1.0000 0.80893  0.10208  0.48291  Biso   1.000  Ne
  He391    1.0000 0.83330  0.12529  0.47226  Biso   1.000  He
  He392    1.0000 0.86429  0.11570  0.48715  Biso   1.000  He
  Ne392    1.0000 0.89081  0.13208  0.47808  Biso   1.000  Ne
  Ne393    1.0000 0.22626  0.77944  0.13870  Biso   1.000  Ne
  He393    1.0000 0.20576  0.76794  0.11793  Biso   1.000  He
  He394    1.0000 0.21563  0.73789  0.10416  Biso   1.000  He
  Ne394    1.0000 0.19537  0.72512  0.08244  Biso   1.000  Ne
  Ne395    1.0000 0.68197  0.39469  0.87101  Biso   1.000  Ne
  He395    1.0000 0.64844  0.39197  0.86870  Biso   1.000  He
  He396    1.0000 0.63609  0.36139  0.86618  Biso   1.000  He
  Ne396    1.0000 0.60376  0.36145  0.86471  Biso   1.000  Ne
  Ne397    1.0000 0.97168  0.50495  0.43307  Biso   1.000  Ne
  He397    1.0000 0.98860  0.49517  0.45826  Biso   1.000  He
  He398    1.0000 0.01494  0.51323  0.46511  Biso   1.000  He
  Ne398    1.0000 0.02972  0.50408  0.49150  Biso   1.000  Ne
  Ne399    1.0000 0.35517  0.70034  0.26741  Biso   1.000  Ne
  He399    1.0000 0.38569  0.70978  0.27259  Biso   1.000  He
  He400    1.0000 0.40054  0.72476  0.24518  Biso   1.000  He
  Ne400    1.0000 0.42973  0.73702  0.25078  Biso   1.000  Ne
  Ne401    1.0000 0.69965  0.40376  0.74632  Biso   1.000  Ne
  He401    1.0000 0.70949  0.39426  0.77764  Biso   1.000  He
  He402    1.0000 0.70961  0.35905  0.78483  Biso   1.000  He
  Ne402    1.0000 0.72546  0.35167  0.81198  Biso   1.000  Ne
  Ne403    1.0000 0.93677  0.00603  0.33408  Biso   1.000  Ne
  He403    1.0000 0.93816  0.02678  0.30793  Biso   1.000  He
  He404    1.0000 0.91242  0.04710  0.30695  Biso   1.000  He
  Ne404    1.0000 0.91648  0.07231  0.28718  Biso   1.000  Ne
  Ne405    1.0000 0.20639  0.30739  0.61251  Biso   1.000  Ne
  He405    1.0000 0.17466  0.30357  0.60819  Biso   1.000  He
  He406    1.0000 0.15657  0.28532  0.62722  Biso   1.000  He
  Ne406    1.0000 0.12241  0.28624  0.62083  Biso   1.000  Ne
  Ne407    1.0000 0.33901  0.82185  0.07225  Biso   1.000  Ne
  He407    1.0000 0.35547  0.79499  0.06500  Biso   1.000  He
  He408    1.0000 0.36131  0.77360  0.09043  Biso   1.000  He
  Ne408    1.0000 0.38109  0.74933  0.08057  Biso   1.000  Ne
  Ne409    1.0000 0.56492  0.70688  0.66324  Biso   1.000  Ne
  He409    1.0000 0.57368  0.72349  0.63776  Biso   1.000  He
  He410    1.0000 0.56908  0.75735  0.63728  Biso   1.000  He
  Ne410    1.0000 0.58321  0.77170  0.61174  Biso   1.000  Ne
  Ne411    1.0000 0.05559  0.43922  0.61171  Biso   1.000  Ne
  He411    1.0000 0.07645  0.41321  0.61842  Biso   1.000  He
  He412    1.0000 0.06625  0.38383  0.60658  Biso   1.000  He
  Ne412    1.0000 0.08715  0.35818  0.61769  Biso   1.000  Ne
  Ne413    1.0000 0.41781  0.87499  0.29170  Biso   1.000  Ne
  He413    1.0000 0.43242  0.87621  0.32096  Biso   1.000  He
  He414    1.0000 0.41084  0.88182  0.34583  Biso   1.000  He
  Ne414    1.0000 0.42188  0.88526  0.37684  Biso   1.000  Ne
  Ne415    1.0000 0.86603  0.76771  0.94483  Biso   1.000  Ne
  He415    1.0000 0.88733  0.79365  0.94434  Biso   1.000  He
  He416    1.0000 0.92089  0.78899  0.94566  Biso   1.000  He
  Ne416    1.0000 0.94131  0.81564  0.94011  Biso   1.000  Ne
  Ne417    1.0000 0.66072  0.64673  0.62439  Biso   1.000  Ne
  He417    1.0000 0.67231  0.68024  0.62792  Biso   1.000  He
  He418    1.0000 0.69403  0.68840  0.60370  Biso   1.000  He
  Ne418    1.0000 0.72612  0.68634  0.61194  Biso   1.000  Ne
  Ne419    1.0000 0.10992  0.53002  0.31461  Biso   1.000  Ne
  He419    1.0000 0.13377  0.53270  0.33651  Biso   1.000  He
  He420    1.0000 0.16309  0.54781  0.32577  Biso   1.000  He
  Ne420    1.0000 0.18557  0.54201  0.34921  Biso   1.000  Ne
  Ne421    1.0000 0.18285  0.70105  0.69128  Biso   1.000  Ne
  He421    1.0000 0.18836  0.70469  0.65873  Biso   1.000  He
  He422    1.0000 0.16847  0.72784  0.64470  Biso   1.000  He
  Ne422    1.0000 0.16917  0.72959  0.61326  Biso   1.000  Ne
  Ne423    1.0000 0.60109  0.71351  0.85582  Biso   1.000  Ne
  He423    1.0000 0.60852  0.72885  0.88402  Biso   1.000  He
  He424    1.0000 0.58586  0.72184  0.90587  Biso   1.000  He
  Ne424    1.0000 0.58752  0.74088  0.93289  Biso   1.000  Ne
  Ne425    1.0000 0.89642  0.53164  0.24567  Biso   1.000  Ne
  He425    1.0000 0.88126  0.56034  0.24435  Biso   1.000  He
  He426    1.0000 0.85037  0.55827  0.25647  Biso   1.000  He
  Ne426    1.0000 0.83545  0.58784  0.25578  Biso   1.000  Ne
  Ne427    1.0000 0.10879  0.79092  0.86704  Biso   1.000  Ne
  He427    1.0000 0.11123  0.76164  0.88317  Biso   1.000  He
  He428    1.0000 0.09655  0.76586  0.91344  Biso   1.000  He
  Ne428    1.0000 0.10223  0.74066  0.93487  Biso   1.000  Ne
  Ne429    1.0000 0.81367  0.98654  0.71255  Biso   1.000  Ne
  He429    1.0000 0.82594  0.01311  0.69873  Biso   1.000  He
  He430    1.0000 0.80705  0.02229  0.67534  Biso   1.000  He
  Ne430    1.0000 0.81615  0.05149  0.66179  Biso   1.000  Ne
  Ne431    1.0000 0.33411  0.60111  0.89953  Biso   1.000  Ne
  He431    1.0000 0.31709  0.58288  0.92024  Biso   1.000  He
  He432    1.0000 0.32528  0.55124  0.92024  Biso   1.000  He
  Ne432    1.0000 0.30701  0.53512  0.94475  Biso   1.000  Ne
  Ne433    1.0000 0.49953  0.52266  0.97409  Biso   1.000  Ne
  He433    1.0000 0.48524  0.54151  0.99967  Biso   1.000  He
  He434    1.0000 0.46609  0.52152  0.01601  Biso   1.000  He
  Ne434    1.0000 0.44924  0.53729  0.04006  Biso   1.000  Ne
  Ne435    1.0000 0.06771  0.25392  0.87546  Biso   1.000  Ne
  He435    1.0000 0.09803  0.25996  0.86309  Biso   1.000  He
  He436    1.0000 0.10000  0.28301  0.83946  Biso   1.000  He
  Ne436    1.0000 0.13117  0.29300  0.83214  Biso   1.000  Ne
  Ne437    1.0000 0.04475  0.55399  0.57805  Biso   1.000  Ne
  He437    1.0000 0.07131  0.54187  0.59421  Biso   1.000  He
  He438    1.0000 0.09330  0.52775  0.57232  Biso   1.000  He
  Ne438    1.0000 0.11814  0.51344  0.58867  Biso   1.000  Ne
  Ne439    1.0000 0.64777  0.32713  0.34835  Biso   1.000  Ne
  He439    1.0000 0.67071  0.30776  0.33771  Biso   1.000  He
  He440    1.0000 0.68622  0.32022  0.31018  Biso   1.000  He
  Ne440    1.0000 0.70525  0.29953  0.29390  Biso   1.000  Ne
  Ne441    1.0000 0.77960  0.60322  0.99340  Biso   1.000  Ne
  He441    1.0000 0.74691  0.60780  0.98769  Biso   1.000  He
  He442    1.0000 0.73827  0.63131  0.96652  Biso   1.000  He
  Ne442    1.0000 0.70201  0.63259  0.96535  Biso   1.000  Ne
  Ne443    1.0000 0.91765  0.62821  0.35626  Biso   1.000  Ne
  He443    1.0000 0.93165  0.60013  0.36631  Biso   1.000  He
  He444    1.0000 0.92209  0.57171  0.34948  Biso   1.000  He
  Ne444    1.0000 0.93381  0.54179  0.35896  Biso   1.000  Ne
  Ne445    1.0000 0.16255  0.98002  0.32309  Biso   1.000  Ne
  He445    1.0000 0.18896  0.98965  0.33690  Biso   1.000  He
  He446    1.0000 0.21341  0.00024  0.31499  Biso   1.000  He
  Ne446    1.0000 0.23717  0.01749  0.33205  Biso   1.000  Ne
  Ne447    1.0000 0.31529  0.61796  0.15080  Biso   1.000  Ne
  He447    1.0000 0.34199  0.63785  0.14636  Biso   1.000  He
  He448    1.0000 0.35758  0.63525  0.11430  Biso   1.000  He
  Ne448    1.0000 0.38209  0.65665  0.11075  Biso   1.000  Ne
  Ne449    1.0000 0.24940  0.16820  0.66258  Biso   1.000  Ne
  He449    1.0000 0.23805  0.19668  0.64608  Biso   1.000  He
  He450    1.0000 0.22936  0.19235  0.61340  Biso   1.000  He
  Ne450    1.0000 0.22821  0.22192  0.59488  Biso   1.000  Ne
  Ne451    1.0000 0.71125  0.43047  0.45707  Biso   1.000  Ne
  He451    1.0000 0.73054  0.45238  0.47469  Biso   1.000  He
  He452    1.0000 0.72871  0.48569  0.46736  Biso   1.000  He
  Ne452    1.0000 0.74719  0.50623  0.48821  Biso   1.000  Ne
  Ne453    1.0000 0.73749  0.10665  0.86389  Biso   1.000  Ne
  He453    1.0000 0.70725  0.09979  0.86929  Biso   1.000  He
  He454    1.0000 0.70116  0.07858  0.89463  Biso   1.000  He
  Ne454    1.0000 0.67105  0.07011  0.89975  Biso   1.000  Ne
  Ne455    1.0000 0.74289  0.89685  0.17636  Biso   1.000  Ne
  He455    1.0000 0.75597  0.88787  0.14584  Biso   1.000  He
  He456    1.0000 0.78851  0.88368  0.14675  Biso   1.000  He
  Ne456    1.0000 0.80246  0.87688  0.11911  Biso   1.000  Ne
  Ne457    1.0000 0.78411  0.55441  0.16202  Biso   1.000  Ne
  He457    1.0000 0.75510  0.54526  0.15631  Biso   1.000  He
  He458    1.0000 0.74182  0.55943  0.12921  Biso   1.000  He
  Ne458    1.0000 0.70878  0.55464  0.12942  Biso   1.000  Ne
  Ne459    1.0000 0.62586  0.31545  0.09667  Biso   1.000  Ne
  He459    1.0000 0.65317  0.32393  0.11538  Biso   1.000  He
  He460    1.0000 0.66102  0.35482  0.10745  Biso   1.000  He
  Ne460    1.0000 0.69056  0.36608  0.12079  Biso   1.000  Ne
  Ne461    1.0000 0.21529  0.10365  0.70260  Biso   1.000  Ne
  He461    1.0000 0.20577  0.08034  0.68077  Biso   1.000  He
  He462    1.0000 0.17141  0.08213  0.67884  Biso   1.000  He
  Ne462    1.0000 0.15254  0.06379  0.65707  Biso   1.000  Ne
  Ne463    1.0000 0.29524  0.85186  0.21202  Biso   1.000  Ne
  He463    1.0000 0.31244  0.87187  0.22842  Biso   1.000  He
  He464    1.0000 0.34406  0.86213  0.22529  Biso   1.000  He
  Ne464    1.0000 0.36691  0.88573  0.23300  Biso   1.000  Ne
  Ne465    1.0000 0.43759  0.12137  0.71860  Biso   1.000  Ne
  He465    1.0000 0.40825  0.12682  0.70355  Biso   1.000  He
  He466    1.0000 0.39749  0.15735  0.70463  Biso   1.000  He
  Ne466    1.0000 0.36769  0.15985  0.69334  Biso   1.000  Ne
  Ne467    1.0000 0.61685  0.87834  0.48219  Biso   1.000  Ne
  He467    1.0000 0.60681  0.88835  0.45182  Biso   1.000  He
  He468    1.0000 0.60091  0.86382  0.43473  Biso   1.000  He
  Ne468    1.0000 0.59475  0.87342  0.40254  Biso   1.000  Ne
  Ne469    1.0000 0.36213  0.38320  0.29815  Biso   1.000  Ne
  He469    1.0000 0.33045  0.37779  0.29179  Biso   1.000  He
  He470    1.0000 0.32517  0.35672  0.26681  Biso   1.000  He
  Ne470    1.0000 0.29363  0.35110  0.26187  Biso   1.000  Ne
  Ne471    1.0000 0.58655  0.98593  0.56829  Biso   1.000  Ne
  He471    1.0000 0.56658  0.95860  0.57752  Biso   1.000  He
  He472    1.0000 0.57685  0.93743  0.60181  Biso   1.000  He
  Ne472    1.0000 0.55641  0.91337  0.60854  Biso   1.000  Ne
  Ne473    1.0000 0.25537  0.78503  0.29574  Biso   1.000  Ne
  He473    1.0000 0.28665  0.80064  0.29467  Biso   1.000  He
  He474    1.0000 0.31387  0.77786  0.28843  Biso   1.000  He
  Ne474    1.0000 0.34551  0.79334  0.28809  Biso   1.000  Ne
  Ne475    1.0000 0.27235  0.16907  0.14321  Biso   1.000  Ne
  He475    1.0000 0.24032  0.16005  0.14780  Biso   1.000  He
  He476    1.0000 0.23440  0.13813  0.12740  Biso   1.000  He
  Ne476    1.0000 0.20259  0.13105  0.13004  Biso   1.000  Ne
  Ne477    1.0000 0.22480  0.59435  0.94574  Biso   1.000  Ne
  He477    1.0000 0.24263  0.57815  0.91979  Biso   1.000  He
  He478    1.0000 0.22839  0.55365  0.90229  Biso   1.000  He
  Ne478    1.0000 0.24535  0.54427  0.87616  Biso   1.000  Ne
  Ne479    1.0000 0.90943  0.68848  0.99605  Biso   1.000  Ne
  He479    1.0000 0.88542  0.69928  0.98191  Biso   1.000  He
  He480    1.0000 0.85394  0.68677  0.99313  Biso   1.000  He
  Ne480    1.0000 0.82985  0.69398  0.97580  Biso   1.000  Ne
  Ne481    1.0000 0.83460  0.56094  0.77261  Biso   1.000  Ne
  He481    1.0000 0.81725  0.54309  0.79491  Biso   1.000  He
  He482    1.0000 0.80236  0.56153  0.81664  Biso   1.000  He
  Ne482    1.0000 0.78253  0.54104  0.83446  Biso   1.000  Ne
  Ne483    1.0000 0.97948  0.96531  0.11409  Biso   1.000  Ne
  He483    1.0000 0.95828  0.95697  0.08937  Biso   1.000  He
  He484    1.0000 0.95861  0.97832  0.06616  Biso   1.000  He
  Ne484    1.0000 0.93663  0.97400  0.04439  Biso   1.000  Ne
  Ne485    1.0000 0.36538  0.06371  0.67110  Biso   1.000  Ne
  He485    1.0000 0.35279  0.06376  0.63962  Biso   1.000  He
  He486    1.0000 0.37149  0.06258  0.61430  Biso   1.000  He
  Ne486    1.0000 0.35550  0.06449  0.58485  Biso   1.000  Ne
  Ne487    1.0000 0.80115  0.99732  0.42863  Biso   1.000  Ne
  He487    1.0000 0.81215  0.01858  0.40862  Biso   1.000  He
  He488    1.0000 0.80784  0.04913  0.41752  Biso   1.000  He
  Ne488    1.0000 0.82127  0.07404  0.39994  Biso   1.000  Ne
  Ne489    1.0000 0.59014  0.52157  0.14922  Biso   1.000  Ne
  He489    1.0000 0.59695  0.53898  0.17760  Biso   1.000  He
  He490    1.0000 0.60926  0.52558  0.20341  Biso   1.000  He
  Ne490    1.0000 0.60577  0.54517  0.22953  Biso   1.000  Ne
  Ne491    1.0000 0.17546  0.15636  0.97085  Biso   1.000  Ne
  He491    1.0000 0.17834  0.18200  0.95039  Biso   1.000  He
  He492    1.0000 0.18874  0.21091  0.96380  Biso   1.000  He
  Ne492    1.0000 0.19406  0.23386  0.94001  Biso   1.000  Ne
  Ne493    1.0000 0.87307  0.65962  0.21487  Biso   1.000  Ne
  He493    1.0000 0.88651  0.66399  0.24556  Biso   1.000  He
  He494    1.0000 0.91817  0.66669  0.24585  Biso   1.000  He
  Ne494    1.0000 0.92841  0.66386  0.27886  Biso   1.000  Ne
  Ne495    1.0000 0.59469  0.80642  0.32473  Biso   1.000  Ne
  He495    1.0000 0.59188  0.77367  0.33459  Biso   1.000  He
  He496    1.0000 0.60881  0.76757  0.36096  Biso   1.000  He
  Ne496    1.0000 0.60655  0.73624  0.36925  Biso   1.000  Ne
  Ne497    1.0000 0.58760  0.83917  0.66167  Biso   1.000  Ne
  He497    1.0000 0.61943  0.85253  0.65769  Biso   1.000  He
  He498    1.0000 0.62500  0.87286  0.63190  Biso   1.000  He
  Ne498    1.0000 0.65502  0.88460  0.62675  Biso   1.000  Ne
  Ne499    1.0000 0.82700  0.36014  0.43614  Biso   1.000  Ne
  He499    1.0000 0.82423  0.32994  0.45005  Biso   1.000  He
  He500    1.0000 0.79778  0.31261  0.44176  Biso   1.000  He
  Ne500    1.0000 0.78721  0.28566  0.46152  Biso   1.000  Ne
