data_image0
_cell_length_a       46.5441
_cell_length_b       46.7184
_cell_length_c       46.6295
_cell_angle_alpha    90
_cell_angle_beta     90
_cell_angle_gamma    90

_symmetry_space_group_name_H-M    "P 1"
_symmetry_int_tables_number       1

loop_
  _symmetry_equiv_pos_as_xyz
  'x, y, z'

loop_
  _atom_site_label
  _atom_site_occupancy
  _atom_site_fract_x
  _atom_site_fract_y
  _atom_site_fract_z
  _atom_site_thermal_displace_type
  _atom_site_B_iso_or_equiv
  _atom_site_type_symbol
  Ne1      1.0000 0.09780  0.25266  0.62387  Biso   1.000  Ne
  He1      1.0000 0.09195  0.23807  0.65184  Biso   1.000  He
  He2      1.0000 0.09759  0.25647  0.67792  Biso   1.000  He
  Ne2      1.0000 0.09249  0.24112  0.70678  Biso   1.000  Ne
  Ne3      1.0000 0.57101  0.52628  0.96767  Biso   1.000  Ne
  He3      1.0000 0.59257  0.50618  0.98394  Biso   1.000  He
  He4      1.0000 0.59084  0.47422  0.97298  Biso   1.000  He
  Ne4      1.0000 0.61150  0.45335  0.98937  Biso   1.000  Ne
  Ne5      1.0000 0.08871  0.74680  0.92430  Biso   1.000  Ne
  He5      1.0000 0.08452  0.73385  0.89616  Biso   1.000  He
  He6      1.0000 0.10515  0.74580  0.87159  Biso   1.000  He
  Ne6      1.0000 0.09544  0.73094  0.84102  Biso   1.000  Ne
  Ne7      1.0000 0.96743  0.59799  0.63028  Biso   1.000  Ne
  He7      1.0000 0.95777  0.56894  0.62357  Biso   1.000  He
  He8      1.0000 0.92547  0.56859  0.61822  Biso   1.000  He
  Ne8      1.0000 0.91502  0.53877  0.61029  Biso   1.000  Ne
  Ne9      1.0000 0.08330  0.20632  0.90644  Biso   1.000  Ne
  He9      1.0000 0.09544  0.19847  0.87559  Biso   1.000  He
  He10     1.0000 0.07708  0.20687  0.84616  Biso   1.000  He
  Ne10     1.0000 0.09224  0.19627  0.81767  Biso   1.000  Ne
  Ne11     1.0000 0.59602  0.37209  0.19532  Biso   1.000  Ne
  He11     1.0000 0.59873  0.36818  0.22927  Biso   1.000  He
  He12     1.0000 0.59245  0.34090  0.24143  Biso   1.000  He
  Ne12     1.0000 0.59182  0.34404  0.27527  Biso   1.000  Ne
  Ne13     1.0000 0.77213  0.08217  0.94312  Biso   1.000  Ne
  He13     1.0000 0.76264  0.06058  0.96684  Biso   1.000  He
  He14     1.0000 0.74492  0.03359  0.95528  Biso   1.000  He
  Ne14     1.0000 0.73063  0.01745  0.97894  Biso   1.000  Ne
  Ne15     1.0000 0.66650  0.67718  0.65366  Biso   1.000  Ne
  He15     1.0000 0.66214  0.70753  0.64197  Biso   1.000  He
  He16     1.0000 0.69122  0.72256  0.63785  Biso   1.000  He
  Ne16     1.0000 0.69047  0.75688  0.63098  Biso   1.000  Ne
  Ne17     1.0000 0.03593  0.41124  0.18273  Biso   1.000  Ne
  He17     1.0000 0.00991  0.42109  0.20018  Biso   1.000  He
  He18     1.0000 0.01515  0.44766  0.21742  Biso   1.000  He
  Ne18     1.0000 0.99113  0.45811  0.23517  Biso   1.000  Ne
  Ne19     1.0000 0.09815  0.33887  0.39034  Biso   1.000  Ne
  He19     1.0000 0.08725  0.31537  0.36968  Biso   1.000  He
  He20     1.0000 0.09675  0.31794  0.33697  Biso   1.000  He
  Ne20     1.0000 0.08647  0.29603  0.31414  Biso   1.000  Ne
  Ne21     1.0000 0.59650  0.14778  0.69524  Biso   1.000  Ne
  He21     1.0000 0.59979  0.14406  0.66122  Biso   1.000  He
  He22     1.0000 0.58161  0.16609  0.64646  Biso   1.000  He
  Ne22     1.0000 0.58392  0.16267  0.61472  Biso   1.000  Ne
  Ne23     1.0000 0.25029  0.33026  0.68499  Biso   1.000  Ne
  He23     1.0000 0.24430  0.35591  0.66639  Biso   1.000  He
  He24     1.0000 0.21211  0.36905  0.66679  Biso   1.000  He
  Ne24     1.0000 0.21115  0.39722  0.64800  Biso   1.000  Ne
  Ne25     1.0000 0.43590  0.07240  0.78965  Biso   1.000  Ne
  He25     1.0000 0.43697  0.06756  0.82213  Biso   1.000  He
  He26     1.0000 0.46787  0.05900  0.83252  Biso   1.000  He
  Ne26     1.0000 0.47369  0.05707  0.86510  Biso   1.000  Ne
  Ne27     1.0000 0.12198  0.84822  0.21145  Biso   1.000  Ne
  He27     1.0000 0.11940  0.82370  0.23672  Biso   1.000  He
  He28     1.0000 0.12078  0.79115  0.22625  Biso   1.000  He
  Ne28     1.0000 0.11300  0.77011  0.25161  Biso   1.000  Ne
  Ne29     1.0000 0.97963  0.27422  0.07406  Biso   1.000  Ne
  He29     1.0000 0.96108  0.27591  0.04538  Biso   1.000  He
  He30     1.0000 0.98137  0.28183  0.01890  Biso   1.000  He
  Ne30     1.0000 0.97141  0.26876  0.99130  Biso   1.000  Ne
  Ne31     1.0000 0.81207  0.36246  0.38348  Biso   1.000  Ne
  He31     1.0000 0.79849  0.37795  0.40984  Biso   1.000  He
  He32     1.0000 0.80705  0.36107  0.43991  Biso   1.000  He
  Ne32     1.0000 0.79574  0.37857  0.46502  Biso   1.000  Ne
  Ne33     1.0000 0.41856  0.68279  0.27139  Biso   1.000  Ne
  He33     1.0000 0.42203  0.71258  0.28516  Biso   1.000  He
  He34     1.0000 0.44846  0.73113  0.27325  Biso   1.000  He
  Ne34     1.0000 0.45348  0.75991  0.28822  Biso   1.000  Ne
  Ne35     1.0000 0.93552  0.87673  0.26639  Biso   1.000  Ne
  He35     1.0000 0.94842  0.86075  0.23933  Biso   1.000  He
  He36     1.0000 0.92576  0.84558  0.21850  Biso   1.000  He
  Ne36     1.0000 0.93951  0.83472  0.19123  Biso   1.000  Ne
  Ne37     1.0000 0.50868  0.61935  0.35637  Biso   1.000  Ne
  He37     1.0000 0.53074  0.62186  0.37855  Biso   1.000  He
  He38     1.0000 0.55324  0.64511  0.37257  Biso   1.000  He
  Ne38     1.0000 0.57609  0.65284  0.39533  Biso   1.000  Ne
  Ne39     1.0000 0.79681  0.56500  0.79951  Biso   1.000  Ne
  He39     1.0000 0.82364  0.56202  0.82013  Biso   1.000  He
  He40     1.0000 0.84963  0.54795  0.80660  Biso   1.000  He
  Ne40     1.0000 0.87723  0.54785  0.82513  Biso   1.000  Ne
  Ne41     1.0000 0.48562  0.09524  0.23282  Biso   1.000  Ne
  He41     1.0000 0.50949  0.10121  0.20775  Biso   1.000  He
  He42     1.0000 0.50651  0.13249  0.19659  Biso   1.000  He
  Ne42     1.0000 0.53542  0.14163  0.17937  Biso   1.000  Ne
  Ne43     1.0000 0.34797  0.29522  0.93050  Biso   1.000  Ne
  He43     1.0000 0.33134  0.27603  0.90928  Biso   1.000  He
  He44     1.0000 0.29913  0.27103  0.91587  Biso   1.000  He
  Ne44     1.0000 0.28408  0.24950  0.89655  Biso   1.000  Ne
  Ne45     1.0000 0.16914  0.32191  0.20408  Biso   1.000  Ne
  He45     1.0000 0.17084  0.33637  0.17612  Biso   1.000  He
  He46     1.0000 0.14527  0.35404  0.16569  Biso   1.000  He
  Ne46     1.0000 0.14815  0.36215  0.13516  Biso   1.000  Ne
  Ne47     1.0000 0.13687  0.61574  0.97396  Biso   1.000  Ne
  He47     1.0000 0.15951  0.59388  0.98064  Biso   1.000  He
  He48     1.0000 0.19151  0.60266  0.97691  Biso   1.000  He
  Ne48     1.0000 0.21188  0.57649  0.98071  Biso   1.000  Ne
  Ne49     1.0000 0.13788  0.88318  0.79568  Biso   1.000  Ne
  He49     1.0000 0.11523  0.89382  0.81589  Biso   1.000  He
  He50     1.0000 0.12198  0.88531  0.84771  Biso   1.000  He
  Ne50     1.0000 0.10103  0.89964  0.86889  Biso   1.000  Ne
  Ne51     1.0000 0.73750  0.59884  0.24171  Biso   1.000  Ne
  He51     1.0000 0.76825  0.61249  0.23373  Biso   1.000  He
  He52     1.0000 0.77754  0.63710  0.25586  Biso   1.000  He
  Ne52     1.0000 0.80510  0.64970  0.24738  Biso   1.000  Ne
  Ne53     1.0000 0.68600  0.04626  0.33716  Biso   1.000  Ne
  He53     1.0000 0.69066  0.06584  0.36293  Biso   1.000  He
  He54     1.0000 0.68284  0.04974  0.39237  Biso   1.000  He
  Ne54     1.0000 0.70016  0.05586  0.42125  Biso   1.000  Ne
  Ne55     1.0000 0.79638  0.73409  0.44322  Biso   1.000  Ne
  He55     1.0000 0.76938  0.75472  0.45049  Biso   1.000  He
  He56     1.0000 0.77788  0.78060  0.46821  Biso   1.000  He
  Ne56     1.0000 0.75573  0.79678  0.47851  Biso   1.000  Ne
  Ne57     1.0000 0.66109  0.72677  0.96059  Biso   1.000  Ne
  He57     1.0000 0.68394  0.74811  0.96227  Biso   1.000  He
  He58     1.0000 0.69267  0.75897  0.93201  Biso   1.000  He
  Ne58     1.0000 0.71698  0.78337  0.93193  Biso   1.000  Ne
  Ne59     1.0000 0.13436  0.69153  0.59257  Biso   1.000  Ne
  He59     1.0000 0.15136  0.66656  0.60994  Biso   1.000  He
  He60     1.0000 0.18414  0.67027  0.61208  Biso   1.000  He
  Ne60     1.0000 0.19913  0.65353  0.63505  Biso   1.000  Ne
  Ne61     1.0000 0.58795  0.93936  0.44889  Biso   1.000  Ne
  He61     1.0000 0.56248  0.93884  0.46887  Biso   1.000  He
  He62     1.0000 0.53318  0.95606  0.46633  Biso   1.000  He
  Ne62     1.0000 0.51510  0.95419  0.49469  Biso   1.000  Ne
  Ne63     1.0000 0.81097  0.19624  0.65301  Biso   1.000  Ne
  He63     1.0000 0.82563  0.21845  0.63197  Biso   1.000  He
  He64     1.0000 0.83684  0.24693  0.64548  Biso   1.000  He
  Ne64     1.0000 0.84966  0.26974  0.62278  Biso   1.000  Ne
  Ne65     1.0000 0.32702  0.74340  0.29841  Biso   1.000  Ne
  He65     1.0000 0.32345  0.76723  0.32167  Biso   1.000  He
  He66     1.0000 0.31774  0.79708  0.31144  Biso   1.000  He
  Ne66     1.0000 0.31625  0.82006  0.33555  Biso   1.000  Ne
  Ne67     1.0000 0.51036  0.64404  0.55198  Biso   1.000  Ne
  He67     1.0000 0.53506  0.66568  0.53869  Biso   1.000  He
  He68     1.0000 0.53149  0.67262  0.50686  Biso   1.000  He
  Ne68     1.0000 0.55408  0.68934  0.49008  Biso   1.000  Ne
  Ne69     1.0000 0.30235  0.85399  0.78091  Biso   1.000  Ne
  He69     1.0000 0.28608  0.87627  0.76093  Biso   1.000  He
  He70     1.0000 0.26954  0.86714  0.73536  Biso   1.000  He
  Ne70     1.0000 0.26053  0.89245  0.71775  Biso   1.000  Ne
  Ne71     1.0000 0.88994  0.64134  0.65333  Biso   1.000  Ne
  He71     1.0000 0.87458  0.66414  0.63411  Biso   1.000  He
  He72     1.0000 0.84880  0.67815  0.64982  Biso   1.000  He
  Ne72     1.0000 0.86177  0.70401  0.66882  Biso   1.000  Ne
  Ne73     1.0000 0.62107  0.30164  0.95304  Biso   1.000  Ne
  He73     1.0000 0.64202  0.28134  0.93766  Biso   1.000  He
  He74     1.0000 0.67500  0.29257  0.94001  Biso   1.000  He
  Ne74     1.0000 0.69752  0.27126  0.92801  Biso   1.000  Ne
  Ne75     1.0000 0.59059  0.13079  0.93570  Biso   1.000  Ne
  He75     1.0000 0.57935  0.16270  0.93082  Biso   1.000  He
  He76     1.0000 0.60391  0.18294  0.91558  Biso   1.000  He
  Ne76     1.0000 0.59516  0.21422  0.90774  Biso   1.000  Ne
  Ne77     1.0000 0.75222  0.07928  0.67152  Biso   1.000  Ne
  He77     1.0000 0.77677  0.06082  0.65900  Biso   1.000  He
  He78     1.0000 0.80692  0.06244  0.67710  Biso   1.000  He
  Ne78     1.0000 0.83174  0.04270  0.66465  Biso   1.000  Ne
  Ne79     1.0000 0.63526  0.52877  0.21395  Biso   1.000  Ne
  He79     1.0000 0.64857  0.54156  0.18722  Biso   1.000  He
  He80     1.0000 0.67834  0.55997  0.18899  Biso   1.000  He
  Ne80     1.0000 0.68654  0.57218  0.15917  Biso   1.000  Ne
  Ne81     1.0000 0.58457  0.71307  0.96008  Biso   1.000  Ne
  He81     1.0000 0.57306  0.72205  0.93050  Biso   1.000  He
  He82     1.0000 0.58986  0.70859  0.90544  Biso   1.000  He
  Ne82     1.0000 0.58035  0.72140  0.87707  Biso   1.000  Ne
  Ne83     1.0000 0.48173  0.03842  0.48632  Biso   1.000  Ne
  He83     1.0000 0.45455  0.03962  0.46492  Biso   1.000  He
  He84     1.0000 0.46134  0.02340  0.43905  Biso   1.000  He
  Ne84     1.0000 0.43427  0.01945  0.41739  Biso   1.000  Ne
  Ne85     1.0000 0.74835  0.85632  0.92470  Biso   1.000  Ne
  He85     1.0000 0.78239  0.86956  0.92865  Biso   1.000  He
  He86     1.0000 0.78472  0.89979  0.94140  Biso   1.000  He
  Ne86     1.0000 0.81704  0.90862  0.94488  Biso   1.000  Ne
  Ne87     1.0000 0.25945  0.53417  0.90654  Biso   1.000  Ne
  He87     1.0000 0.28914  0.54530  0.91494  Biso   1.000  He
  He88     1.0000 0.30464  0.52939  0.93855  Biso   1.000  He
  Ne88     1.0000 0.33553  0.54049  0.94223  Biso   1.000  Ne
  Ne89     1.0000 0.91227  0.16741  0.86602  Biso   1.000  Ne
  He89     1.0000 0.90682  0.13728  0.85412  Biso   1.000  He
  He90     1.0000 0.87295  0.12890  0.85637  Biso   1.000  He
  Ne90     1.0000 0.86482  0.09983  0.83928  Biso   1.000  Ne
  Ne91     1.0000 0.69116  0.12816  0.61827  Biso   1.000  Ne
  He91     1.0000 0.69259  0.15950  0.63281  Biso   1.000  He
  He92     1.0000 0.67692  0.18501  0.61567  Biso   1.000  He
  Ne92     1.0000 0.67904  0.21471  0.62779  Biso   1.000  Ne
  Ne93     1.0000 0.80373  0.44713  0.02432  Biso   1.000  Ne
  He93     1.0000 0.82881  0.45869  0.00374  Biso   1.000  He
  He94     1.0000 0.82345  0.49215  0.00385  Biso   1.000  He
  Ne94     1.0000 0.84850  0.51140  0.99324  Biso   1.000  Ne
  Ne95     1.0000 0.10610  0.77455  0.14943  Biso   1.000  Ne
  He95     1.0000 0.09033  0.75037  0.13578  Biso   1.000  He
  He96     1.0000 0.10519  0.73415  0.11232  Biso   1.000  He
  Ne96     1.0000 0.08330  0.70859  0.10277  Biso   1.000  Ne
  Ne97     1.0000 0.12678  0.71930  0.69302  Biso   1.000  Ne
  He97     1.0000 0.12584  0.71039  0.72539  Biso   1.000  He
  He98     1.0000 0.13686  0.68002  0.73032  Biso   1.000  He
  Ne98     1.0000 0.14289  0.67351  0.76012  Biso   1.000  Ne
  Ne99     1.0000 0.90149  0.00656  0.73051  Biso   1.000  Ne
  He99     1.0000 0.87174  0.99190  0.72049  Biso   1.000  He
  He100    1.0000 0.87467  0.96475  0.70281  Biso   1.000  He
  Ne100    1.0000 0.84646  0.95066  0.69424  Biso   1.000  Ne
  Ne101    1.0000 0.41199  0.76956  0.37444  Biso   1.000  Ne
  He101    1.0000 0.40735  0.76453  0.40533  Biso   1.000  He
  He102    1.0000 0.39503  0.73185  0.41104  Biso   1.000  He
  Ne102    1.0000 0.38888  0.72320  0.44392  Biso   1.000  Ne
  Ne103    1.0000 0.31966  0.44362  0.36068  Biso   1.000  Ne
  He103    1.0000 0.33170  0.46636  0.38102  Biso   1.000  He
  He104    1.0000 0.36087  0.48035  0.37200  Biso   1.000  He
  Ne104    1.0000 0.36956  0.50536  0.39558  Biso   1.000  Ne
  Ne105    1.0000 0.35096  0.60003  0.49863  Biso   1.000  Ne
  He105    1.0000 0.35503  0.59669  0.53250  Biso   1.000  He
  He106    1.0000 0.37818  0.57701  0.53560  Biso   1.000  He
  Ne106    1.0000 0.38598  0.56707  0.56805  Biso   1.000  Ne
  Ne107    1.0000 0.67907  0.91211  0.65209  Biso   1.000  Ne
  He107    1.0000 0.71155  0.90530  0.65648  Biso   1.000  He
  He108    1.0000 0.72331  0.89121  0.62739  Biso   1.000  He
  Ne108    1.0000 0.75257  0.87572  0.62897  Biso   1.000  Ne
  Ne109    1.0000 0.49255  0.87814  0.48359  Biso   1.000  Ne
  He109    1.0000 0.46701  0.86387  0.47239  Biso   1.000  He
  He110    1.0000 0.44460  0.88529  0.46426  Biso   1.000  He
  Ne110    1.0000 0.41716  0.86526  0.45636  Biso   1.000  Ne
  Ne111    1.0000 0.59432  0.83861  0.72270  Biso   1.000  Ne
  He111    1.0000 0.61991  0.85950  0.72992  Biso   1.000  He
  He112    1.0000 0.60904  0.89201  0.72494  Biso   1.000  He
  Ne112    1.0000 0.63421  0.91471  0.73047  Biso   1.000  Ne
  Ne113    1.0000 0.17594  0.23392  0.42985  Biso   1.000  Ne
  He113    1.0000 0.14900  0.24919  0.42034  Biso   1.000  He
  He114    1.0000 0.12438  0.24039  0.43902  Biso   1.000  He
  Ne114    1.0000 0.09511  0.25149  0.42633  Biso   1.000  Ne
  Ne115    1.0000 0.38952  0.70033  0.86761  Biso   1.000  Ne
  He115    1.0000 0.41252  0.72555  0.86349  Biso   1.000  He
  He116    1.0000 0.42755  0.73462  0.89194  Biso   1.000  He
  Ne116    1.0000 0.45376  0.75504  0.88940  Biso   1.000  Ne
  Ne117    1.0000 0.61957  0.62790  0.29728  Biso   1.000  Ne
  He117    1.0000 0.61698  0.64732  0.26918  Biso   1.000  He
  He118    1.0000 0.63573  0.63067  0.24564  Biso   1.000  He
  Ne118    1.0000 0.64023  0.64531  0.21836  Biso   1.000  Ne
  Ne119    1.0000 0.86019  0.88704  0.16964  Biso   1.000  Ne
  He119    1.0000 0.83101  0.87499  0.15859  Biso   1.000  He
  He120    1.0000 0.81535  0.89872  0.14166  Biso   1.000  He
  Ne120    1.0000 0.78490  0.89297  0.13184  Biso   1.000  Ne
  Ne121    1.0000 0.94806  0.05456  0.92113  Biso   1.000  Ne
  He121    1.0000 0.92161  0.07588  0.92630  Biso   1.000  He
  He122    1.0000 0.89511  0.06177  0.93877  Biso   1.000  He
  Ne122    1.0000 0.86942  0.08473  0.93976  Biso   1.000  Ne
  Ne123    1.0000 0.35727  0.43687  0.75435  Biso   1.000  Ne
  He123    1.0000 0.33720  0.42713  0.72950  Biso   1.000  He
  He124    1.0000 0.34442  0.39936  0.71190  Biso   1.000  He
  Ne124    1.0000 0.32091  0.39412  0.68867  Biso   1.000  Ne
  Ne125    1.0000 0.59195  0.16970  0.77015  Biso   1.000  Ne
  He125    1.0000 0.60141  0.20015  0.75911  Biso   1.000  He
  He126    1.0000 0.60283  0.22424  0.78416  Biso   1.000  He
  Ne126    1.0000 0.60172  0.25453  0.77366  Biso   1.000  Ne
  Ne127    1.0000 0.65687  0.55876  0.89260  Biso   1.000  Ne
  He127    1.0000 0.68354  0.55411  0.91115  Biso   1.000  He
  He128    1.0000 0.67427  0.56247  0.94312  Biso   1.000  He
  Ne128    1.0000 0.69961  0.55915  0.96712  Biso   1.000  Ne
  Ne129    1.0000 0.32453  0.14369  0.73591  Biso   1.000  Ne
  He129    1.0000 0.29585  0.16120  0.73918  Biso   1.000  He
  He130    1.0000 0.26811  0.14361  0.73445  Biso   1.000  He
  Ne130    1.0000 0.23906  0.16229  0.73293  Biso   1.000  Ne
  Ne131    1.0000 0.44115  0.82785  0.72112  Biso   1.000  Ne
  He131    1.0000 0.43331  0.85867  0.72762  Biso   1.000  He
  He132    1.0000 0.45248  0.86986  0.75260  Biso   1.000  He
  Ne132    1.0000 0.44722  0.90046  0.76284  Biso   1.000  Ne
  Ne133    1.0000 0.40105  0.09523  0.43756  Biso   1.000  Ne
  He133    1.0000 0.40997  0.12630  0.43496  Biso   1.000  He
  He134    1.0000 0.43998  0.13170  0.42836  Biso   1.000  He
  Ne134    1.0000 0.44874  0.16408  0.42710  Biso   1.000  Ne
  Ne135    1.0000 0.16370  0.25944  0.95772  Biso   1.000  Ne
  He135    1.0000 0.19188  0.27635  0.95832  Biso   1.000  He
  He136    1.0000 0.19084  0.30850  0.94848  Biso   1.000  He
  Ne136    1.0000 0.22007  0.32565  0.94956  Biso   1.000  Ne
  Ne137    1.0000 0.68609  0.33982  0.25965  Biso   1.000  Ne
  He137    1.0000 0.71606  0.35830  0.26239  Biso   1.000  He
  He138    1.0000 0.74309  0.33943  0.26930  Biso   1.000  He
  Ne138    1.0000 0.77203  0.35778  0.27281  Biso   1.000  Ne
  Ne139    1.0000 0.05287  0.54818  0.44667  Biso   1.000  Ne
  He139    1.0000 0.05504  0.52695  0.47184  Biso   1.000  He
  He140    1.0000 0.08069  0.50530  0.47117  Biso   1.000  He
  Ne140    1.0000 0.07956  0.47994  0.49111  Biso   1.000  Ne
  Ne141    1.0000 0.23243  0.57696  0.72679  Biso   1.000  Ne
  He141    1.0000 0.25898  0.59581  0.73093  Biso   1.000  He
  He142    1.0000 0.28606  0.57787  0.73975  Biso   1.000  He
  Ne142    1.0000 0.31185  0.59351  0.75378  Biso   1.000  Ne
  Ne143    1.0000 0.92090  0.28509  0.77293  Biso   1.000  Ne
  He143    1.0000 0.95256  0.29493  0.78094  Biso   1.000  He
  He144    1.0000 0.95947  0.31057  0.81265  Biso   1.000  He
  Ne144    1.0000 0.99192  0.31731  0.81784  Biso   1.000  Ne
  Ne145    1.0000 0.30749  0.12438  0.38495  Biso   1.000  Ne
  He145    1.0000 0.32336  0.14941  0.37203  Biso   1.000  He
  He146    1.0000 0.34891  0.15919  0.39104  Biso   1.000  He
  Ne146    1.0000 0.37229  0.17750  0.37707  Biso   1.000  Ne
  Ne147    1.0000 0.09856  0.88555  0.99023  Biso   1.000  Ne
  He147    1.0000 0.08288  0.86851  0.96734  Biso   1.000  He
  He148    1.0000 0.09981  0.83974  0.95670  Biso   1.000  He
  Ne148    1.0000 0.08493  0.82438  0.93110  Biso   1.000  Ne
  Ne149    1.0000 0.77356  0.75863  0.69867  Biso   1.000  Ne
  He149    1.0000 0.78727  0.76799  0.72743  Biso   1.000  He
  He150    1.0000 0.80595  0.74589  0.74308  Biso   1.000  He
  Ne150    1.0000 0.82056  0.75912  0.76813  Biso   1.000  Ne
  Ne151    1.0000 0.58082  0.05872  0.48673  Biso   1.000  Ne
  He151    1.0000 0.57239  0.03907  0.51159  Biso   1.000  He
  He152    1.0000 0.58865  0.01062  0.51476  Biso   1.000  He
  Ne152    1.0000 0.58525  0.99812  0.54858  Biso   1.000  Ne
  Ne153    1.0000 0.09389  0.67826  0.26764  Biso   1.000  Ne
  He153    1.0000 0.12278  0.66616  0.28243  Biso   1.000  He
  He154    1.0000 0.14635  0.69027  0.28825  Biso   1.000  He
  Ne154    1.0000 0.17424  0.68205  0.30291  Biso   1.000  Ne
  Ne155    1.0000 0.90264  0.25142  0.47274  Biso   1.000  Ne
  He155    1.0000 0.91863  0.27646  0.45479  Biso   1.000  He
  He156    1.0000 0.92689  0.30169  0.47487  Biso   1.000  He
  Ne156    1.0000 0.93519  0.33056  0.45604  Biso   1.000  Ne
  Ne157    1.0000 0.06495  0.03012  0.14242  Biso   1.000  Ne
  He157    1.0000 0.08553  0.01371  0.12357  Biso   1.000  He
  He158    1.0000 0.09753  0.03180  0.09786  Biso   1.000  He
  Ne158    1.0000 0.11708  0.01241  0.07698  Biso   1.000  Ne
  Ne159    1.0000 0.18704  0.82705  0.86244  Biso   1.000  Ne
  He159    1.0000 0.19045  0.84869  0.88526  Biso   1.000  He
  He160    1.0000 0.18671  0.84160  0.91722  Biso   1.000  He
  Ne160    1.0000 0.18678  0.86730  0.93789  Biso   1.000  Ne
  Ne161    1.0000 0.73156  0.65567  0.80460  Biso   1.000  Ne
  He161    1.0000 0.75460  0.67009  0.82309  Biso   1.000  He
  He162    1.0000 0.75307  0.70553  0.82318  Biso   1.000  He
  Ne162    1.0000 0.74234  0.71765  0.85123  Biso   1.000  Ne
  Ne163    1.0000 0.01341  0.41613  0.48568  Biso   1.000  Ne
  He163    1.0000 0.98416  0.40545  0.47441  Biso   1.000  He
  He164    1.0000 0.96747  0.42987  0.45801  Biso   1.000  He
  Ne164    1.0000 0.93598  0.42514  0.44938  Biso   1.000  Ne
  Ne165    1.0000 0.41958  0.13375  0.69669  Biso   1.000  Ne
  He165    1.0000 0.41045  0.15859  0.67483  Biso   1.000  He
  He166    1.0000 0.37783  0.16515  0.68029  Biso   1.000  He
  Ne166    1.0000 0.36459  0.18845  0.65653  Biso   1.000  Ne
  Ne167    1.0000 0.95306  0.38682  0.76187  Biso   1.000  Ne
  He167    1.0000 0.94558  0.38564  0.72849  Biso   1.000  He
  He168    1.0000 0.91386  0.39040  0.72375  Biso   1.000  He
  Ne168    1.0000 0.90400  0.39174  0.69190  Biso   1.000  Ne
  Ne169    1.0000 0.32157  0.55049  0.19944  Biso   1.000  Ne
  He169    1.0000 0.29721  0.52622  0.19378  Biso   1.000  He
  He170    1.0000 0.27198  0.54047  0.18038  Biso   1.000  He
  Ne170    1.0000 0.24989  0.52060  0.16875  Biso   1.000  Ne
  Ne171    1.0000 0.46142  0.53235  0.29369  Biso   1.000  Ne
  He171    1.0000 0.46742  0.49803  0.29603  Biso   1.000  He
  He172    1.0000 0.49489  0.49593  0.31056  Biso   1.000  He
  Ne172    1.0000 0.50518  0.46608  0.32009  Biso   1.000  Ne
  Ne173    1.0000 0.09974  0.57891  0.73455  Biso   1.000  Ne
  He173    1.0000 0.10696  0.58891  0.70369  Biso   1.000  He
  He174    1.0000 0.12617  0.56742  0.68761  Biso   1.000  He
  Ne174    1.0000 0.13291  0.57339  0.65687  Biso   1.000  Ne
  Ne175    1.0000 0.72141  0.88640  0.43049  Biso   1.000  Ne
  He175    1.0000 0.68907  0.88977  0.43789  Biso   1.000  He
  He176    1.0000 0.66696  0.86494  0.43974  Biso   1.000  He
  Ne176    1.0000 0.63513  0.87072  0.45098  Biso   1.000  Ne
  Ne177    1.0000 0.70568  0.30355  0.59953  Biso   1.000  Ne
  He177    1.0000 0.68581  0.30391  0.57073  Biso   1.000  He
  He178    1.0000 0.68543  0.27620  0.55231  Biso   1.000  He
  Ne178    1.0000 0.66999  0.27983  0.52452  Biso   1.000  Ne
  Ne179    1.0000 0.91322  0.93006  0.97513  Biso   1.000  Ne
  He179    1.0000 0.93675  0.95007  0.96398  Biso   1.000  He
  He180    1.0000 0.96661  0.93726  0.96217  Biso   1.000  He
  Ne180    1.0000 0.99016  0.95776  0.94675  Biso   1.000  Ne
  Ne181    1.0000 0.92980  0.05024  0.25228  Biso   1.000  Ne
  He181    1.0000 0.90675  0.05675  0.23103  Biso   1.000  He
  He182    1.0000 0.88910  0.03291  0.21867  Biso   1.000  He
  Ne182    1.0000 0.87467  0.04384  0.19026  Biso   1.000  Ne
  Ne183    1.0000 0.22730  0.73926  0.69691  Biso   1.000  Ne
  He183    1.0000 0.20915  0.74964  0.66916  Biso   1.000  He
  He184    1.0000 0.22472  0.75384  0.64124  Biso   1.000  He
  Ne184    1.0000 0.20991  0.76433  0.61442  Biso   1.000  Ne
  Ne185    1.0000 0.89433  0.52128  0.88985  Biso   1.000  Ne
  He185    1.0000 0.87088  0.51106  0.91155  Biso   1.000  He
  He186    1.0000 0.83822  0.51825  0.90188  Biso   1.000  He
  Ne186    1.0000 0.81721  0.50533  0.92143  Biso   1.000  Ne
  Ne187    1.0000 0.59653  0.40012  0.90158  Biso   1.000  Ne
  He187    1.0000 0.61289  0.38909  0.92581  Biso   1.000  He
  He188    1.0000 0.59979  0.38901  0.95532  Biso   1.000  He
  Ne188    1.0000 0.61659  0.37946  0.98109  Biso   1.000  Ne
  Ne189    1.0000 0.47536  0.15949  0.90265  Biso   1.000  Ne
  He189    1.0000 0.47731  0.14292  0.87319  Biso   1.000  He
  He190    1.0000 0.50507  0.15061  0.85645  Biso   1.000  He
  Ne190    1.0000 0.51098  0.13306  0.82824  Biso   1.000  Ne
  Ne191    1.0000 0.36788  0.62144  0.13381  Biso   1.000  Ne
  He191    1.0000 0.36717  0.65434  0.12762  Biso   1.000  He
  He192    1.0000 0.38624  0.67119  0.14621  Biso   1.000  He
  Ne192    1.0000 0.38659  0.70226  0.14220  Biso   1.000  Ne
  Ne193    1.0000 0.14754  0.80086  0.80111  Biso   1.000  Ne
  He193    1.0000 0.16271  0.80050  0.77304  Biso   1.000  He
  He194    1.0000 0.18494  0.82536  0.76856  Biso   1.000  He
  Ne194    1.0000 0.20119  0.82299  0.74064  Biso   1.000  Ne
  Ne195    1.0000 0.04108  0.93847  0.35882  Biso   1.000  Ne
  He195    1.0000 0.05752  0.96390  0.37206  Biso   1.000  He
  He196    1.0000 0.05358  0.96566  0.40450  Biso   1.000  He
  Ne196    1.0000 0.07113  0.99044  0.42111  Biso   1.000  Ne
  Ne197    1.0000 0.81741  0.56430  0.31007  Biso   1.000  Ne
  He197    1.0000 0.81288  0.57887  0.33995  Biso   1.000  He
  He198    1.0000 0.80999  0.55809  0.36483  Biso   1.000  He
  Ne198    1.0000 0.79577  0.57139  0.39275  Biso   1.000  Ne
  Ne199    1.0000 0.82868  0.06161  0.32562  Biso   1.000  Ne
  He199    1.0000 0.85133  0.03779  0.31395  Biso   1.000  He
  He200    1.0000 0.87752  0.03227  0.33584  Biso   1.000  He
  Ne200    1.0000 0.90255  0.01344  0.32429  Biso   1.000  Ne
  Ne201    1.0000 0.44197  0.17448  0.23465  Biso   1.000  Ne
  He201    1.0000 0.44926  0.19061  0.20740  Biso   1.000  He
  He202    1.0000 0.43091  0.17893  0.18256  Biso   1.000  He
  Ne202    1.0000 0.43369  0.19423  0.15481  Biso   1.000  Ne
  Ne203    1.0000 0.14345  0.40472  0.89694  Biso   1.000  Ne
  He203    1.0000 0.17028  0.42249  0.88550  Biso   1.000  He
  He204    1.0000 0.19912  0.40853  0.89595  Biso   1.000  He
  Ne204    1.0000 0.22533  0.42454  0.88082  Biso   1.000  Ne
  Ne205    1.0000 0.90795  0.86900  0.92380  Biso   1.000  Ne
  He205    1.0000 0.91778  0.83880  0.92822  Biso   1.000  He
  He206    1.0000 0.89689  0.81450  0.92282  Biso   1.000  He
  Ne206    1.0000 0.90747  0.78361  0.93271  Biso   1.000  Ne
  Ne207    1.0000 0.25782  0.06868  0.86039  Biso   1.000  Ne
  He207    1.0000 0.27481  0.03994  0.86784  Biso   1.000  He
  He208    1.0000 0.26690  0.02729  0.89806  Biso   1.000  He
  Ne208    1.0000 0.28487  0.00066  0.90803  Biso   1.000  Ne
  Ne209    1.0000 0.92105  0.07638  0.11985  Biso   1.000  Ne
  He209    1.0000 0.91274  0.10632  0.13141  Biso   1.000  He
  He210    1.0000 0.89469  0.12486  0.10971  Biso   1.000  He
  Ne210    1.0000 0.89234  0.15590  0.11927  Biso   1.000  Ne
  Ne211    1.0000 0.65858  0.05316  0.60167  Biso   1.000  Ne
  He211    1.0000 0.62814  0.04361  0.60476  Biso   1.000  He
  He212    1.0000 0.61106  0.05928  0.62627  Biso   1.000  He
  Ne212    1.0000 0.58011  0.04948  0.62909  Biso   1.000  Ne
  Ne213    1.0000 0.81629  0.26876  0.30499  Biso   1.000  Ne
  He213    1.0000 0.79453  0.24647  0.29330  Biso   1.000  He
  He214    1.0000 0.80837  0.21718  0.28240  Biso   1.000  He
  Ne214    1.0000 0.78582  0.19171  0.27288  Biso   1.000  Ne
  Ne215    1.0000 0.48005  0.79290  0.07318  Biso   1.000  Ne
  He215    1.0000 0.49420  0.77003  0.05137  Biso   1.000  He
  He216    1.0000 0.47527  0.76066  0.02779  Biso   1.000  He
  Ne216    1.0000 0.48380  0.73468  0.01089  Biso   1.000  Ne
  Ne217    1.0000 0.69095  0.40520  0.77528  Biso   1.000  Ne
  He217    1.0000 0.71107  0.42181  0.75473  Biso   1.000  He
  He218    1.0000 0.74435  0.42158  0.75914  Biso   1.000  He
  Ne218    1.0000 0.76146  0.43803  0.73699  Biso   1.000  Ne
  Ne219    1.0000 0.20622  0.12874  0.83582  Biso   1.000  Ne
  He219    1.0000 0.23384  0.14669  0.83935  Biso   1.000  He
  He220    1.0000 0.26034  0.13970  0.82113  Biso   1.000  He
  Ne220    1.0000 0.28522  0.15802  0.83437  Biso   1.000  Ne
  Ne221    1.0000 0.09816  0.60045  0.41536  Biso   1.000  Ne
  He221    1.0000 0.10139  0.62921  0.40223  Biso   1.000  He
  He222    1.0000 0.13483  0.63593  0.40174  Biso   1.000  He
  Ne222    1.0000 0.14547  0.66504  0.38660  Biso   1.000  Ne
  Ne223    1.0000 0.54810  0.23652  0.59502  Biso   1.000  Ne
  He223    1.0000 0.54377  0.23729  0.56132  Biso   1.000  He
  He224    1.0000 0.52701  0.26322  0.55231  Biso   1.000  He
  Ne224    1.0000 0.51751  0.26343  0.52222  Biso   1.000  Ne
  Ne225    1.0000 0.39970  0.37292  0.95108  Biso   1.000  Ne
  He225    1.0000 0.37499  0.36938  0.92919  Biso   1.000  He
  He226    1.0000 0.34613  0.37040  0.94520  Biso   1.000  He
  Ne226    1.0000 0.31944  0.37074  0.92714  Biso   1.000  Ne
  Ne227    1.0000 0.32020  0.05772  0.75959  Biso   1.000  Ne
  He227    1.0000 0.34010  0.04465  0.73821  Biso   1.000  He
  He228    1.0000 0.34769  0.06396  0.71150  Biso   1.000  He
  Ne228    1.0000 0.36497  0.05058  0.68555  Biso   1.000  Ne
  Ne229    1.0000 0.10072  0.12972  0.12388  Biso   1.000  Ne
  He229    1.0000 0.12343  0.10372  0.12089  Biso   1.000  He
  He230    1.0000 0.15567  0.11418  0.11852  Biso   1.000  He
  Ne230    1.0000 0.17614  0.08807  0.11289  Biso   1.000  Ne
  Ne231    1.0000 0.71187  0.38500  0.58638  Biso   1.000  Ne
  He231    1.0000 0.72420  0.37444  0.55626  Biso   1.000  He
  He232    1.0000 0.71700  0.39814  0.53524  Biso   1.000  He
  Ne232    1.0000 0.72812  0.39193  0.50367  Biso   1.000  Ne
  Ne233    1.0000 0.33497  0.39372  0.59057  Biso   1.000  Ne
  He233    1.0000 0.30972  0.37238  0.60219  Biso   1.000  He
  He234    1.0000 0.30183  0.34656  0.58222  Biso   1.000  He
  Ne234    1.0000 0.27803  0.32949  0.59366  Biso   1.000  Ne
  Ne235    1.0000 0.36957  0.52979  0.09678  Biso   1.000  Ne
  He235    1.0000 0.39175  0.54526  0.11560  Biso   1.000  He
  He236    1.0000 0.42052  0.52843  0.12501  Biso   1.000  He
  Ne236    1.0000 0.44001  0.54557  0.14463  Biso   1.000  Ne
  Ne237    1.0000 0.18147  0.85724  0.14350  Biso   1.000  Ne
  He237    1.0000 0.16913  0.83282  0.12698  Biso   1.000  He
  He238    1.0000 0.19370  0.81274  0.11779  Biso   1.000  He
  Ne238    1.0000 0.18650  0.78516  0.09892  Biso   1.000  Ne
  Ne239    1.0000 0.92198  0.68427  0.95062  Biso   1.000  Ne
  He239    1.0000 0.92599  0.68440  0.98351  Biso   1.000  He
  He240    1.0000 0.89847  0.67955  0.00141  Biso   1.000  He
  Ne240    1.0000 0.90202  0.68705  0.03263  Biso   1.000  Ne
  Ne241    1.0000 0.33706  0.22026  0.80522  Biso   1.000  Ne
  He241    1.0000 0.34282  0.25279  0.80569  Biso   1.000  He
  He242    1.0000 0.31733  0.26825  0.82103  Biso   1.000  He
  Ne242    1.0000 0.32027  0.30225  0.82472  Biso   1.000  Ne
  Ne243    1.0000 0.41168  0.20027  0.74687  Biso   1.000  Ne
  He243    1.0000 0.42312  0.22765  0.73076  Biso   1.000  He
  He244    1.0000 0.44676  0.22179  0.70973  Biso   1.000  He
  Ne244    1.0000 0.46223  0.24803  0.69288  Biso   1.000  Ne
  Ne245    1.0000 0.65301  0.72500  0.27923  Biso   1.000  Ne
  He245    1.0000 0.63972  0.71098  0.30741  Biso   1.000  He
  He246    1.0000 0.61910  0.72915  0.32623  Biso   1.000  He
  Ne246    1.0000 0.62663  0.73734  0.35827  Biso   1.000  Ne
  Ne247    1.0000 0.15345  0.03096  0.19671  Biso   1.000  Ne
  He247    1.0000 0.12219  0.04138  0.20473  Biso   1.000  He
  He248    1.0000 0.11131  0.03174  0.23665  Biso   1.000  He
  Ne248    1.0000 0.08010  0.03805  0.24523  Biso   1.000  Ne
  Ne249    1.0000 0.27498  0.08717  0.66285  Biso   1.000  Ne
  He249    1.0000 0.27256  0.06760  0.63948  Biso   1.000  He
  He250    1.0000 0.24581  0.07036  0.61989  Biso   1.000  He
  Ne250    1.0000 0.24598  0.05051  0.59436  Biso   1.000  Ne
  Ne251    1.0000 0.76060  0.60699  0.10662  Biso   1.000  Ne
  He251    1.0000 0.78707  0.60398  0.08365  Biso   1.000  He
  He252    1.0000 0.78739  0.62828  0.05937  Biso   1.000  He
  Ne252    1.0000 0.80590  0.61966  0.03329  Biso   1.000  Ne
  Ne253    1.0000 0.80897  0.64243  0.73956  Biso   1.000  Ne
  He253    1.0000 0.83170  0.62433  0.75386  Biso   1.000  He
  He254    1.0000 0.86069  0.64120  0.75653  Biso   1.000  He
  Ne254    1.0000 0.88428  0.62051  0.76482  Biso   1.000  Ne
  Ne255    1.0000 0.14704  0.40530  0.70334  Biso   1.000  Ne
  He255    1.0000 0.13709  0.38790  0.72817  Biso   1.000  He
  He256    1.0000 0.12447  0.35827  0.72184  Biso   1.000  He
  Ne256    1.0000 0.11207  0.34298  0.74659  Biso   1.000  Ne
  Ne257    1.0000 0.69557  0.59257  0.58260  Biso   1.000  Ne
  He257    1.0000 0.69436  0.56195  0.56957  Biso   1.000  He
  He258    1.0000 0.66164  0.55674  0.55799  Biso   1.000  He
  Ne258    1.0000 0.65265  0.52640  0.54776  Biso   1.000  Ne
  Ne259    1.0000 0.33024  0.65037  0.42872  Biso   1.000  Ne
  He259    1.0000 0.29833  0.65149  0.42500  Biso   1.000  He
  He260    1.0000 0.28736  0.68388  0.42660  Biso   1.000  He
  Ne260    1.0000 0.25320  0.68790  0.43414  Biso   1.000  Ne
  Ne261    1.0000 0.80870  0.87916  0.78002  Biso   1.000  Ne
  He261    1.0000 0.78922  0.88804  0.80567  Biso   1.000  He
  He262    1.0000 0.80030  0.91261  0.82772  Biso   1.000  He
  Ne262    1.0000 0.77985  0.92341  0.85287  Biso   1.000  Ne
  Ne263    1.0000 0.29191  0.14403  0.91348  Biso   1.000  Ne
  He263    1.0000 0.30877  0.15812  0.93765  Biso   1.000  He
  He264    1.0000 0.30356  0.13864  0.96453  Biso   1.000  He
  Ne264    1.0000 0.32967  0.11993  0.97257  Biso   1.000  Ne
  Ne265    1.0000 0.17381  0.14494  0.94204  Biso   1.000  Ne
  He265    1.0000 0.15200  0.11897  0.93910  Biso   1.000  He
  He266    1.0000 0.12109  0.12917  0.93901  Biso   1.000  He
  Ne266    1.0000 0.10026  0.10296  0.94090  Biso   1.000  Ne
  Ne267    1.0000 0.00883  0.05466  0.04465  Biso   1.000  Ne
  He267    1.0000 0.97739  0.05147  0.03226  Biso   1.000  He
  He268    1.0000 0.96879  0.01648  0.03149  Biso   1.000  He
  Ne268    1.0000 0.93660  0.00992  0.02257  Biso   1.000  Ne
  Ne269    1.0000 0.17776  0.31360  0.62535  Biso   1.000  Ne
  He269    1.0000 0.14722  0.32314  0.62478  Biso   1.000  He
  He270    1.0000 0.14359  0.35442  0.63142  Biso   1.000  He
  Ne270    1.0000 0.11287  0.36349  0.63340  Biso   1.000  Ne
  Ne271    1.0000 0.59632  0.75448  0.63990  Biso   1.000  Ne
  He271    1.0000 0.59401  0.78514  0.64088  Biso   1.000  He
  He272    1.0000 0.62315  0.80231  0.63876  Biso   1.000  He
  Ne272    1.0000 0.61601  0.83476  0.63672  Biso   1.000  Ne
  Ne273    1.0000 0.51102  0.49215  0.08957  Biso   1.000  Ne
  He273    1.0000 0.52837  0.51687  0.10328  Biso   1.000  He
  He274    1.0000 0.55568  0.50689  0.12101  Biso   1.000  He
  Ne274    1.0000 0.57297  0.53162  0.12944  Biso   1.000  Ne
  Ne275    1.0000 0.41087  0.17002  0.58690  Biso   1.000  Ne
  He275    1.0000 0.42596  0.20142  0.58121  Biso   1.000  He
  He276    1.0000 0.40886  0.22517  0.59280  Biso   1.000  He
  Ne276    1.0000 0.42226  0.25787  0.58290  Biso   1.000  Ne
  Ne277    1.0000 0.12057  0.00953  0.98441  Biso   1.000  Ne
  He277    1.0000 0.08866  0.01009  0.97027  Biso   1.000  He
  He278    1.0000 0.06930  0.03216  0.98245  Biso   1.000  He
  Ne278    1.0000 0.04373  0.04516  0.96511  Biso   1.000  Ne
  Ne279    1.0000 0.19710  0.22511  0.86188  Biso   1.000  Ne
  He279    1.0000 0.21793  0.23033  0.83578  Biso   1.000  He
  He280    1.0000 0.20517  0.22068  0.80810  Biso   1.000  He
  Ne280    1.0000 0.22280  0.23061  0.78268  Biso   1.000  Ne
  Ne281    1.0000 0.29068  0.73863  0.86502  Biso   1.000  Ne
  He281    1.0000 0.31404  0.73304  0.83937  Biso   1.000  He
  He282    1.0000 0.30512  0.71518  0.81286  Biso   1.000  He
  Ne282    1.0000 0.32931  0.71435  0.78849  Biso   1.000  Ne
  Ne283    1.0000 0.67068  0.52527  0.29188  Biso   1.000  Ne
  He283    1.0000 0.68878  0.53727  0.31835  Biso   1.000  He
  He284    1.0000 0.69782  0.56869  0.31457  Biso   1.000  He
  Ne284    1.0000 0.70839  0.58478  0.34059  Biso   1.000  Ne
  Ne285    1.0000 0.42852  0.61235  0.23561  Biso   1.000  Ne
  He285    1.0000 0.41563  0.58962  0.21660  Biso   1.000  He
  He286    1.0000 0.40454  0.56314  0.23466  Biso   1.000  He
  Ne286    1.0000 0.39633  0.53556  0.21706  Biso   1.000  Ne
  Ne287    1.0000 0.45086  0.98069  0.56931  Biso   1.000  Ne
  He287    1.0000 0.46424  0.00807  0.57553  Biso   1.000  He
  He288    1.0000 0.49794  0.00779  0.57134  Biso   1.000  He
  Ne288    1.0000 0.51489  0.03609  0.58354  Biso   1.000  Ne
  Ne289    1.0000 0.85706  0.38185  0.28578  Biso   1.000  Ne
  He289    1.0000 0.83687  0.40707  0.27522  Biso   1.000  He
  He290    1.0000 0.82860  0.40741  0.24392  Biso   1.000  He
  Ne290    1.0000 0.81077  0.43482  0.23744  Biso   1.000  Ne
  Ne291    1.0000 0.76632  0.08105  0.26577  Biso   1.000  Ne
  He291    1.0000 0.77791  0.06892  0.24116  Biso   1.000  He
  He292    1.0000 0.75837  0.04414  0.22870  Biso   1.000  He
  Ne292    1.0000 0.76582  0.03379  0.19731  Biso   1.000  Ne
  Ne293    1.0000 0.72379  0.14659  0.44275  Biso   1.000  Ne
  He293    1.0000 0.74694  0.17159  0.43897  Biso   1.000  He
  He294    1.0000 0.77687  0.16438  0.45193  Biso   1.000  He
  Ne294    1.0000 0.79935  0.18606  0.44726  Biso   1.000  Ne
  Ne295    1.0000 0.71974  0.39669  0.95280  Biso   1.000  Ne
  He295    1.0000 0.71518  0.40342  0.92037  Biso   1.000  He
  He296    1.0000 0.68687  0.39069  0.90817  Biso   1.000  He
  Ne296    1.0000 0.68485  0.39384  0.87354  Biso   1.000  Ne
  Ne297    1.0000 0.25206  0.34554  0.44480  Biso   1.000  Ne
  He297    1.0000 0.21898  0.34628  0.44681  Biso   1.000  He
  He298    1.0000 0.20430  0.31813  0.44220  Biso   1.000  He
  Ne298    1.0000 0.17199  0.32328  0.44365  Biso   1.000  Ne
  Ne299    1.0000 0.09521  0.88608  0.14256  Biso   1.000  Ne
  He299    1.0000 0.07723  0.86432  0.12888  Biso   1.000  He
  He300    1.0000 0.08637  0.85202  0.09741  Biso   1.000  He
  Ne300    1.0000 0.07343  0.82116  0.08947  Biso   1.000  Ne
  Ne301    1.0000 0.65665  0.63915  0.11253  Biso   1.000  Ne
  He301    1.0000 0.62506  0.63880  0.12144  Biso   1.000  He
  He302    1.0000 0.61829  0.61655  0.14464  Biso   1.000  He
  Ne302    1.0000 0.58938  0.62453  0.16252  Biso   1.000  Ne
  Ne303    1.0000 0.09638  0.75181  0.40855  Biso   1.000  Ne
  He303    1.0000 0.10174  0.75458  0.37535  Biso   1.000  He
  He304    1.0000 0.13119  0.74223  0.36258  Biso   1.000  He
  Ne304    1.0000 0.14082  0.75354  0.33443  Biso   1.000  Ne
  Ne305    1.0000 0.60305  0.06010  0.71649  Biso   1.000  Ne
  He305    1.0000 0.59152  0.05882  0.74759  Biso   1.000  He
  He306    1.0000 0.60224  0.08123  0.76946  Biso   1.000  He
  Ne306    1.0000 0.59735  0.07410  0.80215  Biso   1.000  Ne
  Ne307    1.0000 0.25967  0.64506  0.21457  Biso   1.000  Ne
  He307    1.0000 0.26533  0.61584  0.22807  Biso   1.000  He
  He308    1.0000 0.24047  0.59885  0.23773  Biso   1.000  He
  Ne308    1.0000 0.24574  0.56869  0.25001  Biso   1.000  Ne
  Ne309    1.0000 0.71869  0.13915  0.88813  Biso   1.000  Ne
  He309    1.0000 0.68947  0.13725  0.87183  Biso   1.000  He
  He310    1.0000 0.66950  0.11258  0.88547  Biso   1.000  He
  Ne310    1.0000 0.63766  0.11446  0.87793  Biso   1.000  Ne
  Ne311    1.0000 0.47548  0.44787  0.96424  Biso   1.000  Ne
  He311    1.0000 0.50399  0.43203  0.95348  Biso   1.000  He
  He312    1.0000 0.52870  0.43119  0.97485  Biso   1.000  He
  Ne312    1.0000 0.53133  0.40303  0.99258  Biso   1.000  Ne
  Ne313    1.0000 0.20233  0.20541  0.09009  Biso   1.000  Ne
  He313    1.0000 0.20927  0.23601  0.08286  Biso   1.000  He
  He314    1.0000 0.23025  0.23894  0.05585  Biso   1.000  He
  Ne314    1.0000 0.23302  0.26956  0.04445  Biso   1.000  Ne
  Ne315    1.0000 0.87345  0.14583  0.52202  Biso   1.000  Ne
  He315    1.0000 0.89657  0.15040  0.49999  Biso   1.000  He
  He316    1.0000 0.91809  0.12533  0.49984  Biso   1.000  He
  Ne316    1.0000 0.93992  0.12410  0.47248  Biso   1.000  Ne
  Ne317    1.0000 0.64373  0.72196  0.19256  Biso   1.000  Ne
  He317    1.0000 0.62563  0.72466  0.16318  Biso   1.000  He
  He318    1.0000 0.59269  0.72450  0.16409  Biso   1.000  He
  Ne318    1.0000 0.57608  0.72006  0.13729  Biso   1.000  Ne
  Ne319    1.0000 0.67192  0.10898  0.71194  Biso   1.000  Ne
  He319    1.0000 0.68545  0.10521  0.74275  Biso   1.000  He
  He320    1.0000 0.67766  0.12568  0.76655  Biso   1.000  He
  Ne320    1.0000 0.69198  0.12212  0.79587  Biso   1.000  Ne
  Ne321    1.0000 0.15658  0.54228  0.78474  Biso   1.000  Ne
  He321    1.0000 0.18454  0.55892  0.79771  Biso   1.000  He
  He322    1.0000 0.21051  0.53706  0.80248  Biso   1.000  He
  Ne322    1.0000 0.23913  0.54875  0.81047  Biso   1.000  Ne
  Ne323    1.0000 0.23420  0.03551  0.79093  Biso   1.000  Ne
  He323    1.0000 0.21790  0.05367  0.76751  Biso   1.000  He
  He324    1.0000 0.22835  0.05060  0.73739  Biso   1.000  He
  Ne324    1.0000 0.20671  0.06453  0.71493  Biso   1.000  Ne
  Ne325    1.0000 0.40654  0.31660  0.68031  Biso   1.000  Ne
  He325    1.0000 0.40686  0.31281  0.71300  Biso   1.000  He
  He326    1.0000 0.42032  0.33500  0.73143  Biso   1.000  He
  Ne326    1.0000 0.41628  0.32555  0.76418  Biso   1.000  Ne
  Ne327    1.0000 0.96912  0.46562  0.61091  Biso   1.000  Ne
  He327    1.0000 0.95949  0.43224  0.61605  Biso   1.000  He
  He328    1.0000 0.97828  0.41754  0.63902  Biso   1.000  He
  Ne328    1.0000 0.96746  0.38712  0.64547  Biso   1.000  Ne
  Ne329    1.0000 0.91995  0.55027  0.33362  Biso   1.000  Ne
  He329    1.0000 0.91422  0.54579  0.36511  Biso   1.000  He
  He330    1.0000 0.88685  0.56232  0.37675  Biso   1.000  He
  Ne330    1.0000 0.87737  0.55353  0.40851  Biso   1.000  Ne
  Ne331    1.0000 0.56925  0.89468  0.54514  Biso   1.000  Ne
  He331    1.0000 0.56664  0.90275  0.57885  Biso   1.000  He
  He332    1.0000 0.59342  0.91735  0.59127  Biso   1.000  He
  Ne332    1.0000 0.59019  0.91853  0.62565  Biso   1.000  Ne
  Ne333    1.0000 0.22725  0.79865  0.31492  Biso   1.000  Ne
  He333    1.0000 0.22295  0.80736  0.28159  Biso   1.000  He
  He334    1.0000 0.22089  0.77975  0.26396  Biso   1.000  He
  Ne334    1.0000 0.22270  0.78613  0.23284  Biso   1.000  Ne
  Ne335    1.0000 0.32897  0.78752  0.61664  Biso   1.000  Ne
  He335    1.0000 0.32663  0.81703  0.62673  Biso   1.000  He
  He336    1.0000 0.34528  0.83777  0.61133  Biso   1.000  He
  Ne336    1.0000 0.33968  0.86847  0.62176  Biso   1.000  Ne
  Ne337    1.0000 0.33217  0.02820  0.44945  Biso   1.000  Ne
  He337    1.0000 0.33913  0.02725  0.41785  Biso   1.000  He
  He338    1.0000 0.31190  0.01709  0.40168  Biso   1.000  He
  Ne338    1.0000 0.31655  0.01189  0.37045  Biso   1.000  Ne
  Ne339    1.0000 0.43523  0.39459  0.83080  Biso   1.000  Ne
  He339    1.0000 0.40546  0.37870  0.83203  Biso   1.000  He
  He340    1.0000 0.37679  0.39584  0.83954  Biso   1.000  He
  Ne340    1.0000 0.35055  0.37643  0.83897  Biso   1.000  Ne
  Ne341    1.0000 0.34768  0.39000  0.46597  Biso   1.000  Ne
  He341    1.0000 0.34024  0.42136  0.47554  Biso   1.000  He
  He342    1.0000 0.35497  0.42553  0.50434  Biso   1.000  He
  Ne342    1.0000 0.35095  0.45169  0.52302  Biso   1.000  Ne
  Ne343    1.0000 0.39629  0.63684  0.68231  Biso   1.000  Ne
  He343    1.0000 0.41342  0.62477  0.65911  Biso   1.000  He
  He344    1.0000 0.42668  0.64987  0.63949  Biso   1.000  He
  Ne344    1.0000 0.44866  0.64093  0.61769  Biso   1.000  Ne
  Ne345    1.0000 0.12270  0.14565  0.45743  Biso   1.000  Ne
  He345    1.0000 0.14360  0.14677  0.48199  Biso   1.000  He
  He346    1.0000 0.13968  0.17264  0.50581  Biso   1.000  He
  Ne346    1.0000 0.16216  0.17111  0.52865  Biso   1.000  Ne
  Ne347    1.0000 0.60182  0.28983  0.84182  Biso   1.000  Ne
  He347    1.0000 0.61184  0.32046  0.84893  Biso   1.000  He
  He348    1.0000 0.61508  0.34048  0.82226  Biso   1.000  He
  Ne348    1.0000 0.62924  0.36873  0.82670  Biso   1.000  Ne
  Ne349    1.0000 0.76167  0.13550  0.34407  Biso   1.000  Ne
  He349    1.0000 0.73141  0.14207  0.33224  Biso   1.000  He
  He350    1.0000 0.71295  0.15644  0.35608  Biso   1.000  He
  Ne350    1.0000 0.68273  0.16372  0.34834  Biso   1.000  Ne
  Ne351    1.0000 0.94337  0.58717  0.46908  Biso   1.000  Ne
  He351    1.0000 0.95726  0.56153  0.48267  Biso   1.000  He
  He352    1.0000 0.93267  0.54088  0.49511  Biso   1.000  He
  Ne352    1.0000 0.94474  0.51591  0.51248  Biso   1.000  Ne
  Ne353    1.0000 0.68610  0.93660  0.82990  Biso   1.000  Ne
  He353    1.0000 0.70977  0.94473  0.81020  Biso   1.000  He
  He354    1.0000 0.70837  0.92732  0.78059  Biso   1.000  He
  Ne354    1.0000 0.73608  0.92944  0.75927  Biso   1.000  Ne
  Ne355    1.0000 0.25725  0.88097  0.11248  Biso   1.000  Ne
  He355    1.0000 0.28676  0.86737  0.10214  Biso   1.000  He
  He356    1.0000 0.29422  0.87131  0.06926  Biso   1.000  He
  Ne356    1.0000 0.32360  0.85542  0.05892  Biso   1.000  Ne
  Ne357    1.0000 0.38250  0.04725  0.35091  Biso   1.000  Ne
  He357    1.0000 0.40308  0.06444  0.33745  Biso   1.000  He
  He358    1.0000 0.40118  0.09405  0.34575  Biso   1.000  He
  Ne358    1.0000 0.42261  0.11490  0.32887  Biso   1.000  Ne
  Ne359    1.0000 0.42072  0.27539  0.82685  Biso   1.000  Ne
  He359    1.0000 0.44189  0.29659  0.84466  Biso   1.000  He
  He360    1.0000 0.42763  0.31065  0.87317  Biso   1.000  He
  Ne360    1.0000 0.44993  0.32812  0.89294  Biso   1.000  Ne
  Ne361    1.0000 0.54691  0.28574  0.68722  Biso   1.000  Ne
  He361    1.0000 0.57988  0.28058  0.68891  Biso   1.000  He
  He362    1.0000 0.58903  0.25040  0.68998  Biso   1.000  He
  Ne362    1.0000 0.61994  0.24696  0.69567  Biso   1.000  Ne
  Ne363    1.0000 0.89979  0.38049  0.39367  Biso   1.000  Ne
  He363    1.0000 0.89775  0.35456  0.37697  Biso   1.000  He
  He364    1.0000 0.92868  0.34440  0.36611  Biso   1.000  He
  Ne364    1.0000 0.92811  0.31542  0.35152  Biso   1.000  Ne
  Ne365    1.0000 0.64780  0.11327  0.43948  Biso   1.000  Ne
  He365    1.0000 0.64408  0.14228  0.45320  Biso   1.000  He
  He366    1.0000 0.62270  0.16148  0.43840  Biso   1.000  He
  Ne366    1.0000 0.61325  0.18777  0.45451  Biso   1.000  Ne
  Ne367    1.0000 0.03488  0.53879  0.56943  Biso   1.000  Ne
  He367    1.0000 0.06327  0.52746  0.58076  Biso   1.000  He
  He368    1.0000 0.08751  0.53688  0.56171  Biso   1.000  He
  Ne368    1.0000 0.11720  0.53091  0.57255  Biso   1.000  Ne
  Ne369    1.0000 0.41867  0.27262  0.19345  Biso   1.000  Ne
  He369    1.0000 0.41950  0.30116  0.21074  Biso   1.000  He
  He370    1.0000 0.39058  0.30817  0.22301  Biso   1.000  He
  Ne370    1.0000 0.38796  0.33691  0.23880  Biso   1.000  Ne
  Ne371    1.0000 0.07005  0.93954  0.07315  Biso   1.000  Ne
  He371    1.0000 0.04573  0.96037  0.07487  Biso   1.000  He
  He372    1.0000 0.02745  0.95961  0.10462  Biso   1.000  He
  Ne372    1.0000 0.99904  0.97824  0.10388  Biso   1.000  Ne
  Ne373    1.0000 0.44709  0.39876  0.04992  Biso   1.000  Ne
  He373    1.0000 0.43059  0.42091  0.06665  Biso   1.000  He
  He374    1.0000 0.43965  0.45257  0.05557  Biso   1.000  He
  Ne374    1.0000 0.42217  0.47702  0.06243  Biso   1.000  Ne
  Ne375    1.0000 0.94711  0.92495  0.06164  Biso   1.000  Ne
  He375    1.0000 0.96996  0.90371  0.05245  Biso   1.000  He
  He376    1.0000 0.99172  0.91806  0.03214  Biso   1.000  He
  Ne376    1.0000 0.01217  0.89525  0.01824  Biso   1.000  Ne
  Ne377    1.0000 0.08940  0.10974  0.82648  Biso   1.000  Ne
  He377    1.0000 0.09262  0.09834  0.85753  Biso   1.000  He
  He378    1.0000 0.08618  0.06446  0.85914  Biso   1.000  He
  Ne378    1.0000 0.08965  0.05221  0.88740  Biso   1.000  Ne
  Ne379    1.0000 0.05109  0.38751  0.56990  Biso   1.000  Ne
  He379    1.0000 0.05417  0.41991  0.57240  Biso   1.000  He
  He380    1.0000 0.05977  0.43183  0.60253  Biso   1.000  He
  Ne380    1.0000 0.09231  0.43572  0.60831  Biso   1.000  Ne
  Ne381    1.0000 0.29844  0.91766  0.98318  Biso   1.000  Ne
  He381    1.0000 0.27645  0.89280  0.97535  Biso   1.000  He
  He382    1.0000 0.29059  0.86310  0.96834  Biso   1.000  He
  Ne382    1.0000 0.26623  0.84169  0.96166  Biso   1.000  Ne
  Ne383    1.0000 0.84914  0.59912  0.92739  Biso   1.000  Ne
  He383    1.0000 0.83730  0.61494  0.90110  Biso   1.000  He
  He384    1.0000 0.81289  0.63800  0.91019  Biso   1.000  He
  Ne384    1.0000 0.79659  0.65162  0.88391  Biso   1.000  Ne
  Ne385    1.0000 0.91952  0.81048  0.81753  Biso   1.000  Ne
  He385    1.0000 0.91732  0.83843  0.83601  Biso   1.000  He
  He386    1.0000 0.90317  0.86139  0.82325  Biso   1.000  He
  Ne386    1.0000 0.90528  0.88779  0.84315  Biso   1.000  Ne
  Ne387    1.0000 0.43545  0.68328  0.95035  Biso   1.000  Ne
  He387    1.0000 0.42723  0.65286  0.93592  Biso   1.000  He
  He388    1.0000 0.42030  0.63029  0.95897  Biso   1.000  He
  Ne388    1.0000 0.41222  0.60035  0.94759  Biso   1.000  Ne
  Ne389    1.0000 0.28170  0.63680  0.59858  Biso   1.000  Ne
  He389    1.0000 0.27804  0.66690  0.61093  Biso   1.000  He
  He390    1.0000 0.30119  0.68096  0.62984  Biso   1.000  He
  Ne390    1.0000 0.29406  0.71037  0.64484  Biso   1.000  Ne
  Ne391    1.0000 0.85042  0.63827  0.39422  Biso   1.000  Ne
  He391    1.0000 0.85186  0.64230  0.42585  Biso   1.000  He
  He392    1.0000 0.88204  0.64856  0.43704  Biso   1.000  He
  Ne392    1.0000 0.88175  0.66585  0.46339  Biso   1.000  Ne
  Ne393    1.0000 0.44575  0.89935  0.65276  Biso   1.000  Ne
  He393    1.0000 0.45086  0.88435  0.62472  Biso   1.000  He
  He394    1.0000 0.46324  0.90574  0.60413  Biso   1.000  He
  Ne394    1.0000 0.46848  0.89423  0.57394  Biso   1.000  Ne
  Ne395    1.0000 0.16575  0.60024  0.12537  Biso   1.000  Ne
  He395    1.0000 0.19331  0.61148  0.13852  Biso   1.000  He
  He396    1.0000 0.21832  0.61317  0.11871  Biso   1.000  He
  Ne396    1.0000 0.24682  0.61967  0.13284  Biso   1.000  Ne
  Ne397    1.0000 0.19041  0.59685  0.42788  Biso   1.000  Ne
  He397    1.0000 0.21161  0.57535  0.43885  Biso   1.000  He
  He398    1.0000 0.23967  0.56952  0.42236  Biso   1.000  He
  Ne398    1.0000 0.26019  0.54995  0.44187  Biso   1.000  Ne
  Ne399    1.0000 0.92177  0.17222  0.71945  Biso   1.000  Ne
  He399    1.0000 0.92835  0.14327  0.73333  Biso   1.000  He
  He400    1.0000 0.94417  0.12217  0.71488  Biso   1.000  He
  Ne400    1.0000 0.95088  0.09376  0.73069  Biso   1.000  Ne
  Ne401    1.0000 0.50940  0.09550  0.93355  Biso   1.000  Ne
  He401    1.0000 0.50062  0.08671  0.96192  Biso   1.000  He
  He402    1.0000 0.46850  0.07330  0.96075  Biso   1.000  He
  Ne402    1.0000 0.45727  0.06134  0.98819  Biso   1.000  Ne
  Ne403    1.0000 0.21663  0.56115  0.62763  Biso   1.000  Ne
  He403    1.0000 0.24081  0.56067  0.60289  Biso   1.000  He
  He404    1.0000 0.27534  0.55967  0.61099  Biso   1.000  He
  Ne404    1.0000 0.29828  0.55972  0.58586  Biso   1.000  Ne
  Ne405    1.0000 0.68144  0.84305  0.77231  Biso   1.000  Ne
  He405    1.0000 0.70769  0.84281  0.75029  Biso   1.000  He
  He406    1.0000 0.70065  0.83945  0.71677  Biso   1.000  He
  Ne406    1.0000 0.69668  0.80676  0.70989  Biso   1.000  Ne
  Ne407    1.0000 0.91807  0.18112  0.27299  Biso   1.000  Ne
  He407    1.0000 0.93385  0.16071  0.29238  Biso   1.000  He
  He408    1.0000 0.93081  0.16978  0.32497  Biso   1.000  He
  Ne408    1.0000 0.94591  0.15180  0.34871  Biso   1.000  Ne
  Ne409    1.0000 0.76570  0.69547  0.10527  Biso   1.000  Ne
  He409    1.0000 0.74840  0.67210  0.11957  Biso   1.000  He
  He410    1.0000 0.73975  0.67887  0.14757  Biso   1.000  He
  Ne410    1.0000 0.72120  0.65578  0.16151  Biso   1.000  Ne
  Ne411    1.0000 0.31313  0.84283  0.42506  Biso   1.000  Ne
  He411    1.0000 0.32413  0.81271  0.43855  Biso   1.000  He
  He412    1.0000 0.31240  0.78710  0.42356  Biso   1.000  He
  Ne412    1.0000 0.32372  0.75944  0.43837  Biso   1.000  Ne
  Ne413    1.0000 0.41477  0.56661  0.87639  Biso   1.000  Ne
  He413    1.0000 0.43462  0.59211  0.86718  Biso   1.000  He
  He414    1.0000 0.41929  0.61543  0.85236  Biso   1.000  He
  Ne414    1.0000 0.43843  0.63808  0.83967  Biso   1.000  Ne
  Ne415    1.0000 0.45204  0.73334  0.76927  Biso   1.000  Ne
  He415    1.0000 0.42244  0.75022  0.76452  Biso   1.000  He
  He416    1.0000 0.40558  0.76106  0.79287  Biso   1.000  He
  Ne416    1.0000 0.37786  0.77978  0.78512  Biso   1.000  Ne
  Ne417    1.0000 0.82662  0.56153  0.65585  Biso   1.000  Ne
  He417    1.0000 0.85166  0.56834  0.67671  Biso   1.000  He
  He418    1.0000 0.86244  0.54379  0.69648  Biso   1.000  He
  Ne418    1.0000 0.89057  0.54849  0.71274  Biso   1.000  Ne
  Ne419    1.0000 0.72755  0.28326  0.46570  Biso   1.000  Ne
  He419    1.0000 0.75929  0.28851  0.46207  Biso   1.000  He
  He420    1.0000 0.77928  0.26216  0.45920  Biso   1.000  He
  Ne420    1.0000 0.81215  0.27134  0.45200  Biso   1.000  Ne
  Ne421    1.0000 0.94829  0.31803  0.67721  Biso   1.000  Ne
  He421    1.0000 0.93701  0.29963  0.65232  Biso   1.000  He
  He422    1.0000 0.93855  0.26615  0.65293  Biso   1.000  He
  Ne422    1.0000 0.92585  0.25267  0.62605  Biso   1.000  Ne
  Ne423    1.0000 0.60090  0.03859  0.41242  Biso   1.000  Ne
  He423    1.0000 0.59638  0.03248  0.38011  Biso   1.000  He
  He424    1.0000 0.58745  0.05811  0.36012  Biso   1.000  He
  Ne424    1.0000 0.58476  0.05097  0.32774  Biso   1.000  Ne
  Ne425    1.0000 0.59671  0.29887  0.45642  Biso   1.000  Ne
  He425    1.0000 0.60738  0.31391  0.48468  Biso   1.000  He
  He426    1.0000 0.58739  0.30686  0.50909  Biso   1.000  He
  Ne426    1.0000 0.59637  0.31478  0.53960  Biso   1.000  Ne
  Ne427    1.0000 0.09787  0.57826  0.31076  Biso   1.000  Ne
  He427    1.0000 0.11524  0.57673  0.33991  Biso   1.000  He
  He428    1.0000 0.11736  0.54773  0.35138  Biso   1.000  He
  Ne428    1.0000 0.13243  0.54126  0.37940  Biso   1.000  Ne
  Ne429    1.0000 0.58783  0.57247  0.84447  Biso   1.000  Ne
  He429    1.0000 0.60368  0.60046  0.84965  Biso   1.000  He
  He430    1.0000 0.62121  0.61601  0.82273  Biso   1.000  He
  Ne430    1.0000 0.64455  0.64014  0.83012  Biso   1.000  Ne
  Ne431    1.0000 0.98882  0.76965  0.31526  Biso   1.000  Ne
  He431    1.0000 0.00019  0.79258  0.33587  Biso   1.000  He
  He432    1.0000 0.02969  0.80663  0.32740  Biso   1.000  He
  Ne432    1.0000 0.03250  0.83771  0.33903  Biso   1.000  Ne
  Ne433    1.0000 0.19413  0.54043  0.31645  Biso   1.000  Ne
  He433    1.0000 0.19522  0.56364  0.33875  Biso   1.000  He
  He434    1.0000 0.20507  0.59074  0.32649  Biso   1.000  He
  Ne434    1.0000 0.21150  0.61320  0.34427  Biso   1.000  Ne
  Ne435    1.0000 0.61814  0.75833  0.77648  Biso   1.000  Ne
  He435    1.0000 0.61864  0.79057  0.78696  Biso   1.000  He
  He436    1.0000 0.59064  0.79984  0.79935  Biso   1.000  He
  Ne436    1.0000 0.59237  0.83370  0.80730  Biso   1.000  Ne
  Ne437    1.0000 0.37360  0.20076  0.92567  Biso   1.000  Ne
  He437    1.0000 0.40453  0.21401  0.93084  Biso   1.000  He
  He438    1.0000 0.40262  0.24148  0.94577  Biso   1.000  He
  Ne438    1.0000 0.43180  0.25397  0.95207  Biso   1.000  Ne
  Ne439    1.0000 0.14824  0.30723  0.07218  Biso   1.000  Ne
  He439    1.0000 0.13968  0.27500  0.08042  Biso   1.000  He
  He440    1.0000 0.12283  0.27643  0.10939  Biso   1.000  He
  Ne440    1.0000 0.11329  0.24939  0.12276  Biso   1.000  Ne
  Ne441    1.0000 0.80380  0.73757  0.94779  Biso   1.000  Ne
  He441    1.0000 0.80499  0.73847  0.91338  Biso   1.000  He
  He442    1.0000 0.81520  0.76903  0.90003  Biso   1.000  He
  Ne442    1.0000 0.81876  0.77202  0.86890  Biso   1.000  Ne
  Ne443    1.0000 0.77478  0.79006  0.17064  Biso   1.000  Ne
  He443    1.0000 0.75155  0.79731  0.14723  Biso   1.000  He
  He444    1.0000 0.76265  0.78886  0.11639  Biso   1.000  He
  Ne444    1.0000 0.74291  0.79835  0.09018  Biso   1.000  Ne
  Ne445    1.0000 0.11416  0.66978  0.18490  Biso   1.000  Ne
  He445    1.0000 0.13687  0.69352  0.17594  Biso   1.000  He
  He446    1.0000 0.15048  0.70901  0.20114  Biso   1.000  He
  Ne446    1.0000 0.17347  0.73307  0.19456  Biso   1.000  Ne
  Ne447    1.0000 0.19602  0.02241  0.93582  Biso   1.000  Ne
  He447    1.0000 0.18139  0.04320  0.91437  Biso   1.000  He
  He448    1.0000 0.18688  0.03068  0.88399  Biso   1.000  He
  Ne448    1.0000 0.16955  0.04583  0.86303  Biso   1.000  Ne
  Ne449    1.0000 0.34479  0.04365  0.60590  Biso   1.000  Ne
  He449    1.0000 0.36953  0.06574  0.60135  Biso   1.000  He
  He450    1.0000 0.39793  0.05474  0.60691  Biso   1.000  He
  Ne450    1.0000 0.42165  0.07489  0.60608  Biso   1.000  Ne
  Ne451    1.0000 0.91318  0.85290  0.73635  Biso   1.000  Ne
  He451    1.0000 0.93524  0.87677  0.74029  Biso   1.000  He
  He452    1.0000 0.96850  0.86804  0.74653  Biso   1.000  He
  Ne452    1.0000 0.98800  0.89168  0.74898  Biso   1.000  Ne
  Ne453    1.0000 0.59944  0.41915  0.06700  Biso   1.000  Ne
  He453    1.0000 0.56676  0.42652  0.06776  Biso   1.000  He
  He454    1.0000 0.54678  0.41191  0.09119  Biso   1.000  He
  Ne454    1.0000 0.51414  0.41889  0.09026  Biso   1.000  Ne
  Ne455    1.0000 0.33297  0.37342  0.12843  Biso   1.000  Ne
  He455    1.0000 0.33019  0.34133  0.13269  Biso   1.000  He
  He456    1.0000 0.34353  0.32230  0.10918  Biso   1.000  He
  Ne456    1.0000 0.34191  0.29007  0.11440  Biso   1.000  Ne
  Ne457    1.0000 0.55492  0.25336  0.32999  Biso   1.000  Ne
  He457    1.0000 0.55877  0.25106  0.29855  Biso   1.000  He
  He458    1.0000 0.58828  0.24690  0.28625  Biso   1.000  He
  Ne458    1.0000 0.58922  0.24415  0.25324  Biso   1.000  Ne
  Ne459    1.0000 0.91049  0.82716  0.58644  Biso   1.000  Ne
  He459    1.0000 0.87943  0.83191  0.59445  Biso   1.000  He
  He460    1.0000 0.85621  0.83630  0.57236  Biso   1.000  He
  Ne460    1.0000 0.82253  0.84480  0.58330  Biso   1.000  Ne
  Ne461    1.0000 0.92564  0.74432  0.13288  Biso   1.000  Ne
  He461    1.0000 0.91273  0.77618  0.13539  Biso   1.000  He
  He462    1.0000 0.92217  0.79617  0.10894  Biso   1.000  He
  Ne462    1.0000 0.91079  0.82896  0.11096  Biso   1.000  Ne
  Ne463    1.0000 0.79385  0.38711  0.61629  Biso   1.000  Ne
  He463    1.0000 0.81804  0.37137  0.62992  Biso   1.000  He
  He464    1.0000 0.84468  0.38498  0.62158  Biso   1.000  He
  Ne464    1.0000 0.86904  0.36137  0.62635  Biso   1.000  Ne
  Ne465    1.0000 0.42936  0.71727  0.59638  Biso   1.000  Ne
  He465    1.0000 0.43941  0.74540  0.60579  Biso   1.000  He
  He466    1.0000 0.42056  0.77299  0.59653  Biso   1.000  He
  Ne466    1.0000 0.43051  0.80098  0.61204  Biso   1.000  Ne
  Ne467    1.0000 0.93728  0.42462  0.86810  Biso   1.000  Ne
  He467    1.0000 0.90574  0.41777  0.86223  Biso   1.000  He
  He468    1.0000 0.88573  0.44348  0.86903  Biso   1.000  He
  Ne468    1.0000 0.85264  0.43430  0.86640  Biso   1.000  Ne
  Ne469    1.0000 0.66918  0.19736  0.10984  Biso   1.000  Ne
  He469    1.0000 0.66962  0.22794  0.12216  Biso   1.000  He
  He470    1.0000 0.68421  0.24766  0.09985  Biso   1.000  He
  Ne470    1.0000 0.67786  0.28106  0.10792  Biso   1.000  Ne
  Ne471    1.0000 0.42490  0.87344  0.37576  Biso   1.000  Ne
  He471    1.0000 0.41722  0.86361  0.34565  Biso   1.000  He
  He472    1.0000 0.44113  0.86478  0.32604  Biso   1.000  He
  Ne472    1.0000 0.43504  0.84737  0.29782  Biso   1.000  Ne
  Ne473    1.0000 0.71763  0.37276  0.16601  Biso   1.000  Ne
  He473    1.0000 0.69999  0.38648  0.14469  Biso   1.000  He
  He474    1.0000 0.66979  0.37325  0.14413  Biso   1.000  He
  Ne474    1.0000 0.65592  0.37558  0.11434  Biso   1.000  Ne
  Ne475    1.0000 0.55908  0.38097  0.71465  Biso   1.000  Ne
  He475    1.0000 0.57574  0.40284  0.73985  Biso   1.000  He
  He476    1.0000 0.60104  0.42140  0.72714  Biso   1.000  He
  Ne476    1.0000 0.61470  0.44087  0.75073  Biso   1.000  Ne
  Ne477    1.0000 0.04436  0.79951  0.69976  Biso   1.000  Ne
  He477    1.0000 0.04966  0.78987  0.73087  Biso   1.000  He
  He478    1.0000 0.07967  0.78795  0.74201  Biso   1.000  He
  Ne478    1.0000 0.07818  0.78106  0.77356  Biso   1.000  Ne
  Ne479    1.0000 0.39292  0.14463  0.81494  Biso   1.000  Ne
  He479    1.0000 0.37871  0.14830  0.84536  Biso   1.000  He
  He480    1.0000 0.38368  0.12158  0.86592  Biso   1.000  He
  Ne480    1.0000 0.36935  0.12452  0.89349  Biso   1.000  Ne
  Ne481    1.0000 0.39298  0.55107  0.77061  Biso   1.000  Ne
  He481    1.0000 0.42306  0.56804  0.77788  Biso   1.000  He
  He482    1.0000 0.44757  0.57159  0.75455  Biso   1.000  He
  Ne482    1.0000 0.47295  0.58969  0.76197  Biso   1.000  Ne
  Ne483    1.0000 0.44308  0.31820  0.09826  Biso   1.000  Ne
  He483    1.0000 0.43558  0.33354  0.12724  Biso   1.000  He
  He484    1.0000 0.42631  0.36721  0.13093  Biso   1.000  He
  Ne484    1.0000 0.42378  0.37898  0.16200  Biso   1.000  Ne
  Ne485    1.0000 0.23075  0.60806  0.85556  Biso   1.000  Ne
  He485    1.0000 0.26180  0.59854  0.86509  Biso   1.000  He
  He486    1.0000 0.28448  0.60481  0.84166  Biso   1.000  He
  Ne486    1.0000 0.30490  0.62873  0.85185  Biso   1.000  Ne
  Ne487    1.0000 0.34070  0.53003  0.29720  Biso   1.000  Ne
  He487    1.0000 0.30981  0.51715  0.30096  Biso   1.000  He
  He488    1.0000 0.29222  0.52509  0.32750  Biso   1.000  He
  Ne488    1.0000 0.26355  0.50446  0.33023  Biso   1.000  Ne
  Ne489    1.0000 0.63810  0.18943  0.99574  Biso   1.000  Ne
  He489    1.0000 0.65605  0.16612  0.98008  Biso   1.000  He
  He490    1.0000 0.68408  0.15366  0.99346  Biso   1.000  He
  Ne490    1.0000 0.69630  0.13202  0.97397  Biso   1.000  Ne
  Ne491    1.0000 0.58366  0.60544  0.95391  Biso   1.000  Ne
  He491    1.0000 0.61262  0.62076  0.94203  Biso   1.000  He
  He492    1.0000 0.63060  0.63754  0.96364  Biso   1.000  He
  Ne492    1.0000 0.65666  0.64810  0.94811  Biso   1.000  Ne
  Ne493    1.0000 0.15921  0.51843  0.22269  Biso   1.000  Ne
  He493    1.0000 0.13643  0.52056  0.19851  Biso   1.000  He
  He494    1.0000 0.11811  0.49410  0.19542  Biso   1.000  He
  Ne494    1.0000 0.09285  0.49766  0.17095  Biso   1.000  Ne
  Ne495    1.0000 0.59962  0.88563  0.35799  Biso   1.000  Ne
  He495    1.0000 0.63041  0.88011  0.34775  Biso   1.000  He
  He496    1.0000 0.63387  0.87360  0.31663  Biso   1.000  He
  Ne496    1.0000 0.66440  0.86229  0.30377  Biso   1.000  Ne
  Ne497    1.0000 0.30870  0.28057  0.43462  Biso   1.000  Ne
  He497    1.0000 0.30647  0.24924  0.45136  Biso   1.000  He
  He498    1.0000 0.30031  0.22510  0.43261  Biso   1.000  He
  Ne498    1.0000 0.30241  0.19582  0.44613  Biso   1.000  Ne
  Ne499    1.0000 0.20428  0.22741  0.60997  Biso   1.000  Ne
  He499    1.0000 0.21000  0.19536  0.60193  Biso   1.000  He
  He500    1.0000 0.24199  0.18560  0.60057  Biso   1.000  He
  Ne500    1.0000 0.24424  0.15410  0.58992  Biso   1.000  Ne
