data_image0
_cell_length_a       46.6527
_cell_length_b       46.4986
_cell_length_c       46.643
_cell_angle_alpha    90
_cell_angle_beta     90
_cell_angle_gamma    90

_symmetry_space_group_name_H-M    "P 1"
_symmetry_int_tables_number       1

loop_
  _symmetry_equiv_pos_as_xyz
  'x, y, z'

loop_
  _atom_site_label
  _atom_site_occupancy
  _atom_site_fract_x
  _atom_site_fract_y
  _atom_site_fract_z
  _atom_site_thermal_displace_type
  _atom_site_B_iso_or_equiv
  _atom_site_type_symbol
  Ne1      1.0000 0.82543  0.75445  0.55324  Biso   1.000  Ne
  He1      1.0000 0.83200  0.72432  0.55350  Biso   1.000  He
  He2      1.0000 0.85336  0.71051  0.57383  Biso   1.000  He
  Ne2      1.0000 0.85963  0.67691  0.57095  Biso   1.000  Ne
  Ne3      1.0000 0.72285  0.99280  0.02525  Biso   1.000  Ne
  He3      1.0000 0.71660  0.97465  0.00015  Biso   1.000  He
  He4      1.0000 0.74314  0.95706  0.98889  Biso   1.000  He
  Ne4      1.0000 0.73280  0.93143  0.96661  Biso   1.000  Ne
  Ne5      1.0000 0.44825  0.36132  0.08316  Biso   1.000  Ne
  He5      1.0000 0.43308  0.33190  0.07401  Biso   1.000  He
  He6      1.0000 0.43875  0.30370  0.09177  Biso   1.000  He
  Ne6      1.0000 0.42015  0.27914  0.07973  Biso   1.000  Ne
  Ne7      1.0000 0.29212  0.48920  0.52985  Biso   1.000  Ne
  He7      1.0000 0.30934  0.48118  0.50229  Biso   1.000  He
  He8      1.0000 0.32060  0.45009  0.50330  Biso   1.000  He
  Ne8      1.0000 0.34144  0.44111  0.47694  Biso   1.000  Ne
  Ne9      1.0000 0.63159  0.64647  0.22436  Biso   1.000  Ne
  He9      1.0000 0.61834  0.63973  0.19476  Biso   1.000  He
  He10     1.0000 0.59805  0.61478  0.19534  Biso   1.000  He
  Ne10     1.0000 0.58034  0.61444  0.16618  Biso   1.000  Ne
  Ne11     1.0000 0.05187  0.98552  0.05605  Biso   1.000  Ne
  He11     1.0000 0.04167  0.95725  0.04079  Biso   1.000  He
  He12     1.0000 0.05681  0.93100  0.05185  Biso   1.000  He
  Ne12     1.0000 0.03767  0.90101  0.04729  Biso   1.000  Ne
  Ne13     1.0000 0.99044  0.55378  0.51458  Biso   1.000  Ne
  He13     1.0000 0.01572  0.57157  0.51887  Biso   1.000  He
  He14     1.0000 0.04154  0.55483  0.53138  Biso   1.000  He
  Ne14     1.0000 0.06857  0.57467  0.53400  Biso   1.000  Ne
  Ne15     1.0000 0.86384  0.11265  0.08881  Biso   1.000  Ne
  He15     1.0000 0.89208  0.09711  0.08911  Biso   1.000  He
  He16     1.0000 0.88697  0.07196  0.11013  Biso   1.000  He
  Ne16     1.0000 0.91408  0.05399  0.11921  Biso   1.000  Ne
  Ne17     1.0000 0.85235  0.96531  0.42810  Biso   1.000  Ne
  He17     1.0000 0.82236  0.95434  0.41958  Biso   1.000  He
  He18     1.0000 0.81948  0.92272  0.41081  Biso   1.000  He
  Ne18     1.0000 0.80715  0.90363  0.43433  Biso   1.000  Ne
  Ne19     1.0000 0.24122  0.38739  0.74292  Biso   1.000  Ne
  He19     1.0000 0.25250  0.40429  0.76858  Biso   1.000  He
  He20     1.0000 0.28322  0.39912  0.77688  Biso   1.000  He
  Ne20     1.0000 0.29257  0.41575  0.80338  Biso   1.000  Ne
  Ne21     1.0000 0.70942  0.02838  0.86352  Biso   1.000  Ne
  He21     1.0000 0.72671  0.03430  0.88932  Biso   1.000  He
  He22     1.0000 0.74536  0.00938  0.89924  Biso   1.000  He
  Ne22     1.0000 0.76402  0.01820  0.92817  Biso   1.000  Ne
  Ne23     1.0000 0.58118  0.54357  0.91980  Biso   1.000  Ne
  He23     1.0000 0.54932  0.54117  0.92869  Biso   1.000  He
  He24     1.0000 0.54789  0.54635  0.96126  Biso   1.000  He
  Ne24     1.0000 0.51875  0.55265  0.97668  Biso   1.000  Ne
  Ne25     1.0000 0.96248  0.59216  0.79256  Biso   1.000  Ne
  He25     1.0000 0.97770  0.60317  0.82042  Biso   1.000  He
  He26     1.0000 0.95694  0.60531  0.84553  Biso   1.000  He
  Ne26     1.0000 0.96893  0.61985  0.87598  Biso   1.000  Ne
  Ne27     1.0000 0.61018  0.19025  0.58720  Biso   1.000  Ne
  He27     1.0000 0.64123  0.18106  0.58849  Biso   1.000  He
  He28     1.0000 0.65850  0.19964  0.61244  Biso   1.000  He
  Ne28     1.0000 0.68691  0.18691  0.61819  Biso   1.000  Ne
  Ne29     1.0000 0.03605  0.56133  0.44727  Biso   1.000  Ne
  He29     1.0000 0.06122  0.54167  0.43999  Biso   1.000  He
  He30     1.0000 0.08816  0.55080  0.45387  Biso   1.000  He
  Ne30     1.0000 0.11429  0.53023  0.44958  Biso   1.000  Ne
  Ne31     1.0000 0.61230  0.36154  0.15733  Biso   1.000  Ne
  He31     1.0000 0.59795  0.37039  0.18383  Biso   1.000  He
  He32     1.0000 0.62202  0.37866  0.20922  Biso   1.000  He
  Ne32     1.0000 0.60848  0.39141  0.23615  Biso   1.000  Ne
  Ne33     1.0000 0.32072  0.66212  0.88124  Biso   1.000  Ne
  He33     1.0000 0.30918  0.69626  0.87485  Biso   1.000  He
  He34     1.0000 0.30883  0.71725  0.89998  Biso   1.000  He
  Ne34     1.0000 0.29817  0.74772  0.89578  Biso   1.000  Ne
  Ne35     1.0000 0.36669  0.66758  0.08539  Biso   1.000  Ne
  He35     1.0000 0.39965  0.66022  0.08063  Biso   1.000  He
  He36     1.0000 0.40458  0.62689  0.08157  Biso   1.000  He
  Ne36     1.0000 0.43425  0.62227  0.08269  Biso   1.000  Ne
  Ne37     1.0000 0.35526  0.81521  0.58778  Biso   1.000  Ne
  He37     1.0000 0.34468  0.84902  0.58244  Biso   1.000  He
  He38     1.0000 0.35228  0.87378  0.60379  Biso   1.000  He
  Ne38     1.0000 0.33664  0.90321  0.59858  Biso   1.000  Ne
  Ne39     1.0000 0.21983  0.08112  0.21044  Biso   1.000  Ne
  He39     1.0000 0.18764  0.07859  0.21141  Biso   1.000  He
  He40     1.0000 0.17480  0.06174  0.18569  Biso   1.000  He
  Ne40     1.0000 0.14226  0.05599  0.18924  Biso   1.000  Ne
  Ne41     1.0000 0.90187  0.59730  0.73640  Biso   1.000  Ne
  He41     1.0000 0.91254  0.58310  0.70748  Biso   1.000  He
  He42     1.0000 0.94350  0.58921  0.70349  Biso   1.000  He
  Ne42     1.0000 0.95311  0.57959  0.67093  Biso   1.000  Ne
  Ne43     1.0000 0.19033  0.83512  0.91871  Biso   1.000  Ne
  He43     1.0000 0.17289  0.86188  0.91827  Biso   1.000  He
  He44     1.0000 0.18846  0.88577  0.89970  Biso   1.000  He
  Ne44     1.0000 0.16976  0.90741  0.88816  Biso   1.000  Ne
  Ne45     1.0000 0.72327  0.12654  0.44523  Biso   1.000  Ne
  He45     1.0000 0.73619  0.12292  0.41552  Biso   1.000  He
  He46     1.0000 0.73060  0.09635  0.39937  Biso   1.000  He
  Ne46     1.0000 0.75198  0.07023  0.40540  Biso   1.000  Ne
  Ne47     1.0000 0.43336  0.53372  0.22586  Biso   1.000  Ne
  He47     1.0000 0.41923  0.56048  0.21235  Biso   1.000  He
  He48     1.0000 0.41653  0.55826  0.18089  Biso   1.000  He
  Ne48     1.0000 0.40426  0.58258  0.16330  Biso   1.000  Ne
  Ne49     1.0000 0.79842  0.73878  0.11742  Biso   1.000  Ne
  He49     1.0000 0.80200  0.76066  0.09165  Biso   1.000  He
  He50     1.0000 0.79851  0.79278  0.10139  Biso   1.000  He
  Ne50     1.0000 0.80876  0.81768  0.07855  Biso   1.000  Ne
  Ne51     1.0000 0.19214  0.56833  0.66323  Biso   1.000  Ne
  He51     1.0000 0.16760  0.56012  0.64247  Biso   1.000  He
  He52     1.0000 0.13629  0.57160  0.65186  Biso   1.000  He
  Ne52     1.0000 0.11262  0.56432  0.62865  Biso   1.000  Ne
  Ne53     1.0000 0.43263  0.91839  0.59439  Biso   1.000  Ne
  He53     1.0000 0.43216  0.93331  0.56489  Biso   1.000  He
  He54     1.0000 0.45855  0.92307  0.54982  Biso   1.000  He
  Ne54     1.0000 0.46456  0.94078  0.52337  Biso   1.000  Ne
  Ne55     1.0000 0.59183  0.96858  0.51720  Biso   1.000  Ne
  He55     1.0000 0.58113  0.93657  0.51671  Biso   1.000  He
  He56     1.0000 0.58664  0.91943  0.54490  Biso   1.000  He
  Ne56     1.0000 0.57953  0.88611  0.54359  Biso   1.000  Ne
  Ne57     1.0000 0.29776  0.91157  0.96710  Biso   1.000  Ne
  He57     1.0000 0.30966  0.89031  0.94571  Biso   1.000  He
  He58     1.0000 0.30328  0.86113  0.95274  Biso   1.000  He
  Ne58     1.0000 0.30931  0.84106  0.92656  Biso   1.000  Ne
  Ne59     1.0000 0.74240  0.90319  0.10082  Biso   1.000  Ne
  He59     1.0000 0.74369  0.89196  0.12962  Biso   1.000  He
  He60     1.0000 0.73311  0.86237  0.13765  Biso   1.000  He
  Ne60     1.0000 0.73252  0.85596  0.17079  Biso   1.000  Ne
  Ne61     1.0000 0.59323  0.71525  0.39728  Biso   1.000  Ne
  He61     1.0000 0.61042  0.70747  0.42366  Biso   1.000  He
  He62     1.0000 0.64371  0.69957  0.41888  Biso   1.000  He
  Ne62     1.0000 0.65920  0.69114  0.44904  Biso   1.000  Ne
  Ne63     1.0000 0.09526  0.54825  0.31733  Biso   1.000  Ne
  He63     1.0000 0.10938  0.57292  0.30284  Biso   1.000  He
  He64     1.0000 0.08602  0.59155  0.28718  Biso   1.000  He
  Ne64     1.0000 0.09952  0.62173  0.27824  Biso   1.000  Ne
  Ne65     1.0000 0.49252  0.43565  0.92070  Biso   1.000  Ne
  He65     1.0000 0.46464  0.43525  0.93613  Biso   1.000  He
  He66     1.0000 0.45224  0.40752  0.94652  Biso   1.000  He
  Ne66     1.0000 0.42109  0.40520  0.95669  Biso   1.000  Ne
  Ne67     1.0000 0.08015  0.37415  0.38786  Biso   1.000  Ne
  He67     1.0000 0.08177  0.39159  0.41523  Biso   1.000  He
  He68     1.0000 0.10930  0.40704  0.42005  Biso   1.000  He
  Ne68     1.0000 0.11055  0.42710  0.44942  Biso   1.000  Ne
  Ne69     1.0000 0.61886  0.76064  0.27551  Biso   1.000  Ne
  He69     1.0000 0.63736  0.76516  0.24898  Biso   1.000  He
  He70     1.0000 0.65095  0.73892  0.23208  Biso   1.000  He
  Ne70     1.0000 0.66613  0.74652  0.20402  Biso   1.000  Ne
  Ne71     1.0000 0.60488  0.78562  0.78675  Biso   1.000  Ne
  He71     1.0000 0.62710  0.77630  0.76452  Biso   1.000  He
  He72     1.0000 0.64713  0.80083  0.75301  Biso   1.000  He
  Ne72     1.0000 0.66358  0.79171  0.72608  Biso   1.000  Ne
  Ne73     1.0000 0.10872  0.65946  0.66975  Biso   1.000  Ne
  He73     1.0000 0.10188  0.63435  0.68586  Biso   1.000  He
  He74     1.0000 0.10872  0.63875  0.71860  Biso   1.000  He
  Ne74     1.0000 0.10292  0.61254  0.73929  Biso   1.000  Ne
  Ne75     1.0000 0.84772  0.85620  0.16374  Biso   1.000  Ne
  He75     1.0000 0.83141  0.88216  0.15027  Biso   1.000  He
  He76     1.0000 0.83986  0.88829  0.11963  Biso   1.000  He
  Ne76     1.0000 0.82163  0.91135  0.10293  Biso   1.000  Ne
  Ne77     1.0000 0.44462  0.08741  0.61246  Biso   1.000  Ne
  He77     1.0000 0.44716  0.07844  0.64464  Biso   1.000  He
  He78     1.0000 0.43607  0.10034  0.66890  Biso   1.000  He
  Ne78     1.0000 0.43296  0.08587  0.70069  Biso   1.000  Ne
  Ne79     1.0000 0.09612  0.31563  0.60282  Biso   1.000  Ne
  He79     1.0000 0.08652  0.28913  0.58782  Biso   1.000  He
  He80     1.0000 0.10530  0.26209  0.59119  Biso   1.000  He
  Ne80     1.0000 0.09236  0.23452  0.57754  Biso   1.000  Ne
  Ne81     1.0000 0.12140  0.89178  0.71534  Biso   1.000  Ne
  He81     1.0000 0.11940  0.92510  0.71298  Biso   1.000  He
  He82     1.0000 0.14923  0.93736  0.72326  Biso   1.000  He
  Ne82     1.0000 0.15046  0.97000  0.72640  Biso   1.000  Ne
  Ne83     1.0000 0.70434  0.89025  0.25213  Biso   1.000  Ne
  He83     1.0000 0.68278  0.86554  0.26403  Biso   1.000  He
  He84     1.0000 0.68141  0.86756  0.29594  Biso   1.000  He
  Ne84     1.0000 0.66661  0.84026  0.30768  Biso   1.000  Ne
  Ne85     1.0000 0.51855  0.98434  0.43320  Biso   1.000  Ne
  He85     1.0000 0.50045  0.01288  0.43361  Biso   1.000  He
  He86     1.0000 0.51187  0.03287  0.45887  Biso   1.000  He
  Ne86     1.0000 0.49610  0.06455  0.46569  Biso   1.000  Ne
  Ne87     1.0000 0.88279  0.66050  0.40787  Biso   1.000  Ne
  He87     1.0000 0.87754  0.62847  0.40045  Biso   1.000  He
  He88     1.0000 0.84930  0.61389  0.40852  Biso   1.000  He
  Ne88     1.0000 0.84877  0.57951  0.40365  Biso   1.000  Ne
  Ne89     1.0000 0.59283  0.45698  0.92396  Biso   1.000  Ne
  He89     1.0000 0.57084  0.43513  0.93659  Biso   1.000  He
  He90     1.0000 0.56959  0.43399  0.97009  Biso   1.000  He
  Ne90     1.0000 0.54903  0.41153  0.97912  Biso   1.000  Ne
  Ne91     1.0000 0.92868  0.25630  0.67326  Biso   1.000  Ne
  He91     1.0000 0.92552  0.28775  0.66221  Biso   1.000  He
  He92     1.0000 0.95303  0.30766  0.66211  Biso   1.000  He
  Ne92     1.0000 0.94818  0.34001  0.65219  Biso   1.000  Ne
  Ne93     1.0000 0.44321  0.35207  0.88384  Biso   1.000  Ne
  He93     1.0000 0.42602  0.33042  0.90333  Biso   1.000  He
  He94     1.0000 0.43741  0.29819  0.89874  Biso   1.000  He
  Ne94     1.0000 0.41936  0.27441  0.91351  Biso   1.000  Ne
  Ne95     1.0000 0.13115  0.31455  0.32532  Biso   1.000  Ne
  He95     1.0000 0.15125  0.33701  0.30749  Biso   1.000  He
  He96     1.0000 0.13477  0.36461  0.30060  Biso   1.000  He
  Ne96     1.0000 0.15571  0.38819  0.28529  Biso   1.000  Ne
  Ne97     1.0000 0.44260  0.30722  0.19576  Biso   1.000  Ne
  He97     1.0000 0.43961  0.34269  0.19460  Biso   1.000  He
  He98     1.0000 0.42639  0.35674  0.16700  Biso   1.000  He
  Ne98     1.0000 0.42693  0.39139  0.16473  Biso   1.000  Ne
  Ne99     1.0000 0.90541  0.86078  0.90925  Biso   1.000  Ne
  He99     1.0000 0.87514  0.85638  0.91126  Biso   1.000  He
  He100    1.0000 0.85861  0.88195  0.92112  Biso   1.000  He
  Ne100    1.0000 0.82634  0.88094  0.92001  Biso   1.000  Ne
  Ne101    1.0000 0.92004  0.31578  0.37262  Biso   1.000  Ne
  He101    1.0000 0.92436  0.28893  0.39152  Biso   1.000  He
  He102    1.0000 0.91759  0.29369  0.42220  Biso   1.000  He
  Ne102    1.0000 0.92314  0.26724  0.43974  Biso   1.000  Ne
  Ne103    1.0000 0.69071  0.58944  0.25432  Biso   1.000  Ne
  He103    1.0000 0.68608  0.58604  0.22260  Biso   1.000  He
  He104    1.0000 0.67903  0.55436  0.21176  Biso   1.000  He
  Ne104    1.0000 0.67466  0.55574  0.18050  Biso   1.000  Ne
  Ne105    1.0000 0.43259  0.74353  0.93001  Biso   1.000  Ne
  He105    1.0000 0.44631  0.71616  0.92199  Biso   1.000  He
  He106    1.0000 0.43098  0.70327  0.89458  Biso   1.000  He
  Ne106    1.0000 0.44433  0.67804  0.87827  Biso   1.000  Ne
  Ne107    1.0000 0.94092  0.92430  0.97483  Biso   1.000  Ne
  He107    1.0000 0.93763  0.93858  0.00463  Biso   1.000  He
  He108    1.0000 0.94350  0.92035  0.03266  Biso   1.000  He
  Ne108    1.0000 0.93845  0.93811  0.06116  Biso   1.000  Ne
  Ne109    1.0000 0.84284  0.04812  0.92546  Biso   1.000  Ne
  He109    1.0000 0.86116  0.07728  0.93265  Biso   1.000  He
  He110    1.0000 0.84342  0.10274  0.94135  Biso   1.000  He
  Ne110    1.0000 0.84111  0.12707  0.91913  Biso   1.000  Ne
  Ne111    1.0000 0.74773  0.30902  0.08909  Biso   1.000  Ne
  He111    1.0000 0.78018  0.30695  0.09170  Biso   1.000  He
  He112    1.0000 0.79271  0.30778  0.11888  Biso   1.000  He
  Ne112    1.0000 0.82574  0.31123  0.11367  Biso   1.000  Ne
  Ne113    1.0000 0.66639  0.56971  0.94149  Biso   1.000  Ne
  He113    1.0000 0.64572  0.59415  0.93148  Biso   1.000  He
  He114    1.0000 0.63465  0.60948  0.95661  Biso   1.000  He
  Ne114    1.0000 0.61473  0.63558  0.94996  Biso   1.000  Ne
  Ne115    1.0000 0.42313  0.66332  0.18996  Biso   1.000  Ne
  He115    1.0000 0.41387  0.68879  0.20656  Biso   1.000  He
  He116    1.0000 0.37990  0.68640  0.21542  Biso   1.000  He
  Ne116    1.0000 0.37211  0.71466  0.23201  Biso   1.000  Ne
  Ne117    1.0000 0.06630  0.05029  0.28405  Biso   1.000  Ne
  He117    1.0000 0.07089  0.08154  0.28848  Biso   1.000  He
  He118    1.0000 0.10025  0.09176  0.28432  Biso   1.000  He
  Ne118    1.0000 0.10364  0.12470  0.28577  Biso   1.000  Ne
  Ne119    1.0000 0.58104  0.53416  0.26235  Biso   1.000  Ne
  He119    1.0000 0.59573  0.54731  0.29019  Biso   1.000  He
  He120    1.0000 0.62764  0.55379  0.28707  Biso   1.000  He
  Ne120    1.0000 0.64761  0.52760  0.29675  Biso   1.000  Ne
  Ne121    1.0000 0.27993  0.17671  0.91284  Biso   1.000  Ne
  He121    1.0000 0.30804  0.16858  0.92315  Biso   1.000  He
  He122    1.0000 0.32453  0.19387  0.93135  Biso   1.000  He
  Ne122    1.0000 0.35269  0.18351  0.94755  Biso   1.000  Ne
  Ne123    1.0000 0.62920  0.70164  0.13285  Biso   1.000  Ne
  He123    1.0000 0.64941  0.68223  0.11396  Biso   1.000  He
  He124    1.0000 0.66037  0.65518  0.12782  Biso   1.000  He
  Ne124    1.0000 0.67885  0.63612  0.10638  Biso   1.000  Ne
  Ne125    1.0000 0.08295  0.19968  0.43555  Biso   1.000  Ne
  He125    1.0000 0.08087  0.22962  0.42045  Biso   1.000  He
  He126    1.0000 0.09637  0.25509  0.43789  Biso   1.000  He
  Ne126    1.0000 0.08707  0.28599  0.42878  Biso   1.000  Ne
  Ne127    1.0000 0.94235  0.18140  0.92453  Biso   1.000  Ne
  He127    1.0000 0.91774  0.18754  0.94260  Biso   1.000  He
  He128    1.0000 0.89410  0.20655  0.92964  Biso   1.000  He
  Ne128    1.0000 0.86345  0.20810  0.94733  Biso   1.000  Ne
  Ne129    1.0000 0.24645  0.62116  0.42533  Biso   1.000  Ne
  He129    1.0000 0.23884  0.59040  0.41504  Biso   1.000  He
  He130    1.0000 0.20652  0.58775  0.40351  Biso   1.000  He
  Ne130    1.0000 0.19593  0.55884  0.39594  Biso   1.000  Ne
  Ne131    1.0000 0.02096  0.50340  0.79377  Biso   1.000  Ne
  He131    1.0000 0.99505  0.49998  0.81111  Biso   1.000  He
  He132    1.0000 0.97223  0.47910  0.79714  Biso   1.000  He
  Ne132    1.0000 0.94382  0.47486  0.81533  Biso   1.000  Ne
  Ne133    1.0000 0.80565  0.53233  0.12308  Biso   1.000  Ne
  He133    1.0000 0.78174  0.55418  0.11378  Biso   1.000  He
  He134    1.0000 0.76385  0.56517  0.13508  Biso   1.000  He
  Ne134    1.0000 0.74233  0.58458  0.12284  Biso   1.000  Ne
  Ne135    1.0000 0.08709  0.95428  0.93249  Biso   1.000  Ne
  He135    1.0000 0.07652  0.93039  0.95602  Biso   1.000  He
  He136    1.0000 0.04791  0.91529  0.94633  Biso   1.000  He
  Ne136    1.0000 0.04146  0.89157  0.96776  Biso   1.000  Ne
  Ne137    1.0000 0.96432  0.71507  0.42081  Biso   1.000  Ne
  He137    1.0000 0.96023  0.68707  0.40170  Biso   1.000  He
  He138    1.0000 0.94979  0.69416  0.37223  Biso   1.000  He
  Ne138    1.0000 0.95614  0.67100  0.35021  Biso   1.000  Ne
  Ne139    1.0000 0.38913  0.05776  0.56731  Biso   1.000  Ne
  He139    1.0000 0.36345  0.06268  0.58825  Biso   1.000  He
  He140    1.0000 0.33618  0.05928  0.56939  Biso   1.000  He
  Ne140    1.0000 0.30699  0.05965  0.58651  Biso   1.000  Ne
  Ne141    1.0000 0.59838  0.60281  0.81061  Biso   1.000  Ne
  He141    1.0000 0.61913  0.59507  0.83333  Biso   1.000  He
  He142    1.0000 0.64748  0.59488  0.82205  Biso   1.000  He
  Ne142    1.0000 0.67066  0.58756  0.84487  Biso   1.000  Ne
  Ne143    1.0000 0.92706  0.88864  0.16623  Biso   1.000  Ne
  He143    1.0000 0.94354  0.87668  0.19079  Biso   1.000  He
  He144    1.0000 0.92792  0.87342  0.21910  Biso   1.000  He
  Ne144    1.0000 0.94502  0.86080  0.24236  Biso   1.000  Ne
  Ne145    1.0000 0.35671  0.90989  0.71681  Biso   1.000  Ne
  He145    1.0000 0.37761  0.89847  0.69614  Biso   1.000  He
  He146    1.0000 0.40438  0.91901  0.69117  Biso   1.000  He
  Ne146    1.0000 0.42714  0.90860  0.66760  Biso   1.000  Ne
  Ne147    1.0000 0.60989  0.05070  0.44906  Biso   1.000  Ne
  He147    1.0000 0.63443  0.07625  0.44790  Biso   1.000  He
  He148    1.0000 0.62476  0.10405  0.43286  Biso   1.000  He
  Ne148    1.0000 0.64556  0.13026  0.43135  Biso   1.000  Ne
  Ne149    1.0000 0.99741  0.45856  0.53726  Biso   1.000  Ne
  He149    1.0000 0.99067  0.43742  0.56357  Biso   1.000  He
  He150    1.0000 0.97668  0.45127  0.59051  Biso   1.000  He
  Ne150    1.0000 0.96580  0.42916  0.61355  Biso   1.000  Ne
  Ne151    1.0000 0.93194  0.06235  0.25124  Biso   1.000  Ne
  He151    1.0000 0.91750  0.05069  0.27834  Biso   1.000  He
  He152    1.0000 0.88770  0.03445  0.27238  Biso   1.000  He
  Ne152    1.0000 0.87267  0.02057  0.29970  Biso   1.000  Ne
  Ne153    1.0000 0.94788  0.07979  0.93439  Biso   1.000  Ne
  He153    1.0000 0.94644  0.04742  0.93908  Biso   1.000  He
  He154    1.0000 0.97411  0.03338  0.92690  Biso   1.000  He
  Ne154    1.0000 0.97602  0.99877  0.93136  Biso   1.000  Ne
  Ne155    1.0000 0.19052  0.37320  0.42680  Biso   1.000  Ne
  He155    1.0000 0.19578  0.34607  0.40563  Biso   1.000  He
  He156    1.0000 0.17524  0.32113  0.40700  Biso   1.000  He
  Ne156    1.0000 0.18400  0.29708  0.38755  Biso   1.000  Ne
  Ne157    1.0000 0.92639  0.39816  0.37245  Biso   1.000  Ne
  He157    1.0000 0.92647  0.39203  0.40441  Biso   1.000  He
  He158    1.0000 0.92860  0.42001  0.42206  Biso   1.000  He
  Ne158    1.0000 0.92049  0.41470  0.45402  Biso   1.000  Ne
  Ne159    1.0000 0.32969  0.38964  0.90960  Biso   1.000  Ne
  He159    1.0000 0.31563  0.36251  0.89505  Biso   1.000  He
  He160    1.0000 0.33426  0.34917  0.87038  Biso   1.000  He
  Ne160    1.0000 0.32146  0.32184  0.85372  Biso   1.000  Ne
  Ne161    1.0000 0.05993  0.13241  0.71590  Biso   1.000  Ne
  He161    1.0000 0.07875  0.10987  0.73379  Biso   1.000  He
  He162    1.0000 0.06785  0.07762  0.73333  Biso   1.000  He
  Ne162    1.0000 0.08246  0.06001  0.71150  Biso   1.000  Ne
  Ne163    1.0000 0.33639  0.88649  0.05314  Biso   1.000  Ne
  He163    1.0000 0.31542  0.86404  0.04359  Biso   1.000  He
  He164    1.0000 0.29306  0.85555  0.06452  Biso   1.000  He
  Ne164    1.0000 0.27440  0.82905  0.05175  Biso   1.000  Ne
  Ne165    1.0000 0.77617  0.60177  0.24240  Biso   1.000  Ne
  He165    1.0000 0.78624  0.57791  0.26665  Biso   1.000  He
  He166    1.0000 0.81823  0.57334  0.26982  Biso   1.000  He
  Ne166    1.0000 0.82629  0.55092  0.29266  Biso   1.000  Ne
  Ne167    1.0000 0.93446  0.70260  0.67867  Biso   1.000  Ne
  He167    1.0000 0.93909  0.72140  0.65200  Biso   1.000  He
  He168    1.0000 0.93893  0.70494  0.62048  Biso   1.000  He
  Ne168    1.0000 0.93602  0.72671  0.59359  Biso   1.000  Ne
  Ne169    1.0000 0.39430  0.54783  0.06853  Biso   1.000  Ne
  He169    1.0000 0.42547  0.54420  0.07185  Biso   1.000  He
  He170    1.0000 0.44327  0.53809  0.04714  Biso   1.000  He
  Ne170    1.0000 0.47507  0.54103  0.05406  Biso   1.000  Ne
  Ne171    1.0000 0.22032  0.81450  0.39823  Biso   1.000  Ne
  He171    1.0000 0.25395  0.81300  0.38855  Biso   1.000  He
  He172    1.0000 0.26570  0.84268  0.38601  Biso   1.000  He
  Ne172    1.0000 0.29708  0.84367  0.37476  Biso   1.000  Ne
  Ne173    1.0000 0.18366  0.07977  0.81653  Biso   1.000  Ne
  He173    1.0000 0.16266  0.09993  0.83037  Biso   1.000  He
  He174    1.0000 0.13070  0.08518  0.82649  Biso   1.000  He
  Ne174    1.0000 0.10432  0.10387  0.83854  Biso   1.000  Ne
  Ne175    1.0000 0.80650  0.05069  0.70297  Biso   1.000  Ne
  He175    1.0000 0.77624  0.06170  0.70423  Biso   1.000  He
  He176    1.0000 0.75099  0.03970  0.69501  Biso   1.000  He
  Ne176    1.0000 0.71884  0.05394  0.70070  Biso   1.000  Ne
  Ne177    1.0000 0.89270  0.40541  0.63488  Biso   1.000  Ne
  He177    1.0000 0.86348  0.41462  0.63103  Biso   1.000  He
  He178    1.0000 0.85047  0.40825  0.60207  Biso   1.000  He
  Ne178    1.0000 0.82068  0.41933  0.59749  Biso   1.000  Ne
  Ne179    1.0000 0.09024  0.40406  0.57250  Biso   1.000  Ne
  He179    1.0000 0.08261  0.43392  0.55768  Biso   1.000  He
  He180    1.0000 0.10106  0.44398  0.53170  Biso   1.000  He
  Ne180    1.0000 0.09406  0.47252  0.51545  Biso   1.000  Ne
  Ne181    1.0000 0.95679  0.54556  0.40406  Biso   1.000  Ne
  He181    1.0000 0.94695  0.56879  0.38534  Biso   1.000  He
  He182    1.0000 0.93494  0.55670  0.35359  Biso   1.000  He
  Ne182    1.0000 0.92681  0.58293  0.33564  Biso   1.000  Ne
  Ne183    1.0000 0.44486  0.04341  0.33984  Biso   1.000  Ne
  He183    1.0000 0.44453  0.06025  0.36759  Biso   1.000  He
  He184    1.0000 0.43275  0.09018  0.36213  Biso   1.000  He
  Ne184    1.0000 0.43637  0.10876  0.38932  Biso   1.000  Ne
  Ne185    1.0000 0.94347  0.11285  0.84997  Biso   1.000  Ne
  He185    1.0000 0.93961  0.12857  0.82316  Biso   1.000  He
  He186    1.0000 0.96116  0.14914  0.81168  Biso   1.000  He
  Ne186    1.0000 0.95303  0.15433  0.77926  Biso   1.000  Ne
  Ne187    1.0000 0.88856  0.70535  0.07455  Biso   1.000  Ne
  He187    1.0000 0.89093  0.73669  0.07987  Biso   1.000  He
  He188    1.0000 0.92055  0.74927  0.08090  Biso   1.000  He
  Ne188    1.0000 0.92019  0.78299  0.08723  Biso   1.000  Ne
  Ne189    1.0000 0.40988  0.03352  0.43645  Biso   1.000  Ne
  He189    1.0000 0.38546  0.05500  0.43986  Biso   1.000  He
  He190    1.0000 0.36632  0.05705  0.41227  Biso   1.000  He
  Ne190    1.0000 0.34511  0.08133  0.41714  Biso   1.000  Ne
  Ne191    1.0000 0.95834  0.41453  0.71493  Biso   1.000  Ne
  He191    1.0000 0.97014  0.38327  0.72533  Biso   1.000  He
  He192    1.0000 0.94555  0.35974  0.72818  Biso   1.000  He
  Ne192    1.0000 0.95533  0.33021  0.73939  Biso   1.000  Ne
  Ne193    1.0000 0.63645  0.39377  0.07928  Biso   1.000  Ne
  He193    1.0000 0.61137  0.39838  0.05853  Biso   1.000  He
  He194    1.0000 0.58159  0.38837  0.06831  Biso   1.000  He
  Ne194    1.0000 0.55522  0.39903  0.05086  Biso   1.000  Ne
  Ne195    1.0000 0.85398  0.10185  0.22741  Biso   1.000  Ne
  He195    1.0000 0.83951  0.08059  0.20755  Biso   1.000  He
  He196    1.0000 0.83870  0.08912  0.17675  Biso   1.000  He
  Ne196    1.0000 0.82810  0.06360  0.15795  Biso   1.000  Ne
  Ne197    1.0000 0.09886  0.90450  0.17677  Biso   1.000  Ne
  He197    1.0000 0.09928  0.87796  0.19722  Biso   1.000  He
  He198    1.0000 0.12990  0.87025  0.20765  Biso   1.000  He
  Ne198    1.0000 0.14226  0.84999  0.18668  Biso   1.000  Ne
  Ne199    1.0000 0.17619  0.15789  0.89700  Biso   1.000  Ne
  He199    1.0000 0.15396  0.14870  0.92113  Biso   1.000  He
  He200    1.0000 0.12521  0.14351  0.90934  Biso   1.000  He
  Ne200    1.0000 0.10075  0.13124  0.93104  Biso   1.000  Ne
  Ne201    1.0000 0.85994  0.66519  0.68417  Biso   1.000  Ne
  He201    1.0000 0.82726  0.66080  0.69442  Biso   1.000  He
  He202    1.0000 0.81917  0.62737  0.69278  Biso   1.000  He
  Ne202    1.0000 0.78730  0.62329  0.69989  Biso   1.000  Ne
  Ne203    1.0000 0.29478  0.56100  0.19652  Biso   1.000  Ne
  He203    1.0000 0.28471  0.56518  0.16498  Biso   1.000  He
  He204    1.0000 0.30521  0.56748  0.14200  Biso   1.000  He
  Ne204    1.0000 0.29119  0.57564  0.11129  Biso   1.000  Ne
  Ne205    1.0000 0.03091  0.05352  0.98456  Biso   1.000  Ne
  He205    1.0000 0.01918  0.06032  0.01329  Biso   1.000  He
  He206    1.0000 0.98612  0.05511  0.01507  Biso   1.000  He
  Ne206    1.0000 0.97240  0.05464  0.04525  Biso   1.000  Ne
  Ne207    1.0000 0.11444  0.24066  0.09083  Biso   1.000  Ne
  He207    1.0000 0.11999  0.20972  0.08888  Biso   1.000  He
  He208    1.0000 0.11832  0.18780  0.11725  Biso   1.000  He
  Ne208    1.0000 0.12662  0.15588  0.10770  Biso   1.000  Ne
  Ne209    1.0000 0.43839  0.40417  0.82232  Biso   1.000  Ne
  He209    1.0000 0.45104  0.38215  0.79779  Biso   1.000  He
  He210    1.0000 0.43572  0.37974  0.76773  Biso   1.000  He
  Ne210    1.0000 0.44917  0.36089  0.74479  Biso   1.000  Ne
  Ne211    1.0000 0.42110  0.21179  0.24993  Biso   1.000  Ne
  He211    1.0000 0.42958  0.20922  0.21640  Biso   1.000  He
  He212    1.0000 0.46031  0.19742  0.20793  Biso   1.000  He
  Ne212    1.0000 0.46503  0.20283  0.17400  Biso   1.000  Ne
  Ne213    1.0000 0.60827  0.84903  0.64537  Biso   1.000  Ne
  He213    1.0000 0.61897  0.84791  0.67733  Biso   1.000  He
  He214    1.0000 0.59830  0.86477  0.69714  Biso   1.000  He
  Ne214    1.0000 0.60657  0.86496  0.72901  Biso   1.000  Ne
  Ne215    1.0000 0.38611  0.16104  0.70743  Biso   1.000  Ne
  He215    1.0000 0.40402  0.15233  0.73152  Biso   1.000  He
  He216    1.0000 0.39059  0.16100  0.76057  Biso   1.000  He
  Ne216    1.0000 0.40481  0.15099  0.79015  Biso   1.000  Ne
  Ne217    1.0000 0.11516  0.06954  0.06116  Biso   1.000  Ne
  He217    1.0000 0.14520  0.07965  0.07059  Biso   1.000  He
  He218    1.0000 0.15940  0.06312  0.09349  Biso   1.000  He
  Ne218    1.0000 0.18704  0.07127  0.09626  Biso   1.000  Ne
  Ne219    1.0000 0.77522  0.17840  0.25923  Biso   1.000  Ne
  He219    1.0000 0.77306  0.16078  0.28706  Biso   1.000  He
  He220    1.0000 0.74075  0.15615  0.29515  Biso   1.000  He
  Ne220    1.0000 0.73782  0.13362  0.31851  Biso   1.000  Ne
  Ne221    1.0000 0.79675  0.87164  0.23043  Biso   1.000  Ne
  He221    1.0000 0.82257  0.86153  0.25250  Biso   1.000  He
  He222    1.0000 0.84586  0.88548  0.26836  Biso   1.000  He
  Ne222    1.0000 0.86828  0.86997  0.28681  Biso   1.000  Ne
  Ne223    1.0000 0.44157  0.44065  0.06452  Biso   1.000  Ne
  He223    1.0000 0.46466  0.44936  0.08492  Biso   1.000  He
  He224    1.0000 0.49436  0.45684  0.06941  Biso   1.000  He
  Ne224    1.0000 0.51824  0.46891  0.08867  Biso   1.000  Ne
  Ne225    1.0000 0.10318  0.80909  0.91809  Biso   1.000  Ne
  He225    1.0000 0.09842  0.77613  0.91749  Biso   1.000  He
  He226    1.0000 0.12443  0.75932  0.90880  Biso   1.000  He
  Ne226    1.0000 0.11962  0.72526  0.91164  Biso   1.000  Ne
  Ne227    1.0000 0.11425  0.39564  0.66141  Biso   1.000  Ne
  He227    1.0000 0.14557  0.40866  0.66391  Biso   1.000  He
  He228    1.0000 0.17209  0.38853  0.66556  Biso   1.000  He
  Ne228    1.0000 0.20425  0.40134  0.66594  Biso   1.000  Ne
  Ne229    1.0000 0.43520  0.57963  0.84934  Biso   1.000  Ne
  He229    1.0000 0.40996  0.56019  0.83972  Biso   1.000  He
  He230    1.0000 0.38087  0.57312  0.85449  Biso   1.000  He
  Ne230    1.0000 0.35964  0.58754  0.83176  Biso   1.000  Ne
  Ne231    1.0000 0.81074  0.59594  0.57340  Biso   1.000  Ne
  He231    1.0000 0.83715  0.60184  0.59026  Biso   1.000  He
  He232    1.0000 0.83648  0.59012  0.62133  Biso   1.000  He
  Ne232    1.0000 0.86426  0.59155  0.63344  Biso   1.000  Ne
  Ne233    1.0000 0.63830  0.24788  0.13663  Biso   1.000  Ne
  He233    1.0000 0.63358  0.25981  0.10745  Biso   1.000  He
  He234    1.0000 0.62596  0.29379  0.10707  Biso   1.000  He
  Ne234    1.0000 0.62305  0.30690  0.07709  Biso   1.000  Ne
  Ne235    1.0000 0.45776  0.28990  0.62354  Biso   1.000  Ne
  He235    1.0000 0.47163  0.30156  0.65487  Biso   1.000  He
  He236    1.0000 0.47127  0.28126  0.68095  Biso   1.000  He
  Ne236    1.0000 0.48981  0.29282  0.70596  Biso   1.000  Ne
  Ne237    1.0000 0.41519  0.28581  0.74262  Biso   1.000  Ne
  He237    1.0000 0.42825  0.28571  0.77150  Biso   1.000  He
  He238    1.0000 0.41639  0.30395  0.79311  Biso   1.000  He
  Ne238    1.0000 0.39813  0.29066  0.81730  Biso   1.000  Ne
  Ne239    1.0000 0.33883  0.29216  0.61150  Biso   1.000  Ne
  He239    1.0000 0.32902  0.28759  0.64215  Biso   1.000  He
  He240    1.0000 0.30383  0.30731  0.65246  Biso   1.000  He
  Ne240    1.0000 0.28988  0.29498  0.67879  Biso   1.000  Ne
  Ne241    1.0000 0.91640  0.61562  0.57835  Biso   1.000  Ne
  He241    1.0000 0.92924  0.58880  0.57015  Biso   1.000  He
  He242    1.0000 0.91148  0.56052  0.57354  Biso   1.000  He
  Ne242    1.0000 0.92547  0.53421  0.55832  Biso   1.000  Ne
  Ne243    1.0000 0.97217  0.00208  0.73505  Biso   1.000  Ne
  He243    1.0000 0.97580  0.03462  0.73671  Biso   1.000  He
  He244    1.0000 0.94642  0.05260  0.73727  Biso   1.000  He
  Ne244    1.0000 0.94951  0.08570  0.73178  Biso   1.000  Ne
  Ne245    1.0000 0.26006  0.14928  0.60050  Biso   1.000  Ne
  He245    1.0000 0.26250  0.17951  0.61588  Biso   1.000  He
  He246    1.0000 0.29197  0.18620  0.62628  Biso   1.000  He
  Ne246    1.0000 0.29822  0.21217  0.64660  Biso   1.000  Ne
  Ne247    1.0000 0.19876  0.62258  0.58932  Biso   1.000  Ne
  He247    1.0000 0.21198  0.59181  0.58338  Biso   1.000  He
  He248    1.0000 0.24507  0.58877  0.58570  Biso   1.000  He
  Ne248    1.0000 0.25525  0.55646  0.58345  Biso   1.000  Ne
  Ne249    1.0000 0.22026  0.62230  0.03941  Biso   1.000  Ne
  He249    1.0000 0.20236  0.64423  0.01913  Biso   1.000  He
  He250    1.0000 0.18038  0.66082  0.03619  Biso   1.000  He
  Ne250    1.0000 0.16294  0.68356  0.01910  Biso   1.000  Ne
  Ne251    1.0000 0.44206  0.60501  0.93968  Biso   1.000  Ne
  He251    1.0000 0.43333  0.57475  0.92936  Biso   1.000  He
  He252    1.0000 0.43898  0.55039  0.95176  Biso   1.000  He
  Ne252    1.0000 0.43054  0.52083  0.94107  Biso   1.000  Ne
  Ne253    1.0000 0.92590  0.10951  0.17339  Biso   1.000  Ne
  He253    1.0000 0.91334  0.13913  0.17853  Biso   1.000  He
  He254    1.0000 0.93616  0.16379  0.18081  Biso   1.000  He
  Ne254    1.0000 0.92631  0.19444  0.18329  Biso   1.000  Ne
  Ne255    1.0000 0.62895  0.35110  0.84054  Biso   1.000  Ne
  He255    1.0000 0.64702  0.32621  0.83938  Biso   1.000  He
  He256    1.0000 0.64936  0.31057  0.80929  Biso   1.000  He
  Ne256    1.0000 0.67173  0.28591  0.80345  Biso   1.000  Ne
  Ne257    1.0000 0.64954  0.24563  0.67946  Biso   1.000  Ne
  He257    1.0000 0.62531  0.22573  0.68238  Biso   1.000  He
  He258    1.0000 0.61885  0.21799  0.71530  Biso   1.000  He
  Ne258    1.0000 0.59590  0.19433  0.71834  Biso   1.000  Ne
  Ne259    1.0000 0.53833  0.02300  0.58909  Biso   1.000  Ne
  He259    1.0000 0.51556  0.02808  0.56228  Biso   1.000  He
  He260    1.0000 0.48536  0.03074  0.57167  Biso   1.000  He
  Ne260    1.0000 0.46060  0.02436  0.55049  Biso   1.000  Ne
  Ne261    1.0000 0.45250  0.83208  0.59222  Biso   1.000  Ne
  He261    1.0000 0.44218  0.83231  0.62304  Biso   1.000  He
  He262    1.0000 0.44853  0.80432  0.64165  Biso   1.000  He
  Ne262    1.0000 0.43977  0.79999  0.67202  Biso   1.000  Ne
  Ne263    1.0000 0.22982  0.27272  0.05167  Biso   1.000  Ne
  He263    1.0000 0.22910  0.24191  0.06877  Biso   1.000  He
  He264    1.0000 0.20104  0.22607  0.07122  Biso   1.000  He
  Ne264    1.0000 0.20471  0.19760  0.08869  Biso   1.000  Ne
  Ne265    1.0000 0.23561  0.90589  0.79156  Biso   1.000  Ne
  He265    1.0000 0.26126  0.89348  0.80953  Biso   1.000  He
  He266    1.0000 0.25905  0.89459  0.84073  Biso   1.000  He
  Ne266    1.0000 0.28822  0.88633  0.85598  Biso   1.000  Ne
  Ne267    1.0000 0.11914  0.84216  0.82591  Biso   1.000  Ne
  He267    1.0000 0.13402  0.87010  0.81879  Biso   1.000  He
  He268    1.0000 0.11388  0.89556  0.80835  Biso   1.000  He
  Ne268    1.0000 0.13404  0.92321  0.80152  Biso   1.000  Ne
  Ne269    1.0000 0.70224  0.41911  0.90687  Biso   1.000  Ne
  He269    1.0000 0.69615  0.38994  0.92542  Biso   1.000  He
  He270    1.0000 0.69210  0.36400  0.90551  Biso   1.000  He
  Ne270    1.0000 0.68740  0.33567  0.92106  Biso   1.000  Ne
  Ne271    1.0000 0.66182  0.89714  0.41378  Biso   1.000  Ne
  He271    1.0000 0.63618  0.87479  0.41355  Biso   1.000  He
  He272    1.0000 0.63862  0.84707  0.42714  Biso   1.000  He
  Ne272    1.0000 0.64429  0.82070  0.40625  Biso   1.000  Ne
  Ne273    1.0000 0.93827  0.88608  0.80993  Biso   1.000  Ne
  He273    1.0000 0.93930  0.90822  0.83198  Biso   1.000  He
  He274    1.0000 0.95058  0.89666  0.85811  Biso   1.000  He
  Ne274    1.0000 0.95472  0.91688  0.88243  Biso   1.000  Ne
  Ne275    1.0000 0.12715  0.91380  0.08607  Biso   1.000  Ne
  He275    1.0000 0.16120  0.90753  0.09068  Biso   1.000  He
  He276    1.0000 0.16745  0.88275  0.11005  Biso   1.000  He
  Ne276    1.0000 0.19786  0.87577  0.11324  Biso   1.000  Ne
  Ne277    1.0000 0.69893  0.35985  0.18848  Biso   1.000  Ne
  He277    1.0000 0.72201  0.36994  0.16497  Biso   1.000  He
  He278    1.0000 0.70746  0.38880  0.14121  Biso   1.000  He
  Ne278    1.0000 0.72433  0.39961  0.11493  Biso   1.000  Ne
  Ne279    1.0000 0.60720  0.07748  0.66285  Biso   1.000  Ne
  He279    1.0000 0.63192  0.06777  0.64198  Biso   1.000  He
  He280    1.0000 0.65745  0.08564  0.64338  Biso   1.000  He
  Ne280    1.0000 0.68212  0.07222  0.62261  Biso   1.000  Ne
  Ne281    1.0000 0.29643  0.89794  0.20348  Biso   1.000  Ne
  He281    1.0000 0.29314  0.86713  0.19096  Biso   1.000  He
  He282    1.0000 0.26198  0.86138  0.18168  Biso   1.000  He
  Ne282    1.0000 0.25437  0.83188  0.16677  Biso   1.000  Ne
  Ne283    1.0000 0.79103  0.34309  0.67956  Biso   1.000  Ne
  He283    1.0000 0.81083  0.34425  0.65312  Biso   1.000  He
  He284    1.0000 0.81917  0.30979  0.64284  Biso   1.000  He
  Ne284    1.0000 0.82897  0.30930  0.61133  Biso   1.000  Ne
  Ne285    1.0000 0.68897  0.81152  0.58011  Biso   1.000  Ne
  He285    1.0000 0.68433  0.84189  0.59215  Biso   1.000  He
  He286    1.0000 0.70245  0.85096  0.61788  Biso   1.000  He
  Ne286    1.0000 0.69294  0.88037  0.63200  Biso   1.000  Ne
  Ne287    1.0000 0.07539  0.25421  0.94972  Biso   1.000  Ne
  He287    1.0000 0.09388  0.24063  0.92623  Biso   1.000  He
  He288    1.0000 0.09225  0.26065  0.89951  Biso   1.000  He
  Ne288    1.0000 0.10967  0.24951  0.87280  Biso   1.000  Ne
  Ne289    1.0000 0.20749  0.74329  0.90093  Biso   1.000  Ne
  He289    1.0000 0.21793  0.72483  0.92661  Biso   1.000  He
  He290    1.0000 0.22724  0.69240  0.91979  Biso   1.000  He
  Ne290    1.0000 0.20393  0.66917  0.92809  Biso   1.000  Ne
  Ne291    1.0000 0.44167  0.81247  0.42972  Biso   1.000  Ne
  He291    1.0000 0.45414  0.84162  0.42350  Biso   1.000  He
  He292    1.0000 0.44176  0.86853  0.43859  Biso   1.000  He
  Ne292    1.0000 0.45727  0.89538  0.42836  Biso   1.000  Ne
  Ne293    1.0000 0.17090  0.06727  0.91923  Biso   1.000  Ne
  He293    1.0000 0.14641  0.06019  0.90220  Biso   1.000  He
  He294    1.0000 0.12260  0.04553  0.92019  Biso   1.000  He
  Ne294    1.0000 0.09691  0.03653  0.90166  Biso   1.000  Ne
  Ne295    1.0000 0.26957  0.73364  0.07475  Biso   1.000  Ne
  He295    1.0000 0.24664  0.75956  0.07354  Biso   1.000  He
  He296    1.0000 0.21546  0.75316  0.08575  Biso   1.000  He
  Ne296    1.0000 0.19487  0.77928  0.08122  Biso   1.000  Ne
  Ne297    1.0000 0.21110  0.74517  0.63418  Biso   1.000  Ne
  He297    1.0000 0.18597  0.74500  0.65601  Biso   1.000  He
  He298    1.0000 0.15708  0.75624  0.64326  Biso   1.000  He
  Ne298    1.0000 0.13330  0.75800  0.66678  Biso   1.000  Ne
  Ne299    1.0000 0.94698  0.78260  0.17296  Biso   1.000  Ne
  He299    1.0000 0.91601  0.77455  0.18351  Biso   1.000  He
  He300    1.0000 0.89183  0.78405  0.16602  Biso   1.000  He
  Ne300    1.0000 0.86381  0.77272  0.17853  Biso   1.000  Ne
  Ne301    1.0000 0.03436  0.29211  0.12259  Biso   1.000  Ne
  He301    1.0000 0.04108  0.28370  0.09119  Biso   1.000  He
  He302    1.0000 0.01590  0.27296  0.07115  Biso   1.000  He
  Ne302    1.0000 0.02677  0.26953  0.04022  Biso   1.000  Ne
  Ne303    1.0000 0.43178  0.21204  0.57478  Biso   1.000  Ne
  He303    1.0000 0.40413  0.19645  0.57888  Biso   1.000  He
  He304    1.0000 0.41142  0.16917  0.59835  Biso   1.000  He
  Ne304    1.0000 0.38580  0.15222  0.60882  Biso   1.000  Ne
  Ne305    1.0000 0.10992  0.68310  0.58818  Biso   1.000  Ne
  He305    1.0000 0.11550  0.71178  0.57412  Biso   1.000  He
  He306    1.0000 0.09412  0.73670  0.57704  Biso   1.000  He
  Ne306    1.0000 0.10634  0.76166  0.55908  Biso   1.000  Ne
  Ne307    1.0000 0.57718  0.28943  0.25732  Biso   1.000  Ne
  He307    1.0000 0.60071  0.27612  0.23747  Biso   1.000  He
  He308    1.0000 0.62263  0.29877  0.22537  Biso   1.000  He
  Ne308    1.0000 0.64449  0.28869  0.20242  Biso   1.000  Ne
  Ne309    1.0000 0.56605  0.53476  0.11402  Biso   1.000  Ne
  He309    1.0000 0.59753  0.53499  0.11151  Biso   1.000  He
  He310    1.0000 0.61015  0.56359  0.10166  Biso   1.000  He
  Ne310    1.0000 0.64401  0.56414  0.09830  Biso   1.000  Ne
  Ne311    1.0000 0.34301  0.40079  0.13707  Biso   1.000  Ne
  He311    1.0000 0.35033  0.37313  0.12279  Biso   1.000  He
  He312    1.0000 0.32722  0.36177  0.10296  Biso   1.000  He
  Ne312    1.0000 0.33476  0.33719  0.08258  Biso   1.000  Ne
  Ne313    1.0000 0.84422  0.30909  0.41408  Biso   1.000  Ne
  He313    1.0000 0.84673  0.34301  0.40580  Biso   1.000  He
  He314    1.0000 0.82366  0.36448  0.41479  Biso   1.000  He
  Ne314    1.0000 0.83001  0.39548  0.40642  Biso   1.000  Ne
  Ne315    1.0000 0.13418  0.69615  0.42718  Biso   1.000  Ne
  He315    1.0000 0.11733  0.66934  0.42124  Biso   1.000  He
  He316    1.0000 0.12308  0.65843  0.38888  Biso   1.000  He
  Ne316    1.0000 0.10919  0.63132  0.37846  Biso   1.000  Ne
  Ne317    1.0000 0.11339  0.25540  0.27250  Biso   1.000  Ne
  He317    1.0000 0.11444  0.26279  0.23955  Biso   1.000  He
  He318    1.0000 0.09384  0.24170  0.22016  Biso   1.000  He
  Ne318    1.0000 0.08880  0.25405  0.18947  Biso   1.000  Ne
  Ne319    1.0000 0.15865  0.35219  0.58105  Biso   1.000  Ne
  He319    1.0000 0.17288  0.32638  0.59722  Biso   1.000  He
  He320    1.0000 0.20656  0.32740  0.59498  Biso   1.000  He
  Ne320    1.0000 0.22549  0.30495  0.61239  Biso   1.000  Ne
