data_image0
_cell_length_a       47.5561
_cell_length_b       46.6652
_cell_length_c       46.5858
_cell_angle_alpha    90
_cell_angle_beta     90
_cell_angle_gamma    90

_symmetry_space_group_name_H-M    "P 1"
_symmetry_int_tables_number       1

loop_
  _symmetry_equiv_pos_as_xyz
  'x, y, z'

loop_
  _atom_site_label
  _atom_site_occupancy
  _atom_site_fract_x
  _atom_site_fract_y
  _atom_site_fract_z
  _atom_site_thermal_displace_type
  _atom_site_B_iso_or_equiv
  _atom_site_type_symbol
  Ne1      1.0000 0.50717  0.01182  0.56442  Biso   1.000  Ne
  He1      1.0000 0.49053  0.01487  0.53815  Biso   1.000  He
  He2      1.0000 0.46453  0.99517  0.53711  Biso   1.000  He
  Ne2      1.0000 0.45035  0.99503  0.50825  Biso   1.000  Ne
  Ne3      1.0000 0.61049  0.66114  0.23757  Biso   1.000  Ne
  He3      1.0000 0.60618  0.64582  0.20860  Biso   1.000  He
  He4      1.0000 0.61425  0.66429  0.18217  Biso   1.000  He
  Ne4      1.0000 0.60327  0.65478  0.15318  Biso   1.000  Ne
  Ne5      1.0000 0.14339  0.58096  0.72970  Biso   1.000  Ne
  He5      1.0000 0.11753  0.57475  0.75219  Biso   1.000  He
  He6      1.0000 0.09110  0.59620  0.74599  Biso   1.000  He
  Ne6      1.0000 0.06399  0.58512  0.76490  Biso   1.000  Ne
  Ne7      1.0000 0.11487  0.27697  0.27172  Biso   1.000  Ne
  He7      1.0000 0.11953  0.24425  0.27025  Biso   1.000  He
  He8      1.0000 0.09214  0.22667  0.26895  Biso   1.000  He
  Ne8      1.0000 0.09883  0.19322  0.26750  Biso   1.000  Ne
  Ne9      1.0000 0.04341  0.57997  0.44219  Biso   1.000  Ne
  He9      1.0000 0.04648  0.55592  0.42080  Biso   1.000  He
  He10     1.0000 0.03565  0.52585  0.42864  Biso   1.000  He
  Ne10     1.0000 0.05946  0.50586  0.43290  Biso   1.000  Ne
  Ne11     1.0000 0.11911  0.31176  0.57868  Biso   1.000  Ne
  He11     1.0000 0.13314  0.28646  0.59463  Biso   1.000  He
  He12     1.0000 0.13276  0.28736  0.62498  Biso   1.000  He
  Ne12     1.0000 0.14740  0.25851  0.63625  Biso   1.000  Ne
  Ne13     1.0000 0.18152  0.09972  0.57039  Biso   1.000  Ne
  He13     1.0000 0.21548  0.10744  0.56913  Biso   1.000  He
  He14     1.0000 0.23194  0.08989  0.58979  Biso   1.000  He
  Ne14     1.0000 0.26567  0.09718  0.59186  Biso   1.000  Ne
  Ne15     1.0000 0.33482  0.06162  0.84698  Biso   1.000  Ne
  He15     1.0000 0.30420  0.05697  0.83936  Biso   1.000  He
  He16     1.0000 0.28348  0.07792  0.85709  Biso   1.000  He
  Ne16     1.0000 0.25158  0.07313  0.84827  Biso   1.000  Ne
  Ne17     1.0000 0.56858  0.96345  0.78699  Biso   1.000  Ne
  He17     1.0000 0.59327  0.95937  0.76412  Biso   1.000  He
  He18     1.0000 0.61208  0.93253  0.76665  Biso   1.000  He
  Ne18     1.0000 0.63275  0.93049  0.74110  Biso   1.000  Ne
  Ne19     1.0000 0.70845  0.39318  0.84688  Biso   1.000  Ne
  He19     1.0000 0.72986  0.39425  0.87157  Biso   1.000  He
  He20     1.0000 0.75596  0.37229  0.86992  Biso   1.000  He
  Ne20     1.0000 0.77482  0.37065  0.89615  Biso   1.000  Ne
  Ne21     1.0000 0.35387  0.80788  0.42872  Biso   1.000  Ne
  He21     1.0000 0.32219  0.82188  0.43423  Biso   1.000  He
  He22     1.0000 0.29726  0.80194  0.43345  Biso   1.000  He
  Ne22     1.0000 0.26806  0.81662  0.43279  Biso   1.000  Ne
  Ne23     1.0000 0.62626  0.08823  0.66219  Biso   1.000  Ne
  He23     1.0000 0.62813  0.08263  0.69385  Biso   1.000  He
  He24     1.0000 0.65690  0.09159  0.70725  Biso   1.000  He
  Ne24     1.0000 0.66241  0.08429  0.74042  Biso   1.000  Ne
  Ne25     1.0000 0.66187  0.58537  0.07658  Biso   1.000  Ne
  He25     1.0000 0.63038  0.57595  0.08563  Biso   1.000  He
  He26     1.0000 0.62552  0.57763  0.11842  Biso   1.000  He
  Ne26     1.0000 0.59432  0.56942  0.12662  Biso   1.000  Ne
  Ne27     1.0000 0.30002  0.69567  0.08580  Biso   1.000  Ne
  He27     1.0000 0.29097  0.66525  0.07631  Biso   1.000  He
  He28     1.0000 0.31727  0.64413  0.07833  Biso   1.000  He
  Ne28     1.0000 0.31341  0.61145  0.06664  Biso   1.000  Ne
  Ne29     1.0000 0.36103  0.24357  0.91745  Biso   1.000  Ne
  He29     1.0000 0.34285  0.21620  0.92524  Biso   1.000  He
  He30     1.0000 0.31384  0.21578  0.90886  Biso   1.000  He
  Ne30     1.0000 0.29180  0.19393  0.91922  Biso   1.000  Ne
  Ne31     1.0000 0.96937  0.61995  0.42015  Biso   1.000  Ne
  He31     1.0000 0.95636  0.64062  0.39669  Biso   1.000  He
  He32     1.0000 0.96372  0.67353  0.40482  Biso   1.000  He
  Ne32     1.0000 0.95531  0.69772  0.38553  Biso   1.000  Ne
  Ne33     1.0000 0.83532  0.90913  0.14797  Biso   1.000  Ne
  He33     1.0000 0.82928  0.92099  0.11540  Biso   1.000  He
  He34     1.0000 0.83121  0.89634  0.09384  Biso   1.000  He
  Ne34     1.0000 0.82694  0.91029  0.06546  Biso   1.000  Ne
  Ne35     1.0000 0.13046  0.81752  0.85084  Biso   1.000  Ne
  He35     1.0000 0.13286  0.84288  0.82951  Biso   1.000  He
  He36     1.0000 0.11819  0.87100  0.83792  Biso   1.000  He
  Ne36     1.0000 0.12651  0.89512  0.81374  Biso   1.000  Ne
  Ne37     1.0000 0.14114  0.81686  0.92519  Biso   1.000  Ne
  He37     1.0000 0.17474  0.81900  0.92357  Biso   1.000  He
  He38     1.0000 0.18462  0.84887  0.91934  Biso   1.000  He
  Ne38     1.0000 0.21881  0.85166  0.91901  Biso   1.000  Ne
  Ne39     1.0000 0.14882  0.34574  0.39577  Biso   1.000  Ne
  He39     1.0000 0.14019  0.31599  0.38438  Biso   1.000  He
  He40     1.0000 0.10826  0.31321  0.37853  Biso   1.000  He
  Ne40     1.0000 0.09782  0.28211  0.37368  Biso   1.000  Ne
  Ne41     1.0000 0.06784  0.21992  0.54401  Biso   1.000  Ne
  He41     1.0000 0.03585  0.21662  0.54493  Biso   1.000  He
  He42     1.0000 0.02309  0.22560  0.51572  Biso   1.000  He
  Ne42     1.0000 0.99125  0.22225  0.51030  Biso   1.000  Ne
  Ne43     1.0000 0.46260  0.20446  0.63735  Biso   1.000  Ne
  He43     1.0000 0.44794  0.20092  0.60756  Biso   1.000  He
  He44     1.0000 0.41677  0.18975  0.60855  Biso   1.000  He
  Ne44     1.0000 0.40281  0.18309  0.57668  Biso   1.000  Ne
  Ne45     1.0000 0.64625  0.57896  0.22177  Biso   1.000  Ne
  He45     1.0000 0.67712  0.58256  0.21087  Biso   1.000  He
  He46     1.0000 0.69424  0.60900  0.22211  Biso   1.000  He
  Ne46     1.0000 0.71708  0.61759  0.20171  Biso   1.000  Ne
  Ne47     1.0000 0.93803  0.97742  0.29342  Biso   1.000  Ne
  He47     1.0000 0.96143  0.95384  0.28582  Biso   1.000  He
  He48     1.0000 0.98547  0.95036  0.30903  Biso   1.000  He
  Ne48     1.0000 0.00561  0.92795  0.29957  Biso   1.000  Ne
  Ne49     1.0000 0.42471  0.31088  0.07076  Biso   1.000  Ne
  He49     1.0000 0.42418  0.30725  0.10030  Biso   1.000  He
  He50     1.0000 0.43301  0.27666  0.11050  Biso   1.000  He
  Ne50     1.0000 0.42827  0.27143  0.14552  Biso   1.000  Ne
  Ne51     1.0000 0.44360  0.15468  0.42166  Biso   1.000  Ne
  He51     1.0000 0.41583  0.16956  0.40329  Biso   1.000  He
  He52     1.0000 0.41345  0.20318  0.40967  Biso   1.000  He
  Ne52     1.0000 0.38361  0.21454  0.40370  Biso   1.000  Ne
  Ne53     1.0000 0.08549  0.11148  0.22781  Biso   1.000  Ne
  He53     1.0000 0.08579  0.09298  0.20127  Biso   1.000  He
  He54     1.0000 0.11046  0.09967  0.17693  Biso   1.000  He
  Ne54     1.0000 0.10303  0.07876  0.14932  Biso   1.000  Ne
  Ne55     1.0000 0.46392  0.79412  0.59408  Biso   1.000  Ne
  He55     1.0000 0.45700  0.82714  0.58689  Biso   1.000  He
  He56     1.0000 0.43006  0.84055  0.60462  Biso   1.000  He
  Ne56     1.0000 0.39740  0.83745  0.59346  Biso   1.000  Ne
  Ne57     1.0000 0.29116  0.29176  0.06420  Biso   1.000  Ne
  He57     1.0000 0.30298  0.31713  0.08388  Biso   1.000  He
  He58     1.0000 0.33674  0.31971  0.08305  Biso   1.000  He
  Ne58     1.0000 0.34970  0.34730  0.09567  Biso   1.000  Ne
  Ne59     1.0000 0.65784  0.93312  0.56008  Biso   1.000  Ne
  He59     1.0000 0.63478  0.93254  0.53439  Biso   1.000  He
  He60     1.0000 0.61481  0.90605  0.53378  Biso   1.000  He
  Ne60     1.0000 0.58927  0.90550  0.50898  Biso   1.000  Ne
  Ne61     1.0000 0.41952  0.15184  0.32515  Biso   1.000  Ne
  He61     1.0000 0.43167  0.12642  0.34151  Biso   1.000  He
  He62     1.0000 0.43197  0.09898  0.32477  Biso   1.000  He
  Ne62     1.0000 0.44910  0.07099  0.33570  Biso   1.000  Ne
  Ne63     1.0000 0.69336  0.92188  0.40447  Biso   1.000  Ne
  He63     1.0000 0.70936  0.92269  0.37629  Biso   1.000  He
  He64     1.0000 0.69042  0.90918  0.35240  Biso   1.000  He
  Ne64     1.0000 0.70345  0.90649  0.32064  Biso   1.000  Ne
  Ne65     1.0000 0.28403  0.88526  0.82810  Biso   1.000  Ne
  He65     1.0000 0.26739  0.86225  0.81007  Biso   1.000  He
  He66     1.0000 0.23444  0.86350  0.81615  Biso   1.000  He
  Ne66     1.0000 0.21946  0.83622  0.80404  Biso   1.000  Ne
  Ne67     1.0000 0.67863  0.18757  0.35588  Biso   1.000  Ne
  He67     1.0000 0.70357  0.17000  0.36713  Biso   1.000  He
  He68     1.0000 0.70703  0.16134  0.39528  Biso   1.000  He
  Ne68     1.0000 0.73780  0.14467  0.40295  Biso   1.000  Ne
  Ne69     1.0000 0.19359  0.86463  0.15910  Biso   1.000  Ne
  He69     1.0000 0.22302  0.88014  0.15734  Biso   1.000  He
  He70     1.0000 0.21973  0.91500  0.15915  Biso   1.000  He
  Ne70     1.0000 0.24969  0.92998  0.15904  Biso   1.000  Ne
  Ne71     1.0000 0.36881  0.64235  0.89773  Biso   1.000  Ne
  He71     1.0000 0.34196  0.65529  0.90960  Biso   1.000  He
  He72     1.0000 0.32825  0.67709  0.89099  Biso   1.000  He
  Ne72     1.0000 0.30193  0.69308  0.90317  Biso   1.000  Ne
  Ne73     1.0000 0.13359  0.78148  0.77578  Biso   1.000  Ne
  He73     1.0000 0.13484  0.81118  0.76193  Biso   1.000  He
  He74     1.0000 0.10890  0.82394  0.75133  Biso   1.000  He
  Ne74     1.0000 0.11298  0.85292  0.73310  Biso   1.000  Ne
  Ne75     1.0000 0.28647  0.29769  0.41875  Biso   1.000  Ne
  He75     1.0000 0.31270  0.30452  0.43669  Biso   1.000  He
  He76     1.0000 0.33916  0.30063  0.41409  Biso   1.000  He
  Ne76     1.0000 0.36630  0.30908  0.43105  Biso   1.000  Ne
  Ne77     1.0000 0.62023  0.40534  0.76096  Biso   1.000  Ne
  He77     1.0000 0.60756  0.40244  0.79090  Biso   1.000  He
  He78     1.0000 0.62542  0.40251  0.81677  Biso   1.000  He
  Ne78     1.0000 0.60862  0.39602  0.84574  Biso   1.000  Ne
  Ne79     1.0000 0.74394  0.55938  0.44897  Biso   1.000  Ne
  He79     1.0000 0.75750  0.57834  0.42788  Biso   1.000  He
  He80     1.0000 0.74123  0.57064  0.39984  Biso   1.000  He
  Ne80     1.0000 0.74979  0.58767  0.37156  Biso   1.000  Ne
  Ne81     1.0000 0.11367  0.97487  0.92594  Biso   1.000  Ne
  He81     1.0000 0.11888  0.94810  0.94234  Biso   1.000  He
  He82     1.0000 0.10788  0.91993  0.92607  Biso   1.000  He
  Ne82     1.0000 0.11809  0.89140  0.93942  Biso   1.000  Ne
  Ne83     1.0000 0.78087  0.06928  0.53391  Biso   1.000  Ne
  He83     1.0000 0.75224  0.08305  0.54934  Biso   1.000  He
  He84     1.0000 0.75760  0.10100  0.58065  Biso   1.000  He
  Ne84     1.0000 0.73084  0.11469  0.59811  Biso   1.000  Ne
  Ne85     1.0000 0.21605  0.59535  0.57577  Biso   1.000  Ne
  He85     1.0000 0.20307  0.59133  0.60696  Biso   1.000  He
  He86     1.0000 0.22354  0.58113  0.62726  Biso   1.000  He
  Ne86     1.0000 0.21239  0.58207  0.65833  Biso   1.000  Ne
  Ne87     1.0000 0.77941  0.62059  0.62199  Biso   1.000  Ne
  He87     1.0000 0.77211  0.59437  0.60008  Biso   1.000  He
  He88     1.0000 0.76150  0.60387  0.56926  Biso   1.000  He
  Ne88     1.0000 0.75619  0.57688  0.55262  Biso   1.000  Ne
  Ne89     1.0000 0.43776  0.91862  0.36139  Biso   1.000  Ne
  He89     1.0000 0.44312  0.88269  0.36140  Biso   1.000  He
  He90     1.0000 0.42757  0.86861  0.33575  Biso   1.000  He
  Ne90     1.0000 0.43658  0.83712  0.33063  Biso   1.000  Ne
  Ne91     1.0000 0.08223  0.24721  0.15801  Biso   1.000  Ne
  He91     1.0000 0.09309  0.22991  0.18298  Biso   1.000  He
  He92     1.0000 0.09596  0.19803  0.17799  Biso   1.000  He
  Ne92     1.0000 0.11563  0.18712  0.20186  Biso   1.000  Ne
  Ne93     1.0000 0.38818  0.91696  0.42270  Biso   1.000  Ne
  He93     1.0000 0.35915  0.90063  0.41821  Biso   1.000  He
  He94     1.0000 0.33286  0.92022  0.43401  Biso   1.000  He
  Ne94     1.0000 0.30210  0.90471  0.43433  Biso   1.000  Ne
  Ne95     1.0000 0.83937  0.64653  0.55751  Biso   1.000  Ne
  He95     1.0000 0.86744  0.65537  0.57175  Biso   1.000  He
  He96     1.0000 0.89230  0.64000  0.55794  Biso   1.000  He
  Ne96     1.0000 0.92305  0.64948  0.56049  Biso   1.000  Ne
  Ne97     1.0000 0.44750  0.69919  0.89224  Biso   1.000  Ne
  He97     1.0000 0.43523  0.72713  0.90967  Biso   1.000  He
  He98     1.0000 0.40198  0.73256  0.90675  Biso   1.000  He
  Ne98     1.0000 0.39171  0.75963  0.92211  Biso   1.000  Ne
  Ne99     1.0000 0.20820  0.41279  0.56283  Biso   1.000  Ne
  He99     1.0000 0.17644  0.41245  0.55661  Biso   1.000  He
  He100    1.0000 0.16002  0.38403  0.55354  Biso   1.000  He
  Ne100    1.0000 0.12799  0.38890  0.54718  Biso   1.000  Ne
  Ne101    1.0000 0.60189  0.30845  0.11103  Biso   1.000  Ne
  He101    1.0000 0.58863  0.28479  0.09450  Biso   1.000  He
  He102    1.0000 0.61166  0.25967  0.09291  Biso   1.000  He
  Ne102    1.0000 0.60337  0.23592  0.06953  Biso   1.000  Ne
  Ne103    1.0000 0.58042  0.49692  0.04693  Biso   1.000  Ne
  He103    1.0000 0.55053  0.48162  0.04799  Biso   1.000  He
  He104    1.0000 0.52864  0.49119  0.07242  Biso   1.000  He
  Ne104    1.0000 0.49765  0.48159  0.07095  Biso   1.000  Ne
  Ne105    1.0000 0.84276  0.11468  0.89892  Biso   1.000  Ne
  He105    1.0000 0.86175  0.09257  0.88555  Biso   1.000  He
  He106    1.0000 0.89497  0.09804  0.89570  Biso   1.000  He
  Ne106    1.0000 0.91765  0.07965  0.88243  Biso   1.000  Ne
  Ne107    1.0000 0.95530  0.49347  0.49897  Biso   1.000  Ne
  He107    1.0000 0.93931  0.50761  0.47377  Biso   1.000  He
  He108    1.0000 0.95434  0.52532  0.45173  Biso   1.000  He
  Ne108    1.0000 0.93366  0.54439  0.43589  Biso   1.000  Ne
  Ne109    1.0000 0.26832  0.45001  0.36445  Biso   1.000  Ne
  He109    1.0000 0.23580  0.44030  0.36278  Biso   1.000  He
  He110    1.0000 0.22131  0.42828  0.38932  Biso   1.000  He
  Ne110    1.0000 0.19004  0.41857  0.38062  Biso   1.000  Ne
  Ne111    1.0000 0.82148  0.59502  0.76880  Biso   1.000  Ne
  He111    1.0000 0.79040  0.59018  0.77597  Biso   1.000  He
  He112    1.0000 0.77280  0.61503  0.78409  Biso   1.000  He
  Ne112    1.0000 0.74196  0.60464  0.79506  Biso   1.000  Ne
  Ne113    1.0000 0.78887  0.38002  0.06263  Biso   1.000  Ne
  He113    1.0000 0.76865  0.40784  0.05759  Biso   1.000  He
  He114    1.0000 0.73841  0.40687  0.07409  Biso   1.000  He
  Ne114    1.0000 0.71909  0.43284  0.06783  Biso   1.000  Ne
  Ne115    1.0000 0.71789  0.39261  0.15902  Biso   1.000  Ne
  He115    1.0000 0.72438  0.36969  0.18361  Biso   1.000  He
  He116    1.0000 0.70556  0.36901  0.20977  Biso   1.000  He
  Ne116    1.0000 0.71570  0.35222  0.23390  Biso   1.000  Ne
  Ne117    1.0000 0.67070  0.64927  0.53902  Biso   1.000  Ne
  He117    1.0000 0.69047  0.64885  0.51291  Biso   1.000  He
  He118    1.0000 0.68465  0.67348  0.49276  Biso   1.000  He
  Ne118    1.0000 0.70273  0.67107  0.46404  Biso   1.000  Ne
  Ne119    1.0000 0.15603  0.04527  0.71371  Biso   1.000  Ne
  He119    1.0000 0.12987  0.06074  0.72963  Biso   1.000  He
  He120    1.0000 0.13228  0.06954  0.76229  Biso   1.000  He
  Ne120    1.0000 0.10380  0.07782  0.77619  Biso   1.000  Ne
  Ne121    1.0000 0.97422  0.88601  0.88897  Biso   1.000  Ne
  He121    1.0000 0.99119  0.90251  0.91280  Biso   1.000  He
  He122    1.0000 0.97836  0.89802  0.94234  Biso   1.000  He
  Ne122    1.0000 0.99491  0.91811  0.96333  Biso   1.000  Ne
  Ne123    1.0000 0.29452  0.78906  0.09839  Biso   1.000  Ne
  He123    1.0000 0.26882  0.80812  0.08621  Biso   1.000  He
  He124    1.0000 0.24299  0.81269  0.10584  Biso   1.000  He
  Ne124    1.0000 0.21932  0.83294  0.09481  Biso   1.000  Ne
  Ne125    1.0000 0.95508  0.01398  0.99216  Biso   1.000  Ne
  He125    1.0000 0.94719  0.03435  0.96701  Biso   1.000  He
  He126    1.0000 0.96764  0.06025  0.96399  Biso   1.000  He
  Ne126    1.0000 0.96358  0.08169  0.94101  Biso   1.000  Ne
  Ne127    1.0000 0.46220  0.43903  0.99733  Biso   1.000  Ne
  He127    1.0000 0.47872  0.43364  0.96803  Biso   1.000  He
  He128    1.0000 0.51126  0.42393  0.97415  Biso   1.000  He
  Ne128    1.0000 0.52970  0.42289  0.94626  Biso   1.000  Ne
  Ne129    1.0000 0.63465  0.09462  0.56752  Biso   1.000  Ne
  He129    1.0000 0.62243  0.06666  0.57893  Biso   1.000  He
  He130    1.0000 0.61824  0.04310  0.55517  Biso   1.000  He
  Ne130    1.0000 0.60008  0.01524  0.56005  Biso   1.000  Ne
  Ne131    1.0000 0.43793  0.29380  0.83643  Biso   1.000  Ne
  He131    1.0000 0.43333  0.30769  0.86283  Biso   1.000  He
  He132    1.0000 0.46288  0.32016  0.87591  Biso   1.000  He
  Ne132    1.0000 0.45763  0.33326  0.90727  Biso   1.000  Ne
  Ne133    1.0000 0.08133  0.90240  0.27148  Biso   1.000  Ne
  He133    1.0000 0.10634  0.92191  0.25826  Biso   1.000  He
  He134    1.0000 0.10856  0.91536  0.22459  Biso   1.000  He
  Ne134    1.0000 0.13040  0.93390  0.20890  Biso   1.000  Ne
  Ne135    1.0000 0.76128  0.44696  0.58561  Biso   1.000  Ne
  He135    1.0000 0.78863  0.43035  0.57060  Biso   1.000  He
  He136    1.0000 0.81011  0.41748  0.59159  Biso   1.000  He
  Ne136    1.0000 0.83616  0.40388  0.57603  Biso   1.000  Ne
  Ne137    1.0000 0.95904  0.21831  0.06757  Biso   1.000  Ne
  He137    1.0000 0.93702  0.19696  0.07513  Biso   1.000  He
  He138    1.0000 0.94406  0.18102  0.10533  Biso   1.000  He
  Ne138    1.0000 0.93206  0.14870  0.11095  Biso   1.000  Ne
  Ne139    1.0000 0.82782  0.08913  0.71951  Biso   1.000  Ne
  He139    1.0000 0.85678  0.07798  0.70789  Biso   1.000  He
  He140    1.0000 0.87060  0.05005  0.71847  Biso   1.000  He
  Ne140    1.0000 0.87017  0.02659  0.69620  Biso   1.000  Ne
  Ne141    1.0000 0.35291  0.40948  0.83660  Biso   1.000  Ne
  He141    1.0000 0.33946  0.40199  0.86437  Biso   1.000  He
  He142    1.0000 0.35891  0.40705  0.89431  Biso   1.000  He
  Ne142    1.0000 0.33831  0.40211  0.92031  Biso   1.000  Ne
  Ne143    1.0000 0.72934  0.41898  0.29321  Biso   1.000  Ne
  He143    1.0000 0.74947  0.41399  0.26811  Biso   1.000  He
  He144    1.0000 0.77829  0.41187  0.27461  Biso   1.000  He
  Ne144    1.0000 0.80012  0.40199  0.24988  Biso   1.000  Ne
  Ne145    1.0000 0.88848  0.42083  0.30375  Biso   1.000  Ne
  He145    1.0000 0.91596  0.40275  0.30766  Biso   1.000  He
  He146    1.0000 0.90983  0.36960  0.30770  Biso   1.000  He
  Ne146    1.0000 0.93472  0.34932  0.31656  Biso   1.000  Ne
  Ne147    1.0000 0.44538  0.62999  0.79761  Biso   1.000  Ne
  He147    1.0000 0.43514  0.60958  0.82168  Biso   1.000  He
  He148    1.0000 0.44703  0.61138  0.85041  Biso   1.000  He
  Ne148    1.0000 0.43460  0.59059  0.86961  Biso   1.000  Ne
  Ne149    1.0000 0.41276  0.56426  0.05352  Biso   1.000  Ne
  He149    1.0000 0.43608  0.55832  0.03240  Biso   1.000  He
  He150    1.0000 0.45542  0.58546  0.02841  Biso   1.000  He
  Ne150    1.0000 0.47948  0.58529  0.00630  Biso   1.000  Ne
  Ne151    1.0000 0.95111  0.63236  0.30084  Biso   1.000  Ne
  He151    1.0000 0.97002  0.60869  0.31682  Biso   1.000  He
  He152    1.0000 0.95414  0.58693  0.33719  Biso   1.000  He
  Ne152    1.0000 0.97016  0.57045  0.35963  Biso   1.000  Ne
  Ne153    1.0000 0.20971  0.58896  0.39923  Biso   1.000  Ne
  He153    1.0000 0.20784  0.62045  0.40323  Biso   1.000  He
  He154    1.0000 0.23745  0.63577  0.40671  Biso   1.000  He
  Ne154    1.0000 0.23427  0.66943  0.40165  Biso   1.000  Ne
  Ne155    1.0000 0.03439  0.99581  0.90807  Biso   1.000  Ne
  He155    1.0000 0.03917  0.02914  0.91313  Biso   1.000  He
  He156    1.0000 0.05534  0.03391  0.94033  Biso   1.000  He
  Ne156    1.0000 0.05298  0.06564  0.95038  Biso   1.000  Ne
  Ne157    1.0000 0.65481  0.57208  0.83469  Biso   1.000  Ne
  He157    1.0000 0.68214  0.57676  0.85459  Biso   1.000  He
  He158    1.0000 0.67300  0.57113  0.88533  Biso   1.000  He
  Ne158    1.0000 0.69794  0.56739  0.90571  Biso   1.000  Ne
  Ne159    1.0000 0.26001  0.43297  0.24009  Biso   1.000  Ne
  He159    1.0000 0.25596  0.40710  0.26051  Biso   1.000  He
  He160    1.0000 0.28138  0.39851  0.27667  Biso   1.000  He
  Ne160    1.0000 0.27796  0.37039  0.29440  Biso   1.000  Ne
  Ne161    1.0000 0.65392  0.65748  0.79101  Biso   1.000  Ne
  He161    1.0000 0.67780  0.67521  0.77976  Biso   1.000  He
  He162    1.0000 0.67300  0.70704  0.78287  Biso   1.000  He
  Ne162    1.0000 0.69769  0.72379  0.77642  Biso   1.000  Ne
  Ne163    1.0000 0.26209  0.18425  0.84051  Biso   1.000  Ne
  He163    1.0000 0.27421  0.15650  0.82647  Biso   1.000  He
  He164    1.0000 0.30375  0.16350  0.81090  Biso   1.000  He
  Ne164    1.0000 0.31222  0.13683  0.79552  Biso   1.000  Ne
  Ne165    1.0000 0.18475  0.60154  0.29485  Biso   1.000  Ne
  He165    1.0000 0.20368  0.60104  0.26679  Biso   1.000  He
  He166    1.0000 0.23366  0.61448  0.27139  Biso   1.000  He
  Ne166    1.0000 0.25137  0.61643  0.24316  Biso   1.000  Ne
  Ne167    1.0000 0.10706  0.56178  0.64638  Biso   1.000  Ne
  He167    1.0000 0.12658  0.56950  0.62203  Biso   1.000  He
  He168    1.0000 0.12098  0.55030  0.59479  Biso   1.000  He
  Ne168    1.0000 0.14561  0.55676  0.56988  Biso   1.000  Ne
  Ne169    1.0000 0.85744  0.74424  0.76307  Biso   1.000  Ne
  He169    1.0000 0.87284  0.77246  0.75390  Biso   1.000  He
  He170    1.0000 0.90468  0.76959  0.75317  Biso   1.000  He
  Ne170    1.0000 0.92281  0.79720  0.74674  Biso   1.000  Ne
  Ne171    1.0000 0.20762  0.73702  0.93652  Biso   1.000  Ne
  He171    1.0000 0.22094  0.76284  0.92167  Biso   1.000  He
  He172    1.0000 0.23718  0.75536  0.89441  Biso   1.000  He
  Ne172    1.0000 0.25138  0.78313  0.87688  Biso   1.000  Ne
  Ne173    1.0000 0.08913  0.27537  0.00208  Biso   1.000  Ne
  He173    1.0000 0.09185  0.28025  0.03394  Biso   1.000  He
  He174    1.0000 0.06269  0.28176  0.04848  Biso   1.000  He
  Ne174    1.0000 0.06346  0.28611  0.08371  Biso   1.000  Ne
  Ne175    1.0000 0.93339  0.66619  0.66458  Biso   1.000  Ne
  He175    1.0000 0.91659  0.69120  0.68180  Biso   1.000  He
  He176    1.0000 0.89210  0.70800  0.66210  Biso   1.000  He
  Ne176    1.0000 0.86110  0.69866  0.66743  Biso   1.000  Ne
  Ne177    1.0000 0.18578  0.70089  0.30592  Biso   1.000  Ne
  He177    1.0000 0.16331  0.68236  0.28984  Biso   1.000  He
  He178    1.0000 0.13151  0.68013  0.30344  Biso   1.000  He
  Ne178    1.0000 0.11181  0.66571  0.28444  Biso   1.000  Ne
  Ne179    1.0000 0.11878  0.71045  0.42427  Biso   1.000  Ne
  He179    1.0000 0.11046  0.74368  0.42270  Biso   1.000  He
  He180    1.0000 0.08995  0.75434  0.45014  Biso   1.000  He
  Ne180    1.0000 0.07425  0.78440  0.44534  Biso   1.000  Ne
  Ne181    1.0000 0.09037  0.69294  0.65008  Biso   1.000  Ne
  He181    1.0000 0.08145  0.67971  0.62179  Biso   1.000  He
  He182    1.0000 0.10618  0.65935  0.61173  Biso   1.000  He
  Ne182    1.0000 0.10083  0.64222  0.58515  Biso   1.000  Ne
  Ne183    1.0000 0.72139  0.67105  0.04921  Biso   1.000  Ne
  He183    1.0000 0.69157  0.66089  0.05878  Biso   1.000  He
  He184    1.0000 0.67116  0.68844  0.06644  Biso   1.000  He
  Ne184    1.0000 0.64182  0.67889  0.07721  Biso   1.000  Ne
  Ne185    1.0000 0.97866  0.33265  0.20293  Biso   1.000  Ne
  He185    1.0000 0.99258  0.34560  0.17641  Biso   1.000  He
  He186    1.0000 0.02580  0.33987  0.17524  Biso   1.000  He
  Ne186    1.0000 0.04014  0.35376  0.15263  Biso   1.000  Ne
  Ne187    1.0000 0.93847  0.15022  0.83713  Biso   1.000  Ne
  He187    1.0000 0.92857  0.13306  0.81215  Biso   1.000  He
  He188    1.0000 0.94501  0.10388  0.80909  Biso   1.000  He
  Ne188    1.0000 0.93630  0.08658  0.78094  Biso   1.000  Ne
  Ne189    1.0000 0.52706  0.51652  0.90722  Biso   1.000  Ne
  He189    1.0000 0.49313  0.51628  0.90500  Biso   1.000  He
  He190    1.0000 0.47891  0.53511  0.92963  Biso   1.000  He
  Ne190    1.0000 0.44355  0.52943  0.93399  Biso   1.000  Ne
  Ne191    1.0000 0.61630  0.16356  0.30103  Biso   1.000  Ne
  He191    1.0000 0.62470  0.19491  0.30429  Biso   1.000  He
  He192    1.0000 0.60605  0.21013  0.32700  Biso   1.000  He
  Ne192    1.0000 0.61691  0.24143  0.33214  Biso   1.000  Ne
  Ne193    1.0000 0.19217  0.10369  0.91357  Biso   1.000  Ne
  He193    1.0000 0.16635  0.10945  0.89208  Biso   1.000  He
  He194    1.0000 0.13996  0.09797  0.90201  Biso   1.000  He
  Ne194    1.0000 0.11180  0.10644  0.88135  Biso   1.000  Ne
  Ne195    1.0000 0.11044  0.40979  0.62306  Biso   1.000  Ne
  He195    1.0000 0.12197  0.40934  0.65399  Biso   1.000  He
  He196    1.0000 0.15503  0.40999  0.65610  Biso   1.000  He
  Ne196    1.0000 0.16621  0.40981  0.68759  Biso   1.000  Ne
  Ne197    1.0000 0.84693  0.32215  0.65547  Biso   1.000  Ne
  He197    1.0000 0.84843  0.32816  0.62346  Biso   1.000  He
  He198    1.0000 0.86968  0.30861  0.60699  Biso   1.000  He
  Ne198    1.0000 0.86060  0.30773  0.57547  Biso   1.000  Ne
  Ne199    1.0000 0.60870  0.29302  0.19391  Biso   1.000  Ne
  He199    1.0000 0.60163  0.28438  0.22677  Biso   1.000  He
  He200    1.0000 0.58764  0.31336  0.24168  Biso   1.000  He
  Ne200    1.0000 0.57900  0.30798  0.27414  Biso   1.000  Ne
  Ne201    1.0000 0.16331  0.07344  0.06881  Biso   1.000  Ne
  He201    1.0000 0.17914  0.08765  0.09480  Biso   1.000  He
  He202    1.0000 0.20715  0.10373  0.08754  Biso   1.000  He
  Ne202    1.0000 0.22291  0.11903  0.11383  Biso   1.000  Ne
  Ne203    1.0000 0.90567  0.13297  0.21445  Biso   1.000  Ne
  He203    1.0000 0.89886  0.16322  0.20250  Biso   1.000  He
  He204    1.0000 0.91579  0.18830  0.21744  Biso   1.000  He
  Ne204    1.0000 0.90918  0.21685  0.20203  Biso   1.000  Ne
  Ne205    1.0000 0.23862  0.05622  0.76192  Biso   1.000  Ne
  He205    1.0000 0.27006  0.06666  0.75851  Biso   1.000  He
  He206    1.0000 0.27329  0.08257  0.72775  Biso   1.000  He
  Ne206    1.0000 0.30354  0.09523  0.72386  Biso   1.000  Ne
  Ne207    1.0000 0.59505  0.91158  0.35948  Biso   1.000  Ne
  He207    1.0000 0.59114  0.87941  0.36925  Biso   1.000  He
  He208    1.0000 0.60518  0.87069  0.39769  Biso   1.000  He
  Ne208    1.0000 0.59976  0.83907  0.40917  Biso   1.000  Ne
  Ne209    1.0000 0.60429  0.14858  0.38087  Biso   1.000  Ne
  He209    1.0000 0.60553  0.11929  0.39605  Biso   1.000  He
  He210    1.0000 0.63360  0.11359  0.41308  Biso   1.000  He
  Ne210    1.0000 0.63432  0.08340  0.42741  Biso   1.000  Ne
  Ne211    1.0000 0.89286  0.90162  0.89616  Biso   1.000  Ne
  He211    1.0000 0.85866  0.90601  0.89509  Biso   1.000  He
  He212    1.0000 0.84827  0.90896  0.86399  Biso   1.000  He
  Ne212    1.0000 0.81538  0.91762  0.86315  Biso   1.000  Ne
  Ne213    1.0000 0.35058  0.44561  0.21014  Biso   1.000  Ne
  He213    1.0000 0.34676  0.41627  0.19821  Biso   1.000  He
  He214    1.0000 0.32240  0.41616  0.17530  Biso   1.000  He
  Ne214    1.0000 0.31939  0.38903  0.15821  Biso   1.000  Ne
  Ne215    1.0000 0.80436  0.07522  0.06975  Biso   1.000  Ne
  He215    1.0000 0.78890  0.10473  0.06208  Biso   1.000  He
  He216    1.0000 0.80922  0.13093  0.06082  Biso   1.000  He
  Ne216    1.0000 0.79550  0.16074  0.05548  Biso   1.000  Ne
  Ne217    1.0000 0.55394  0.56906  0.98464  Biso   1.000  Ne
  He217    1.0000 0.56790  0.56502  0.95714  Biso   1.000  He
  He218    1.0000 0.59916  0.55595  0.95982  Biso   1.000  He
  Ne218    1.0000 0.61358  0.55060  0.93002  Biso   1.000  Ne
  Ne219    1.0000 0.46138  0.40071  0.25956  Biso   1.000  Ne
  He219    1.0000 0.45412  0.41216  0.22902  Biso   1.000  He
  He220    1.0000 0.44507  0.39099  0.20807  Biso   1.000  He
  Ne220    1.0000 0.43569  0.40246  0.18125  Biso   1.000  Ne
  Ne221    1.0000 0.69114  0.54673  0.74400  Biso   1.000  Ne
  He221    1.0000 0.69719  0.54200  0.71429  Biso   1.000  He
  He222    1.0000 0.67246  0.55269  0.69097  Biso   1.000  He
  Ne222    1.0000 0.68352  0.54363  0.66223  Biso   1.000  Ne
  Ne223    1.0000 0.28994  0.07641  0.37304  Biso   1.000  Ne
  He223    1.0000 0.32155  0.07591  0.38114  Biso   1.000  He
  He224    1.0000 0.33002  0.08138  0.41280  Biso   1.000  He
  Ne224    1.0000 0.36273  0.08114  0.41862  Biso   1.000  Ne
  Ne225    1.0000 0.07329  0.58046  0.52749  Biso   1.000  Ne
  He225    1.0000 0.06373  0.55977  0.55508  Biso   1.000  He
  He226    1.0000 0.05858  0.52683  0.54551  Biso   1.000  He
  Ne226    1.0000 0.04831  0.50316  0.56612  Biso   1.000  Ne
  Ne227    1.0000 0.78648  0.71845  0.89496  Biso   1.000  Ne
  He227    1.0000 0.77284  0.73678  0.87114  Biso   1.000  He
  He228    1.0000 0.78450  0.76848  0.87148  Biso   1.000  He
  Ne228    1.0000 0.76749  0.78856  0.85281  Biso   1.000  Ne
  Ne229    1.0000 0.60323  0.47647  0.96759  Biso   1.000  Ne
  He229    1.0000 0.60976  0.45826  0.94110  Biso   1.000  He
  He230    1.0000 0.62218  0.42644  0.94507  Biso   1.000  He
  Ne230    1.0000 0.62464  0.40544  0.91855  Biso   1.000  Ne
  Ne231    1.0000 0.09961  0.92829  0.07169  Biso   1.000  Ne
  He231    1.0000 0.12327  0.90270  0.06621  Biso   1.000  He
  He232    1.0000 0.14920  0.90387  0.08752  Biso   1.000  He
  Ne232    1.0000 0.17664  0.91817  0.07648  Biso   1.000  Ne
  Ne233    1.0000 0.11388  0.60181  0.43711  Biso   1.000  Ne
  He233    1.0000 0.12445  0.60309  0.40229  Biso   1.000  He
  He234    1.0000 0.11104  0.57957  0.38289  Biso   1.000  He
  Ne234    1.0000 0.12453  0.58396  0.35229  Biso   1.000  Ne
  Ne235    1.0000 0.90755  0.66582  0.76964  Biso   1.000  Ne
  He235    1.0000 0.90211  0.63715  0.75680  Biso   1.000  He
  He236    1.0000 0.92760  0.61482  0.75935  Biso   1.000  He
  Ne236    1.0000 0.92581  0.58989  0.74118  Biso   1.000  Ne
  Ne237    1.0000 0.47406  0.27731  0.74809  Biso   1.000  Ne
  He237    1.0000 0.47063  0.29190  0.71924  Biso   1.000  He
  He238    1.0000 0.44387  0.27940  0.70271  Biso   1.000  He
  Ne238    1.0000 0.44082  0.29079  0.67174  Biso   1.000  Ne
  Ne239    1.0000 0.90878  0.90945  0.80924  Biso   1.000  Ne
  He239    1.0000 0.93729  0.89043  0.81234  Biso   1.000  He
  He240    1.0000 0.93099  0.85882  0.82054  Biso   1.000  He
  Ne240    1.0000 0.95932  0.84278  0.82173  Biso   1.000  Ne
  Ne241    1.0000 0.92668  0.39155  0.41883  Biso   1.000  Ne
  He241    1.0000 0.90237  0.41095  0.41617  Biso   1.000  He
  He242    1.0000 0.87751  0.39914  0.39511  Biso   1.000  He
  Ne242    1.0000 0.85581  0.42313  0.38548  Biso   1.000  Ne
  Ne243    1.0000 0.63403  0.89957  0.62873  Biso   1.000  Ne
  He243    1.0000 0.64664  0.88408  0.65373  Biso   1.000  He
  He244    1.0000 0.67549  0.89605  0.66360  Biso   1.000  He
  Ne244    1.0000 0.69086  0.88559  0.69100  Biso   1.000  Ne
  Ne245    1.0000 0.60721  0.61868  0.88625  Biso   1.000  Ne
  He245    1.0000 0.60171  0.64973  0.88579  Biso   1.000  He
  He246    1.0000 0.62470  0.66645  0.87038  Biso   1.000  He
  Ne246    1.0000 0.62690  0.69978  0.87625  Biso   1.000  Ne
  Ne247    1.0000 0.62297  0.32265  0.92875  Biso   1.000  Ne
  He247    1.0000 0.63250  0.29280  0.92512  Biso   1.000  He
  He248    1.0000 0.66715  0.29218  0.91862  Biso   1.000  He
  Ne248    1.0000 0.68138  0.26164  0.91537  Biso   1.000  Ne
  Ne249    1.0000 0.93652  0.32590  0.71809  Biso   1.000  Ne
  He249    1.0000 0.94870  0.31367  0.69197  Biso   1.000  He
  He250    1.0000 0.93886  0.33125  0.66348  Biso   1.000  He
  Ne250    1.0000 0.94810  0.32072  0.63457  Biso   1.000  Ne
  Ne251    1.0000 0.44331  0.55233  0.58695  Biso   1.000  Ne
  He251    1.0000 0.41150  0.55661  0.59396  Biso   1.000  He
  He252    1.0000 0.40152  0.58572  0.60369  Biso   1.000  He
  Ne252    1.0000 0.36974  0.58996  0.60721  Biso   1.000  Ne
  Ne253    1.0000 0.17985  0.39668  0.82257  Biso   1.000  Ne
  He253    1.0000 0.19691  0.42088  0.80941  Biso   1.000  He
  He254    1.0000 0.18035  0.44256  0.79164  Biso   1.000  He
  Ne254    1.0000 0.19738  0.46869  0.78133  Biso   1.000  Ne
  Ne255    1.0000 0.40179  0.46060  0.27249  Biso   1.000  Ne
  He255    1.0000 0.39825  0.45965  0.30442  Biso   1.000  He
  He256    1.0000 0.37258  0.47850  0.31477  Biso   1.000  He
  Ne256    1.0000 0.34455  0.45895  0.32358  Biso   1.000  Ne
  Ne257    1.0000 0.19592  0.17755  0.07304  Biso   1.000  Ne
  He257    1.0000 0.17017  0.19969  0.07800  Biso   1.000  He
  He258    1.0000 0.14143  0.18506  0.07199  Biso   1.000  He
  Ne258    1.0000 0.11485  0.20475  0.06915  Biso   1.000  Ne
  Ne259    1.0000 0.90559  0.93026  0.05974  Biso   1.000  Ne
  He259    1.0000 0.91783  0.93228  0.09001  Biso   1.000  He
  He260    1.0000 0.95306  0.92262  0.09292  Biso   1.000  He
  Ne260    1.0000 0.95946  0.89024  0.09562  Biso   1.000  Ne
  Ne261    1.0000 0.08767  0.42451  0.24941  Biso   1.000  Ne
  He261    1.0000 0.09185  0.39488  0.23579  Biso   1.000  He
  He262    1.0000 0.11053  0.39316  0.20921  Biso   1.000  He
  Ne262    1.0000 0.11964  0.36247  0.20059  Biso   1.000  Ne
  Ne263    1.0000 0.12104  0.87163  0.14749  Biso   1.000  Ne
  He263    1.0000 0.12751  0.84342  0.14890  Biso   1.000  He
  He264    1.0000 0.11390  0.82364  0.12610  Biso   1.000  He
  Ne264    1.0000 0.12736  0.79219  0.12713  Biso   1.000  Ne
  Ne265    1.0000 0.54944  0.91841  0.43890  Biso   1.000  Ne
  He265    1.0000 0.52062  0.91298  0.45501  Biso   1.000  He
  He266    1.0000 0.49740  0.93502  0.45698  Biso   1.000  He
  Ne266    1.0000 0.47031  0.92450  0.47452  Biso   1.000  Ne
  Ne267    1.0000 0.54081  0.01701  0.41224  Biso   1.000  Ne
  He267    1.0000 0.56176  0.02620  0.43398  Biso   1.000  He
  He268    1.0000 0.58044  0.00594  0.45012  Biso   1.000  He
  Ne268    1.0000 0.59637  0.01951  0.47822  Biso   1.000  Ne
  Ne269    1.0000 0.43282  0.72485  0.06861  Biso   1.000  Ne
  He269    1.0000 0.42781  0.69352  0.07711  Biso   1.000  He
  He270    1.0000 0.40272  0.68058  0.06143  Biso   1.000  He
  Ne270    1.0000 0.39412  0.64954  0.07342  Biso   1.000  Ne
  Ne271    1.0000 0.37583  0.37312  0.28558  Biso   1.000  Ne
  He271    1.0000 0.37235  0.36248  0.31572  Biso   1.000  He
  He272    1.0000 0.39095  0.33473  0.32292  Biso   1.000  He
  Ne272    1.0000 0.39034  0.32983  0.35487  Biso   1.000  Ne
  Ne273    1.0000 0.90154  0.92263  0.18136  Biso   1.000  Ne
  He273    1.0000 0.93078  0.90625  0.17094  Biso   1.000  He
  He274    1.0000 0.93217  0.87484  0.18183  Biso   1.000  He
  Ne274    1.0000 0.95912  0.85679  0.17664  Biso   1.000  Ne
  Ne275    1.0000 0.64641  0.25651  0.77063  Biso   1.000  Ne
  He275    1.0000 0.65238  0.26407  0.80140  Biso   1.000  He
  He276    1.0000 0.63920  0.29097  0.81115  Biso   1.000  He
  Ne276    1.0000 0.65076  0.29890  0.84154  Biso   1.000  Ne
  Ne277    1.0000 0.26568  0.89670  0.66777  Biso   1.000  Ne
  He277    1.0000 0.29114  0.88162  0.65109  Biso   1.000  He
  He278    1.0000 0.30767  0.90035  0.63078  Biso   1.000  He
  Ne278    1.0000 0.33711  0.89115  0.62088  Biso   1.000  Ne
  Ne279    1.0000 0.63313  0.82954  0.56406  Biso   1.000  Ne
  He279    1.0000 0.66759  0.82559  0.55962  Biso   1.000  He
  He280    1.0000 0.68663  0.85201  0.57132  Biso   1.000  He
  Ne280    1.0000 0.71999  0.84364  0.56927  Biso   1.000  Ne
  Ne281    1.0000 0.44360  0.56591  0.13564  Biso   1.000  Ne
  He281    1.0000 0.44075  0.59214  0.12141  Biso   1.000  He
  He282    1.0000 0.42774  0.61663  0.14266  Biso   1.000  He
  Ne282    1.0000 0.43384  0.64962  0.14046  Biso   1.000  Ne
  Ne283    1.0000 0.46633  0.41184  0.08231  Biso   1.000  Ne
  He283    1.0000 0.43448  0.40334  0.07624  Biso   1.000  He
  He284    1.0000 0.41091  0.42009  0.09187  Biso   1.000  He
  Ne284    1.0000 0.37997  0.41123  0.08394  Biso   1.000  Ne
  Ne285    1.0000 0.09157  0.38769  0.33141  Biso   1.000  Ne
  He285    1.0000 0.11911  0.39508  0.31187  Biso   1.000  He
  He286    1.0000 0.14208  0.37479  0.31770  Biso   1.000  He
  Ne286    1.0000 0.16630  0.37944  0.29674  Biso   1.000  Ne
  Ne287    1.0000 0.95319  0.23648  0.42631  Biso   1.000  Ne
  He287    1.0000 0.95615  0.26880  0.41685  Biso   1.000  He
  He288    1.0000 0.92796  0.28452  0.41640  Biso   1.000  He
  Ne288    1.0000 0.92938  0.31389  0.40132  Biso   1.000  Ne
  Ne289    1.0000 0.41909  0.92691  0.25832  Biso   1.000  Ne
  He289    1.0000 0.39114  0.92534  0.27511  Biso   1.000  He
  He290    1.0000 0.36415  0.94048  0.25856  Biso   1.000  He
  Ne290    1.0000 0.33549  0.93204  0.27142  Biso   1.000  Ne
  Ne291    1.0000 0.60964  0.06337  0.27808  Biso   1.000  Ne
  He291    1.0000 0.64124  0.07101  0.28814  Biso   1.000  He
  He292    1.0000 0.64267  0.06759  0.32047  Biso   1.000  He
  Ne292    1.0000 0.67194  0.07848  0.33431  Biso   1.000  Ne
  Ne293    1.0000 0.44085  0.68959  0.46661  Biso   1.000  Ne
  He293    1.0000 0.45724  0.67506  0.44155  Biso   1.000  He
  He294    1.0000 0.44104  0.65649  0.42159  Biso   1.000  He
  Ne294    1.0000 0.46281  0.64487  0.39612  Biso   1.000  Ne
  Ne295    1.0000 0.46561  0.91910  0.57180  Biso   1.000  Ne
  He295    1.0000 0.49798  0.92182  0.56069  Biso   1.000  He
  He296    1.0000 0.51598  0.93796  0.58375  Biso   1.000  He
  Ne296    1.0000 0.54865  0.94556  0.57304  Biso   1.000  Ne
  Ne297    1.0000 0.87370  0.66944  0.40200  Biso   1.000  Ne
  He297    1.0000 0.86942  0.63633  0.40761  Biso   1.000  He
  He298    1.0000 0.87728  0.61696  0.38151  Biso   1.000  He
  Ne298    1.0000 0.88141  0.58419  0.38836  Biso   1.000  Ne
  Ne299    1.0000 0.43558  0.78774  0.43056  Biso   1.000  Ne
  He299    1.0000 0.44745  0.78082  0.40045  Biso   1.000  He
  He300    1.0000 0.42676  0.76286  0.38207  Biso   1.000  He
  Ne300    1.0000 0.44096  0.75439  0.35285  Biso   1.000  Ne
  Ne301    1.0000 0.48793  0.87514  0.65510  Biso   1.000  Ne
  He301    1.0000 0.49144  0.87740  0.68858  Biso   1.000  He
  He302    1.0000 0.47526  0.90378  0.70372  Biso   1.000  He
  Ne302    1.0000 0.44477  0.89763  0.71912  Biso   1.000  Ne
  Ne303    1.0000 0.98133  0.58831  0.51142  Biso   1.000  Ne
  He303    1.0000 0.98516  0.57247  0.54196  Biso   1.000  He
  He304    1.0000 0.95499  0.55746  0.55150  Biso   1.000  He
  Ne304    1.0000 0.95548  0.54009  0.57815  Biso   1.000  Ne
  Ne305    1.0000 0.88019  0.77885  0.86867  Biso   1.000  Ne
  He305    1.0000 0.89439  0.79591  0.89146  Biso   1.000  He
  He306    1.0000 0.92501  0.80061  0.88328  Biso   1.000  He
  Ne306    1.0000 0.93768  0.81703  0.90838  Biso   1.000  Ne
  Ne307    1.0000 0.61862  0.75831  0.27632  Biso   1.000  Ne
  He307    1.0000 0.61888  0.78295  0.29703  Biso   1.000  He
  He308    1.0000 0.63959  0.78123  0.32327  Biso   1.000  He
  Ne308    1.0000 0.64072  0.80371  0.34455  Biso   1.000  Ne
  Ne309    1.0000 0.65649  0.20539  0.01521  Biso   1.000  Ne
  He309    1.0000 0.68321  0.18966  0.01596  Biso   1.000  He
  He310    1.0000 0.68485  0.16069  0.99702  Biso   1.000  He
  Ne310    1.0000 0.71468  0.14646  0.00027  Biso   1.000  Ne
  Ne311    1.0000 0.71275  0.22018  0.07507  Biso   1.000  Ne
  He311    1.0000 0.70032  0.24850  0.08991  Biso   1.000  He
  He312    1.0000 0.71078  0.27720  0.07200  Biso   1.000  He
  Ne312    1.0000 0.69906  0.30407  0.08489  Biso   1.000  Ne
  Ne313    1.0000 0.41756  0.71860  0.57351  Biso   1.000  Ne
  He313    1.0000 0.38623  0.73550  0.58021  Biso   1.000  He
  He314    1.0000 0.37741  0.72886  0.61050  Biso   1.000  He
  Ne314    1.0000 0.34764  0.74070  0.62008  Biso   1.000  Ne
  Ne315    1.0000 0.99212  0.42123  0.48022  Biso   1.000  Ne
  He315    1.0000 0.00390  0.42833  0.45124  Biso   1.000  He
  He316    1.0000 0.98069  0.44162  0.42787  Biso   1.000  He
  Ne316    1.0000 0.99471  0.45360  0.40032  Biso   1.000  Ne
  Ne317    1.0000 0.84456  0.57826  0.00485  Biso   1.000  Ne
  He317    1.0000 0.82222  0.58657  0.02970  Biso   1.000  He
  He318    1.0000 0.79487  0.56713  0.03229  Biso   1.000  He
  Ne318    1.0000 0.76860  0.57678  0.04853  Biso   1.000  Ne
  Ne319    1.0000 0.63131  0.86286  0.25401  Biso   1.000  Ne
  He319    1.0000 0.64646  0.89180  0.24780  Biso   1.000  He
  He320    1.0000 0.67748  0.89245  0.23527  Biso   1.000  He
  Ne320    1.0000 0.68743  0.92250  0.23198  Biso   1.000  Ne
  Ne321    1.0000 0.63025  0.18100  0.66710  Biso   1.000  Ne
  He321    1.0000 0.62600  0.19367  0.63518  Biso   1.000  He
  He322    1.0000 0.63368  0.17005  0.61049  Biso   1.000  He
  Ne322    1.0000 0.62921  0.17923  0.57837  Biso   1.000  Ne
  Ne323    1.0000 0.77434  0.86672  0.41168  Biso   1.000  Ne
  He323    1.0000 0.75717  0.83909  0.41109  Biso   1.000  He
  He324    1.0000 0.75621  0.82189  0.38269  Biso   1.000  He
  Ne324    1.0000 0.73910  0.79352  0.38500  Biso   1.000  Ne
  Ne325    1.0000 0.44946  0.05494  0.64556  Biso   1.000  Ne
  He325    1.0000 0.42314  0.06926  0.66312  Biso   1.000  He
  He326    1.0000 0.40863  0.05247  0.68816  Biso   1.000  He
  Ne326    1.0000 0.41388  0.06035  0.71969  Biso   1.000  Ne
  Ne327    1.0000 0.30668  0.56351  0.90349  Biso   1.000  Ne
  He327    1.0000 0.30120  0.55688  0.87285  Biso   1.000  He
  He328    1.0000 0.32213  0.57353  0.84937  Biso   1.000  He
  Ne328    1.0000 0.30742  0.59936  0.83153  Biso   1.000  Ne
  Ne329    1.0000 0.15745  0.27708  0.91776  Biso   1.000  Ne
  He329    1.0000 0.15106  0.24720  0.90257  Biso   1.000  He
  He330    1.0000 0.11779  0.24023  0.90481  Biso   1.000  He
  Ne330    1.0000 0.10915  0.21134  0.89022  Biso   1.000  Ne
  Ne331    1.0000 0.95169  0.07658  0.04850  Biso   1.000  Ne
  He331    1.0000 0.92080  0.09325  0.04991  Biso   1.000  He
  He332    1.0000 0.89392  0.07623  0.05498  Biso   1.000  He
  Ne332    1.0000 0.88811  0.07678  0.08787  Biso   1.000  Ne
  Ne333    1.0000 0.41567  0.29300  0.24710  Biso   1.000  Ne
  He333    1.0000 0.40804  0.30984  0.22084  Biso   1.000  He
  He334    1.0000 0.37868  0.29905  0.21198  Biso   1.000  He
  Ne334    1.0000 0.36538  0.31393  0.18435  Biso   1.000  Ne
  Ne335    1.0000 0.81071  0.73266  0.39384  Biso   1.000  Ne
  He335    1.0000 0.79600  0.70390  0.38369  Biso   1.000  He
  He336    1.0000 0.78277  0.68835  0.40900  Biso   1.000  He
  Ne336    1.0000 0.76443  0.65988  0.39814  Biso   1.000  Ne
  Ne337    1.0000 0.82757  0.55675  0.92633  Biso   1.000  Ne
  He337    1.0000 0.82822  0.57369  0.89885  Biso   1.000  He
  He338    1.0000 0.79833  0.58872  0.89083  Biso   1.000  He
  Ne338    1.0000 0.79950  0.60579  0.86272  Biso   1.000  Ne
  Ne339    1.0000 0.93589  0.56995  0.66988  Biso   1.000  Ne
  He339    1.0000 0.90311  0.57117  0.66529  Biso   1.000  He
  He340    1.0000 0.89803  0.56999  0.63376  Biso   1.000  He
  Ne340    1.0000 0.86581  0.57347  0.62453  Biso   1.000  Ne
  Ne341    1.0000 0.41905  0.05534  0.56876  Biso   1.000  Ne
  He341    1.0000 0.39700  0.07403  0.58564  Biso   1.000  He
  He342    1.0000 0.36577  0.05828  0.58976  Biso   1.000  He
  Ne342    1.0000 0.34412  0.07902  0.60902  Biso   1.000  Ne
  Ne343    1.0000 0.43680  0.39062  0.82396  Biso   1.000  Ne
  He343    1.0000 0.44857  0.41954  0.83932  Biso   1.000  He
  He344    1.0000 0.46309  0.41663  0.86891  Biso   1.000  He
  Ne344    1.0000 0.44463  0.42398  0.89655  Biso   1.000  Ne
  Ne345    1.0000 0.60593  0.36895  0.16922  Biso   1.000  Ne
  He345    1.0000 0.61274  0.38578  0.19789  Biso   1.000  He
  He346    1.0000 0.63573  0.40940  0.19184  Biso   1.000  He
  Ne346    1.0000 0.64688  0.42830  0.21840  Biso   1.000  Ne
  Ne347    1.0000 0.60805  0.41968  0.03419  Biso   1.000  Ne
  He347    1.0000 0.61903  0.42203  0.06398  Biso   1.000  He
  He348    1.0000 0.63090  0.39185  0.07353  Biso   1.000  He
  Ne348    1.0000 0.65462  0.39177  0.09765  Biso   1.000  Ne
  Ne349    1.0000 0.80881  0.96839  0.53287  Biso   1.000  Ne
  He349    1.0000 0.80595  0.93639  0.53201  Biso   1.000  He
  He350    1.0000 0.79579  0.92241  0.55886  Biso   1.000  He
  Ne350    1.0000 0.79026  0.88949  0.55357  Biso   1.000  Ne
  Ne351    1.0000 0.03406  0.83452  0.69695  Biso   1.000  Ne
  He351    1.0000 0.05320  0.82073  0.67406  Biso   1.000  He
  He352    1.0000 0.06988  0.79524  0.68858  Biso   1.000  He
  Ne352    1.0000 0.05476  0.76702  0.68524  Biso   1.000  Ne
  Ne353    1.0000 0.89468  0.30776  0.19007  Biso   1.000  Ne
  He353    1.0000 0.88562  0.33844  0.19110  Biso   1.000  He
  He354    1.0000 0.85503  0.34572  0.17626  Biso   1.000  He
  Ne354    1.0000 0.84270  0.37572  0.18302  Biso   1.000  Ne
  Ne355    1.0000 0.94970  0.80561  0.09978  Biso   1.000  Ne
  He355    1.0000 0.91570  0.80671  0.09372  Biso   1.000  He
  He356    1.0000 0.91209  0.82769  0.06637  Biso   1.000  He
  Ne356    1.0000 0.88262  0.83531  0.05902  Biso   1.000  Ne
  Ne357    1.0000 0.03413  0.97182  0.02544  Biso   1.000  Ne
  He357    1.0000 0.04188  0.00534  0.02861  Biso   1.000  He
  He358    1.0000 0.04938  0.01761  0.05977  Biso   1.000  He
  Ne358    1.0000 0.05835  0.04887  0.06055  Biso   1.000  Ne
  Ne359    1.0000 0.97746  0.43738  0.57852  Biso   1.000  Ne
  He359    1.0000 0.95856  0.41486  0.57059  Biso   1.000  He
  He360    1.0000 0.94584  0.39775  0.59662  Biso   1.000  He
  Ne360    1.0000 0.92345  0.37485  0.58876  Biso   1.000  Ne
