data_image0
_cell_length_a       47.2525
_cell_length_b       46.6192
_cell_length_c       46.6297
_cell_angle_alpha    90
_cell_angle_beta     90
_cell_angle_gamma    90

_symmetry_space_group_name_H-M    "P 1"
_symmetry_int_tables_number       1

loop_
  _symmetry_equiv_pos_as_xyz
  'x, y, z'

loop_
  _atom_site_label
  _atom_site_occupancy
  _atom_site_fract_x
  _atom_site_fract_y
  _atom_site_fract_z
  _atom_site_thermal_displace_type
  _atom_site_B_iso_or_equiv
  _atom_site_type_symbol
  Ne1      1.0000 0.33024  0.86004  0.42856  Biso   1.000  Ne
  He1      1.0000 0.34736  0.82956  0.43243  Biso   1.000  He
  He2      1.0000 0.33090  0.80303  0.42385  Biso   1.000  He
  Ne2      1.0000 0.35053  0.77395  0.42337  Biso   1.000  Ne
  Ne3      1.0000 0.42341  0.32249  0.14904  Biso   1.000  Ne
  He3      1.0000 0.39985  0.31133  0.13170  Biso   1.000  He
  He4      1.0000 0.40606  0.31300  0.09859  Biso   1.000  He
  Ne4      1.0000 0.38660  0.29180  0.08194  Biso   1.000  Ne
  Ne5      1.0000 0.82880  0.21656  0.58669  Biso   1.000  Ne
  He5      1.0000 0.81115  0.23960  0.60133  Biso   1.000  He
  He6      1.0000 0.82692  0.26353  0.61837  Biso   1.000  He
  Ne6      1.0000 0.80700  0.28863  0.62857  Biso   1.000  Ne
  Ne7      1.0000 0.72305  0.90266  0.95003  Biso   1.000  Ne
  He7      1.0000 0.69887  0.90948  0.97411  Biso   1.000  He
  He8      1.0000 0.70576  0.89792  0.00697  Biso   1.000  He
  Ne8      1.0000 0.69462  0.91805  0.03002  Biso   1.000  Ne
  Ne9      1.0000 0.91494  0.92326  0.29114  Biso   1.000  Ne
  He9      1.0000 0.91542  0.89721  0.27093  Biso   1.000  He
  He10     1.0000 0.90831  0.90060  0.23926  Biso   1.000  He
  Ne10     1.0000 0.91338  0.87229  0.22234  Biso   1.000  Ne
  Ne11     1.0000 0.66563  0.89382  0.32686  Biso   1.000  Ne
  He11     1.0000 0.67737  0.89306  0.35855  Biso   1.000  He
  He12     1.0000 0.70706  0.90546  0.36215  Biso   1.000  He
  Ne12     1.0000 0.71598  0.90812  0.39317  Biso   1.000  Ne
  Ne13     1.0000 0.03413  0.95350  0.98451  Biso   1.000  Ne
  He13     1.0000 0.05658  0.93555  0.96360  Biso   1.000  He
  He14     1.0000 0.07190  0.90906  0.97605  Biso   1.000  He
  Ne14     1.0000 0.08892  0.89294  0.95377  Biso   1.000  Ne
  Ne15     1.0000 0.96599  0.79329  0.60263  Biso   1.000  Ne
  He15     1.0000 0.95213  0.77121  0.58444  Biso   1.000  He
  He16     1.0000 0.93120  0.75134  0.59941  Biso   1.000  He
  Ne16     1.0000 0.92132  0.72742  0.57945  Biso   1.000  Ne
  Ne17     1.0000 0.81551  0.43591  0.21128  Biso   1.000  Ne
  He17     1.0000 0.83946  0.45220  0.19414  Biso   1.000  He
  He18     1.0000 0.86708  0.43431  0.19140  Biso   1.000  He
  Ne18     1.0000 0.89099  0.45182  0.17710  Biso   1.000  Ne
  Ne19     1.0000 0.77411  0.74242  0.90416  Biso   1.000  Ne
  He19     1.0000 0.79224  0.71794  0.91709  Biso   1.000  He
  He20     1.0000 0.77159  0.69139  0.92065  Biso   1.000  He
  Ne20     1.0000 0.78863  0.66327  0.93261  Biso   1.000  Ne
  Ne21     1.0000 0.63755  0.66148  0.10284  Biso   1.000  Ne
  He21     1.0000 0.61966  0.67924  0.08409  Biso   1.000  He
  He22     1.0000 0.60320  0.70361  0.10480  Biso   1.000  He
  Ne22     1.0000 0.58057  0.72472  0.08867  Biso   1.000  Ne
  Ne23     1.0000 0.73646  0.43368  0.73622  Biso   1.000  Ne
  He23     1.0000 0.70664  0.43178  0.73706  Biso   1.000  He
  He24     1.0000 0.68947  0.45923  0.72548  Biso   1.000  He
  Ne24     1.0000 0.65783  0.45382  0.73377  Biso   1.000  Ne
  Ne25     1.0000 0.53764  0.44759  0.91783  Biso   1.000  Ne
  He25     1.0000 0.55958  0.44583  0.94300  Biso   1.000  He
  He26     1.0000 0.55671  0.47549  0.96199  Biso   1.000  He
  Ne26     1.0000 0.58063  0.47960  0.98393  Biso   1.000  Ne
  Ne27     1.0000 0.94728  0.88075  0.92068  Biso   1.000  Ne
  He27     1.0000 0.94060  0.91237  0.92399  Biso   1.000  He
  He28     1.0000 0.94009  0.92527  0.95614  Biso   1.000  He
  Ne28     1.0000 0.92180  0.95502  0.96377  Biso   1.000  Ne
  Ne29     1.0000 0.58908  0.17985  0.40238  Biso   1.000  Ne
  He29     1.0000 0.58262  0.19781  0.37515  Biso   1.000  He
  He30     1.0000 0.60571  0.19680  0.35000  Biso   1.000  He
  Ne30     1.0000 0.60023  0.21880  0.32592  Biso   1.000  Ne
  Ne31     1.0000 0.73271  0.04203  0.11220  Biso   1.000  Ne
  He31     1.0000 0.75398  0.06499  0.11361  Biso   1.000  He
  He32     1.0000 0.78383  0.05346  0.10527  Biso   1.000  He
  Ne32     1.0000 0.80795  0.07610  0.10843  Biso   1.000  Ne
  Ne33     1.0000 0.43485  0.64543  0.17400  Biso   1.000  Ne
  He33     1.0000 0.42168  0.66807  0.15209  Biso   1.000  He
  He34     1.0000 0.44273  0.69153  0.14228  Biso   1.000  He
  Ne34     1.0000 0.42950  0.71880  0.12844  Biso   1.000  Ne
  Ne35     1.0000 0.68503  0.73816  0.08812  Biso   1.000  Ne
  He35     1.0000 0.71699  0.73027  0.09552  Biso   1.000  He
  He36     1.0000 0.74014  0.75377  0.09325  Biso   1.000  He
  Ne36     1.0000 0.77207  0.74610  0.09754  Biso   1.000  Ne
  Ne37     1.0000 0.91461  0.18977  0.26359  Biso   1.000  Ne
  He37     1.0000 0.93681  0.16527  0.26449  Biso   1.000  He
  He38     1.0000 0.93437  0.14536  0.29145  Biso   1.000  He
  Ne38     1.0000 0.95702  0.12034  0.29311  Biso   1.000  Ne
  Ne39     1.0000 0.51372  0.07946  0.47996  Biso   1.000  Ne
  He39     1.0000 0.48175  0.06934  0.47781  Biso   1.000  He
  He40     1.0000 0.47842  0.03841  0.47018  Biso   1.000  He
  Ne40     1.0000 0.44851  0.02848  0.47160  Biso   1.000  Ne
  Ne41     1.0000 0.73189  0.77198  0.62613  Biso   1.000  Ne
  He41     1.0000 0.70515  0.79370  0.62601  Biso   1.000  He
  He42     1.0000 0.68556  0.78904  0.59868  Biso   1.000  He
  Ne42     1.0000 0.65934  0.81207  0.59683  Biso   1.000  Ne
  Ne43     1.0000 0.47405  0.90070  0.55983  Biso   1.000  Ne
  He43     1.0000 0.48586  0.91519  0.58637  Biso   1.000  He
  He44     1.0000 0.50394  0.94249  0.57943  Biso   1.000  He
  Ne44     1.0000 0.51109  0.95769  0.60584  Biso   1.000  Ne
  Ne45     1.0000 0.40372  0.90493  0.43852  Biso   1.000  Ne
  He45     1.0000 0.40676  0.91335  0.40600  Biso   1.000  He
  He46     1.0000 0.43348  0.89809  0.39052  Biso   1.000  He
  Ne46     1.0000 0.43923  0.90946  0.35789  Biso   1.000  Ne
  Ne47     1.0000 0.70558  0.89100  0.67519  Biso   1.000  Ne
  He47     1.0000 0.68764  0.88710  0.64754  Biso   1.000  He
  He48     1.0000 0.69604  0.90636  0.62105  Biso   1.000  He
  Ne48     1.0000 0.67479  0.89850  0.59646  Biso   1.000  Ne
  Ne49     1.0000 0.68797  0.39798  0.90274  Biso   1.000  Ne
  He49     1.0000 0.66580  0.37940  0.91771  Biso   1.000  He
  He50     1.0000 0.67533  0.34869  0.91979  Biso   1.000  He
  Ne50     1.0000 0.65472  0.32900  0.93667  Biso   1.000  Ne
  Ne51     1.0000 0.98100  0.46670  0.50215  Biso   1.000  Ne
  He51     1.0000 0.98037  0.44201  0.48003  Biso   1.000  He
  He52     1.0000 0.01105  0.43335  0.46982  Biso   1.000  He
  Ne52     1.0000 0.01191  0.41001  0.44510  Biso   1.000  Ne
  Ne53     1.0000 0.27225  0.71632  0.93721  Biso   1.000  Ne
  He53     1.0000 0.27040  0.68515  0.92627  Biso   1.000  He
  He54     1.0000 0.29796  0.66941  0.93369  Biso   1.000  He
  Ne54     1.0000 0.29223  0.64408  0.95327  Biso   1.000  Ne
  Ne55     1.0000 0.56274  0.07706  0.65045  Biso   1.000  Ne
  He55     1.0000 0.57825  0.09097  0.67652  Biso   1.000  He
  He56     1.0000 0.58176  0.07116  0.70131  Biso   1.000  He
  Ne56     1.0000 0.59407  0.08668  0.72752  Biso   1.000  Ne
  Ne57     1.0000 0.37652  0.79730  0.59238  Biso   1.000  Ne
  He57     1.0000 0.38525  0.76864  0.60558  Biso   1.000  He
  He58     1.0000 0.41822  0.76613  0.61039  Biso   1.000  He
  Ne58     1.0000 0.42419  0.73608  0.61961  Biso   1.000  Ne
  Ne59     1.0000 0.62299  0.05907  0.39835  Biso   1.000  Ne
  He59     1.0000 0.62470  0.08276  0.42028  Biso   1.000  He
  He60     1.0000 0.59464  0.09518  0.42693  Biso   1.000  He
  Ne60     1.0000 0.59478  0.11869  0.44894  Biso   1.000  Ne
  Ne61     1.0000 0.92046  0.80099  0.90413  Biso   1.000  Ne
  He61     1.0000 0.92932  0.78747  0.87713  Biso   1.000  He
  He62     1.0000 0.91852  0.80122  0.84959  Biso   1.000  He
  Ne62     1.0000 0.92953  0.78421  0.82359  Biso   1.000  Ne
  Ne63     1.0000 0.58522  0.89529  0.65727  Biso   1.000  Ne
  He63     1.0000 0.58210  0.89621  0.62377  Biso   1.000  He
  He64     1.0000 0.58180  0.86721  0.60724  Biso   1.000  He
  Ne64     1.0000 0.57232  0.86737  0.57671  Biso   1.000  Ne
  Ne65     1.0000 0.43260  0.08328  0.31284  Biso   1.000  Ne
  He65     1.0000 0.41517  0.11248  0.30669  Biso   1.000  He
  He66     1.0000 0.41902  0.13481  0.33087  Biso   1.000  He
  Ne66     1.0000 0.41049  0.16489  0.32471  Biso   1.000  Ne
  Ne67     1.0000 0.18740  0.57164  0.35197  Biso   1.000  Ne
  He67     1.0000 0.20188  0.56030  0.32461  Biso   1.000  He
  He68     1.0000 0.23333  0.56759  0.32703  Biso   1.000  He
  Ne68     1.0000 0.25017  0.56088  0.29999  Biso   1.000  Ne
  Ne69     1.0000 0.37594  0.05404  0.43548  Biso   1.000  Ne
  He69     1.0000 0.35815  0.07715  0.42016  Biso   1.000  He
  He70     1.0000 0.32938  0.06586  0.41167  Biso   1.000  He
  Ne70     1.0000 0.31249  0.08543  0.39151  Biso   1.000  Ne
  Ne71     1.0000 0.80817  0.52362  0.86896  Biso   1.000  Ne
  He71     1.0000 0.78820  0.54546  0.84715  Biso   1.000  He
  He72     1.0000 0.76367  0.55809  0.86351  Biso   1.000  He
  Ne72     1.0000 0.74638  0.57509  0.84137  Biso   1.000  Ne
  Ne73     1.0000 0.92525  0.25259  0.64367  Biso   1.000  Ne
  He73     1.0000 0.92813  0.28533  0.64153  Biso   1.000  He
  He74     1.0000 0.90647  0.29708  0.61854  Biso   1.000  He
  Ne74     1.0000 0.90810  0.32994  0.61226  Biso   1.000  Ne
  Ne75     1.0000 0.62299  0.76451  0.35788  Biso   1.000  Ne
  He75     1.0000 0.60363  0.78417  0.37692  Biso   1.000  He
  He76     1.0000 0.61572  0.78735  0.40771  Biso   1.000  He
  Ne76     1.0000 0.59829  0.80660  0.42992  Biso   1.000  Ne
  Ne77     1.0000 0.40720  0.39821  0.07296  Biso   1.000  Ne
  He77     1.0000 0.41566  0.40309  0.10661  Biso   1.000  He
  He78     1.0000 0.39100  0.40362  0.12699  Biso   1.000  He
  Ne78     1.0000 0.39343  0.40610  0.15820  Biso   1.000  Ne
  Ne79     1.0000 0.08523  0.25690  0.27114  Biso   1.000  Ne
  He79     1.0000 0.10879  0.23934  0.26078  Biso   1.000  He
  He80     1.0000 0.12205  0.24696  0.23272  Biso   1.000  He
  Ne80     1.0000 0.14894  0.22710  0.22666  Biso   1.000  Ne
  Ne81     1.0000 0.16833  0.64804  0.02884  Biso   1.000  Ne
  He81     1.0000 0.19480  0.63064  0.03533  Biso   1.000  He
  He82     1.0000 0.19610  0.61999  0.06386  Biso   1.000  He
  Ne82     1.0000 0.22587  0.60406  0.07193  Biso   1.000  Ne
  Ne83     1.0000 0.73089  0.07584  0.45152  Biso   1.000  Ne
  He83     1.0000 0.72109  0.10272  0.43529  Biso   1.000  He
  He84     1.0000 0.70747  0.12400  0.45727  Biso   1.000  He
  Ne84     1.0000 0.69598  0.15033  0.43863  Biso   1.000  Ne
  Ne85     1.0000 0.87556  0.31655  0.44238  Biso   1.000  Ne
  He85     1.0000 0.86179  0.34566  0.44862  Biso   1.000  He
  He86     1.0000 0.85362  0.36296  0.42110  Biso   1.000  He
  Ne86     1.0000 0.84581  0.39447  0.42653  Biso   1.000  Ne
  Ne87     1.0000 0.92695  0.26270  0.14402  Biso   1.000  Ne
  He87     1.0000 0.91846  0.27394  0.17524  Biso   1.000  He
  He88     1.0000 0.92494  0.25373  0.20081  Biso   1.000  He
  Ne88     1.0000 0.91661  0.26634  0.22956  Biso   1.000  Ne
  Ne89     1.0000 0.17717  0.20162  0.56626  Biso   1.000  Ne
  He89     1.0000 0.19454  0.18313  0.58903  Biso   1.000  He
  He90     1.0000 0.22745  0.18760  0.58833  Biso   1.000  He
  Ne90     1.0000 0.24536  0.16771  0.60667  Biso   1.000  Ne
  Ne91     1.0000 0.40268  0.05597  0.65381  Biso   1.000  Ne
  He91     1.0000 0.37536  0.05915  0.63406  Biso   1.000  He
  He92     1.0000 0.38315  0.06759  0.60275  Biso   1.000  He
  Ne92     1.0000 0.35608  0.06188  0.58314  Biso   1.000  Ne
  Ne93     1.0000 0.92485  0.78253  0.07819  Biso   1.000  Ne
  He93     1.0000 0.89575  0.78618  0.09072  Biso   1.000  He
  He94     1.0000 0.87598  0.80559  0.07096  Biso   1.000  He
  Ne94     1.0000 0.84604  0.80181  0.08646  Biso   1.000  Ne
  Ne95     1.0000 0.30678  0.04815  0.82625  Biso   1.000  Ne
  He95     1.0000 0.34035  0.05431  0.83037  Biso   1.000  He
  He96     1.0000 0.35910  0.02814  0.82177  Biso   1.000  He
  Ne96     1.0000 0.37315  0.00987  0.84721  Biso   1.000  Ne
  Ne97     1.0000 0.91403  0.40278  0.45924  Biso   1.000  Ne
  He97     1.0000 0.93414  0.39649  0.43290  Biso   1.000  He
  He98     1.0000 0.92871  0.41762  0.40791  Biso   1.000  He
  Ne98     1.0000 0.94480  0.41142  0.38116  Biso   1.000  Ne
  Ne99     1.0000 0.35686  0.73359  0.74465  Biso   1.000  Ne
  He99     1.0000 0.38075  0.72166  0.76220  Biso   1.000  He
  He100    1.0000 0.38467  0.68818  0.75887  Biso   1.000  He
  Ne100    1.0000 0.41023  0.67713  0.77645  Biso   1.000  Ne
  Ne101    1.0000 0.60447  0.57575  0.73142  Biso   1.000  Ne
  He101    1.0000 0.59701  0.55450  0.70937  Biso   1.000  He
  He102    1.0000 0.61387  0.52522  0.71033  Biso   1.000  He
  Ne102    1.0000 0.60867  0.50761  0.68331  Biso   1.000  Ne
  Ne103    1.0000 0.91896  0.29883  0.31331  Biso   1.000  Ne
  He103    1.0000 0.92433  0.29332  0.34620  Biso   1.000  He
  He104    1.0000 0.92929  0.32104  0.36093  Biso   1.000  He
  Ne104    1.0000 0.93493  0.31802  0.39217  Biso   1.000  Ne
  Ne105    1.0000 0.18565  0.86774  0.75012  Biso   1.000  Ne
  He105    1.0000 0.21591  0.86725  0.74125  Biso   1.000  He
  He106    1.0000 0.22812  0.83576  0.73589  Biso   1.000  He
  Ne106    1.0000 0.25856  0.83342  0.72612  Biso   1.000  Ne
  Ne107    1.0000 0.66520  0.07123  0.68366  Biso   1.000  Ne
  He107    1.0000 0.67037  0.05669  0.65422  Biso   1.000  He
  He108    1.0000 0.64895  0.06777  0.63201  Biso   1.000  He
  Ne108    1.0000 0.65419  0.05607  0.60130  Biso   1.000  Ne
  Ne109    1.0000 0.56805  0.56047  0.09965  Biso   1.000  Ne
  He109    1.0000 0.55023  0.55766  0.06876  Biso   1.000  He
  He110    1.0000 0.51834  0.55806  0.07291  Biso   1.000  He
  Ne110    1.0000 0.49897  0.56463  0.04534  Biso   1.000  Ne
  Ne111    1.0000 0.07272  0.03344  0.07415  Biso   1.000  Ne
  He111    1.0000 0.05795  0.03610  0.04658  Biso   1.000  He
  He112    1.0000 0.07673  0.04149  0.02021  Biso   1.000  He
  Ne112    1.0000 0.05780  0.04508  0.99396  Biso   1.000  Ne
  Ne113    1.0000 0.71942  0.34881  0.22931  Biso   1.000  Ne
  He113    1.0000 0.71705  0.35951  0.19844  Biso   1.000  He
  He114    1.0000 0.71171  0.39303  0.19373  Biso   1.000  He
  Ne114    1.0000 0.71022  0.40129  0.16298  Biso   1.000  Ne
  Ne115    1.0000 0.86494  0.60249  0.66772  Biso   1.000  Ne
  He115    1.0000 0.85864  0.58179  0.69348  Biso   1.000  He
  He116    1.0000 0.83427  0.59074  0.71421  Biso   1.000  He
  Ne116    1.0000 0.83215  0.57102  0.73933  Biso   1.000  Ne
  Ne117    1.0000 0.07708  0.64825  0.40204  Biso   1.000  Ne
  He117    1.0000 0.07959  0.67912  0.39066  Biso   1.000  He
  He118    1.0000 0.07529  0.70052  0.41627  Biso   1.000  He
  Ne118    1.0000 0.07651  0.73199  0.40889  Biso   1.000  Ne
  Ne119    1.0000 0.92037  0.85638  0.13864  Biso   1.000  Ne
  He119    1.0000 0.92890  0.86104  0.10593  Biso   1.000  He
  He120    1.0000 0.91347  0.88392  0.09029  Biso   1.000  He
  Ne120    1.0000 0.92096  0.88718  0.05867  Biso   1.000  Ne
  Ne121    1.0000 0.50961  0.54921  0.96762  Biso   1.000  Ne
  He121    1.0000 0.48225  0.53114  0.95740  Biso   1.000  He
  He122    1.0000 0.48581  0.51702  0.92605  Biso   1.000  He
  Ne122    1.0000 0.46167  0.49413  0.92301  Biso   1.000  Ne
  Ne123    1.0000 0.80596  0.34493  0.31636  Biso   1.000  Ne
  He123    1.0000 0.82459  0.36897  0.33346  Biso   1.000  He
  He124    1.0000 0.85240  0.37957  0.31914  Biso   1.000  He
  Ne124    1.0000 0.86864  0.40252  0.33830  Biso   1.000  Ne
  Ne125    1.0000 0.37456  0.54990  0.25890  Biso   1.000  Ne
  He125    1.0000 0.40727  0.54814  0.25822  Biso   1.000  He
  He126    1.0000 0.42063  0.57526  0.25256  Biso   1.000  He
  Ne126    1.0000 0.45203  0.57501  0.24304  Biso   1.000  Ne
  Ne127    1.0000 0.57819  0.90934  0.48575  Biso   1.000  Ne
  He127    1.0000 0.60473  0.91025  0.46584  Biso   1.000  He
  He128    1.0000 0.59567  0.90664  0.43383  Biso   1.000  He
  Ne128    1.0000 0.61842  0.91326  0.41179  Biso   1.000  Ne
  Ne129    1.0000 0.58813  0.65481  0.83417  Biso   1.000  Ne
  He129    1.0000 0.60793  0.63387  0.84938  Biso   1.000  He
  He130    1.0000 0.60657  0.60328  0.83987  Biso   1.000  He
  Ne130    1.0000 0.62596  0.58402  0.85628  Biso   1.000  Ne
  Ne131    1.0000 0.33697  0.42619  0.34396  Biso   1.000  Ne
  He131    1.0000 0.33471  0.39861  0.32717  Biso   1.000  He
  He132    1.0000 0.32209  0.40663  0.29651  Biso   1.000  He
  Ne132    1.0000 0.32168  0.38143  0.27829  Biso   1.000  Ne
  Ne133    1.0000 0.78255  0.42293  0.06052  Biso   1.000  Ne
  He133    1.0000 0.77661  0.39102  0.06847  Biso   1.000  He
  He134    1.0000 0.78101  0.38537  0.10007  Biso   1.000  He
  Ne134    1.0000 0.77340  0.35612  0.10823  Biso   1.000  Ne
  Ne135    1.0000 0.46202  0.14396  0.01617  Biso   1.000  Ne
  He135    1.0000 0.47447  0.16698  0.99523  Biso   1.000  He
  He136    1.0000 0.46727  0.16469  0.96505  Biso   1.000  He
  Ne136    1.0000 0.48134  0.18504  0.94422  Biso   1.000  Ne
  Ne137    1.0000 0.06338  0.58851  0.46577  Biso   1.000  Ne
  He137    1.0000 0.06893  0.55607  0.47186  Biso   1.000  He
  He138    1.0000 0.10171  0.54834  0.47874  Biso   1.000  He
  Ne138    1.0000 0.10361  0.51312  0.48605  Biso   1.000  Ne
  Ne139    1.0000 0.07652  0.34343  0.44813  Biso   1.000  Ne
  He139    1.0000 0.07003  0.35894  0.41815  Biso   1.000  He
  He140    1.0000 0.09051  0.38435  0.41335  Biso   1.000  He
  Ne140    1.0000 0.08934  0.39768  0.37897  Biso   1.000  Ne
  Ne141    1.0000 0.94249  0.13622  0.16291  Biso   1.000  Ne
  He141    1.0000 0.94344  0.10589  0.17413  Biso   1.000  He
  He142    1.0000 0.91927  0.09909  0.19590  Biso   1.000  He
  Ne142    1.0000 0.91850  0.06746  0.20590  Biso   1.000  Ne
  Ne143    1.0000 0.86178  0.49641  0.11369  Biso   1.000  Ne
  He143    1.0000 0.83981  0.51555  0.09827  Biso   1.000  He
  He144    1.0000 0.82434  0.50307  0.07259  Biso   1.000  He
  Ne144    1.0000 0.79834  0.52126  0.06205  Biso   1.000  Ne
  Ne145    1.0000 0.10016  0.59428  0.28363  Biso   1.000  Ne
  He145    1.0000 0.10471  0.58034  0.31231  Biso   1.000  He
  He146    1.0000 0.08205  0.59239  0.33631  Biso   1.000  He
  Ne146    1.0000 0.08561  0.58061  0.36737  Biso   1.000  Ne
  Ne147    1.0000 0.88221  0.55150  0.36858  Biso   1.000  Ne
  He147    1.0000 0.86996  0.56618  0.34253  Biso   1.000  He
  He148    1.0000 0.89179  0.57842  0.32008  Biso   1.000  He
  Ne148    1.0000 0.87635  0.58795  0.29237  Biso   1.000  Ne
  Ne149    1.0000 0.52386  0.97149  0.44311  Biso   1.000  Ne
  He149    1.0000 0.55121  0.98056  0.46095  Biso   1.000  He
  He150    1.0000 0.55897  0.01127  0.46049  Biso   1.000  He
  Ne150    1.0000 0.58570  0.01985  0.48161  Biso   1.000  Ne
  Ne151    1.0000 0.82538  0.88524  0.09670  Biso   1.000  Ne
  He151    1.0000 0.83575  0.87387  0.12619  Biso   1.000  He
  He152    1.0000 0.84068  0.89967  0.14846  Biso   1.000  He
  Ne152    1.0000 0.85367  0.89141  0.17787  Biso   1.000  Ne
  Ne153    1.0000 0.26151  0.54076  0.20830  Biso   1.000  Ne
  He153    1.0000 0.28292  0.55530  0.22751  Biso   1.000  He
  He154    1.0000 0.28152  0.58988  0.22626  Biso   1.000  He
  Ne154    1.0000 0.30964  0.60622  0.23527  Biso   1.000  Ne
  Ne155    1.0000 0.13480  0.19088  0.84238  Biso   1.000  Ne
  He155    1.0000 0.11917  0.21136  0.82506  Biso   1.000  He
  He156    1.0000 0.09167  0.22217  0.83823  Biso   1.000  He
  Ne156    1.0000 0.07024  0.23664  0.81745  Biso   1.000  Ne
  Ne157    1.0000 0.43500  0.80194  0.13125  Biso   1.000  Ne
  He157    1.0000 0.45657  0.81259  0.10646  Biso   1.000  He
  He158    1.0000 0.46687  0.78853  0.08265  Biso   1.000  He
  Ne158    1.0000 0.48616  0.80013  0.05665  Biso   1.000  Ne
  Ne159    1.0000 0.67711  0.31855  0.09695  Biso   1.000  Ne
  He159    1.0000 0.68732  0.35017  0.09473  Biso   1.000  He
  He160    1.0000 0.66186  0.37071  0.09330  Biso   1.000  He
  Ne160    1.0000 0.66390  0.40206  0.10128  Biso   1.000  Ne
  Ne161    1.0000 0.56750  0.41167  0.14554  Biso   1.000  Ne
  He161    1.0000 0.59606  0.39850  0.15782  Biso   1.000  He
  He162    1.0000 0.59279  0.37047  0.17402  Biso   1.000  He
  Ne162    1.0000 0.61908  0.36278  0.18890  Biso   1.000  Ne
  Ne163    1.0000 0.90954  0.69846  0.95619  Biso   1.000  Ne
  He163    1.0000 0.89310  0.69117  0.98475  Biso   1.000  He
  He164    1.0000 0.86267  0.67583  0.98025  Biso   1.000  He
  Ne164    1.0000 0.84609  0.66456  0.00716  Biso   1.000  Ne
  Ne165    1.0000 0.27426  0.88794  0.87833  Biso   1.000  Ne
  He165    1.0000 0.25171  0.87584  0.90234  Biso   1.000  He
  He166    1.0000 0.22636  0.89626  0.90569  Biso   1.000  He
  Ne166    1.0000 0.20625  0.88443  0.92930  Biso   1.000  Ne
  Ne167    1.0000 0.09943  0.56331  0.68971  Biso   1.000  Ne
  He167    1.0000 0.12776  0.57485  0.70087  Biso   1.000  He
  He168    1.0000 0.15286  0.55997  0.68447  Biso   1.000  He
  Ne168    1.0000 0.18348  0.57382  0.69400  Biso   1.000  Ne
  Ne169    1.0000 0.05041  0.38588  0.55860  Biso   1.000  Ne
  He169    1.0000 0.06344  0.41425  0.56568  Biso   1.000  He
  He170    1.0000 0.08599  0.42573  0.54362  Biso   1.000  He
  Ne170    1.0000 0.09932  0.45616  0.55342  Biso   1.000  Ne
  Ne171    1.0000 0.13797  0.31852  0.63312  Biso   1.000  Ne
  He171    1.0000 0.11606  0.31123  0.61069  Biso   1.000  He
  He172    1.0000 0.09135  0.29305  0.62402  Biso   1.000  He
  Ne172    1.0000 0.06849  0.28139  0.60571  Biso   1.000  Ne
  Ne173    1.0000 0.75606  0.55975  0.61229  Biso   1.000  Ne
  He173    1.0000 0.75505  0.58877  0.59698  Biso   1.000  He
  He174    1.0000 0.72433  0.59804  0.58839  Biso   1.000  He
  Ne174    1.0000 0.71949  0.62898  0.57448  Biso   1.000  Ne
  Ne175    1.0000 0.20104  0.06631  0.11423  Biso   1.000  Ne
  He175    1.0000 0.20442  0.09321  0.09954  Biso   1.000  He
  He176    1.0000 0.17695  0.11169  0.09806  Biso   1.000  He
  Ne176    1.0000 0.17989  0.13877  0.07781  Biso   1.000  Ne
  Ne177    1.0000 0.21639  0.58156  0.60348  Biso   1.000  Ne
  He177    1.0000 0.18444  0.58220  0.60697  Biso   1.000  He
  He178    1.0000 0.17076  0.61190  0.60083  Biso   1.000  He
  Ne178    1.0000 0.13992  0.61901  0.61041  Biso   1.000  Ne
  Ne179    1.0000 0.04417  0.89955  0.06360  Biso   1.000  Ne
  He179    1.0000 0.06474  0.91087  0.09004  Biso   1.000  He
  He180    1.0000 0.09223  0.89163  0.09652  Biso   1.000  He
  Ne180    1.0000 0.10425  0.90278  0.12265  Biso   1.000  Ne
  Ne181    1.0000 0.75441  0.65384  0.10456  Biso   1.000  Ne
  He181    1.0000 0.76739  0.63712  0.13091  Biso   1.000  He
  He182    1.0000 0.79516  0.62007  0.12198  Biso   1.000  He
  Ne182    1.0000 0.81040  0.60511  0.14988  Biso   1.000  Ne
  Ne183    1.0000 0.96637  0.93901  0.11377  Biso   1.000  Ne
  He183    1.0000 0.95807  0.96340  0.09802  Biso   1.000  He
  He184    1.0000 0.98594  0.97727  0.08336  Biso   1.000  He
  Ne184    1.0000 0.97669  0.00416  0.06699  Biso   1.000  Ne
  Ne185    1.0000 0.41388  0.17028  0.42797  Biso   1.000  Ne
  He185    1.0000 0.43488  0.15162  0.41161  Biso   1.000  He
  He186    1.0000 0.43129  0.12191  0.42249  Biso   1.000  He
  Ne186    1.0000 0.44974  0.10026  0.40429  Biso   1.000  Ne
  Ne187    1.0000 0.57762  0.27009  0.13575  Biso   1.000  Ne
  He187    1.0000 0.58172  0.30237  0.13185  Biso   1.000  He
  He188    1.0000 0.58549  0.30900  0.09994  Biso   1.000  He
  Ne188    1.0000 0.59062  0.34013  0.09431  Biso   1.000  Ne
  Ne189    1.0000 0.80768  0.65223  0.66071  Biso   1.000  Ne
  He189    1.0000 0.80748  0.67529  0.63800  Biso   1.000  He
  He190    1.0000 0.78792  0.66845  0.61089  Biso   1.000  He
  Ne190    1.0000 0.79010  0.68753  0.58423  Biso   1.000  Ne
  Ne191    1.0000 0.84439  0.83212  0.92840  Biso   1.000  Ne
  He191    1.0000 0.85440  0.86276  0.92935  Biso   1.000  He
  He192    1.0000 0.84429  0.88173  0.90227  Biso   1.000  He
  Ne192    1.0000 0.81598  0.89849  0.90813  Biso   1.000  Ne
  Ne193    1.0000 0.49162  0.39660  0.96922  Biso   1.000  Ne
  He193    1.0000 0.45993  0.40336  0.96270  Biso   1.000  He
  He194    1.0000 0.44960  0.43102  0.97928  Biso   1.000  He
  Ne194    1.0000 0.42107  0.44042  0.96860  Biso   1.000  Ne
  Ne195    1.0000 0.81659  0.41020  0.66177  Biso   1.000  Ne
  He195    1.0000 0.82602  0.38587  0.64166  Biso   1.000  He
  He196    1.0000 0.84960  0.39392  0.61807  Biso   1.000  He
  Ne196    1.0000 0.85052  0.37475  0.59291  Biso   1.000  Ne
  Ne197    1.0000 0.92103  0.67859  0.35324  Biso   1.000  Ne
  He197    1.0000 0.92515  0.67131  0.38489  Biso   1.000  He
  He198    1.0000 0.92385  0.63878  0.39027  Biso   1.000  He
  Ne198    1.0000 0.92146  0.62790  0.42250  Biso   1.000  Ne
  Ne199    1.0000 0.52785  0.68785  0.41228  Biso   1.000  Ne
  He199    1.0000 0.55580  0.68210  0.42862  Biso   1.000  He
  He200    1.0000 0.57773  0.70526  0.42470  Biso   1.000  He
  Ne200    1.0000 0.60554  0.69388  0.44177  Biso   1.000  Ne
  Ne201    1.0000 0.80911  0.66377  0.41372  Biso   1.000  Ne
  He201    1.0000 0.80953  0.66928  0.37987  Biso   1.000  He
  He202    1.0000 0.83810  0.68785  0.36979  Biso   1.000  He
  Ne202    1.0000 0.83607  0.70273  0.34150  Biso   1.000  Ne
  Ne203    1.0000 0.42208  0.48690  0.04484  Biso   1.000  Ne
  He203    1.0000 0.41846  0.50954  0.06975  Biso   1.000  He
  He204    1.0000 0.44471  0.51069  0.08561  Biso   1.000  He
  Ne204    1.0000 0.44599  0.53080  0.11096  Biso   1.000  Ne
  Ne205    1.0000 0.14926  0.77702  0.75461  Biso   1.000  Ne
  He205    1.0000 0.11719  0.78029  0.75530  Biso   1.000  He
  He206    1.0000 0.10513  0.80022  0.73019  Biso   1.000  He
  Ne206    1.0000 0.07201  0.80691  0.73703  Biso   1.000  Ne
  Ne207    1.0000 0.45272  0.05840  0.57296  Biso   1.000  Ne
  He207    1.0000 0.44201  0.03291  0.55647  Biso   1.000  He
  He208    1.0000 0.44517  0.00525  0.57276  Biso   1.000  He
  Ne208    1.0000 0.43319  0.98180  0.55232  Biso   1.000  Ne
  Ne209    1.0000 0.18523  0.37686  0.68236  Biso   1.000  Ne
  He209    1.0000 0.16668  0.39568  0.66564  Biso   1.000  He
  He210    1.0000 0.16973  0.38937  0.63465  Biso   1.000  He
  Ne210    1.0000 0.15154  0.40640  0.61224  Biso   1.000  Ne
  Ne211    1.0000 0.16995  0.63724  0.42858  Biso   1.000  Ne
  He211    1.0000 0.16113  0.60859  0.43750  Biso   1.000  He
  He212    1.0000 0.18444  0.58551  0.43650  Biso   1.000  He
  Ne212    1.0000 0.17568  0.55202  0.43918  Biso   1.000  Ne
  Ne213    1.0000 0.11009  0.91688  0.77113  Biso   1.000  Ne
  He213    1.0000 0.11035  0.90384  0.80267  Biso   1.000  He
  He214    1.0000 0.13965  0.91124  0.81790  Biso   1.000  He
  Ne214    1.0000 0.13951  0.90351  0.85014  Biso   1.000  Ne
  Ne215    1.0000 0.65376  0.04275  0.82133  Biso   1.000  Ne
  He215    1.0000 0.64253  0.01427  0.83556  Biso   1.000  He
  He216    1.0000 0.66443  0.99114  0.84059  Biso   1.000  He
  Ne216    1.0000 0.65507  0.96562  0.85688  Biso   1.000  Ne
  Ne217    1.0000 0.65134  0.66885  0.92451  Biso   1.000  Ne
  He217    1.0000 0.68104  0.65370  0.92139  Biso   1.000  He
  He218    1.0000 0.68243  0.62508  0.93785  Biso   1.000  He
  Ne218    1.0000 0.71030  0.61122  0.93564  Biso   1.000  Ne
  Ne219    1.0000 0.09476  0.32243  0.31352  Biso   1.000  Ne
  He219    1.0000 0.11423  0.31030  0.33773  Biso   1.000  He
  He220    1.0000 0.09907  0.31014  0.36674  Biso   1.000  He
  Ne220    1.0000 0.11603  0.29405  0.39122  Biso   1.000  Ne
  Ne221    1.0000 0.87422  0.04770  0.12572  Biso   1.000  Ne
  He221    1.0000 0.89757  0.04796  0.10087  Biso   1.000  He
  He222    1.0000 0.91791  0.07590  0.09957  Biso   1.000  He
  Ne222    1.0000 0.93940  0.07373  0.07183  Biso   1.000  Ne
  Ne223    1.0000 0.71400  0.30458  0.63425  Biso   1.000  Ne
  He223    1.0000 0.68722  0.28979  0.62001  Biso   1.000  He
  He224    1.0000 0.69115  0.25821  0.60993  Biso   1.000  He
  Ne224    1.0000 0.67052  0.24434  0.58895  Biso   1.000  Ne
  Ne225    1.0000 0.61943  0.22537  0.46069  Biso   1.000  Ne
  He225    1.0000 0.59936  0.24825  0.47496  Biso   1.000  He
  He226    1.0000 0.57497  0.26127  0.45338  Biso   1.000  He
  Ne226    1.0000 0.55020  0.27919  0.46597  Biso   1.000  Ne
  Ne227    1.0000 0.44335  0.24351  0.69699  Biso   1.000  Ne
  He227    1.0000 0.42250  0.22269  0.71515  Biso   1.000  He
  He228    1.0000 0.39081  0.23013  0.71335  Biso   1.000  He
  Ne228    1.0000 0.37134  0.21246  0.73134  Biso   1.000  Ne
  Ne229    1.0000 0.81111  0.54937  0.40764  Biso   1.000  Ne
  He229    1.0000 0.80118  0.56988  0.38566  Biso   1.000  He
  He230    1.0000 0.79614  0.55645  0.35765  Biso   1.000  He
  Ne230    1.0000 0.78054  0.57632  0.33645  Biso   1.000  Ne
  Ne231    1.0000 0.10469  0.88509  0.22148  Biso   1.000  Ne
  He231    1.0000 0.09865  0.86218  0.19782  Biso   1.000  He
  He232    1.0000 0.10749  0.83329  0.20462  Biso   1.000  He
  Ne232    1.0000 0.10469  0.81232  0.17910  Biso   1.000  Ne
  Ne233    1.0000 0.31563  0.16356  0.36754  Biso   1.000  Ne
  He233    1.0000 0.33538  0.17818  0.38979  Biso   1.000  He
  He234    1.0000 0.31723  0.19311  0.41322  Biso   1.000  He
  Ne234    1.0000 0.33496  0.20405  0.43949  Biso   1.000  Ne
  Ne235    1.0000 0.59138  0.55137  0.93581  Biso   1.000  Ne
  He235    1.0000 0.59245  0.58167  0.92584  Biso   1.000  He
  He236    1.0000 0.56805  0.60006  0.94126  Biso   1.000  He
  Ne236    1.0000 0.56667  0.63078  0.92817  Biso   1.000  Ne
  Ne237    1.0000 0.31116  0.90641  0.60993  Biso   1.000  Ne
  He237    1.0000 0.33891  0.88748  0.60854  Biso   1.000  He
  He238    1.0000 0.36522  0.90616  0.59623  Biso   1.000  He
  Ne238    1.0000 0.39202  0.88604  0.58834  Biso   1.000  Ne
  Ne239    1.0000 0.58845  0.15521  0.19659  Biso   1.000  Ne
  He239    1.0000 0.58077  0.12206  0.19980  Biso   1.000  He
  He240    1.0000 0.57232  0.10812  0.17202  Biso   1.000  He
  Ne240    1.0000 0.56989  0.07319  0.17321  Biso   1.000  Ne
  Ne241    1.0000 0.42936  0.88725  0.66517  Biso   1.000  Ne
  He241    1.0000 0.41357  0.85918  0.66207  Biso   1.000  He
  He242    1.0000 0.41291  0.83947  0.69003  Biso   1.000  He
  Ne242    1.0000 0.39456  0.81111  0.68836  Biso   1.000  Ne
  Ne243    1.0000 0.47791  0.82283  0.85499  Biso   1.000  Ne
  He243    1.0000 0.46661  0.82366  0.82441  Biso   1.000  He
  He244    1.0000 0.43295  0.81937  0.82235  Biso   1.000  He
  Ne244    1.0000 0.41957  0.82617  0.79420  Biso   1.000  Ne
  Ne245    1.0000 0.91446  0.13093  0.93886  Biso   1.000  Ne
  He245    1.0000 0.90404  0.09909  0.93724  Biso   1.000  He
  He246    1.0000 0.92866  0.07822  0.93818  Biso   1.000  He
  Ne246    1.0000 0.92248  0.04699  0.94466  Biso   1.000  Ne
  Ne247    1.0000 0.11019  0.33827  0.23085  Biso   1.000  Ne
  He247    1.0000 0.08925  0.36490  0.22190  Biso   1.000  He
  He248    1.0000 0.09952  0.39215  0.23560  Biso   1.000  He
  Ne248    1.0000 0.07810  0.41945  0.23319  Biso   1.000  Ne
  Ne249    1.0000 0.43123  0.33226  0.92150  Biso   1.000  Ne
  He249    1.0000 0.42713  0.33401  0.89040  Biso   1.000  He
  He250    1.0000 0.43639  0.36109  0.87927  Biso   1.000  He
  Ne250    1.0000 0.43083  0.37020  0.84591  Biso   1.000  Ne
  Ne251    1.0000 0.43259  0.13967  0.61111  Biso   1.000  Ne
  He251    1.0000 0.40760  0.15968  0.62054  Biso   1.000  He
  He252    1.0000 0.39850  0.17696  0.59369  Biso   1.000  He
  Ne252    1.0000 0.37103  0.19598  0.60223  Biso   1.000  Ne
  Ne253    1.0000 0.41001  0.54544  0.87131  Biso   1.000  Ne
  He253    1.0000 0.40093  0.57959  0.86772  Biso   1.000  He
  He254    1.0000 0.40409  0.59303  0.83858  Biso   1.000  He
  Ne254    1.0000 0.40038  0.62666  0.83940  Biso   1.000  Ne
  Ne255    1.0000 0.14104  0.06349  0.93367  Biso   1.000  Ne
  He255    1.0000 0.12950  0.09319  0.93334  Biso   1.000  He
  He256    1.0000 0.15354  0.11416  0.92661  Biso   1.000  He
  Ne256    1.0000 0.14183  0.14464  0.92368  Biso   1.000  Ne
  Ne257    1.0000 0.21857  0.99246  0.53988  Biso   1.000  Ne
  He257    1.0000 0.21279  0.96058  0.54147  Biso   1.000  He
  He258    1.0000 0.18483  0.95141  0.52415  Biso   1.000  He
  Ne258    1.0000 0.17802  0.92000  0.53050  Biso   1.000  Ne
  Ne259    1.0000 0.44562  0.92262  0.26261  Biso   1.000  Ne
  He259    1.0000 0.42352  0.92395  0.28663  Biso   1.000  He
  He260    1.0000 0.39128  0.91617  0.27615  Biso   1.000  He
  Ne260    1.0000 0.36839  0.91166  0.29897  Biso   1.000  Ne
  Ne261    1.0000 0.38855  0.58864  0.15150  Biso   1.000  Ne
  He261    1.0000 0.35750  0.58002  0.15806  Biso   1.000  He
  He262    1.0000 0.34537  0.55979  0.13875  Biso   1.000  He
  Ne262    1.0000 0.31303  0.54949  0.14900  Biso   1.000  Ne
  Ne263    1.0000 0.62355  0.43044  0.83640  Biso   1.000  Ne
  He263    1.0000 0.59373  0.41296  0.83643  Biso   1.000  He
  He264    1.0000 0.59570  0.38742  0.85835  Biso   1.000  He
  Ne264    1.0000 0.60416  0.35753  0.84625  Biso   1.000  Ne
  Ne265    1.0000 0.85537  0.88873  0.79196  Biso   1.000  Ne
  He265    1.0000 0.87731  0.88755  0.81605  Biso   1.000  He
  He266    1.0000 0.90769  0.88460  0.80563  Biso   1.000  He
  Ne266    1.0000 0.92906  0.87965  0.82871  Biso   1.000  Ne
  Ne267    1.0000 0.84071  0.59292  0.58224  Biso   1.000  Ne
  He267    1.0000 0.85210  0.62204  0.59169  Biso   1.000  He
  He268    1.0000 0.88397  0.62859  0.58567  Biso   1.000  He
  Ne268    1.0000 0.89358  0.65611  0.60232  Biso   1.000  Ne
  Ne269    1.0000 0.99000  0.54572  0.44075  Biso   1.000  Ne
  He269    1.0000 0.95814  0.53874  0.45256  Biso   1.000  He
  He270    1.0000 0.94461  0.51189  0.43973  Biso   1.000  He
  Ne270    1.0000 0.91130  0.51277  0.44733  Biso   1.000  Ne
  Ne271    1.0000 0.59141  0.28644  0.90925  Biso   1.000  Ne
  He271    1.0000 0.57940  0.25907  0.91995  Biso   1.000  He
  He272    1.0000 0.59783  0.24380  0.94326  Biso   1.000  He
  Ne272    1.0000 0.58993  0.21356  0.95349  Biso   1.000  Ne
  Ne273    1.0000 0.39906  0.64257  0.94454  Biso   1.000  Ne
  He273    1.0000 0.38372  0.67039  0.93342  Biso   1.000  He
  He274    1.0000 0.40137  0.69755  0.92727  Biso   1.000  He
  Ne274    1.0000 0.38278  0.72368  0.92114  Biso   1.000  Ne
  Ne275    1.0000 0.68632  0.23758  0.09397  Biso   1.000  Ne
  He275    1.0000 0.69377  0.20865  0.07814  Biso   1.000  He
  He276    1.0000 0.72061  0.19208  0.08906  Biso   1.000  He
  Ne276    1.0000 0.72722  0.16557  0.07030  Biso   1.000  Ne
  Ne277    1.0000 0.59157  0.17342  0.62459  Biso   1.000  Ne
  He277    1.0000 0.61599  0.18552  0.64513  Biso   1.000  He
  He278    1.0000 0.62189  0.16742  0.67263  Biso   1.000  He
  Ne278    1.0000 0.64628  0.17959  0.68983  Biso   1.000  Ne
  Ne279    1.0000 0.11300  0.05073  0.23597  Biso   1.000  Ne
  He279    1.0000 0.09390  0.05760  0.20820  Biso   1.000  He
  He280    1.0000 0.10968  0.05044  0.17858  Biso   1.000  He
  Ne280    1.0000 0.09340  0.04704  0.14939  Biso   1.000  Ne
  Ne281    1.0000 0.31940  0.36649  0.10020  Biso   1.000  Ne
  He281    1.0000 0.31792  0.33169  0.09634  Biso   1.000  He
  He282    1.0000 0.29007  0.31595  0.10646  Biso   1.000  He
  Ne282    1.0000 0.29390  0.28228  0.09926  Biso   1.000  Ne
  Ne283    1.0000 0.74404  0.27789  0.45587  Biso   1.000  Ne
  He283    1.0000 0.77259  0.28872  0.44032  Biso   1.000  He
  He284    1.0000 0.76804  0.30980  0.41480  Biso   1.000  He
  Ne284    1.0000 0.79588  0.32090  0.40180  Biso   1.000  Ne
  Ne285    1.0000 0.52085  0.01767  0.53701  Biso   1.000  Ne
  He285    1.0000 0.53744  0.04658  0.54640  Biso   1.000  He
  He286    1.0000 0.56973  0.04296  0.55503  Biso   1.000  He
  Ne286    1.0000 0.58456  0.07094  0.56373  Biso   1.000  Ne
  Ne287    1.0000 0.92658  0.55399  0.53952  Biso   1.000  Ne
  He287    1.0000 0.95857  0.54944  0.54793  Biso   1.000  He
  He288    1.0000 0.98002  0.55874  0.52464  Biso   1.000  He
  Ne288    1.0000 0.01014  0.55448  0.53846  Biso   1.000  Ne
  Ne289    1.0000 0.64131  0.57331  0.08009  Biso   1.000  Ne
  He289    1.0000 0.67062  0.58186  0.07750  Biso   1.000  He
  He290    1.0000 0.69029  0.56212  0.09562  Biso   1.000  He
  Ne290    1.0000 0.72090  0.57073  0.09207  Biso   1.000  Ne
  Ne291    1.0000 0.35011  0.58608  0.92703  Biso   1.000  Ne
  He291    1.0000 0.35961  0.55981  0.94426  Biso   1.000  He
  He292    1.0000 0.39225  0.55987  0.95332  Biso   1.000  He
  Ne292    1.0000 0.40303  0.53338  0.96864  Biso   1.000  Ne
  Ne293    1.0000 0.80586  0.05147  0.88386  Biso   1.000  Ne
  He293    1.0000 0.81681  0.07558  0.90022  Biso   1.000  He
  He294    1.0000 0.81220  0.07029  0.93230  Biso   1.000  He
  Ne294    1.0000 0.82167  0.09425  0.95085  Biso   1.000  Ne
  Ne295    1.0000 0.59216  0.44926  0.07155  Biso   1.000  Ne
  He295    1.0000 0.56229  0.44501  0.06176  Biso   1.000  He
  He296    1.0000 0.55799  0.41544  0.04843  Biso   1.000  He
  Ne296    1.0000 0.52629  0.41284  0.04030  Biso   1.000  Ne
  Ne297    1.0000 0.23643  0.32060  0.46318  Biso   1.000  Ne
  He297    1.0000 0.21371  0.33585  0.44976  Biso   1.000  He
  He298    1.0000 0.20943  0.36523  0.46221  Biso   1.000  He
  Ne298    1.0000 0.18901  0.38390  0.44544  Biso   1.000  Ne
  Ne299    1.0000 0.91608  0.14056  0.85517  Biso   1.000  Ne
  He299    1.0000 0.91426  0.11402  0.83524  Biso   1.000  He
  He300    1.0000 0.90128  0.08589  0.84722  Biso   1.000  He
  Ne300    1.0000 0.91011  0.05786  0.83294  Biso   1.000  Ne
  Ne301    1.0000 0.87770  0.42467  0.73345  Biso   1.000  Ne
  He301    1.0000 0.88461  0.41838  0.70128  Biso   1.000  He
  He302    1.0000 0.91569  0.42428  0.69553  Biso   1.000  He
  Ne302    1.0000 0.92489  0.41818  0.66466  Biso   1.000  Ne
  Ne303    1.0000 0.21943  0.89895  0.15052  Biso   1.000  Ne
  He303    1.0000 0.19824  0.87787  0.13954  Biso   1.000  He
  He304    1.0000 0.21102  0.85118  0.12214  Biso   1.000  He
  Ne304    1.0000 0.18566  0.83439  0.10308  Biso   1.000  Ne
  Ne305    1.0000 0.07528  0.38704  0.64136  Biso   1.000  Ne
  He305    1.0000 0.08694  0.39364  0.66908  Biso   1.000  He
  He306    1.0000 0.07946  0.36806  0.69108  Biso   1.000  He
  Ne306    1.0000 0.08512  0.38088  0.72126  Biso   1.000  Ne
  Ne307    1.0000 0.33254  0.37219  0.92979  Biso   1.000  Ne
  He307    1.0000 0.32765  0.37491  0.89524  Biso   1.000  He
  He308    1.0000 0.34864  0.39676  0.87991  Biso   1.000  He
  Ne308    1.0000 0.34131  0.39743  0.84731  Biso   1.000  Ne
  Ne309    1.0000 0.45909  0.19622  0.10322  Biso   1.000  Ne
  He309    1.0000 0.48333  0.19260  0.12547  Biso   1.000  He
  He310    1.0000 0.51264  0.18021  0.11210  Biso   1.000  He
  Ne310    1.0000 0.53699  0.17456  0.13738  Biso   1.000  Ne
  Ne311    1.0000 0.76965  0.34001  0.93700  Biso   1.000  Ne
  He311    1.0000 0.78477  0.37033  0.93568  Biso   1.000  He
  He312    1.0000 0.76394  0.39646  0.94700  Biso   1.000  He
  Ne312    1.0000 0.77725  0.42721  0.94397  Biso   1.000  Ne
  Ne313    1.0000 0.45281  0.40842  0.76075  Biso   1.000  Ne
  He313    1.0000 0.44676  0.38634  0.73871  Biso   1.000  He
  He314    1.0000 0.46896  0.39004  0.71544  Biso   1.000  He
  Ne314    1.0000 0.46941  0.36601  0.69411  Biso   1.000  Ne
  Ne315    1.0000 0.89755  0.44338  0.56804  Biso   1.000  Ne
  He315    1.0000 0.93102  0.44166  0.57188  Biso   1.000  He
  He316    1.0000 0.93918  0.40954  0.57802  Biso   1.000  He
  Ne316    1.0000 0.97065  0.40709  0.58454  Biso   1.000  Ne
  Ne317    1.0000 0.75671  0.83239  0.43301  Biso   1.000  Ne
  He317    1.0000 0.73368  0.82018  0.41337  Biso   1.000  He
  He318    1.0000 0.73179  0.78861  0.41385  Biso   1.000  He
  Ne318    1.0000 0.70550  0.77553  0.39939  Biso   1.000  Ne
  Ne319    1.0000 0.09322  0.12969  0.14039  Biso   1.000  Ne
  He319    1.0000 0.10084  0.15204  0.11951  Biso   1.000  He
  He320    1.0000 0.12236  0.17318  0.12993  Biso   1.000  He
  Ne320    1.0000 0.12544  0.19823  0.10897  Biso   1.000  Ne
