data_image0
_cell_length_a       46.8944
_cell_length_b       46.6405
_cell_length_c       46.546
_cell_angle_alpha    90
_cell_angle_beta     90
_cell_angle_gamma    90

_symmetry_space_group_name_H-M    "P 1"
_symmetry_int_tables_number       1

loop_
  _symmetry_equiv_pos_as_xyz
  'x, y, z'

loop_
  _atom_site_label
  _atom_site_occupancy
  _atom_site_fract_x
  _atom_site_fract_y
  _atom_site_fract_z
  _atom_site_thermal_displace_type
  _atom_site_B_iso_or_equiv
  _atom_site_type_symbol
  Ne1      1.0000 0.40872  0.77089  0.73441  Biso   1.000  Ne
  He1      1.0000 0.42034  0.74529  0.75135  Biso   1.000  He
  He2      1.0000 0.39846  0.72298  0.76067  Biso   1.000  He
  Ne2      1.0000 0.41242  0.70153  0.77704  Biso   1.000  Ne
  Ne3      1.0000 0.33360  0.71223  0.44063  Biso   1.000  Ne
  He3      1.0000 0.33572  0.68564  0.41680  Biso   1.000  He
  He4      1.0000 0.36677  0.67595  0.41124  Biso   1.000  He
  Ne4      1.0000 0.36553  0.64733  0.39091  Biso   1.000  Ne
  Ne5      1.0000 0.31434  0.94462  0.86527  Biso   1.000  Ne
  He5      1.0000 0.31656  0.95323  0.83308  Biso   1.000  He
  He6      1.0000 0.34361  0.93784  0.81684  Biso   1.000  He
  Ne6      1.0000 0.34447  0.94035  0.78333  Biso   1.000  Ne
  Ne7      1.0000 0.00653  0.99884  0.95228  Biso   1.000  Ne
  He7      1.0000 0.01908  0.97620  0.96947  Biso   1.000  He
  He8      1.0000 0.01073  0.94691  0.95675  Biso   1.000  He
  Ne8      1.0000 0.02110  0.92029  0.97368  Biso   1.000  Ne
  Ne9      1.0000 0.77159  0.68907  0.41010  Biso   1.000  Ne
  He9      1.0000 0.76035  0.67275  0.43718  Biso   1.000  He
  He10     1.0000 0.73462  0.65336  0.43451  Biso   1.000  He
  Ne10     1.0000 0.71464  0.64815  0.46234  Biso   1.000  Ne
  Ne11     1.0000 0.75585  0.09989  0.79214  Biso   1.000  Ne
  He11     1.0000 0.76875  0.12431  0.80799  Biso   1.000  He
  He12     1.0000 0.76469  0.12288  0.83968  Biso   1.000  He
  Ne12     1.0000 0.77688  0.14621  0.85669  Biso   1.000  Ne
  Ne13     1.0000 0.56152  0.92201  0.43426  Biso   1.000  Ne
  He13     1.0000 0.57220  0.94812  0.45476  Biso   1.000  He
  He14     1.0000 0.55999  0.94984  0.48514  Biso   1.000  He
  Ne14     1.0000 0.57334  0.97514  0.50603  Biso   1.000  Ne
  Ne15     1.0000 0.55760  0.59479  0.94774  Biso   1.000  Ne
  He15     1.0000 0.58204  0.57978  0.92784  Biso   1.000  He
  He16     1.0000 0.61160  0.59722  0.93175  Biso   1.000  He
  Ne16     1.0000 0.63813  0.58241  0.91580  Biso   1.000  Ne
  Ne17     1.0000 0.82439  0.87478  0.77014  Biso   1.000  Ne
  He17     1.0000 0.81256  0.85112  0.75354  Biso   1.000  He
  He18     1.0000 0.82065  0.81960  0.76755  Biso   1.000  He
  Ne18     1.0000 0.81586  0.79360  0.74715  Biso   1.000  Ne
  Ne19     1.0000 0.42099  0.42456  0.95051  Biso   1.000  Ne
  He19     1.0000 0.39003  0.43203  0.94315  Biso   1.000  He
  He20     1.0000 0.37106  0.40406  0.94275  Biso   1.000  He
  Ne20     1.0000 0.34089  0.40839  0.93461  Biso   1.000  Ne
  Ne21     1.0000 0.52771  0.54300  0.31660  Biso   1.000  Ne
  He21     1.0000 0.51965  0.57165  0.32512  Biso   1.000  He
  He22     1.0000 0.52837  0.59491  0.30330  Biso   1.000  He
  Ne22     1.0000 0.52101  0.62540  0.31705  Biso   1.000  Ne
  Ne23     1.0000 0.93437  0.54907  0.78774  Biso   1.000  Ne
  He23     1.0000 0.95285  0.52365  0.78899  Biso   1.000  He
  He24     1.0000 0.96624  0.51850  0.81925  Biso   1.000  He
  Ne24     1.0000 0.98503  0.49171  0.82120  Biso   1.000  Ne
  Ne25     1.0000 0.92376  0.65217  0.72401  Biso   1.000  Ne
  He25     1.0000 0.91617  0.61823  0.72278  Biso   1.000  He
  He26     1.0000 0.88668  0.61019  0.73362  Biso   1.000  He
  Ne26     1.0000 0.87825  0.57925  0.73148  Biso   1.000  Ne
  Ne27     1.0000 0.88882  0.75884  0.71461  Biso   1.000  Ne
  He27     1.0000 0.90450  0.78590  0.72497  Biso   1.000  He
  He28     1.0000 0.91951  0.80435  0.70210  Biso   1.000  He
  Ne28     1.0000 0.93146  0.83179  0.71480  Biso   1.000  Ne
  Ne29     1.0000 0.04574  0.84874  0.72338  Biso   1.000  Ne
  He29     1.0000 0.06585  0.82157  0.72616  Biso   1.000  He
  He30     1.0000 0.05190  0.79438  0.71088  Biso   1.000  He
  Ne30     1.0000 0.07016  0.76982  0.71257  Biso   1.000  Ne
  Ne31     1.0000 0.35631  0.15587  0.02167  Biso   1.000  Ne
  He31     1.0000 0.32594  0.14874  0.03897  Biso   1.000  He
  He32     1.0000 0.33168  0.13146  0.06856  Biso   1.000  He
  Ne32     1.0000 0.30598  0.12313  0.08971  Biso   1.000  Ne
  Ne33     1.0000 0.67348  0.42988  0.91474  Biso   1.000  Ne
  He33     1.0000 0.69129  0.40567  0.90111  Biso   1.000  He
  He34     1.0000 0.69726  0.38359  0.92627  Biso   1.000  He
  Ne34     1.0000 0.71127  0.35436  0.91796  Biso   1.000  Ne
  Ne35     1.0000 0.30155  0.06027  0.95243  Biso   1.000  Ne
  He35     1.0000 0.29721  0.04931  0.98434  Biso   1.000  He
  He36     1.0000 0.30393  0.01836  0.99025  Biso   1.000  He
  Ne36     1.0000 0.29895  0.00675  0.01870  Biso   1.000  Ne
  Ne37     1.0000 0.43119  0.21969  0.14116  Biso   1.000  Ne
  He37     1.0000 0.44383  0.24659  0.15263  Biso   1.000  He
  He38     1.0000 0.42361  0.26553  0.16781  Biso   1.000  He
  Ne38     1.0000 0.43912  0.29480  0.17595  Biso   1.000  Ne
  Ne39     1.0000 0.28250  0.66027  0.10109  Biso   1.000  Ne
  He39     1.0000 0.25008  0.65788  0.11301  Biso   1.000  He
  He40     1.0000 0.22751  0.66589  0.09203  Biso   1.000  He
  Ne40     1.0000 0.19455  0.66660  0.10317  Biso   1.000  Ne
  Ne41     1.0000 0.72036  0.66838  0.15302  Biso   1.000  Ne
  He41     1.0000 0.69096  0.68306  0.15488  Biso   1.000  He
  He42     1.0000 0.66622  0.66207  0.15201  Biso   1.000  He
  Ne42     1.0000 0.63438  0.67723  0.15366  Biso   1.000  Ne
  Ne43     1.0000 0.58289  0.89354  0.70403  Biso   1.000  Ne
  He43     1.0000 0.59754  0.88584  0.73580  Biso   1.000  He
  He44     1.0000 0.61630  0.91021  0.75229  Biso   1.000  He
  Ne44     1.0000 0.63192  0.89434  0.77765  Biso   1.000  Ne
  Ne45     1.0000 0.92628  0.32141  0.66842  Biso   1.000  Ne
  He45     1.0000 0.91259  0.30157  0.68866  Biso   1.000  He
  He46     1.0000 0.93087  0.29536  0.71375  Biso   1.000  He
  Ne46     1.0000 0.91690  0.27607  0.73944  Biso   1.000  Ne
  Ne47     1.0000 0.86896  0.65543  0.34307  Biso   1.000  Ne
  He47     1.0000 0.88123  0.63182  0.36011  Biso   1.000  He
  He48     1.0000 0.90283  0.61335  0.34332  Biso   1.000  He
  Ne48     1.0000 0.90870  0.58416  0.35544  Biso   1.000  Ne
  Ne49     1.0000 0.35789  0.22694  0.20970  Biso   1.000  Ne
  He49     1.0000 0.33957  0.21959  0.23694  Biso   1.000  He
  He50     1.0000 0.30740  0.22800  0.23976  Biso   1.000  He
  Ne50     1.0000 0.29398  0.21587  0.26938  Biso   1.000  Ne
  Ne51     1.0000 0.50336  0.93266  0.54288  Biso   1.000  Ne
  He51     1.0000 0.52563  0.91893  0.56170  Biso   1.000  He
  He52     1.0000 0.53582  0.93409  0.58754  Biso   1.000  He
  Ne52     1.0000 0.56390  0.92568  0.60259  Biso   1.000  Ne
  Ne53     1.0000 0.87520  0.63854  0.25373  Biso   1.000  Ne
  He53     1.0000 0.87639  0.60953  0.26611  Biso   1.000  He
  He54     1.0000 0.90404  0.59529  0.25907  Biso   1.000  He
  Ne54     1.0000 0.90764  0.56327  0.27389  Biso   1.000  Ne
  Ne55     1.0000 0.57689  0.26226  0.47634  Biso   1.000  Ne
  He55     1.0000 0.58943  0.23845  0.45410  Biso   1.000  He
  He56     1.0000 0.61595  0.24854  0.43396  Biso   1.000  He
  Ne56     1.0000 0.62659  0.22801  0.41207  Biso   1.000  Ne
  Ne57     1.0000 0.73902  0.84523  0.87617  Biso   1.000  Ne
  He57     1.0000 0.73908  0.81580  0.88999  Biso   1.000  He
  He58     1.0000 0.71546  0.81039  0.91513  Biso   1.000  He
  Ne58     1.0000 0.71918  0.78070  0.92864  Biso   1.000  Ne
  Ne59     1.0000 0.29202  0.80022  0.18582  Biso   1.000  Ne
  He59     1.0000 0.29176  0.77856  0.15863  Biso   1.000  He
  He60     1.0000 0.28911  0.74858  0.16589  Biso   1.000  He
  Ne60     1.0000 0.28727  0.72841  0.13701  Biso   1.000  Ne
  Ne61     1.0000 0.31202  0.77008  0.64155  Biso   1.000  Ne
  He61     1.0000 0.32833  0.74295  0.63667  Biso   1.000  He
  He62     1.0000 0.34812  0.73515  0.66372  Biso   1.000  He
  Ne62     1.0000 0.35722  0.70514  0.66605  Biso   1.000  Ne
  Ne63     1.0000 0.54949  0.81852  0.77996  Biso   1.000  Ne
  He63     1.0000 0.56744  0.80439  0.80194  Biso   1.000  He
  He64     1.0000 0.59788  0.81953  0.80854  Biso   1.000  He
  Ne64     1.0000 0.62044  0.80168  0.82442  Biso   1.000  Ne
  Ne65     1.0000 0.23953  0.95031  0.71639  Biso   1.000  Ne
  He65     1.0000 0.27339  0.94512  0.71779  Biso   1.000  He
  He66     1.0000 0.28482  0.93153  0.69026  Biso   1.000  He
  Ne66     1.0000 0.32016  0.92866  0.69122  Biso   1.000  Ne
  Ne67     1.0000 0.93787  0.72708  0.06900  Biso   1.000  Ne
  He67     1.0000 0.92407  0.70225  0.05004  Biso   1.000  He
  He68     1.0000 0.93807  0.70132  0.01833  Biso   1.000  He
  Ne68     1.0000 0.92689  0.67508  0.00079  Biso   1.000  Ne
  Ne69     1.0000 0.84907  0.18667  0.59464  Biso   1.000  Ne
  He69     1.0000 0.83640  0.16229  0.61468  Biso   1.000  He
  He70     1.0000 0.84064  0.13127  0.60487  Biso   1.000  He
  Ne70     1.0000 0.83116  0.11024  0.62780  Biso   1.000  Ne
  Ne71     1.0000 0.72552  0.68304  0.92189  Biso   1.000  Ne
  He71     1.0000 0.69237  0.68378  0.93144  Biso   1.000  He
  He72     1.0000 0.67251  0.65929  0.92219  Biso   1.000  He
  Ne72     1.0000 0.63988  0.66733  0.93138  Biso   1.000  Ne
  Ne73     1.0000 0.41088  0.94051  0.62265  Biso   1.000  Ne
  He73     1.0000 0.41746  0.92176  0.59570  Biso   1.000  He
  He74     1.0000 0.41293  0.93637  0.56551  Biso   1.000  He
  Ne74     1.0000 0.42507  0.91631  0.53868  Biso   1.000  Ne
  Ne75     1.0000 0.52487  0.07032  0.53921  Biso   1.000  Ne
  He75     1.0000 0.52539  0.04203  0.52202  Biso   1.000  He
  He76     1.0000 0.49710  0.03420  0.50537  Biso   1.000  He
  Ne76     1.0000 0.49750  0.01030  0.48164  Biso   1.000  Ne
  Ne77     1.0000 0.20015  0.21863  0.13288  Biso   1.000  Ne
  He77     1.0000 0.20325  0.20187  0.16356  Biso   1.000  He
  He78     1.0000 0.23467  0.20301  0.17639  Biso   1.000  He
  Ne78     1.0000 0.23178  0.18363  0.20628  Biso   1.000  Ne
  Ne79     1.0000 0.79213  0.91995  0.84080  Biso   1.000  Ne
  He79     1.0000 0.75957  0.92534  0.83439  Biso   1.000  He
  He80     1.0000 0.75075  0.91689  0.80278  Biso   1.000  He
  Ne80     1.0000 0.71780  0.92112  0.79812  Biso   1.000  Ne
  Ne81     1.0000 0.94344  0.88467  0.80824  Biso   1.000  Ne
  He81     1.0000 0.91057  0.88911  0.80642  Biso   1.000  He
  He82     1.0000 0.90424  0.90982  0.83335  Biso   1.000  He
  Ne82     1.0000 0.87473  0.91190  0.84386  Biso   1.000  Ne
  Ne83     1.0000 0.07607  0.68642  0.66539  Biso   1.000  Ne
  He83     1.0000 0.09341  0.71154  0.66013  Biso   1.000  He
  He84     1.0000 0.10708  0.71523  0.62954  Biso   1.000  He
  Ne84     1.0000 0.13132  0.73912  0.62906  Biso   1.000  Ne
  Ne85     1.0000 0.90286  0.76060  0.17252  Biso   1.000  Ne
  He85     1.0000 0.89347  0.75952  0.20301  Biso   1.000  He
  He86     1.0000 0.90265  0.78722  0.22080  Biso   1.000  He
  Ne86     1.0000 0.89301  0.78716  0.25176  Biso   1.000  Ne
  Ne87     1.0000 0.23686  0.72542  0.42327  Biso   1.000  Ne
  He87     1.0000 0.21631  0.70389  0.41366  Biso   1.000  He
  He88     1.0000 0.20440  0.68643  0.43821  Biso   1.000  He
  Ne88     1.0000 0.17713  0.67059  0.43394  Biso   1.000  Ne
  Ne89     1.0000 0.90731  0.18695  0.13988  Biso   1.000  Ne
  He89     1.0000 0.91100  0.18579  0.17271  Biso   1.000  He
  He90     1.0000 0.88354  0.19820  0.18849  Biso   1.000  He
  Ne90     1.0000 0.88815  0.20267  0.22069  Biso   1.000  Ne
  Ne91     1.0000 0.42069  0.56100  0.20072  Biso   1.000  Ne
  He91     1.0000 0.42642  0.58150  0.22584  Biso   1.000  He
  He92     1.0000 0.43119  0.56699  0.25335  Biso   1.000  He
  Ne92     1.0000 0.43833  0.58545  0.27890  Biso   1.000  Ne
  Ne93     1.0000 0.35577  0.66213  0.93195  Biso   1.000  Ne
  He93     1.0000 0.38604  0.65340  0.91981  Biso   1.000  He
  He94     1.0000 0.39826  0.62810  0.93683  Biso   1.000  He
  Ne94     1.0000 0.42595  0.61330  0.92609  Biso   1.000  Ne
  Ne95     1.0000 0.37555  0.06688  0.11751  Biso   1.000  Ne
  He95     1.0000 0.36847  0.07419  0.14912  Biso   1.000  He
  He96     1.0000 0.37839  0.10537  0.15615  Biso   1.000  He
  Ne96     1.0000 0.36718  0.11353  0.18436  Biso   1.000  Ne
  Ne97     1.0000 0.86311  0.81156  0.10291  Biso   1.000  Ne
  He97     1.0000 0.89550  0.82290  0.09787  Biso   1.000  He
  He98     1.0000 0.89634  0.85437  0.08883  Biso   1.000  He
  Ne98     1.0000 0.92904  0.86270  0.08461  Biso   1.000  Ne
  Ne99     1.0000 0.82834  0.71898  0.70536  Biso   1.000  Ne
  He99     1.0000 0.80688  0.72749  0.68129  Biso   1.000  He
  He100    1.0000 0.81448  0.75513  0.65871  Biso   1.000  He
  Ne100    1.0000 0.80112  0.75510  0.62923  Biso   1.000  Ne
  Ne101    1.0000 0.63480  0.30632  0.61275  Biso   1.000  Ne
  He101    1.0000 0.60999  0.29060  0.63504  Biso   1.000  He
  He102    1.0000 0.59378  0.26745  0.61762  Biso   1.000  He
  Ne102    1.0000 0.57112  0.24905  0.63336  Biso   1.000  Ne
  Ne103    1.0000 0.70238  0.38527  0.62026  Biso   1.000  Ne
  He103    1.0000 0.67339  0.38775  0.63603  Biso   1.000  He
  He104    1.0000 0.67471  0.37291  0.66487  Biso   1.000  He
  Ne104    1.0000 0.64780  0.37911  0.68327  Biso   1.000  Ne
  Ne105    1.0000 0.15932  0.43579  0.25222  Biso   1.000  Ne
  He105    1.0000 0.13034  0.42844  0.23767  Biso   1.000  He
  He106    1.0000 0.12878  0.39174  0.23435  Biso   1.000  He
  Ne106    1.0000 0.10219  0.37972  0.21893  Biso   1.000  Ne
  Ne107    1.0000 0.89124  0.79341  0.84572  Biso   1.000  Ne
  He107    1.0000 0.90149  0.76387  0.83166  Biso   1.000  He
  He108    1.0000 0.90542  0.76076  0.79951  Biso   1.000  He
  Ne108    1.0000 0.91093  0.72989  0.78776  Biso   1.000  Ne
  Ne109    1.0000 0.83480  0.07534  0.90101  Biso   1.000  Ne
  He109    1.0000 0.83670  0.10897  0.90626  Biso   1.000  He
  He110    1.0000 0.86584  0.12029  0.91873  Biso   1.000  He
  Ne110    1.0000 0.86743  0.15507  0.91433  Biso   1.000  Ne
  Ne111    1.0000 0.56424  0.81124  0.61891  Biso   1.000  Ne
  He111    1.0000 0.59628  0.79839  0.61775  Biso   1.000  He
  He112    1.0000 0.61656  0.81553  0.59815  Biso   1.000  He
  Ne112    1.0000 0.64529  0.80108  0.59511  Biso   1.000  Ne
  Ne113    1.0000 0.69449  0.77980  0.19715  Biso   1.000  Ne
  He113    1.0000 0.71454  0.75716  0.18412  Biso   1.000  He
  He114    1.0000 0.72740  0.76662  0.15471  Biso   1.000  He
  Ne114    1.0000 0.74838  0.74704  0.13958  Biso   1.000  Ne
  Ne115    1.0000 0.18776  0.80654  0.94242  Biso   1.000  Ne
  He115    1.0000 0.18022  0.83791  0.93056  Biso   1.000  He
  He116    1.0000 0.15471  0.85137  0.94238  Biso   1.000  He
  Ne116    1.0000 0.14487  0.88140  0.93542  Biso   1.000  Ne
  Ne117    1.0000 0.24754  0.57242  0.34239  Biso   1.000  Ne
  He117    1.0000 0.26421  0.54766  0.32947  Biso   1.000  He
  He118    1.0000 0.27579  0.52751  0.35219  Biso   1.000  He
  Ne118    1.0000 0.29560  0.50211  0.34052  Biso   1.000  Ne
  Ne119    1.0000 0.29429  0.62635  0.33228  Biso   1.000  Ne
  He119    1.0000 0.28112  0.65577  0.31733  Biso   1.000  He
  He120    1.0000 0.30197  0.67247  0.29862  Biso   1.000  He
  Ne120    1.0000 0.28786  0.69869  0.28819  Biso   1.000  Ne
  Ne121    1.0000 0.58000  0.84944  0.16403  Biso   1.000  Ne
  He121    1.0000 0.58931  0.82305  0.17677  Biso   1.000  He
  He122    1.0000 0.57376  0.79501  0.16711  Biso   1.000  He
  Ne122    1.0000 0.58214  0.76402  0.18101  Biso   1.000  Ne
  Ne123    1.0000 0.05333  0.82022  0.61408  Biso   1.000  Ne
  He123    1.0000 0.03381  0.84774  0.60918  Biso   1.000  He
  He124    1.0000 0.00899  0.84760  0.58805  Biso   1.000  He
  Ne124    1.0000 0.99323  0.87526  0.59036  Biso   1.000  Ne
  Ne125    1.0000 0.16139  0.74975  0.88726  Biso   1.000  Ne
  He125    1.0000 0.13853  0.76006  0.86250  Biso   1.000  He
  He126    1.0000 0.14920  0.77381  0.83518  Biso   1.000  He
  Ne126    1.0000 0.12846  0.78992  0.81561  Biso   1.000  Ne
  Ne127    1.0000 0.35864  0.76361  0.10508  Biso   1.000  Ne
  He127    1.0000 0.37108  0.75486  0.13501  Biso   1.000  He
  He128    1.0000 0.39728  0.73315  0.13154  Biso   1.000  He
  Ne128    1.0000 0.41018  0.72222  0.16069  Biso   1.000  Ne
  Ne129    1.0000 0.41330  0.75708  0.62006  Biso   1.000  Ne
  He129    1.0000 0.41356  0.79316  0.62029  Biso   1.000  He
  He130    1.0000 0.40224  0.80793  0.59215  Biso   1.000  He
  Ne130    1.0000 0.40857  0.83744  0.58406  Biso   1.000  Ne
  Ne131    1.0000 0.23174  0.40397  0.24742  Biso   1.000  Ne
  He131    1.0000 0.24471  0.38670  0.27382  Biso   1.000  He
  He132    1.0000 0.23157  0.35448  0.27633  Biso   1.000  He
  Ne132    1.0000 0.24221  0.33985  0.30448  Biso   1.000  Ne
  Ne133    1.0000 0.99195  0.45073  0.58403  Biso   1.000  Ne
  He133    1.0000 0.02413  0.44903  0.58462  Biso   1.000  He
  He134    1.0000 0.03697  0.47737  0.59900  Biso   1.000  He
  Ne134    1.0000 0.06850  0.47313  0.59918  Biso   1.000  Ne
  Ne135    1.0000 0.08886  0.14247  0.17661  Biso   1.000  Ne
  He135    1.0000 0.08318  0.12499  0.20476  Biso   1.000  He
  He136    1.0000 0.08068  0.09263  0.20270  Biso   1.000  He
  Ne136    1.0000 0.08267  0.07935  0.23412  Biso   1.000  Ne
  Ne137    1.0000 0.64421  0.31801  0.30366  Biso   1.000  Ne
  He137    1.0000 0.63617  0.31814  0.27132  Biso   1.000  He
  He138    1.0000 0.61494  0.33972  0.26593  Biso   1.000  He
  Ne138    1.0000 0.60566  0.33830  0.23509  Biso   1.000  Ne
  Ne139    1.0000 0.84907  0.29860  0.01928  Biso   1.000  Ne
  He139    1.0000 0.84938  0.31738  0.99483  Biso   1.000  He
  He140    1.0000 0.87977  0.33548  0.99090  Biso   1.000  He
  Ne140    1.0000 0.87996  0.35775  0.96707  Biso   1.000  Ne
  Ne141    1.0000 0.21627  0.83310  0.85515  Biso   1.000  Ne
  He141    1.0000 0.23051  0.85861  0.83923  Biso   1.000  He
  He142    1.0000 0.26134  0.85645  0.83390  Biso   1.000  He
  Ne142    1.0000 0.27525  0.88391  0.82304  Biso   1.000  Ne
  Ne143    1.0000 0.93325  0.26724  0.16622  Biso   1.000  Ne
  He143    1.0000 0.94902  0.26438  0.13722  Biso   1.000  He
  He144    1.0000 0.93344  0.27331  0.10899  Biso   1.000  He
  Ne144    1.0000 0.95149  0.26970  0.08048  Biso   1.000  Ne
  Ne145    1.0000 0.48422  0.45174  0.09962  Biso   1.000  Ne
  He145    1.0000 0.48890  0.45836  0.07063  Biso   1.000  He
  He146    1.0000 0.47874  0.43248  0.05021  Biso   1.000  He
  Ne146    1.0000 0.48292  0.43660  0.01762  Biso   1.000  Ne
  Ne147    1.0000 0.36355  0.39135  0.29723  Biso   1.000  Ne
  He147    1.0000 0.39320  0.39981  0.31219  Biso   1.000  He
  He148    1.0000 0.41666  0.40600  0.28821  Biso   1.000  He
  Ne148    1.0000 0.44731  0.40888  0.29939  Biso   1.000  Ne
  Ne149    1.0000 0.92806  0.06716  0.74552  Biso   1.000  Ne
  He149    1.0000 0.92407  0.08642  0.77204  Biso   1.000  He
  He150    1.0000 0.92844  0.07276  0.80093  Biso   1.000  He
  Ne150    1.0000 0.92778  0.09515  0.82584  Biso   1.000  Ne
  Ne151    1.0000 0.33589  0.56758  0.09146  Biso   1.000  Ne
  He151    1.0000 0.31513  0.57535  0.11556  Biso   1.000  He
  He152    1.0000 0.32852  0.58228  0.14504  Biso   1.000  He
  Ne152    1.0000 0.30267  0.58981  0.16541  Biso   1.000  Ne
  Ne153    1.0000 0.23214  0.43793  0.79839  Biso   1.000  Ne
  He153    1.0000 0.23796  0.41891  0.82674  Biso   1.000  He
  He154    1.0000 0.26887  0.41797  0.83439  Biso   1.000  He
  Ne154    1.0000 0.28069  0.39815  0.85674  Biso   1.000  Ne
  Ne155    1.0000 0.80584  0.46246  0.00518  Biso   1.000  Ne
  He155    1.0000 0.81345  0.44789  0.97796  Biso   1.000  He
  He156    1.0000 0.83140  0.46891  0.95907  Biso   1.000  He
  Ne156    1.0000 0.83995  0.45494  0.92841  Biso   1.000  Ne
  Ne157    1.0000 0.90122  0.27600  0.58815  Biso   1.000  Ne
  He157    1.0000 0.91216  0.24437  0.58279  Biso   1.000  He
  He158    1.0000 0.94287  0.24460  0.57233  Biso   1.000  He
  Ne158    1.0000 0.95538  0.21397  0.57225  Biso   1.000  Ne
  Ne159    1.0000 0.66168  0.11336  0.70622  Biso   1.000  Ne
  He159    1.0000 0.63966  0.09064  0.71304  Biso   1.000  He
  He160    1.0000 0.64061  0.07592  0.74171  Biso   1.000  He
  Ne160    1.0000 0.61874  0.05094  0.74650  Biso   1.000  Ne
  Ne161    1.0000 0.43352  0.95627  0.24484  Biso   1.000  Ne
  He161    1.0000 0.40202  0.95518  0.23739  Biso   1.000  He
  He162    1.0000 0.38950  0.98328  0.23179  Biso   1.000  He
  Ne162    1.0000 0.35682  0.98326  0.22386  Biso   1.000  Ne
  Ne163    1.0000 0.70024  0.96300  0.97140  Biso   1.000  Ne
  He163    1.0000 0.70304  0.93137  0.96155  Biso   1.000  He
  He164    1.0000 0.73393  0.92367  0.96187  Biso   1.000  He
  Ne164    1.0000 0.73968  0.88917  0.95808  Biso   1.000  Ne
  Ne165    1.0000 0.82965  0.27788  0.69529  Biso   1.000  Ne
  He165    1.0000 0.79576  0.28037  0.69598  Biso   1.000  He
  He166    1.0000 0.78484  0.30894  0.69640  Biso   1.000  He
  Ne166    1.0000 0.75388  0.31321  0.69209  Biso   1.000  Ne
  Ne167    1.0000 0.66234  0.81155  0.29070  Biso   1.000  Ne
  He167    1.0000 0.63252  0.81475  0.28165  Biso   1.000  He
  He168    1.0000 0.61015  0.78914  0.29289  Biso   1.000  He
  Ne168    1.0000 0.58230  0.79280  0.27963  Biso   1.000  Ne
  Ne169    1.0000 0.52606  0.38454  0.32411  Biso   1.000  Ne
  He169    1.0000 0.51158  0.39243  0.35322  Biso   1.000  He
  He170    1.0000 0.50596  0.36457  0.37104  Biso   1.000  He
  Ne170    1.0000 0.47634  0.35144  0.37185  Biso   1.000  Ne
  Ne171    1.0000 0.23181  0.74576  0.89500  Biso   1.000  Ne
  He171    1.0000 0.25725  0.72898  0.90205  Biso   1.000  He
  He172    1.0000 0.24959  0.70228  0.91935  Biso   1.000  He
  Ne172    1.0000 0.27381  0.68157  0.92449  Biso   1.000  Ne
  Ne173    1.0000 0.41468  0.89777  0.44752  Biso   1.000  Ne
  He173    1.0000 0.43487  0.91678  0.46231  Biso   1.000  He
  He174    1.0000 0.46510  0.90767  0.45861  Biso   1.000  He
  Ne174    1.0000 0.48526  0.93037  0.47045  Biso   1.000  Ne
  Ne175    1.0000 0.46438  0.50657  0.66375  Biso   1.000  Ne
  He175    1.0000 0.47824  0.51701  0.69236  Biso   1.000  He
  He176    1.0000 0.48679  0.49425  0.71368  Biso   1.000  He
  Ne176    1.0000 0.49560  0.50773  0.74420  Biso   1.000  Ne
  Ne177    1.0000 0.93180  0.35196  0.59744  Biso   1.000  Ne
  He177    1.0000 0.91326  0.37151  0.57605  Biso   1.000  He
  He178    1.0000 0.89631  0.39259  0.59427  Biso   1.000  He
  Ne178    1.0000 0.87376  0.41215  0.57846  Biso   1.000  Ne
  Ne179    1.0000 0.43193  0.58269  0.12363  Biso   1.000  Ne
  He179    1.0000 0.41063  0.60782  0.11393  Biso   1.000  He
  He180    1.0000 0.42085  0.63090  0.09255  Biso   1.000  He
  Ne180    1.0000 0.39643  0.65171  0.08761  Biso   1.000  Ne
  Ne181    1.0000 0.77430  0.64005  0.07512  Biso   1.000  Ne
  He181    1.0000 0.80289  0.65287  0.06252  Biso   1.000  He
  He182    1.0000 0.80017  0.66308  0.03131  Biso   1.000  He
  Ne182    1.0000 0.82514  0.68418  0.02212  Biso   1.000  Ne
  Ne183    1.0000 0.94178  0.05719  0.14037  Biso   1.000  Ne
  He183    1.0000 0.91395  0.07295  0.13558  Biso   1.000  He
  He184    1.0000 0.91369  0.09385  0.10974  Biso   1.000  He
  Ne184    1.0000 0.88403  0.10568  0.10197  Biso   1.000  Ne
  Ne185    1.0000 0.74669  0.04091  0.94126  Biso   1.000  Ne
  He185    1.0000 0.76056  0.07116  0.93664  Biso   1.000  He
  He186    1.0000 0.74149  0.09826  0.94777  Biso   1.000  He
  Ne186    1.0000 0.75421  0.12672  0.93732  Biso   1.000  Ne
  Ne187    1.0000 0.16774  0.73782  0.72953  Biso   1.000  Ne
  He187    1.0000 0.14984  0.71006  0.72813  Biso   1.000  He
  He188    1.0000 0.12007  0.71154  0.74402  Biso   1.000  He
  Ne188    1.0000 0.10175  0.68484  0.74313  Biso   1.000  Ne
  Ne189    1.0000 0.66914  0.08052  0.62741  Biso   1.000  Ne
  He189    1.0000 0.70022  0.09062  0.62510  Biso   1.000  He
  He190    1.0000 0.71557  0.08673  0.59535  Biso   1.000  He
  Ne190    1.0000 0.74977  0.09445  0.59491  Biso   1.000  Ne
  Ne191    1.0000 0.15396  0.60852  0.70579  Biso   1.000  Ne
  He191    1.0000 0.12301  0.60662  0.71460  Biso   1.000  He
  He192    1.0000 0.11056  0.58443  0.69445  Biso   1.000  He
  Ne192    1.0000 0.07850  0.58283  0.69500  Biso   1.000  Ne
  Ne193    1.0000 0.71723  0.52622  0.54811  Biso   1.000  Ne
  He193    1.0000 0.70583  0.49386  0.54817  Biso   1.000  He
  He194    1.0000 0.72122  0.47564  0.52609  Biso   1.000  He
  Ne194    1.0000 0.71597  0.44382  0.52785  Biso   1.000  Ne
  Ne195    1.0000 0.09464  0.40516  0.73464  Biso   1.000  Ne
  He195    1.0000 0.12193  0.41305  0.75116  Biso   1.000  He
  He196    1.0000 0.14999  0.41661  0.72979  Biso   1.000  He
  Ne196    1.0000 0.17755  0.42220  0.74242  Biso   1.000  Ne
  Ne197    1.0000 0.86373  0.59524  0.60529  Biso   1.000  Ne
  He197    1.0000 0.88270  0.57127  0.62107  Biso   1.000  He
  He198    1.0000 0.91217  0.58049  0.63049  Biso   1.000  He
  Ne198    1.0000 0.92432  0.56090  0.65570  Biso   1.000  Ne
  Ne199    1.0000 0.49918  0.30302  0.47903  Biso   1.000  Ne
  He199    1.0000 0.49618  0.28303  0.45220  Biso   1.000  He
  He200    1.0000 0.46808  0.26672  0.45171  Biso   1.000  He
  Ne200    1.0000 0.46533  0.24302  0.42720  Biso   1.000  Ne
  Ne201    1.0000 0.80532  0.54520  0.94006  Biso   1.000  Ne
  He201    1.0000 0.78704  0.57169  0.93048  Biso   1.000  He
  He202    1.0000 0.76155  0.57967  0.95135  Biso   1.000  He
  Ne202    1.0000 0.74150  0.60288  0.93834  Biso   1.000  Ne
  Ne203    1.0000 0.16002  0.78869  0.10730  Biso   1.000  Ne
  He203    1.0000 0.16572  0.79089  0.14173  Biso   1.000  He
  He204    1.0000 0.19650  0.77819  0.14873  Biso   1.000  He
  Ne204    1.0000 0.20657  0.77949  0.18153  Biso   1.000  Ne
  Ne205    1.0000 0.79726  0.57711  0.84993  Biso   1.000  Ne
  He205    1.0000 0.80691  0.57801  0.81658  Biso   1.000  He
  He206    1.0000 0.78508  0.56597  0.79708  Biso   1.000  He
  Ne206    1.0000 0.79447  0.56960  0.76482  Biso   1.000  Ne
  Ne207    1.0000 0.80798  0.11592  0.12768  Biso   1.000  Ne
  He207    1.0000 0.80378  0.09801  0.15704  Biso   1.000  He
  He208    1.0000 0.77178  0.08641  0.16278  Biso   1.000  He
  Ne208    1.0000 0.76694  0.06879  0.19068  Biso   1.000  Ne
  Ne209    1.0000 0.37356  0.92795  0.38384  Biso   1.000  Ne
  He209    1.0000 0.38540  0.91496  0.35762  Biso   1.000  He
  He210    1.0000 0.40307  0.88844  0.36639  Biso   1.000  He
  Ne210    1.0000 0.41345  0.86854  0.33889  Biso   1.000  Ne
  Ne211    1.0000 0.26551  0.83794  0.38569  Biso   1.000  Ne
  He211    1.0000 0.27304  0.82053  0.41228  Biso   1.000  He
  He212    1.0000 0.30592  0.81449  0.41728  Biso   1.000  He
  Ne212    1.0000 0.30979  0.79645  0.44369  Biso   1.000  Ne
  Ne213    1.0000 0.33648  0.44101  0.71379  Biso   1.000  Ne
  He213    1.0000 0.34274  0.43122  0.68153  Biso   1.000  He
  He214    1.0000 0.36955  0.40785  0.68146  Biso   1.000  He
  Ne214    1.0000 0.38175  0.39798  0.65242  Biso   1.000  Ne
  Ne215    1.0000 0.28629  0.94290  0.21429  Biso   1.000  Ne
  He215    1.0000 0.29094  0.91024  0.20231  Biso   1.000  He
  He216    1.0000 0.27871  0.90595  0.16900  Biso   1.000  He
  Ne216    1.0000 0.27883  0.87387  0.16065  Biso   1.000  Ne
  Ne217    1.0000 0.68221  0.59096  0.22563  Biso   1.000  Ne
  He217    1.0000 0.71336  0.60503  0.21568  Biso   1.000  He
  He218    1.0000 0.73779  0.58455  0.22539  Biso   1.000  He
  Ne218    1.0000 0.76737  0.59667  0.21528  Biso   1.000  Ne
  Ne219    1.0000 0.73245  0.32041  0.56121  Biso   1.000  Ne
  He219    1.0000 0.70570  0.32448  0.53901  Biso   1.000  He
  He220    1.0000 0.67936  0.34349  0.54671  Biso   1.000  He
  Ne220    1.0000 0.65309  0.34012  0.52762  Biso   1.000  Ne
  Ne221    1.0000 0.31602  0.91073  0.43390  Biso   1.000  Ne
  He221    1.0000 0.28624  0.90319  0.42371  Biso   1.000  He
  He222    1.0000 0.26144  0.91636  0.43874  Biso   1.000  He
  Ne222    1.0000 0.23181  0.90162  0.43024  Biso   1.000  Ne
  Ne223    1.0000 0.58830  0.07506  0.32347  Biso   1.000  Ne
  He223    1.0000 0.58577  0.10461  0.31304  Biso   1.000  He
  He224    1.0000 0.58920  0.12842  0.34007  Biso   1.000  He
  Ne224    1.0000 0.59076  0.15938  0.33121  Biso   1.000  Ne
  Ne225    1.0000 0.10505  0.11169  0.82061  Biso   1.000  Ne
  He225    1.0000 0.12121  0.13704  0.82803  Biso   1.000  He
  He226    1.0000 0.10344  0.16391  0.82280  Biso   1.000  He
  Ne226    1.0000 0.11535  0.19242  0.83417  Biso   1.000  Ne
  Ne227    1.0000 0.20368  0.85385  0.60762  Biso   1.000  Ne
  He227    1.0000 0.20910  0.82794  0.58622  Biso   1.000  He
  He228    1.0000 0.18298  0.80888  0.58464  Biso   1.000  He
  Ne228    1.0000 0.18796  0.77776  0.57156  Biso   1.000  Ne
  Ne229    1.0000 0.75997  0.02027  0.43033  Biso   1.000  Ne
  He229    1.0000 0.74424  0.04357  0.41298  Biso   1.000  He
  He230    1.0000 0.71125  0.04343  0.41726  Biso   1.000  He
  Ne230    1.0000 0.70014  0.06962  0.40349  Biso   1.000  Ne
  Ne231    1.0000 0.23271  0.61901  0.90486  Biso   1.000  Ne
  He231    1.0000 0.21784  0.60120  0.93035  Biso   1.000  He
  He232    1.0000 0.24007  0.58371  0.95006  Biso   1.000  He
  Ne232    1.0000 0.22283  0.56415  0.97100  Biso   1.000  Ne
  Ne233    1.0000 0.20351  0.54868  0.86691  Biso   1.000  Ne
  He233    1.0000 0.18477  0.51946  0.87019  Biso   1.000  He
  He234    1.0000 0.19798  0.49016  0.86217  Biso   1.000  He
  Ne234    1.0000 0.21194  0.47209  0.88705  Biso   1.000  Ne
  Ne235    1.0000 0.70330  0.38662  0.11427  Biso   1.000  Ne
  He235    1.0000 0.69272  0.35644  0.12153  Biso   1.000  He
  He236    1.0000 0.68110  0.33979  0.09576  Biso   1.000  He
  Ne236    1.0000 0.67697  0.30631  0.10239  Biso   1.000  Ne
  Ne237    1.0000 0.82022  0.29062  0.12523  Biso   1.000  Ne
  He237    1.0000 0.84702  0.27699  0.11398  Biso   1.000  He
  He238    1.0000 0.84185  0.25489  0.08749  Biso   1.000  He
  Ne238    1.0000 0.86623  0.23516  0.08049  Biso   1.000  Ne
  Ne239    1.0000 0.82199  0.84701  0.18032  Biso   1.000  Ne
  He239    1.0000 0.80077  0.82664  0.19359  Biso   1.000  He
  He240    1.0000 0.80963  0.80252  0.21629  Biso   1.000  He
  Ne240    1.0000 0.78478  0.78701  0.22950  Biso   1.000  Ne
  Ne241    1.0000 0.70136  0.98968  0.11071  Biso   1.000  Ne
  He241    1.0000 0.68763  0.98298  0.14119  Biso   1.000  He
  He242    1.0000 0.65360  0.98000  0.14485  Biso   1.000  He
  Ne242    1.0000 0.63812  0.00697  0.15609  Biso   1.000  Ne
  Ne243    1.0000 0.66348  0.20771  0.06945  Biso   1.000  Ne
  He243    1.0000 0.64342  0.22687  0.08923  Biso   1.000  He
  He244    1.0000 0.61967  0.24509  0.07563  Biso   1.000  He
  Ne244    1.0000 0.59426  0.25713  0.09672  Biso   1.000  Ne
  Ne245    1.0000 0.25611  0.06696  0.34954  Biso   1.000  Ne
  He245    1.0000 0.26471  0.09131  0.32930  Biso   1.000  He
  He246    1.0000 0.29709  0.10060  0.32629  Biso   1.000  He
  Ne246    1.0000 0.30069  0.12449  0.30116  Biso   1.000  Ne
  Ne247    1.0000 0.19578  0.11001  0.79270  Biso   1.000  Ne
  He247    1.0000 0.17167  0.08906  0.79094  Biso   1.000  He
  He248    1.0000 0.15885  0.08897  0.75976  Biso   1.000  He
  Ne248    1.0000 0.13070  0.06826  0.75315  Biso   1.000  Ne
  Ne249    1.0000 0.06391  0.78394  0.51663  Biso   1.000  Ne
  He249    1.0000 0.08457  0.80592  0.50688  Biso   1.000  He
  He250    1.0000 0.11567  0.79719  0.50126  Biso   1.000  He
  Ne250    1.0000 0.13760  0.81999  0.49383  Biso   1.000  Ne
  Ne251    1.0000 0.93592  0.48039  0.49220  Biso   1.000  Ne
  He251    1.0000 0.92782  0.46568  0.46394  Biso   1.000  He
  He252    1.0000 0.95128  0.44291  0.45420  Biso   1.000  He
  Ne252    1.0000 0.94433  0.41292  0.46739  Biso   1.000  Ne
  Ne253    1.0000 0.67649  0.05645  0.86352  Biso   1.000  Ne
  He253    1.0000 0.67530  0.08776  0.84869  Biso   1.000  He
  He254    1.0000 0.67065  0.11199  0.87036  Biso   1.000  He
  Ne254    1.0000 0.67515  0.14309  0.85989  Biso   1.000  Ne
  Ne255    1.0000 0.80928  0.87243  0.50623  Biso   1.000  Ne
  He255    1.0000 0.80825  0.86642  0.53762  Biso   1.000  He
  He256    1.0000 0.78457  0.84532  0.54532  Biso   1.000  He
  Ne256    1.0000 0.78024  0.83783  0.57659  Biso   1.000  Ne
  Ne257    1.0000 0.63573  0.89444  0.60211  Biso   1.000  Ne
  He257    1.0000 0.65862  0.90902  0.62246  Biso   1.000  He
  He258    1.0000 0.68862  0.90951  0.61137  Biso   1.000  He
  Ne258    1.0000 0.71215  0.92554  0.63061  Biso   1.000  Ne
  Ne259    1.0000 0.82865  0.31789  0.62548  Biso   1.000  Ne
  He259    1.0000 0.80493  0.33789  0.61872  Biso   1.000  He
  He260    1.0000 0.81007  0.36420  0.60523  Biso   1.000  He
  Ne260    1.0000 0.78144  0.37788  0.59638  Biso   1.000  Ne
  Ne261    1.0000 0.59260  0.63504  0.35198  Biso   1.000  Ne
  He261    1.0000 0.62212  0.61986  0.35524  Biso   1.000  He
  He262    1.0000 0.64108  0.62643  0.38295  Biso   1.000  He
  Ne262    1.0000 0.66785  0.61023  0.38587  Biso   1.000  Ne
  Ne263    1.0000 0.13509  0.56822  0.80785  Biso   1.000  Ne
  He263    1.0000 0.11501  0.58225  0.79142  Biso   1.000  He
  He264    1.0000 0.09724  0.60581  0.80587  Biso   1.000  He
  Ne264    1.0000 0.07156  0.62114  0.79183  Biso   1.000  Ne
  Ne265    1.0000 0.59096  0.62880  0.07776  Biso   1.000  Ne
  He265    1.0000 0.57012  0.65128  0.08797  Biso   1.000  He
  He266    1.0000 0.58361  0.67770  0.09231  Biso   1.000  He
  Ne266    1.0000 0.56372  0.70198  0.10792  Biso   1.000  Ne
  Ne267    1.0000 0.92383  0.05681  0.90505  Biso   1.000  Ne
  He267    1.0000 0.94753  0.07997  0.90989  Biso   1.000  He
  He268    1.0000 0.94074  0.10147  0.93422  Biso   1.000  He
  Ne268    1.0000 0.94334  0.12950  0.92189  Biso   1.000  Ne
  Ne269    1.0000 0.73244  0.17553  0.70259  Biso   1.000  Ne
  He269    1.0000 0.76328  0.17754  0.70923  Biso   1.000  He
  He270    1.0000 0.78465  0.19221  0.68671  Biso   1.000  He
  Ne270    1.0000 0.81513  0.19057  0.69434  Biso   1.000  Ne
  Ne271    1.0000 0.95191  0.76422  0.58498  Biso   1.000  Ne
  He271    1.0000 0.97552  0.77562  0.60194  Biso   1.000  He
  He272    1.0000 0.96728  0.77863  0.63444  Biso   1.000  He
  Ne272    1.0000 0.99351  0.78913  0.65463  Biso   1.000  Ne
  Ne273    1.0000 0.04794  0.33407  0.08414  Biso   1.000  Ne
  He273    1.0000 0.05351  0.31994  0.05584  Biso   1.000  He
  He274    1.0000 0.04319  0.29017  0.05406  Biso   1.000  He
  Ne274    1.0000 0.04749  0.27322  0.02697  Biso   1.000  Ne
  Ne275    1.0000 0.42108  0.66850  0.85320  Biso   1.000  Ne
  He275    1.0000 0.42155  0.63555  0.84984  Biso   1.000  He
  He276    1.0000 0.42333  0.62500  0.82019  Biso   1.000  He
  Ne276    1.0000 0.42977  0.59320  0.81621  Biso   1.000  Ne
  Ne277    1.0000 0.59359  0.31708  0.90283  Biso   1.000  Ne
  He277    1.0000 0.61703  0.31018  0.92370  Biso   1.000  He
  He278    1.0000 0.64312  0.28930  0.91298  Biso   1.000  He
  Ne278    1.0000 0.67085  0.28591  0.93306  Biso   1.000  Ne
  Ne279    1.0000 0.86949  0.80051  0.46631  Biso   1.000  Ne
  He279    1.0000 0.85728  0.79317  0.49599  Biso   1.000  He
  He280    1.0000 0.87808  0.77898  0.52092  Biso   1.000  He
  Ne280    1.0000 0.86521  0.78134  0.54934  Biso   1.000  Ne
  Ne281    1.0000 0.53211  0.68324  0.38667  Biso   1.000  Ne
  He281    1.0000 0.50953  0.66496  0.37682  Biso   1.000  He
  He282    1.0000 0.48435  0.68246  0.36470  Biso   1.000  He
  Ne282    1.0000 0.46135  0.66511  0.35049  Biso   1.000  Ne
  Ne283    1.0000 0.03450  0.54986  0.49183  Biso   1.000  Ne
  He283    1.0000 0.03676  0.55783  0.45816  Biso   1.000  He
  He284    1.0000 0.06297  0.54466  0.44529  Biso   1.000  He
  Ne284    1.0000 0.06554  0.55951  0.41604  Biso   1.000  Ne
  Ne285    1.0000 0.82277  0.21182  0.88378  Biso   1.000  Ne
  He285    1.0000 0.79352  0.22573  0.89363  Biso   1.000  He
  He286    1.0000 0.79964  0.25547  0.90870  Biso   1.000  He
  Ne286    1.0000 0.76971  0.26599  0.92186  Biso   1.000  Ne
  Ne287    1.0000 0.03019  0.40717  0.48466  Biso   1.000  Ne
  He287    1.0000 0.05835  0.42058  0.48568  Biso   1.000  He
  He288    1.0000 0.06170  0.44984  0.46949  Biso   1.000  He
  Ne288    1.0000 0.09096  0.46339  0.47261  Biso   1.000  Ne
  Ne289    1.0000 0.04311  0.56302  0.59746  Biso   1.000  Ne
  He289    1.0000 0.06431  0.58476  0.59018  Biso   1.000  He
  He290    1.0000 0.06347  0.61016  0.60968  Biso   1.000  He
  Ne290    1.0000 0.08024  0.63627  0.59614  Biso   1.000  Ne
  Ne291    1.0000 0.29429  0.93929  0.94432  Biso   1.000  Ne
  He291    1.0000 0.26201  0.93556  0.94340  Biso   1.000  He
  He292    1.0000 0.24936  0.90626  0.93602  Biso   1.000  He
  Ne292    1.0000 0.21681  0.90302  0.93009  Biso   1.000  Ne
  Ne293    1.0000 0.17607  0.43923  0.05487  Biso   1.000  Ne
  He293    1.0000 0.17721  0.46501  0.07739  Biso   1.000  He
  He294    1.0000 0.19249  0.49271  0.06444  Biso   1.000  He
  Ne294    1.0000 0.19923  0.51669  0.08642  Biso   1.000  Ne
  Ne295    1.0000 0.98642  0.03752  0.07299  Biso   1.000  Ne
  He295    1.0000 0.97885  0.04803  0.04033  Biso   1.000  He
  He296    1.0000 0.94981  0.03055  0.02799  Biso   1.000  He
  Ne296    1.0000 0.93706  0.03988  0.00015  Biso   1.000  Ne
  Ne297    1.0000 0.35704  0.10055  0.69416  Biso   1.000  Ne
  He297    1.0000 0.38197  0.09815  0.71616  Biso   1.000  He
  He298    1.0000 0.41084  0.10761  0.70493  Biso   1.000  He
  Ne298    1.0000 0.43238  0.11173  0.73027  Biso   1.000  Ne
  Ne299    1.0000 0.34771  0.30948  0.17475  Biso   1.000  Ne
  He299    1.0000 0.33167  0.33709  0.18463  Biso   1.000  He
  He300    1.0000 0.31196  0.33403  0.20937  Biso   1.000  He
  Ne300    1.0000 0.29442  0.36286  0.21463  Biso   1.000  Ne
  Ne301    1.0000 0.42892  0.34572  0.87220  Biso   1.000  Ne
  He301    1.0000 0.42676  0.36464  0.84305  Biso   1.000  He
  He302    1.0000 0.41265  0.39460  0.85043  Biso   1.000  He
  Ne302    1.0000 0.41086  0.41485  0.82521  Biso   1.000  Ne
  Ne303    1.0000 0.26213  0.89176  0.07662  Biso   1.000  Ne
  He303    1.0000 0.29489  0.89562  0.06262  Biso   1.000  He
  He304    1.0000 0.29861  0.87895  0.03256  Biso   1.000  He
  Ne304    1.0000 0.33083  0.87357  0.02402  Biso   1.000  Ne
  Ne305    1.0000 0.85699  0.94616  0.72935  Biso   1.000  Ne
  He305    1.0000 0.87522  0.96086  0.70720  Biso   1.000  He
  He306    1.0000 0.89085  0.98553  0.71797  Biso   1.000  He
  Ne306    1.0000 0.91137  0.99881  0.69578  Biso   1.000  Ne
  Ne307    1.0000 0.65690  0.67294  0.51608  Biso   1.000  Ne
  He307    1.0000 0.64841  0.64973  0.49356  Biso   1.000  He
  He308    1.0000 0.61935  0.65596  0.47843  Biso   1.000  He
  Ne308    1.0000 0.60818  0.63205  0.46027  Biso   1.000  Ne
  Ne309    1.0000 0.47992  0.67023  0.61591  Biso   1.000  Ne
  He309    1.0000 0.50926  0.68492  0.62361  Biso   1.000  He
  He310    1.0000 0.51248  0.68517  0.65955  Biso   1.000  He
  Ne310    1.0000 0.54367  0.69022  0.67133  Biso   1.000  Ne
  Ne311    1.0000 0.68542  0.89805  0.17269  Biso   1.000  Ne
  He311    1.0000 0.70538  0.87388  0.18488  Biso   1.000  He
  He312    1.0000 0.71826  0.88015  0.21328  Biso   1.000  He
  Ne312    1.0000 0.73671  0.85638  0.22633  Biso   1.000  Ne
  Ne313    1.0000 0.78194  0.56764  0.61030  Biso   1.000  Ne
  He313    1.0000 0.77014  0.59696  0.61872  Biso   1.000  He
  He314    1.0000 0.79261  0.62140  0.61725  Biso   1.000  He
  Ne314    1.0000 0.78030  0.65291  0.62264  Biso   1.000  Ne
  Ne315    1.0000 0.91946  0.41066  0.78327  Biso   1.000  Ne
  He315    1.0000 0.93546  0.38432  0.79064  Biso   1.000  He
  He316    1.0000 0.96220  0.39274  0.81088  Biso   1.000  He
  Ne316    1.0000 0.97113  0.36713  0.82949  Biso   1.000  Ne
  Ne317    1.0000 0.81308  0.76805  0.94090  Biso   1.000  Ne
  He317    1.0000 0.82618  0.73619  0.94537  Biso   1.000  He
  He318    1.0000 0.80371  0.71250  0.93944  Biso   1.000  He
  Ne318    1.0000 0.81808  0.68192  0.94409  Biso   1.000  Ne
  Ne319    1.0000 0.91649  0.49478  0.56063  Biso   1.000  Ne
  He319    1.0000 0.93043  0.52636  0.55670  Biso   1.000  He
  He320    1.0000 0.96142  0.52822  0.56324  Biso   1.000  He
  Ne320    1.0000 0.97344  0.55858  0.56370  Biso   1.000  Ne
  Ne321    1.0000 0.39113  0.86544  0.65462  Biso   1.000  Ne
  He321    1.0000 0.39642  0.87765  0.68457  Biso   1.000  He
  He322    1.0000 0.41506  0.85922  0.70646  Biso   1.000  He
  Ne322    1.0000 0.41852  0.87019  0.73632  Biso   1.000  Ne
  Ne323    1.0000 0.84175  0.66233  0.43227  Biso   1.000  Ne
  He323    1.0000 0.87164  0.67196  0.43948  Biso   1.000  He
  He324    1.0000 0.87729  0.70686  0.44259  Biso   1.000  He
  Ne324    1.0000 0.90626  0.71544  0.45515  Biso   1.000  Ne
  Ne325    1.0000 0.35544  0.71765  0.24447  Biso   1.000  Ne
  He325    1.0000 0.34346  0.70700  0.21559  Biso   1.000  He
  He326    1.0000 0.32931  0.67639  0.21454  Biso   1.000  He
  Ne326    1.0000 0.31758  0.66790  0.18414  Biso   1.000  Ne
  Ne327    1.0000 0.78214  0.91360  0.27466  Biso   1.000  Ne
  He327    1.0000 0.81032  0.92777  0.28975  Biso   1.000  He
  He328    1.0000 0.80523  0.95550  0.30617  Biso   1.000  He
  Ne328    1.0000 0.83523  0.96582  0.31867  Biso   1.000  Ne
  Ne329    1.0000 0.43428  0.65389  0.44586  Biso   1.000  Ne
  He329    1.0000 0.46014  0.63529  0.45692  Biso   1.000  He
  He330    1.0000 0.47720  0.64932  0.48043  Biso   1.000  He
  Ne330    1.0000 0.49948  0.63003  0.49194  Biso   1.000  Ne
  Ne331    1.0000 0.56391  0.34313  0.72409  Biso   1.000  Ne
  He331    1.0000 0.56099  0.37299  0.70987  Biso   1.000  He
  He332    1.0000 0.55369  0.39670  0.72914  Biso   1.000  He
  Ne332    1.0000 0.55252  0.42664  0.71547  Biso   1.000  Ne
  Ne333    1.0000 0.73442  0.63696  0.76924  Biso   1.000  Ne
  He333    1.0000 0.73252  0.66731  0.76330  Biso   1.000  He
  He334    1.0000 0.71133  0.67397  0.74041  Biso   1.000  He
  Ne334    1.0000 0.70436  0.70521  0.73045  Biso   1.000  Ne
  Ne335    1.0000 0.91523  0.10709  0.21577  Biso   1.000  Ne
  He335    1.0000 0.89092  0.10552  0.23835  Biso   1.000  He
  He336    1.0000 0.86357  0.09890  0.22129  Biso   1.000  He
  Ne336    1.0000 0.83583  0.09840  0.24090  Biso   1.000  Ne
  Ne337    1.0000 0.71903  0.89416  0.32461  Biso   1.000  Ne
  He337    1.0000 0.69113  0.90332  0.34157  Biso   1.000  He
  He338    1.0000 0.66458  0.88270  0.33668  Biso   1.000  He
  Ne338    1.0000 0.63747  0.88922  0.35471  Biso   1.000  Ne
  Ne339    1.0000 0.94285  0.20477  0.88633  Biso   1.000  Ne
  He339    1.0000 0.92223  0.19375  0.86236  Biso   1.000  He
  He340    1.0000 0.93612  0.17704  0.83683  Biso   1.000  He
  Ne340    1.0000 0.91451  0.16678  0.81352  Biso   1.000  Ne
  Ne341    1.0000 0.67773  0.63033  0.59061  Biso   1.000  Ne
  He341    1.0000 0.68821  0.60283  0.59588  Biso   1.000  He
  He342    1.0000 0.66164  0.58273  0.60016  Biso   1.000  He
  Ne342    1.0000 0.66956  0.54878  0.60814  Biso   1.000  Ne
  Ne343    1.0000 0.07639  0.08381  0.08122  Biso   1.000  Ne
  He343    1.0000 0.09288  0.05754  0.06658  Biso   1.000  He
  He344    1.0000 0.07123  0.03308  0.05525  Biso   1.000  He
  Ne344    1.0000 0.08658  0.00710  0.03871  Biso   1.000  Ne
  Ne345    1.0000 0.08780  0.81931  0.91365  Biso   1.000  Ne
  He345    1.0000 0.09336  0.80543  0.94196  Biso   1.000  He
  He346    1.0000 0.10956  0.77749  0.93981  Biso   1.000  He
  Ne346    1.0000 0.08934  0.75218  0.94231  Biso   1.000  Ne
  Ne347    1.0000 0.31365  0.52714  0.67177  Biso   1.000  Ne
  He347    1.0000 0.32098  0.53463  0.63794  Biso   1.000  He
  He348    1.0000 0.34689  0.51643  0.62664  Biso   1.000  He
  Ne348    1.0000 0.35533  0.51942  0.59443  Biso   1.000  Ne
  Ne349    1.0000 0.73126  0.41213  0.73534  Biso   1.000  Ne
  He349    1.0000 0.71392  0.43576  0.72004  Biso   1.000  He
  He350    1.0000 0.72290  0.44047  0.69110  Biso   1.000  He
  Ne350    1.0000 0.70710  0.46277  0.67642  Biso   1.000  Ne
  Ne351    1.0000 0.54324  0.78406  0.94420  Biso   1.000  Ne
  He351    1.0000 0.56757  0.76833  0.92893  Biso   1.000  He
  He352    1.0000 0.59613  0.78424  0.92664  Biso   1.000  He
  Ne352    1.0000 0.61940  0.76801  0.90951  Biso   1.000  Ne
  Ne353    1.0000 0.35195  0.75571  0.36433  Biso   1.000  Ne
  He353    1.0000 0.37911  0.74774  0.34386  Biso   1.000  He
  He354    1.0000 0.40202  0.77196  0.33810  Biso   1.000  He
  Ne354    1.0000 0.42528  0.76076  0.31999  Biso   1.000  Ne
  Ne355    1.0000 0.38255  0.41679  0.15319  Biso   1.000  Ne
  He355    1.0000 0.40646  0.39612  0.16651  Biso   1.000  He
  He356    1.0000 0.40384  0.39253  0.19862  Biso   1.000  He
  Ne356    1.0000 0.42864  0.37262  0.21085  Biso   1.000  Ne
  Ne357    1.0000 0.37237  0.98863  0.89749  Biso   1.000  Ne
  He357    1.0000 0.37018  0.99638  0.93083  Biso   1.000  He
  He358    1.0000 0.37996  0.02957  0.93843  Biso   1.000  He
  Ne358    1.0000 0.38333  0.03328  0.97066  Biso   1.000  Ne
  Ne359    1.0000 0.71135  0.19726  0.90512  Biso   1.000  Ne
  He359    1.0000 0.69642  0.18935  0.93309  Biso   1.000  He
  He360    1.0000 0.71285  0.20493  0.96056  Biso   1.000  He
  Ne360    1.0000 0.69771  0.20034  0.99201  Biso   1.000  Ne
  Ne361    1.0000 0.58218  0.38905  0.81954  Biso   1.000  Ne
  He361    1.0000 0.58604  0.38261  0.85075  Biso   1.000  He
  He362    1.0000 0.60406  0.40558  0.86943  Biso   1.000  He
  Ne362    1.0000 0.59368  0.41123  0.90196  Biso   1.000  Ne
  Ne363    1.0000 0.22848  0.39331  0.59655  Biso   1.000  Ne
  He363    1.0000 0.19605  0.39571  0.60247  Biso   1.000  He
  He364    1.0000 0.18155  0.42763  0.59670  Biso   1.000  He
  Ne364    1.0000 0.14897  0.42962  0.60580  Biso   1.000  Ne
  Ne365    1.0000 0.81044  0.91037  0.91685  Biso   1.000  Ne
  He365    1.0000 0.81847  0.88038  0.92605  Biso   1.000  He
  He366    1.0000 0.84681  0.87656  0.93960  Biso   1.000  He
  Ne366    1.0000 0.85069  0.84571  0.94784  Biso   1.000  Ne
  Ne367    1.0000 0.03114  0.95938  0.72383  Biso   1.000  Ne
  He367    1.0000 0.01881  0.92767  0.72981  Biso   1.000  He
  He368    1.0000 0.98628  0.92617  0.73077  Biso   1.000  He
  Ne368    1.0000 0.97233  0.89473  0.72611  Biso   1.000  Ne
  Ne369    1.0000 0.82210  0.55934  0.06100  Biso   1.000  Ne
  He369    1.0000 0.81251  0.52830  0.07382  Biso   1.000  He
  He370    1.0000 0.80400  0.52936  0.10750  Biso   1.000  He
  Ne370    1.0000 0.80589  0.50084  0.12227  Biso   1.000  Ne
  Ne371    1.0000 0.21360  0.59274  0.58753  Biso   1.000  Ne
  He371    1.0000 0.18833  0.58161  0.60516  Biso   1.000  He
  He372    1.0000 0.16143  0.59675  0.59980  Biso   1.000  He
  Ne372    1.0000 0.13854  0.58727  0.62028  Biso   1.000  Ne
  Ne373    1.0000 0.70885  0.30537  0.42115  Biso   1.000  Ne
  He373    1.0000 0.71303  0.27237  0.42120  Biso   1.000  He
  He374    1.0000 0.74571  0.26883  0.42113  Biso   1.000  He
  Ne374    1.0000 0.75486  0.23713  0.42062  Biso   1.000  Ne
  Ne375    1.0000 0.69917  0.77046  0.39108  Biso   1.000  Ne
  He375    1.0000 0.67102  0.75220  0.38884  Biso   1.000  He
  He376    1.0000 0.64932  0.75015  0.41523  Biso   1.000  He
  Ne376    1.0000 0.64656  0.71979  0.42711  Biso   1.000  Ne
  Ne377    1.0000 0.41121  0.75046  0.44694  Biso   1.000  Ne
  He377    1.0000 0.41119  0.77107  0.42184  Biso   1.000  He
  He378    1.0000 0.40236  0.79905  0.43477  Biso   1.000  He
  Ne378    1.0000 0.39788  0.82366  0.41268  Biso   1.000  Ne
  Ne379    1.0000 0.14545  0.09215  0.13299  Biso   1.000  Ne
  He379    1.0000 0.17376  0.07562  0.13339  Biso   1.000  He
  He380    1.0000 0.19159  0.08240  0.10583  Biso   1.000  He
  Ne380    1.0000 0.21726  0.06629  0.09961  Biso   1.000  Ne
  Ne381    1.0000 0.28440  0.57724  0.74023  Biso   1.000  Ne
  He381    1.0000 0.29398  0.60885  0.74455  Biso   1.000  He
  He382    1.0000 0.29091  0.62650  0.71604  Biso   1.000  He
  Ne382    1.0000 0.30372  0.65653  0.71784  Biso   1.000  Ne
  Ne383    1.0000 0.42180  0.81164  0.79740  Biso   1.000  Ne
  He383    1.0000 0.44567  0.83041  0.81179  Biso   1.000  He
  He384    1.0000 0.45452  0.81860  0.84368  Biso   1.000  He
  Ne384    1.0000 0.47834  0.83612  0.85556  Biso   1.000  Ne
  Ne385    1.0000 0.33220  0.74552  0.94351  Biso   1.000  Ne
  He385    1.0000 0.32108  0.77482  0.93566  Biso   1.000  He
  He386    1.0000 0.29894  0.78620  0.95810  Biso   1.000  He
  Ne386    1.0000 0.29973  0.81748  0.96484  Biso   1.000  Ne
  Ne387    1.0000 0.28395  0.40733  0.11477  Biso   1.000  Ne
  He387    1.0000 0.25153  0.39998  0.10926  Biso   1.000  He
  He388    1.0000 0.24375  0.36667  0.10735  Biso   1.000  He
  Ne388    1.0000 0.20995  0.35824  0.10195  Biso   1.000  Ne
  Ne389    1.0000 0.18688  0.32432  0.40557  Biso   1.000  Ne
  He389    1.0000 0.21973  0.32551  0.40618  Biso   1.000  He
  He390    1.0000 0.23228  0.34640  0.42987  Biso   1.000  He
  Ne390    1.0000 0.26368  0.34265  0.43154  Biso   1.000  Ne
  Ne391    1.0000 0.79191  0.75418  0.29729  Biso   1.000  Ne
  He391    1.0000 0.80370  0.72618  0.30458  Biso   1.000  He
  He392    1.0000 0.78408  0.70277  0.29053  Biso   1.000  He
  Ne392    1.0000 0.79851  0.67272  0.28777  Biso   1.000  Ne
  Ne393    1.0000 0.43247  0.07333  0.57669  Biso   1.000  Ne
  He393    1.0000 0.43399  0.04152  0.58440  Biso   1.000  He
  He394    1.0000 0.46528  0.03192  0.59179  Biso   1.000  He
  Ne394    1.0000 0.46595  0.99831  0.59239  Biso   1.000  Ne
  Ne395    1.0000 0.72315  0.80851  0.46363  Biso   1.000  Ne
  He395    1.0000 0.75196  0.82326  0.46303  Biso   1.000  He
  He396    1.0000 0.76804  0.81386  0.43534  Biso   1.000  He
  Ne396    1.0000 0.79776  0.82656  0.42941  Biso   1.000  Ne
  Ne397    1.0000 0.15068  0.80787  0.68337  Biso   1.000  Ne
  He397    1.0000 0.16948  0.82531  0.70632  Biso   1.000  He
  He398    1.0000 0.16262  0.82231  0.73942  Biso   1.000  He
  Ne398    1.0000 0.18003  0.83803  0.75966  Biso   1.000  Ne
  Ne399    1.0000 0.26639  0.69102  0.78021  Biso   1.000  Ne
  He399    1.0000 0.23245  0.69562  0.78588  Biso   1.000  He
  He400    1.0000 0.22960  0.71091  0.81547  Biso   1.000  He
  Ne400    1.0000 0.19806  0.71623  0.82398  Biso   1.000  Ne
  Ne401    1.0000 0.10925  0.33061  0.30472  Biso   1.000  Ne
  He401    1.0000 0.11126  0.31853  0.33272  Biso   1.000  He
  He402    1.0000 0.09808  0.33817  0.35913  Biso   1.000  He
  Ne402    1.0000 0.09618  0.32503  0.38597  Biso   1.000  Ne
  Ne403    1.0000 0.07913  0.36671  0.58509  Biso   1.000  Ne
  He403    1.0000 0.08464  0.36975  0.61544  Biso   1.000  He
  He404    1.0000 0.07181  0.39987  0.62506  Biso   1.000  He
  Ne404    1.0000 0.08004  0.40887  0.65648  Biso   1.000  Ne
  Ne405    1.0000 0.13524  0.92567  0.76218  Biso   1.000  Ne
  He405    1.0000 0.13798  0.95518  0.74752  Biso   1.000  He
  He406    1.0000 0.13711  0.95452  0.71295  Biso   1.000  He
  Ne406    1.0000 0.13013  0.98532  0.70198  Biso   1.000  Ne
  Ne407    1.0000 0.33646  0.58022  0.82323  Biso   1.000  Ne
  He407    1.0000 0.31970  0.59293  0.85020  Biso   1.000  He
  He408    1.0000 0.33335  0.58499  0.87785  Biso   1.000  He
  Ne408    1.0000 0.31487  0.59959  0.90290  Biso   1.000  Ne
  Ne409    1.0000 0.43436  0.05272  0.22007  Biso   1.000  Ne
  He409    1.0000 0.42779  0.08313  0.23626  Biso   1.000  He
  He410    1.0000 0.40710  0.08136  0.26090  Biso   1.000  He
  Ne410    1.0000 0.40016  0.11118  0.27390  Biso   1.000  Ne
  Ne411    1.0000 0.63552  0.78423  0.74837  Biso   1.000  Ne
  He411    1.0000 0.62450  0.75519  0.76399  Biso   1.000  He
  He412    1.0000 0.62072  0.72911  0.74405  Biso   1.000  He
  Ne412    1.0000 0.60858  0.70315  0.75905  Biso   1.000  Ne
  Ne413    1.0000 0.45572  0.82754  0.94955  Biso   1.000  Ne
  He413    1.0000 0.42427  0.83302  0.96602  Biso   1.000  He
  He414    1.0000 0.40433  0.80206  0.96986  Biso   1.000  He
  Ne414    1.0000 0.37917  0.80803  0.99072  Biso   1.000  Ne
  Ne415    1.0000 0.41846  0.82747  0.12593  Biso   1.000  Ne
  He415    1.0000 0.38697  0.83934  0.12506  Biso   1.000  He
  He416    1.0000 0.38067  0.87120  0.12207  Biso   1.000  He
  Ne416    1.0000 0.34775  0.87525  0.11728  Biso   1.000  Ne
  Ne417    1.0000 0.74332  0.92580  0.11000  Biso   1.000  Ne
  He417    1.0000 0.77625  0.92202  0.10317  Biso   1.000  He
  He418    1.0000 0.79710  0.92231  0.12630  Biso   1.000  He
  Ne418    1.0000 0.82909  0.91686  0.11561  Biso   1.000  Ne
  Ne419    1.0000 0.09220  0.26832  0.20692  Biso   1.000  Ne
  He419    1.0000 0.10949  0.24960  0.18633  Biso   1.000  He
  He420    1.0000 0.10878  0.26081  0.15437  Biso   1.000  He
  Ne420    1.0000 0.12371  0.24038  0.13220  Biso   1.000  Ne
  Ne421    1.0000 0.34649  0.83686  0.84339  Biso   1.000  Ne
  He421    1.0000 0.37183  0.83748  0.86705  Biso   1.000  He
  He422    1.0000 0.37554  0.86928  0.87726  Biso   1.000  He
  Ne422    1.0000 0.39918  0.87210  0.90040  Biso   1.000  Ne
  Ne423    1.0000 0.54407  0.77717  0.08908  Biso   1.000  Ne
  He423    1.0000 0.55152  0.80957  0.08024  Biso   1.000  He
  He424    1.0000 0.56236  0.81323  0.04844  Biso   1.000  He
  Ne424    1.0000 0.58788  0.83693  0.04222  Biso   1.000  Ne
  Ne425    1.0000 0.57004  0.51261  0.02718  Biso   1.000  Ne
  He425    1.0000 0.55313  0.51801  0.05668  Biso   1.000  He
  He426    1.0000 0.54040  0.55029  0.05500  Biso   1.000  He
  Ne426    1.0000 0.52449  0.55675  0.08398  Biso   1.000  Ne
  Ne427    1.0000 0.41946  0.24401  0.35766  Biso   1.000  Ne
  He427    1.0000 0.40092  0.25029  0.32884  Biso   1.000  He
  He428    1.0000 0.41700  0.27479  0.31192  Biso   1.000  He
  Ne428    1.0000 0.40733  0.27902  0.28034  Biso   1.000  Ne
  Ne429    1.0000 0.35854  0.80851  0.27673  Biso   1.000  Ne
  He429    1.0000 0.37451  0.83808  0.27394  Biso   1.000  He
  He430    1.0000 0.39478  0.83706  0.24969  Biso   1.000  He
  Ne430    1.0000 0.41296  0.86485  0.24276  Biso   1.000  Ne
  Ne431    1.0000 0.38916  0.06478  0.44904  Biso   1.000  Ne
  He431    1.0000 0.37107  0.09416  0.45522  Biso   1.000  He
  He432    1.0000 0.34356  0.09890  0.44190  Biso   1.000  He
  Ne432    1.0000 0.32714  0.12548  0.45080  Biso   1.000  Ne
  Ne433    1.0000 0.56810  0.75995  0.38761  Biso   1.000  Ne
  He433    1.0000 0.58096  0.78602  0.37659  Biso   1.000  He
  He434    1.0000 0.56867  0.81147  0.39061  Biso   1.000  He
  Ne434    1.0000 0.58041  0.83940  0.37942  Biso   1.000  Ne
  Ne435    1.0000 0.70720  0.78441  0.79811  Biso   1.000  Ne
  He435    1.0000 0.68983  0.76427  0.81733  Biso   1.000  He
  He436    1.0000 0.68152  0.73403  0.80442  Biso   1.000  He
  Ne436    1.0000 0.66302  0.71731  0.82489  Biso   1.000  Ne
  Ne437    1.0000 0.32857  0.66207  0.52118  Biso   1.000  Ne
  He437    1.0000 0.35863  0.66927  0.53007  Biso   1.000  He
  He438    1.0000 0.37024  0.69602  0.51399  Biso   1.000  He
  Ne438    1.0000 0.40279  0.70280  0.51898  Biso   1.000  Ne
  Ne439    1.0000 0.89325  0.71474  0.28932  Biso   1.000  Ne
  He439    1.0000 0.90500  0.72107  0.31896  Biso   1.000  He
  He440    1.0000 0.89866  0.75139  0.33180  Biso   1.000  He
  Ne440    1.0000 0.91021  0.75386  0.36300  Biso   1.000  Ne
  Ne441    1.0000 0.09926  0.42580  0.38825  Biso   1.000  Ne
  He441    1.0000 0.07888  0.43139  0.36401  Biso   1.000  He
  He442    1.0000 0.09025  0.41780  0.33608  Biso   1.000  He
  Ne442    1.0000 0.07068  0.41967  0.30616  Biso   1.000  Ne
  Ne443    1.0000 0.13842  0.26713  0.93473  Biso   1.000  Ne
  He443    1.0000 0.12497  0.23957  0.94540  Biso   1.000  He
  He444    1.0000 0.13454  0.21502  0.92516  Biso   1.000  He
  Ne444    1.0000 0.11923  0.18634  0.93366  Biso   1.000  Ne
  Ne445    1.0000 0.32765  0.32252  0.89506  Biso   1.000  Ne
  He445    1.0000 0.35017  0.30670  0.91423  Biso   1.000  He
  He446    1.0000 0.35396  0.31948  0.94347  Biso   1.000  He
  Ne446    1.0000 0.38086  0.30876  0.95621  Biso   1.000  Ne
  Ne447    1.0000 0.57284  0.69286  0.29134  Biso   1.000  Ne
  He447    1.0000 0.57331  0.67426  0.26446  Biso   1.000  He
  He448    1.0000 0.60028  0.65722  0.26089  Biso   1.000  He
  Ne448    1.0000 0.60376  0.63795  0.23566  Biso   1.000  Ne
  Ne449    1.0000 0.18291  0.70674  0.24020  Biso   1.000  Ne
  He449    1.0000 0.20721  0.68265  0.23171  Biso   1.000  He
  He450    1.0000 0.21546  0.66163  0.25763  Biso   1.000  He
  Ne450    1.0000 0.23528  0.63717  0.24753  Biso   1.000  Ne
  Ne451    1.0000 0.66536  0.77831  0.08547  Biso   1.000  Ne
  He451    1.0000 0.68751  0.79798  0.06985  Biso   1.000  He
  He452    1.0000 0.67709  0.82951  0.06328  Biso   1.000  He
  Ne452    1.0000 0.68889  0.84236  0.03552  Biso   1.000  Ne
  Ne453    1.0000 0.93041  0.80119  0.94059  Biso   1.000  Ne
  He453    1.0000 0.92608  0.82524  0.91771  Biso   1.000  He
  He454    1.0000 0.93428  0.85773  0.92670  Biso   1.000  He
  Ne454    1.0000 0.92767  0.87916  0.90561  Biso   1.000  Ne
  Ne455    1.0000 0.56415  0.53579  0.74061  Biso   1.000  Ne
  He455    1.0000 0.58419  0.54219  0.71688  Biso   1.000  He
  He456    1.0000 0.59243  0.57522  0.71424  Biso   1.000  He
  Ne456    1.0000 0.61527  0.58008  0.68927  Biso   1.000  Ne
  Ne457    1.0000 0.02150  0.71696  0.07358  Biso   1.000  Ne
  He457    1.0000 0.01552  0.72008  0.04221  Biso   1.000  He
  He458    1.0000 0.03684  0.70142  0.02034  Biso   1.000  He
  Ne458    1.0000 0.03063  0.70307  0.98897  Biso   1.000  Ne
  Ne459    1.0000 0.23055  0.24035  0.59471  Biso   1.000  Ne
  He459    1.0000 0.25409  0.22325  0.58039  Biso   1.000  He
  He460    1.0000 0.26959  0.19970  0.59583  Biso   1.000  He
  Ne460    1.0000 0.29888  0.21189  0.60621  Biso   1.000  Ne
  Ne461    1.0000 0.38223  0.09613  0.35150  Biso   1.000  Ne
  He461    1.0000 0.40529  0.11354  0.36917  Biso   1.000  He
  He462    1.0000 0.40903  0.14504  0.36002  Biso   1.000  He
  Ne462    1.0000 0.42820  0.16114  0.38117  Biso   1.000  Ne
  Ne463    1.0000 0.35133  0.55939  0.30847  Biso   1.000  Ne
  He463    1.0000 0.32968  0.57460  0.28997  Biso   1.000  He
  He464    1.0000 0.33981  0.58456  0.25950  Biso   1.000  He
  Ne464    1.0000 0.31606  0.60384  0.24469  Biso   1.000  Ne
  Ne465    1.0000 0.33971  0.56264  0.40915  Biso   1.000  Ne
  He465    1.0000 0.31710  0.58097  0.42511  Biso   1.000  He
  He466    1.0000 0.29291  0.56603  0.44075  Biso   1.000  He
  Ne466    1.0000 0.27499  0.58742  0.45840  Biso   1.000  Ne
  Ne467    1.0000 0.91152  0.86290  0.20248  Biso   1.000  Ne
  He467    1.0000 0.90034  0.88853  0.18584  Biso   1.000  He
  He468    1.0000 0.92412  0.90997  0.17384  Biso   1.000  He
  Ne468    1.0000 0.90807  0.93227  0.15530  Biso   1.000  Ne
  Ne469    1.0000 0.79297  0.57731  0.40240  Biso   1.000  Ne
  He469    1.0000 0.76009  0.57826  0.41154  Biso   1.000  He
  He470    1.0000 0.75376  0.56305  0.43942  Biso   1.000  He
  Ne470    1.0000 0.72435  0.56753  0.45226  Biso   1.000  Ne
  Ne471    1.0000 0.84292  0.06387  0.70673  Biso   1.000  Ne
  He471    1.0000 0.83218  0.09342  0.71548  Biso   1.000  He
  He472    1.0000 0.84580  0.09958  0.74540  Biso   1.000  He
  Ne472    1.0000 0.84345  0.12899  0.75731  Biso   1.000  Ne
  Ne473    1.0000 0.04667  0.94719  0.07414  Biso   1.000  Ne
  He473    1.0000 0.04938  0.91208  0.07629  Biso   1.000  He
  He474    1.0000 0.06759  0.89924  0.09795  Biso   1.000  He
  Ne474    1.0000 0.06719  0.86452  0.10047  Biso   1.000  Ne
  Ne475    1.0000 0.82578  0.39817  0.81973  Biso   1.000  Ne
  He475    1.0000 0.80916  0.36910  0.81638  Biso   1.000  He
  He476    1.0000 0.81481  0.35213  0.78921  Biso   1.000  He
  Ne476    1.0000 0.79791  0.32497  0.78413  Biso   1.000  Ne
  Ne477    1.0000 0.69518  0.59001  0.84915  Biso   1.000  Ne
  He477    1.0000 0.67431  0.60330  0.82756  Biso   1.000  He
  He478    1.0000 0.66500  0.58675  0.80392  Biso   1.000  He
  Ne478    1.0000 0.64943  0.60197  0.78191  Biso   1.000  Ne
  Ne479    1.0000 0.25521  0.77837  0.77568  Biso   1.000  Ne
  He479    1.0000 0.24727  0.77736  0.74310  Biso   1.000  He
  He480    1.0000 0.26064  0.75103  0.72467  Biso   1.000  He
  Ne480    1.0000 0.25043  0.74748  0.69255  Biso   1.000  Ne
  Ne481    1.0000 0.81441  0.90786  0.63019  Biso   1.000  Ne
  He481    1.0000 0.80936  0.88674  0.65355  Biso   1.000  He
  He482    1.0000 0.79350  0.85852  0.64577  Biso   1.000  He
  Ne482    1.0000 0.78741  0.84055  0.67215  Biso   1.000  Ne
  Ne483    1.0000 0.60725  0.94654  0.20837  Biso   1.000  Ne
  He483    1.0000 0.60617  0.94594  0.23995  Biso   1.000  He
  He484    1.0000 0.58525  0.92606  0.25186  Biso   1.000  He
  Ne484    1.0000 0.57854  0.93064  0.28290  Biso   1.000  Ne
  Ne485    1.0000 0.39272  0.20040  0.61457  Biso   1.000  Ne
  He485    1.0000 0.39830  0.18694  0.64352  Biso   1.000  He
  He486    1.0000 0.41689  0.20615  0.66394  Biso   1.000  He
  Ne486    1.0000 0.42438  0.19064  0.68974  Biso   1.000  Ne
  Ne487    1.0000 0.23709  0.14499  0.44020  Biso   1.000  Ne
  He487    1.0000 0.24436  0.16855  0.42078  Biso   1.000  He
  He488    1.0000 0.26282  0.15516  0.39595  Biso   1.000  He
  Ne488    1.0000 0.26950  0.17698  0.37264  Biso   1.000  Ne
  Ne489    1.0000 0.48366  0.27139  0.56176  Biso   1.000  Ne
  He489    1.0000 0.51157  0.29117  0.55789  Biso   1.000  He
  He490    1.0000 0.54267  0.27668  0.55165  Biso   1.000  He
  Ne490    1.0000 0.57018  0.29723  0.54683  Biso   1.000  Ne
  Ne491    1.0000 0.56717  0.42208  0.97892  Biso   1.000  Ne
  He491    1.0000 0.54639  0.44787  0.97586  Biso   1.000  He
  He492    1.0000 0.53906  0.45808  0.94436  Biso   1.000  He
  Ne492    1.0000 0.52522  0.48867  0.94192  Biso   1.000  Ne
  Ne493    1.0000 0.95920  0.60906  0.97130  Biso   1.000  Ne
  He493    1.0000 0.92988  0.59219  0.96239  Biso   1.000  He
  He494    1.0000 0.90330  0.61211  0.96018  Biso   1.000  He
  Ne494    1.0000 0.89896  0.63375  0.93395  Biso   1.000  Ne
  Ne495    1.0000 0.71425  0.87973  0.41335  Biso   1.000  Ne
  He495    1.0000 0.68422  0.86266  0.41293  Biso   1.000  He
  He496    1.0000 0.66301  0.87238  0.43432  Biso   1.000  He
  Ne496    1.0000 0.63842  0.85032  0.43856  Biso   1.000  Ne
  Ne497    1.0000 0.15041  0.09179  0.94369  Biso   1.000  Ne
  He497    1.0000 0.18218  0.09127  0.93721  Biso   1.000  He
  He498    1.0000 0.19555  0.11951  0.92872  Biso   1.000  He
  Ne498    1.0000 0.22809  0.11812  0.92816  Biso   1.000  Ne
  Ne499    1.0000 0.09570  0.30110  0.65361  Biso   1.000  Ne
  He499    1.0000 0.11790  0.29439  0.63026  Biso   1.000  He
  He500    1.0000 0.11403  0.26588  0.61287  Biso   1.000  He
  Ne500    1.0000 0.13781  0.26132  0.58810  Biso   1.000  Ne
  Ne501    1.0000 0.08724  0.90886  0.17844  Biso   1.000  Ne
  He501    1.0000 0.08747  0.92297  0.20775  Biso   1.000  He
  He502    1.0000 0.09821  0.90531  0.23388  Biso   1.000  He
  Ne502    1.0000 0.09719  0.91915  0.26461  Biso   1.000  Ne
  Ne503    1.0000 0.43368  0.58121  0.35760  Biso   1.000  Ne
  He503    1.0000 0.44286  0.56087  0.37997  Biso   1.000  He
  He504    1.0000 0.45151  0.57512  0.40959  Biso   1.000  He
  Ne504    1.0000 0.46339  0.55396  0.42880  Biso   1.000  Ne
  Ne505    1.0000 0.58323  0.04878  0.63836  Biso   1.000  Ne
  He505    1.0000 0.58647  0.06868  0.61325  Biso   1.000  He
  He506    1.0000 0.57486  0.09955  0.61653  Biso   1.000  He
  Ne506    1.0000 0.57673  0.11688  0.58852  Biso   1.000  Ne
  Ne507    1.0000 0.86626  0.57523  0.43706  Biso   1.000  Ne
  He507    1.0000 0.89244  0.56561  0.45230  Biso   1.000  He
  He508    1.0000 0.91409  0.58967  0.45827  Biso   1.000  He
  Ne508    1.0000 0.93814  0.58110  0.47746  Biso   1.000  Ne
  Ne509    1.0000 0.63933  0.29485  0.70832  Biso   1.000  Ne
  He509    1.0000 0.62803  0.26325  0.71092  Biso   1.000  He
  He510    1.0000 0.63984  0.24058  0.68941  Biso   1.000  He
  Ne510    1.0000 0.62747  0.21127  0.69408  Biso   1.000  Ne
  Ne511    1.0000 0.58482  0.71734  0.59854  Biso   1.000  Ne
  He511    1.0000 0.58208  0.71392  0.56506  Biso   1.000  He
  He512    1.0000 0.55063  0.71656  0.55444  Biso   1.000  He
  Ne512    1.0000 0.54325  0.69472  0.53048  Biso   1.000  Ne
  Ne513    1.0000 0.81967  0.70089  0.82467  Biso   1.000  Ne
  He513    1.0000 0.82875  0.70671  0.79034  Biso   1.000  He
  He514    1.0000 0.84034  0.68065  0.77437  Biso   1.000  He
  Ne514    1.0000 0.81292  0.66089  0.76102  Biso   1.000  Ne
  Ne515    1.0000 0.85871  0.69190  0.60424  Biso   1.000  Ne
  He515    1.0000 0.87845  0.70485  0.62839  Biso   1.000  He
  He516    1.0000 0.90384  0.68916  0.63420  Biso   1.000  He
  Ne516    1.0000 0.92163  0.70339  0.65696  Biso   1.000  Ne
  Ne517    1.0000 0.12721  0.24170  0.30595  Biso   1.000  Ne
  He517    1.0000 0.14025  0.24459  0.27434  Biso   1.000  He
  He518    1.0000 0.17128  0.25925  0.27350  Biso   1.000  He
  Ne518    1.0000 0.17317  0.28983  0.25891  Biso   1.000  Ne
  Ne519    1.0000 0.74271  0.15611  0.41816  Biso   1.000  Ne
  He519    1.0000 0.77397  0.15007  0.42795  Biso   1.000  He
  He520    1.0000 0.77755  0.11878  0.44125  Biso   1.000  He
  Ne520    1.0000 0.80753  0.11051  0.45477  Biso   1.000  Ne
  Ne521    1.0000 0.09025  0.69685  0.30155  Biso   1.000  Ne
  He521    1.0000 0.08666  0.67897  0.27564  Biso   1.000  He
  He522    1.0000 0.07292  0.64900  0.28148  Biso   1.000  He
  Ne522    1.0000 0.09468  0.62209  0.28430  Biso   1.000  Ne
  Ne523    1.0000 0.72288  0.33388  0.78814  Biso   1.000  Ne
  He523    1.0000 0.69958  0.35289  0.79814  Biso   1.000  He
  He524    1.0000 0.71171  0.37724  0.81749  Biso   1.000  He
  Ne524    1.0000 0.68866  0.39815  0.82606  Biso   1.000  Ne
  Ne525    1.0000 0.11800  0.91484  0.85043  Biso   1.000  Ne
  He525    1.0000 0.15009  0.91979  0.86152  Biso   1.000  He
  He526    1.0000 0.17129  0.92030  0.83718  Biso   1.000  He
  Ne526    1.0000 0.20383  0.92836  0.84964  Biso   1.000  Ne
  Ne527    1.0000 0.33472  0.92095  0.59786  Biso   1.000  Ne
  He527    1.0000 0.32497  0.88756  0.59204  Biso   1.000  He
  He528    1.0000 0.30006  0.87936  0.61072  Biso   1.000  He
  Ne528    1.0000 0.28812  0.85013  0.60318  Biso   1.000  Ne
  Ne529    1.0000 0.58775  0.67916  0.85298  Biso   1.000  Ne
  He529    1.0000 0.59260  0.64748  0.85775  Biso   1.000  He
  He530    1.0000 0.58625  0.62537  0.83411  Biso   1.000  He
  Ne530    1.0000 0.58795  0.59395  0.84446  Biso   1.000  Ne
  Ne531    1.0000 0.35456  0.23592  0.10727  Biso   1.000  Ne
  He531    1.0000 0.32444  0.24863  0.10683  Biso   1.000  He
  He532    1.0000 0.30065  0.22665  0.10401  Biso   1.000  He
  Ne532    1.0000 0.26977  0.23987  0.10717  Biso   1.000  Ne
  Ne533    1.0000 0.20281  0.70983  0.61698  Biso   1.000  Ne
  He533    1.0000 0.19709  0.68777  0.64239  Biso   1.000  He
  He534    1.0000 0.22615  0.67939  0.65328  Biso   1.000  He
  Ne534    1.0000 0.22777  0.66099  0.68298  Biso   1.000  Ne
  Ne535    1.0000 0.92135  0.11532  0.66321  Biso   1.000  Ne
  He535    1.0000 0.94623  0.13583  0.66730  Biso   1.000  He
  He536    1.0000 0.94076  0.16427  0.65340  Biso   1.000  He
  Ne536    1.0000 0.96471  0.18621  0.65337  Biso   1.000  Ne
  Ne537    1.0000 0.91307  0.96283  0.08053  Biso   1.000  Ne
  He537    1.0000 0.91839  0.94138  0.05514  Biso   1.000  He
  He538    1.0000 0.94847  0.93481  0.04865  Biso   1.000  He
  Ne538    1.0000 0.95393  0.91542  0.02116  Biso   1.000  Ne
  Ne539    1.0000 0.18783  0.40045  0.35409  Biso   1.000  Ne
  He539    1.0000 0.19598  0.41220  0.38394  Biso   1.000  He
  He540    1.0000 0.17403  0.40417  0.40536  Biso   1.000  He
  Ne540    1.0000 0.18248  0.41427  0.43591  Biso   1.000  Ne
  Ne541    1.0000 0.14083  0.57896  0.36513  Biso   1.000  Ne
  He541    1.0000 0.16762  0.59082  0.37667  Biso   1.000  He
  He542    1.0000 0.17804  0.57837  0.40499  Biso   1.000  He
  Ne542    1.0000 0.20941  0.59121  0.41413  Biso   1.000  Ne
  Ne543    1.0000 0.81555  0.56852  0.29164  Biso   1.000  Ne
  He543    1.0000 0.78701  0.58939  0.29612  Biso   1.000  He
  He544    1.0000 0.77509  0.58852  0.32577  Biso   1.000  He
  Ne544    1.0000 0.75180  0.60865  0.33193  Biso   1.000  Ne
  Ne545    1.0000 0.29707  0.23524  0.41604  Biso   1.000  Ne
  He545    1.0000 0.31491  0.21343  0.43121  Biso   1.000  He
  He546    1.0000 0.34691  0.22543  0.43673  Biso   1.000  He
  Ne546    1.0000 0.37028  0.20587  0.45099  Biso   1.000  Ne
  Ne547    1.0000 0.17887  0.90167  0.17477  Biso   1.000  Ne
  He547    1.0000 0.17006  0.90902  0.14419  Biso   1.000  He
  He548    1.0000 0.15746  0.88536  0.12500  Biso   1.000  He
  Ne548    1.0000 0.14602  0.89414  0.09719  Biso   1.000  Ne
  Ne549    1.0000 0.67793  0.10711  0.32043  Biso   1.000  Ne
  He549    1.0000 0.67793  0.08436  0.29562  Biso   1.000  He
  He550    1.0000 0.70624  0.08086  0.27853  Biso   1.000  He
  Ne550    1.0000 0.70325  0.05888  0.25344  Biso   1.000  Ne
  Ne551    1.0000 0.90748  0.33326  0.41443  Biso   1.000  Ne
  He551    1.0000 0.91473  0.36460  0.40117  Biso   1.000  He
  He552    1.0000 0.88960  0.38790  0.40092  Biso   1.000  He
  Ne552    1.0000 0.90322  0.41813  0.39253  Biso   1.000  Ne
  Ne553    1.0000 0.18067  0.08215  0.22157  Biso   1.000  Ne
  He553    1.0000 0.21153  0.08165  0.23777  Biso   1.000  He
  He554    1.0000 0.23702  0.09311  0.22092  Biso   1.000  He
  Ne554    1.0000 0.26585  0.09596  0.23863  Biso   1.000  Ne
  Ne555    1.0000 0.60290  0.23241  0.31134  Biso   1.000  Ne
  He555    1.0000 0.57756  0.25662  0.30774  Biso   1.000  He
  He556    1.0000 0.57456  0.27697  0.33458  Biso   1.000  He
  Ne556    1.0000 0.55489  0.30218  0.33323  Biso   1.000  Ne
  Ne557    1.0000 0.08964  0.63157  0.43024  Biso   1.000  Ne
  He557    1.0000 0.07856  0.65944  0.41777  Biso   1.000  He
  He558    1.0000 0.07800  0.68334  0.44311  Biso   1.000  He
  Ne558    1.0000 0.06325  0.71147  0.43627  Biso   1.000  Ne
  Ne559    1.0000 0.53342  0.09089  0.21606  Biso   1.000  Ne
  He559    1.0000 0.54377  0.05921  0.21797  Biso   1.000  He
  He560    1.0000 0.53807  0.04158  0.24666  Biso   1.000  He
  Ne560    1.0000 0.54065  0.00754  0.24397  Biso   1.000  Ne
  Ne561    1.0000 0.63813  0.17030  0.59171  Biso   1.000  Ne
  He561    1.0000 0.65468  0.19306  0.60982  Biso   1.000  He
  He562    1.0000 0.68876  0.18877  0.60965  Biso   1.000  He
  Ne562    1.0000 0.70817  0.21000  0.62526  Biso   1.000  Ne
  Ne563    1.0000 0.41891  0.19762  0.24945  Biso   1.000  Ne
  He563    1.0000 0.44351  0.18276  0.23081  Biso   1.000  He
  He564    1.0000 0.43481  0.16074  0.20725  Biso   1.000  He
  Ne564    1.0000 0.46086  0.14409  0.19462  Biso   1.000  Ne
  Ne565    1.0000 0.10327  0.68668  0.10030  Biso   1.000  Ne
  He565    1.0000 0.09564  0.71796  0.09701  Biso   1.000  He
  He566    1.0000 0.08047  0.73440  0.12169  Biso   1.000  He
  Ne566    1.0000 0.07515  0.76554  0.11583  Biso   1.000  Ne
  Ne567    1.0000 0.57287  0.07501  0.43307  Biso   1.000  Ne
  He567    1.0000 0.58525  0.10140  0.44499  Biso   1.000  He
  He568    1.0000 0.58932  0.12889  0.42291  Biso   1.000  He
  Ne568    1.0000 0.59939  0.15776  0.43706  Biso   1.000  Ne
  Ne569    1.0000 0.46431  0.56330  0.99794  Biso   1.000  Ne
  He569    1.0000 0.44535  0.55400  0.02345  Biso   1.000  He
  He570    1.0000 0.44611  0.52184  0.03178  Biso   1.000  He
  Ne570    1.0000 0.43204  0.51151  0.05694  Biso   1.000  Ne
  Ne571    1.0000 0.37417  0.20280  0.90667  Biso   1.000  Ne
  He571    1.0000 0.39937  0.22428  0.89631  Biso   1.000  He
  He572    1.0000 0.41352  0.24272  0.92157  Biso   1.000  He
  Ne572    1.0000 0.43899  0.26217  0.91565  Biso   1.000  Ne
  Ne573    1.0000 0.31681  0.67491  0.83964  Biso   1.000  Ne
  He573    1.0000 0.33938  0.70055  0.83995  Biso   1.000  He
  He574    1.0000 0.33670  0.71517  0.80994  Biso   1.000  He
  Ne574    1.0000 0.35147  0.74625  0.80933  Biso   1.000  Ne
  Ne575    1.0000 0.83810  0.38915  0.69303  Biso   1.000  Ne
  He575    1.0000 0.86734  0.38683  0.67787  Biso   1.000  He
  He576    1.0000 0.89347  0.40094  0.69255  Biso   1.000  He
  Ne576    1.0000 0.92221  0.39525  0.67688  Biso   1.000  Ne
  Ne577    1.0000 0.69768  0.58411  0.09420  Biso   1.000  Ne
  He577    1.0000 0.66661  0.59029  0.09763  Biso   1.000  He
  He578    1.0000 0.65805  0.57980  0.12609  Biso   1.000  He
  Ne578    1.0000 0.62521  0.58375  0.13341  Biso   1.000  Ne
  Ne579    1.0000 0.63692  0.39786  0.18905  Biso   1.000  Ne
  He579    1.0000 0.61116  0.39103  0.16950  Biso   1.000  He
  He580    1.0000 0.61970  0.37708  0.13925  Biso   1.000  He
  Ne580    1.0000 0.59332  0.37032  0.11820  Biso   1.000  Ne
  Ne581    1.0000 0.00999  0.59476  0.85770  Biso   1.000  Ne
  He581    1.0000 0.03472  0.57263  0.86139  Biso   1.000  He
  He582    1.0000 0.02904  0.55148  0.88840  Biso   1.000  He
  Ne582    1.0000 0.05969  0.54200  0.89668  Biso   1.000  Ne
  Ne583    1.0000 0.66659  0.86145  0.70330  Biso   1.000  Ne
  He583    1.0000 0.69729  0.86733  0.71087  Biso   1.000  He
  He584    1.0000 0.70785  0.89840  0.70220  Biso   1.000  He
  Ne584    1.0000 0.73975  0.90673  0.70588  Biso   1.000  Ne
  Ne585    1.0000 0.41678  0.63163  0.73436  Biso   1.000  Ne
  He585    1.0000 0.39890  0.60221  0.73157  Biso   1.000  He
  He586    1.0000 0.41511  0.57318  0.73556  Biso   1.000  He
  Ne586    1.0000 0.39504  0.54790  0.72937  Biso   1.000  Ne
  Ne587    1.0000 0.69076  0.69157  0.24329  Biso   1.000  Ne
  He587    1.0000 0.69668  0.68410  0.27517  Biso   1.000  He
  He588    1.0000 0.69596  0.71071  0.29615  Biso   1.000  He
  Ne588    1.0000 0.70156  0.70363  0.32821  Biso   1.000  Ne
  Ne589    1.0000 0.28488  0.84614  0.68600  Biso   1.000  Ne
  He589    1.0000 0.30634  0.84066  0.71250  Biso   1.000  He
  He590    1.0000 0.31542  0.80976  0.71589  Biso   1.000  He
  Ne590    1.0000 0.33472  0.80487  0.74302  Biso   1.000  Ne
  Ne591    1.0000 0.73033  0.77320  0.61733  Biso   1.000  Ne
  He591    1.0000 0.70508  0.75345  0.61461  Biso   1.000  He
  He592    1.0000 0.71367  0.72682  0.59893  Biso   1.000  He
  Ne592    1.0000 0.68856  0.70446  0.59586  Biso   1.000  Ne
  Ne593    1.0000 0.45293  0.92612  0.86008  Biso   1.000  Ne
  He593    1.0000 0.45762  0.92460  0.82768  Biso   1.000  He
  He594    1.0000 0.43028  0.92790  0.80949  Biso   1.000  He
  Ne594    1.0000 0.43561  0.93886  0.77874  Biso   1.000  Ne
  Ne595    1.0000 0.32859  0.08223  0.60298  Biso   1.000  Ne
  He595    1.0000 0.29692  0.07530  0.60554  Biso   1.000  He
  He596    1.0000 0.28234  0.08985  0.63300  Biso   1.000  He
  Ne596    1.0000 0.25400  0.07535  0.63538  Biso   1.000  Ne
  Ne597    1.0000 0.58761  0.24404  0.80565  Biso   1.000  Ne
  He597    1.0000 0.61206  0.26570  0.80392  Biso   1.000  He
  He598    1.0000 0.60142  0.29793  0.79790  Biso   1.000  He
  Ne598    1.0000 0.62601  0.31794  0.79513  Biso   1.000  Ne
  Ne599    1.0000 0.28779  0.24338  0.94070  Biso   1.000  Ne
  He599    1.0000 0.28087  0.27442  0.94924  Biso   1.000  He
  He600    1.0000 0.26251  0.29380  0.92851  Biso   1.000  He
  Ne600    1.0000 0.25546  0.32452  0.93986  Biso   1.000  Ne
