data_image0
_cell_length_a       46.4357
_cell_length_b       46.8266
_cell_length_c       46.5236
_cell_angle_alpha    90
_cell_angle_beta     90
_cell_angle_gamma    90

_symmetry_space_group_name_H-M    "P 1"
_symmetry_int_tables_number       1

loop_
  _symmetry_equiv_pos_as_xyz
  'x, y, z'

loop_
  _atom_site_label
  _atom_site_occupancy
  _atom_site_fract_x
  _atom_site_fract_y
  _atom_site_fract_z
  _atom_site_thermal_displace_type
  _atom_site_B_iso_or_equiv
  _atom_site_type_symbol
  Ne1      1.0000 0.86026  0.15105  0.97861  Biso   1.000  Ne
  He1      1.0000 0.89092  0.16531  0.97330  Biso   1.000  He
  He2      1.0000 0.91646  0.14557  0.97717  Biso   1.000  He
  Ne2      1.0000 0.94551  0.16178  0.97642  Biso   1.000  Ne
  Ne3      1.0000 0.23002  0.40983  0.19354  Biso   1.000  Ne
  He3      1.0000 0.25975  0.42166  0.18303  Biso   1.000  He
  He4      1.0000 0.28467  0.40172  0.19343  Biso   1.000  He
  Ne4      1.0000 0.31364  0.40732  0.18257  Biso   1.000  Ne
  Ne5      1.0000 0.59164  0.06304  0.77270  Biso   1.000  Ne
  He5      1.0000 0.62113  0.07579  0.76790  Biso   1.000  He
  He6      1.0000 0.62009  0.11053  0.76627  Biso   1.000  He
  Ne6      1.0000 0.65103  0.12151  0.76119  Biso   1.000  Ne
  Ne7      1.0000 0.21935  0.03723  0.96777  Biso   1.000  Ne
  He7      1.0000 0.24305  0.06035  0.96207  Biso   1.000  He
  He8      1.0000 0.27420  0.04934  0.94866  Biso   1.000  He
  Ne8      1.0000 0.29823  0.07103  0.94960  Biso   1.000  Ne
  Ne9      1.0000 0.79458  0.11382  0.54840  Biso   1.000  Ne
  He9      1.0000 0.80975  0.13212  0.57348  Biso   1.000  He
  He10     1.0000 0.81103  0.11674  0.60440  Biso   1.000  He
  Ne10     1.0000 0.78537  0.12227  0.62716  Biso   1.000  Ne
  Ne11     1.0000 0.79147  0.57488  0.34972  Biso   1.000  Ne
  He11     1.0000 0.82426  0.56636  0.34284  Biso   1.000  He
  He12     1.0000 0.84388  0.55415  0.36728  Biso   1.000  He
  Ne12     1.0000 0.87359  0.54723  0.35663  Biso   1.000  Ne
  Ne13     1.0000 0.08769  0.79450  0.98976  Biso   1.000  Ne
  He13     1.0000 0.12050  0.79957  0.99643  Biso   1.000  He
  He14     1.0000 0.14000  0.78516  0.97317  Biso   1.000  He
  Ne14     1.0000 0.17284  0.78663  0.97978  Biso   1.000  Ne
  Ne15     1.0000 0.24786  0.56205  0.49921  Biso   1.000  Ne
  He15     1.0000 0.21948  0.54304  0.50603  Biso   1.000  He
  He16     1.0000 0.19453  0.53914  0.48438  Biso   1.000  He
  Ne16     1.0000 0.16686  0.52668  0.49846  Biso   1.000  Ne
  Ne17     1.0000 0.31800  0.63308  0.64332  Biso   1.000  Ne
  He17     1.0000 0.31050  0.61308  0.61734  Biso   1.000  He
  He18     1.0000 0.32474  0.58420  0.61955  Biso   1.000  He
  Ne18     1.0000 0.31732  0.56114  0.59525  Biso   1.000  Ne
  Ne19     1.0000 0.96920  0.07197  0.01680  Biso   1.000  Ne
  He19     1.0000 0.96716  0.04133  0.02968  Biso   1.000  He
  He20     1.0000 0.98654  0.01817  0.01649  Biso   1.000  He
  Ne20     1.0000 0.98089  0.98757  0.03191  Biso   1.000  Ne
  Ne21     1.0000 0.78631  0.59081  0.24046  Biso   1.000  Ne
  He21     1.0000 0.75553  0.58470  0.23132  Biso   1.000  He
  He22     1.0000 0.74643  0.55407  0.22737  Biso   1.000  He
  Ne22     1.0000 0.71576  0.55097  0.21660  Biso   1.000  Ne
  Ne23     1.0000 0.74990  0.77267  0.45663  Biso   1.000  Ne
  He23     1.0000 0.77182  0.74844  0.45232  Biso   1.000  He
  He24     1.0000 0.76672  0.72253  0.47130  Biso   1.000  He
  Ne24     1.0000 0.79324  0.70085  0.46979  Biso   1.000  Ne
  Ne25     1.0000 0.09414  0.05633  0.95029  Biso   1.000  Ne
  He25     1.0000 0.08654  0.03599  0.97332  Biso   1.000  He
  He26     1.0000 0.10318  0.03931  0.00334  Biso   1.000  He
  Ne26     1.0000 0.09211  0.01352  0.02391  Biso   1.000  Ne
  Ne27     1.0000 0.41194  0.70487  0.42277  Biso   1.000  Ne
  He27     1.0000 0.42524  0.71803  0.45005  Biso   1.000  He
  He28     1.0000 0.44839  0.74185  0.44438  Biso   1.000  He
  Ne28     1.0000 0.46288  0.75286  0.47167  Biso   1.000  Ne
  Ne29     1.0000 0.29498  0.46984  0.69947  Biso   1.000  Ne
  He29     1.0000 0.31330  0.47641  0.72611  Biso   1.000  He
  He30     1.0000 0.34074  0.45486  0.73193  Biso   1.000  He
  Ne30     1.0000 0.35468  0.45982  0.76078  Biso   1.000  Ne
  Ne31     1.0000 0.44096  0.86652  0.67409  Biso   1.000  Ne
  He31     1.0000 0.44417  0.86068  0.64167  Biso   1.000  He
  He32     1.0000 0.44437  0.88826  0.62407  Biso   1.000  He
  Ne32     1.0000 0.44825  0.88679  0.59116  Biso   1.000  Ne
  Ne33     1.0000 0.70689  0.55945  0.91275  Biso   1.000  Ne
  He33     1.0000 0.69888  0.56237  0.88280  Biso   1.000  He
  He34     1.0000 0.71291  0.58642  0.86470  Biso   1.000  He
  Ne34     1.0000 0.71008  0.57912  0.83376  Biso   1.000  Ne
  Ne35     1.0000 0.20531  0.56159  0.82990  Biso   1.000  Ne
  He35     1.0000 0.23318  0.55080  0.84682  Biso   1.000  He
  He36     1.0000 0.24726  0.57423  0.86380  Biso   1.000  He
  Ne36     1.0000 0.27421  0.56359  0.88286  Biso   1.000  Ne
  Ne37     1.0000 0.57555  0.72437  0.87696  Biso   1.000  Ne
  He37     1.0000 0.56975  0.75770  0.87597  Biso   1.000  He
  He38     1.0000 0.54203  0.76753  0.89007  Biso   1.000  He
  Ne38     1.0000 0.53636  0.80022  0.88280  Biso   1.000  Ne
  Ne39     1.0000 0.24911  0.01967  0.45834  Biso   1.000  Ne
  He39     1.0000 0.24785  0.99486  0.43571  Biso   1.000  He
  He40     1.0000 0.21804  0.97712  0.43444  Biso   1.000  He
  Ne40     1.0000 0.22271  0.95121  0.41514  Biso   1.000  Ne
  Ne41     1.0000 0.47020  0.73627  0.31154  Biso   1.000  Ne
  He41     1.0000 0.44951  0.71069  0.30190  Biso   1.000  He
  He42     1.0000 0.45857  0.69010  0.27928  Biso   1.000  He
  Ne42     1.0000 0.43663  0.66363  0.27188  Biso   1.000  Ne
  Ne43     1.0000 0.39427  0.18460  0.66398  Biso   1.000  Ne
  He43     1.0000 0.39107  0.15593  0.64236  Biso   1.000  He
  He44     1.0000 0.41343  0.13181  0.65093  Biso   1.000  He
  Ne44     1.0000 0.41959  0.11251  0.62931  Biso   1.000  Ne
  Ne45     1.0000 0.95858  0.82105  0.35104  Biso   1.000  Ne
  He45     1.0000 0.93757  0.80784  0.32602  Biso   1.000  He
  He46     1.0000 0.94552  0.82025  0.29661  Biso   1.000  He
  Ne46     1.0000 0.92666  0.80345  0.27282  Biso   1.000  Ne
  Ne47     1.0000 0.57228  0.13411  0.18496  Biso   1.000  Ne
  He47     1.0000 0.54574  0.11950  0.16828  Biso   1.000  He
  He48     1.0000 0.52985  0.09686  0.18594  Biso   1.000  He
  Ne48     1.0000 0.50416  0.08341  0.16791  Biso   1.000  Ne
  Ne49     1.0000 0.52862  0.06140  0.63169  Biso   1.000  Ne
  He49     1.0000 0.49849  0.04612  0.63441  Biso   1.000  He
  He50     1.0000 0.48093  0.04959  0.60890  Biso   1.000  He
  Ne50     1.0000 0.45156  0.03124  0.61118  Biso   1.000  Ne
  Ne51     1.0000 0.56281  0.57264  0.01167  Biso   1.000  Ne
  He51     1.0000 0.59500  0.56274  0.01237  Biso   1.000  He
  He52     1.0000 0.60968  0.57160  0.98724  Biso   1.000  He
  Ne52     1.0000 0.64172  0.56401  0.98928  Biso   1.000  Ne
  Ne53     1.0000 0.73394  0.00678  0.26907  Biso   1.000  Ne
  He53     1.0000 0.72371  0.02944  0.29196  Biso   1.000  He
  He54     1.0000 0.69212  0.03426  0.29103  Biso   1.000  He
  Ne54     1.0000 0.67704  0.02929  0.32240  Biso   1.000  Ne
  Ne55     1.0000 0.40772  0.99073  0.29845  Biso   1.000  Ne
  He55     1.0000 0.38255  0.01296  0.30284  Biso   1.000  He
  He56     1.0000 0.39231  0.04511  0.30866  Biso   1.000  He
  Ne56     1.0000 0.36878  0.06575  0.32372  Biso   1.000  Ne
  Ne57     1.0000 0.08687  0.88134  0.02610  Biso   1.000  Ne
  He57     1.0000 0.06683  0.90733  0.01908  Biso   1.000  He
  He58     1.0000 0.07104  0.91865  0.98903  Biso   1.000  He
  Ne58     1.0000 0.04907  0.93930  0.97861  Biso   1.000  Ne
  Ne59     1.0000 0.86558  0.32804  0.49271  Biso   1.000  Ne
  He59     1.0000 0.85479  0.35560  0.47658  Biso   1.000  He
  He60     1.0000 0.86418  0.38552  0.49180  Biso   1.000  He
  Ne60     1.0000 0.85983  0.41132  0.46957  Biso   1.000  Ne
  Ne61     1.0000 0.66920  0.71734  0.43657  Biso   1.000  Ne
  He61     1.0000 0.65431  0.74415  0.44292  Biso   1.000  He
  He62     1.0000 0.65742  0.74935  0.47564  Biso   1.000  He
  Ne62     1.0000 0.64257  0.77907  0.48832  Biso   1.000  Ne
  Ne63     1.0000 0.39386  0.31895  0.81524  Biso   1.000  Ne
  He63     1.0000 0.38271  0.34933  0.81636  Biso   1.000  He
  He64     1.0000 0.39484  0.36778  0.84207  Biso   1.000  He
  Ne64     1.0000 0.38752  0.40264  0.84382  Biso   1.000  Ne
  Ne65     1.0000 0.45556  0.15463  0.47152  Biso   1.000  Ne
  He65     1.0000 0.44140  0.18024  0.45218  Biso   1.000  He
  He66     1.0000 0.46177  0.20767  0.44500  Biso   1.000  He
  Ne66     1.0000 0.44681  0.22699  0.42415  Biso   1.000  Ne
  Ne67     1.0000 0.56356  0.74315  0.14532  Biso   1.000  Ne
  He67     1.0000 0.53757  0.73714  0.12401  Biso   1.000  He
  He68     1.0000 0.54170  0.74729  0.09175  Biso   1.000  He
  Ne68     1.0000 0.51392  0.74262  0.07137  Biso   1.000  Ne
  Ne69     1.0000 0.59935  0.29426  0.19886  Biso   1.000  Ne
  He69     1.0000 0.61316  0.31873  0.17965  Biso   1.000  He
  He70     1.0000 0.62393  0.31062  0.14787  Biso   1.000  He
  Ne70     1.0000 0.63386  0.33607  0.13125  Biso   1.000  Ne
  Ne71     1.0000 0.70752  0.29319  0.14781  Biso   1.000  Ne
  He71     1.0000 0.69983  0.29593  0.17933  Biso   1.000  He
  He72     1.0000 0.71382  0.32232  0.19517  Biso   1.000  He
  Ne72     1.0000 0.70645  0.32473  0.22474  Biso   1.000  Ne
  Ne73     1.0000 0.57768  0.54131  0.16763  Biso   1.000  Ne
  He73     1.0000 0.60686  0.52820  0.15596  Biso   1.000  He
  He74     1.0000 0.62948  0.55051  0.14998  Biso   1.000  He
  Ne74     1.0000 0.65791  0.53778  0.13966  Biso   1.000  Ne
  Ne75     1.0000 0.84470  0.69229  0.28680  Biso   1.000  Ne
  He75     1.0000 0.86179  0.68885  0.31500  Biso   1.000  He
  He76     1.0000 0.84827  0.66881  0.33948  Biso   1.000  He
  Ne76     1.0000 0.86473  0.66804  0.37015  Biso   1.000  Ne
  Ne77     1.0000 0.40974  0.54702  0.14355  Biso   1.000  Ne
  He77     1.0000 0.43980  0.53184  0.14629  Biso   1.000  He
  He78     1.0000 0.44648  0.52414  0.17662  Biso   1.000  He
  Ne78     1.0000 0.47697  0.51605  0.17832  Biso   1.000  Ne
  Ne79     1.0000 0.37033  0.61400  0.88272  Biso   1.000  Ne
  He79     1.0000 0.37948  0.58557  0.88770  Biso   1.000  He
  He80     1.0000 0.40929  0.58427  0.90424  Biso   1.000  He
  Ne80     1.0000 0.41766  0.55401  0.91192  Biso   1.000  Ne
  Ne81     1.0000 0.60826  0.66075  0.14548  Biso   1.000  Ne
  He81     1.0000 0.64043  0.66451  0.15637  Biso   1.000  He
  He82     1.0000 0.66094  0.63861  0.15477  Biso   1.000  He
  Ne82     1.0000 0.69066  0.64469  0.16366  Biso   1.000  Ne
  Ne83     1.0000 0.37308  0.04072  0.63446  Biso   1.000  Ne
  He83     1.0000 0.34051  0.04183  0.63853  Biso   1.000  He
  He84     1.0000 0.32685  0.07207  0.64753  Biso   1.000  He
  Ne84     1.0000 0.29534  0.06981  0.65401  Biso   1.000  Ne
  Ne85     1.0000 0.82389  0.56301  0.76550  Biso   1.000  Ne
  He85     1.0000 0.85230  0.54904  0.77678  Biso   1.000  He
  He86     1.0000 0.87761  0.56681  0.76514  Biso   1.000  He
  Ne86     1.0000 0.90849  0.55184  0.76892  Biso   1.000  Ne
  Ne87     1.0000 0.84628  0.06042  0.18501  Biso   1.000  Ne
  He87     1.0000 0.83917  0.05280  0.21260  Biso   1.000  He
  He88     1.0000 0.82189  0.07532  0.23170  Biso   1.000  He
  Ne88     1.0000 0.80936  0.06370  0.25941  Biso   1.000  Ne
  Ne89     1.0000 0.34821  0.33299  0.40210  Biso   1.000  Ne
  He89     1.0000 0.37935  0.32422  0.39489  Biso   1.000  He
  He90     1.0000 0.39949  0.31771  0.42176  Biso   1.000  He
  Ne90     1.0000 0.43041  0.30647  0.41504  Biso   1.000  Ne
  Ne91     1.0000 0.37449  0.63792  0.18398  Biso   1.000  Ne
  He91     1.0000 0.40632  0.63906  0.17848  Biso   1.000  He
  He92     1.0000 0.42282  0.61179  0.18578  Biso   1.000  He
  Ne92     1.0000 0.45384  0.60944  0.17548  Biso   1.000  Ne
  Ne93     1.0000 0.70788  0.39755  0.95014  Biso   1.000  Ne
  He93     1.0000 0.67970  0.39776  0.93254  Biso   1.000  He
  He94     1.0000 0.68357  0.39108  0.89910  Biso   1.000  He
  Ne94     1.0000 0.65633  0.39355  0.87787  Biso   1.000  Ne
  Ne95     1.0000 0.73320  0.15527  0.11610  Biso   1.000  Ne
  He95     1.0000 0.72127  0.15859  0.14679  Biso   1.000  He
  He96     1.0000 0.73162  0.13356  0.16744  Biso   1.000  He
  Ne96     1.0000 0.71307  0.13458  0.19664  Biso   1.000  Ne
  Ne97     1.0000 0.94554  0.63192  0.37117  Biso   1.000  Ne
  He97     1.0000 0.93450  0.60350  0.38766  Biso   1.000  He
  He98     1.0000 0.95710  0.58866  0.40621  Biso   1.000  He
  Ne98     1.0000 0.94336  0.56177  0.41803  Biso   1.000  Ne
  Ne99     1.0000 0.13077  0.67546  0.96539  Biso   1.000  Ne
  He99     1.0000 0.11607  0.64213  0.96622  Biso   1.000  He
  He100    1.0000 0.08653  0.64059  0.95276  Biso   1.000  He
  Ne100    1.0000 0.07940  0.60861  0.94624  Biso   1.000  Ne
  Ne101    1.0000 0.11373  0.75170  0.15219  Biso   1.000  Ne
  He101    1.0000 0.14404  0.76373  0.14611  Biso   1.000  He
  He102    1.0000 0.15206  0.79520  0.15215  Biso   1.000  He
  Ne102    1.0000 0.18399  0.79999  0.14606  Biso   1.000  Ne
  Ne103    1.0000 0.10130  0.14594  0.91254  Biso   1.000  Ne
  He103    1.0000 0.09271  0.11560  0.90465  Biso   1.000  He
  He104    1.0000 0.09512  0.11190  0.87373  Biso   1.000  He
  Ne104    1.0000 0.08004  0.08516  0.86014  Biso   1.000  Ne
  Ne105    1.0000 0.18759  0.42946  0.26879  Biso   1.000  Ne
  He105    1.0000 0.16999  0.40464  0.28247  Biso   1.000  He
  He106    1.0000 0.14035  0.39673  0.26760  Biso   1.000  He
  Ne106    1.0000 0.12469  0.37380  0.28259  Biso   1.000  Ne
  Ne107    1.0000 0.58565  0.98687  0.57663  Biso   1.000  Ne
  He107    1.0000 0.57477  0.96277  0.55653  Biso   1.000  He
  He108    1.0000 0.56810  0.97243  0.52366  Biso   1.000  He
  Ne108    1.0000 0.55412  0.94673  0.50694  Biso   1.000  Ne
  Ne109    1.0000 0.17429  0.58527  0.96386  Biso   1.000  Ne
  He109    1.0000 0.20562  0.59225  0.95749  Biso   1.000  He
  He110    1.0000 0.21162  0.62128  0.94431  Biso   1.000  He
  Ne110    1.0000 0.24394  0.62568  0.93981  Biso   1.000  Ne
  Ne111    1.0000 0.74971  0.15820  0.50676  Biso   1.000  Ne
  He111    1.0000 0.72381  0.17826  0.50005  Biso   1.000  He
  He112    1.0000 0.73120  0.19537  0.47403  Biso   1.000  He
  Ne112    1.0000 0.70483  0.20931  0.45869  Biso   1.000  Ne
  Ne113    1.0000 0.18422  0.24932  0.48093  Biso   1.000  Ne
  He113    1.0000 0.15284  0.25222  0.48913  Biso   1.000  He
  He114    1.0000 0.13026  0.23111  0.47308  Biso   1.000  He
  Ne114    1.0000 0.09721  0.24054  0.47522  Biso   1.000  Ne
  Ne115    1.0000 0.87312  0.57979  0.25678  Biso   1.000  Ne
  He115    1.0000 0.87358  0.55392  0.23857  Biso   1.000  He
  He116    1.0000 0.84347  0.53763  0.23896  Biso   1.000  He
  Ne116    1.0000 0.84075  0.51204  0.21980  Biso   1.000  Ne
  Ne117    1.0000 0.21573  0.03168  0.31410  Biso   1.000  Ne
  He117    1.0000 0.24299  0.02253  0.29794  Biso   1.000  He
  He118    1.0000 0.26885  0.03093  0.31620  Biso   1.000  He
  Ne118    1.0000 0.29603  0.02871  0.29866  Biso   1.000  Ne
  Ne119    1.0000 0.90179  0.55130  0.49308  Biso   1.000  Ne
  He119    1.0000 0.92065  0.53519  0.51478  Biso   1.000  He
  He120    1.0000 0.95536  0.54207  0.50970  Biso   1.000  He
  Ne120    1.0000 0.97530  0.52632  0.53277  Biso   1.000  Ne
  Ne121    1.0000 0.36346  0.54323  0.39621  Biso   1.000  Ne
  He121    1.0000 0.33218  0.55112  0.40969  Biso   1.000  He
  He122    1.0000 0.30744  0.52870  0.40705  Biso   1.000  He
  Ne122    1.0000 0.28173  0.53849  0.38542  Biso   1.000  Ne
  Ne123    1.0000 0.45619  0.54060  0.07665  Biso   1.000  Ne
  He123    1.0000 0.45568  0.54121  0.04389  Biso   1.000  He
  He124    1.0000 0.47329  0.51718  0.02804  Biso   1.000  He
  Ne124    1.0000 0.47639  0.52215  0.99615  Biso   1.000  Ne
  Ne125    1.0000 0.18723  0.15575  0.17943  Biso   1.000  Ne
  He125    1.0000 0.20762  0.18369  0.17773  Biso   1.000  He
  He126    1.0000 0.19345  0.20636  0.15633  Biso   1.000  He
  Ne126    1.0000 0.21059  0.23375  0.15227  Biso   1.000  Ne
  Ne127    1.0000 0.57573  0.65353  0.90813  Biso   1.000  Ne
  He127    1.0000 0.59924  0.65331  0.93541  Biso   1.000  He
  He128    1.0000 0.58312  0.65795  0.96571  Biso   1.000  He
  Ne128    1.0000 0.60471  0.66034  0.98986  Biso   1.000  Ne
  Ne129    1.0000 0.24467  0.17567  0.66936  Biso   1.000  Ne
  He129    1.0000 0.25709  0.20166  0.68453  Biso   1.000  He
  He130    1.0000 0.28732  0.20635  0.67447  Biso   1.000  He
  Ne130    1.0000 0.30131  0.23519  0.68171  Biso   1.000  Ne
  Ne131    1.0000 0.34795  0.78916  0.64974  Biso   1.000  Ne
  He131    1.0000 0.36504  0.81450  0.66533  Biso   1.000  He
  He132    1.0000 0.34560  0.84190  0.67078  Biso   1.000  He
  Ne132    1.0000 0.36432  0.86347  0.68459  Biso   1.000  Ne
  Ne133    1.0000 0.92039  0.12653  0.73857  Biso   1.000  Ne
  He133    1.0000 0.93096  0.12624  0.76864  Biso   1.000  He
  He134    1.0000 0.90936  0.13704  0.79231  Biso   1.000  He
  Ne134    1.0000 0.91698  0.13820  0.82539  Biso   1.000  Ne
  Ne135    1.0000 0.88766  0.65437  0.21946  Biso   1.000  Ne
  He135    1.0000 0.89407  0.65319  0.18436  Biso   1.000  He
  He136    1.0000 0.88588  0.67720  0.16619  Biso   1.000  He
  Ne136    1.0000 0.88442  0.67258  0.13252  Biso   1.000  Ne
  Ne137    1.0000 0.02157  0.17184  0.68121  Biso   1.000  Ne
  He137    1.0000 0.98889  0.18059  0.68163  Biso   1.000  He
  He138    1.0000 0.97162  0.18693  0.65145  Biso   1.000  He
  Ne138    1.0000 0.93939  0.18907  0.65592  Biso   1.000  Ne
  Ne139    1.0000 0.79405  0.61573  0.43041  Biso   1.000  Ne
  He139    1.0000 0.80702  0.61914  0.46171  Biso   1.000  He
  He140    1.0000 0.83656  0.60367  0.46626  Biso   1.000  He
  Ne140    1.0000 0.84963  0.60997  0.49506  Biso   1.000  Ne
  Ne141    1.0000 0.06873  0.38137  0.83867  Biso   1.000  Ne
  He141    1.0000 0.08160  0.37850  0.80684  Biso   1.000  He
  He142    1.0000 0.11654  0.38433  0.80713  Biso   1.000  He
  Ne142    1.0000 0.13433  0.36550  0.78586  Biso   1.000  Ne
  Ne143    1.0000 0.77586  0.29108  0.99854  Biso   1.000  Ne
  He143    1.0000 0.79678  0.31632  0.98597  Biso   1.000  He
  He144    1.0000 0.80473  0.34048  0.00943  Biso   1.000  He
  Ne144    1.0000 0.81442  0.36792  0.99407  Biso   1.000  Ne
  Ne145    1.0000 0.76132  0.53842  0.00959  Biso   1.000  Ne
  He145    1.0000 0.75511  0.56912  0.00168  Biso   1.000  He
  He146    1.0000 0.72334  0.57837  0.99817  Biso   1.000  He
  Ne146    1.0000 0.72037  0.60947  0.99157  Biso   1.000  Ne
  Ne147    1.0000 0.78377  0.79697  0.95857  Biso   1.000  Ne
  He147    1.0000 0.76118  0.77690  0.97201  Biso   1.000  He
  He148    1.0000 0.73845  0.78939  0.99257  Biso   1.000  He
  Ne148    1.0000 0.71577  0.76690  0.00766  Biso   1.000  Ne
  Ne149    1.0000 0.76491  0.88196  0.02303  Biso   1.000  Ne
  He149    1.0000 0.78984  0.88728  0.00484  Biso   1.000  He
  He150    1.0000 0.81558  0.86614  0.00952  Biso   1.000  He
  Ne150    1.0000 0.84119  0.87074  0.99210  Biso   1.000  Ne
  Ne151    1.0000 0.22493  0.47109  0.91709  Biso   1.000  Ne
  He151    1.0000 0.19914  0.48277  0.92751  Biso   1.000  He
  He152    1.0000 0.19264  0.46615  0.95600  Biso   1.000  He
  Ne152    1.0000 0.16580  0.47715  0.97235  Biso   1.000  Ne
  Ne153    1.0000 0.32059  0.67836  0.47842  Biso   1.000  Ne
  He153    1.0000 0.32215  0.70888  0.49157  Biso   1.000  He
  He154    1.0000 0.35409  0.71233  0.50416  Biso   1.000  He
  Ne154    1.0000 0.36557  0.74450  0.50584  Biso   1.000  Ne
  Ne155    1.0000 0.08569  0.85423  0.18125  Biso   1.000  Ne
  He155    1.0000 0.10137  0.87636  0.15990  Biso   1.000  He
  He156    1.0000 0.08264  0.88984  0.13590  Biso   1.000  He
  Ne156    1.0000 0.09863  0.91414  0.11946  Biso   1.000  Ne
  Ne157    1.0000 0.95628  0.97967  0.13768  Biso   1.000  Ne
  He157    1.0000 0.97818  0.97497  0.11416  Biso   1.000  He
  He158    1.0000 0.01283  0.97723  0.12213  Biso   1.000  He
  Ne158    1.0000 0.03094  0.96333  0.09521  Biso   1.000  Ne
  Ne159    1.0000 0.56729  0.19167  0.73102  Biso   1.000  Ne
  He159    1.0000 0.57372  0.18762  0.76500  Biso   1.000  He
  He160    1.0000 0.59356  0.20874  0.77951  Biso   1.000  He
  Ne160    1.0000 0.62496  0.19645  0.77641  Biso   1.000  Ne
  Ne161    1.0000 0.31785  0.57027  0.24274  Biso   1.000  Ne
  He161    1.0000 0.35000  0.56078  0.24728  Biso   1.000  He
  He162    1.0000 0.37035  0.58671  0.25731  Biso   1.000  He
  Ne162    1.0000 0.40160  0.57636  0.25983  Biso   1.000  Ne
  Ne163    1.0000 0.70775  0.05454  0.75083  Biso   1.000  Ne
  He163    1.0000 0.74237  0.04733  0.74846  Biso   1.000  He
  He164    1.0000 0.75727  0.03085  0.77381  Biso   1.000  He
  Ne164    1.0000 0.78901  0.02328  0.76945  Biso   1.000  Ne
  Ne165    1.0000 0.35794  0.02130  0.41500  Biso   1.000  Ne
  He165    1.0000 0.33932  0.03111  0.44064  Biso   1.000  He
  He166    1.0000 0.33313  0.06624  0.43863  Biso   1.000  He
  Ne166    1.0000 0.31460  0.07815  0.46240  Biso   1.000  Ne
  Ne167    1.0000 0.91262  0.06012  0.94092  Biso   1.000  Ne
  He167    1.0000 0.88523  0.06968  0.95379  Biso   1.000  He
  He168    1.0000 0.88160  0.05882  0.98463  Biso   1.000  He
  Ne168    1.0000 0.84943  0.05924  0.99836  Biso   1.000  Ne
  Ne169    1.0000 0.99998  0.42899  0.52801  Biso   1.000  Ne
  He169    1.0000 0.97449  0.41361  0.51249  Biso   1.000  He
  He170    1.0000 0.96804  0.38319  0.52444  Biso   1.000  He
  Ne170    1.0000 0.94830  0.36376  0.50367  Biso   1.000  Ne
  Ne171    1.0000 0.64475  0.16508  0.49595  Biso   1.000  Ne
  He171    1.0000 0.62728  0.15635  0.47169  Biso   1.000  He
  He172    1.0000 0.61643  0.12385  0.47431  Biso   1.000  He
  Ne172    1.0000 0.59603  0.11124  0.44958  Biso   1.000  Ne
  Ne173    1.0000 0.40894  0.62924  0.01923  Biso   1.000  Ne
  He173    1.0000 0.40896  0.59625  0.02264  Biso   1.000  He
  He174    1.0000 0.37949  0.57976  0.01133  Biso   1.000  He
  Ne174    1.0000 0.38367  0.54778  0.00394  Biso   1.000  Ne
  Ne175    1.0000 0.44131  0.39073  0.23925  Biso   1.000  Ne
  He175    1.0000 0.41865  0.37054  0.25542  Biso   1.000  He
  He176    1.0000 0.42498  0.33883  0.24783  Biso   1.000  He
  Ne176    1.0000 0.40225  0.31508  0.25765  Biso   1.000  Ne
  Ne177    1.0000 0.18526  0.53128  0.67416  Biso   1.000  Ne
  He177    1.0000 0.17550  0.53052  0.70545  Biso   1.000  He
  He178    1.0000 0.19998  0.52458  0.72697  Biso   1.000  He
  Ne178    1.0000 0.19194  0.53143  0.75952  Biso   1.000  Ne
  Ne179    1.0000 0.83787  0.80841  0.22780  Biso   1.000  Ne
  He179    1.0000 0.83537  0.77610  0.22255  Biso   1.000  He
  He180    1.0000 0.84052  0.76829  0.19206  Biso   1.000  He
  Ne180    1.0000 0.83852  0.73661  0.18452  Biso   1.000  Ne
  Ne181    1.0000 0.65907  0.88318  0.33422  Biso   1.000  Ne
  He181    1.0000 0.65893  0.89178  0.36599  Biso   1.000  He
  He182    1.0000 0.62627  0.89043  0.37915  Biso   1.000  He
  Ne182    1.0000 0.62838  0.89614  0.41384  Biso   1.000  Ne
  Ne183    1.0000 0.13500  0.25560  0.66424  Biso   1.000  Ne
  He183    1.0000 0.16162  0.26043  0.68565  Biso   1.000  He
  He184    1.0000 0.19060  0.24940  0.67397  Biso   1.000  He
  Ne184    1.0000 0.21471  0.25430  0.70077  Biso   1.000  Ne
  Ne185    1.0000 0.08350  0.31545  0.40028  Biso   1.000  Ne
  He185    1.0000 0.09452  0.30295  0.37050  Biso   1.000  He
  He186    1.0000 0.10109  0.27235  0.37407  Biso   1.000  He
  Ne186    1.0000 0.11533  0.26014  0.34620  Biso   1.000  Ne
  Ne187    1.0000 0.42060  0.08968  0.72842  Biso   1.000  Ne
  He187    1.0000 0.39597  0.06983  0.73663  Biso   1.000  He
  He188    1.0000 0.36479  0.08222  0.73191  Biso   1.000  He
  Ne188    1.0000 0.34234  0.06010  0.73447  Biso   1.000  Ne
  Ne189    1.0000 0.70698  0.07178  0.66823  Biso   1.000  Ne
  He189    1.0000 0.69641  0.10530  0.67592  Biso   1.000  He
  He190    1.0000 0.67417  0.11769  0.65625  Biso   1.000  He
  Ne190    1.0000 0.66564  0.14837  0.66570  Biso   1.000  Ne
  Ne191    1.0000 0.67224  0.39890  0.35501  Biso   1.000  Ne
  He191    1.0000 0.69733  0.38986  0.37271  Biso   1.000  He
  He192    1.0000 0.70403  0.40784  0.40030  Biso   1.000  He
  Ne192    1.0000 0.73231  0.39462  0.41838  Biso   1.000  Ne
  Ne193    1.0000 0.99553  0.28548  0.23674  Biso   1.000  Ne
  He193    1.0000 0.01697  0.27454  0.21591  Biso   1.000  He
  He194    1.0000 0.00869  0.27734  0.18556  Biso   1.000  He
  Ne194    1.0000 0.03396  0.26666  0.16562  Biso   1.000  Ne
  Ne195    1.0000 0.83557  0.02911  0.88254  Biso   1.000  Ne
  He195    1.0000 0.86641  0.03955  0.87516  Biso   1.000  He
  He196    1.0000 0.87272  0.03857  0.84149  Biso   1.000  He
  Ne196    1.0000 0.90404  0.05327  0.83271  Biso   1.000  Ne
  Ne197    1.0000 0.95890  0.88586  0.15299  Biso   1.000  Ne
  He197    1.0000 0.95892  0.90221  0.18193  Biso   1.000  He
  He198    1.0000 0.94616  0.88535  0.20534  Biso   1.000  He
  Ne198    1.0000 0.94313  0.90331  0.23387  Biso   1.000  Ne
  Ne199    1.0000 0.37729  0.14518  0.41656  Biso   1.000  Ne
  He199    1.0000 0.40220  0.14526  0.39221  Biso   1.000  He
  He200    1.0000 0.41886  0.11705  0.39401  Biso   1.000  He
  Ne200    1.0000 0.43857  0.11333  0.36738  Biso   1.000  Ne
  Ne201    1.0000 0.39747  0.73512  0.17464  Biso   1.000  Ne
  He201    1.0000 0.37169  0.72500  0.15749  Biso   1.000  He
  He202    1.0000 0.34465  0.70899  0.17201  Biso   1.000  He
  Ne202    1.0000 0.32277  0.69655  0.14988  Biso   1.000  Ne
  Ne203    1.0000 0.78772  0.37483  0.14242  Biso   1.000  Ne
  He203    1.0000 0.75742  0.37200  0.12985  Biso   1.000  He
  He204    1.0000 0.73486  0.38404  0.14852  Biso   1.000  He
  Ne204    1.0000 0.70214  0.37951  0.13896  Biso   1.000  Ne
  Ne205    1.0000 0.23751  0.34226  0.81070  Biso   1.000  Ne
  He205    1.0000 0.25352  0.37068  0.80403  Biso   1.000  He
  He206    1.0000 0.28860  0.36860  0.80441  Biso   1.000  He
  Ne206    1.0000 0.30247  0.39967  0.80184  Biso   1.000  Ne
  Ne207    1.0000 0.10563  0.14052  0.00958  Biso   1.000  Ne
  He207    1.0000 0.13186  0.13463  0.98956  Biso   1.000  He
  He208    1.0000 0.16151  0.14379  0.00263  Biso   1.000  He
  Ne208    1.0000 0.18946  0.14112  0.98823  Biso   1.000  Ne
  Ne209    1.0000 0.13153  0.81704  0.79504  Biso   1.000  Ne
  He209    1.0000 0.15276  0.81102  0.82177  Biso   1.000  He
  He210    1.0000 0.14153  0.79177  0.84649  Biso   1.000  He
  Ne210    1.0000 0.16218  0.78807  0.87092  Biso   1.000  Ne
  Ne211    1.0000 0.48130  0.02482  0.50724  Biso   1.000  Ne
  He211    1.0000 0.46025  0.02414  0.48170  Biso   1.000  He
  He212    1.0000 0.45790  0.05203  0.46528  Biso   1.000  He
  Ne212    1.0000 0.44264  0.05049  0.43640  Biso   1.000  Ne
  Ne213    1.0000 0.74902  0.85222  0.33627  Biso   1.000  Ne
  He213    1.0000 0.76122  0.85198  0.36780  Biso   1.000  He
  He214    1.0000 0.74380  0.87318  0.38962  Biso   1.000  He
  Ne214    1.0000 0.75840  0.88179  0.41673  Biso   1.000  Ne
  Ne215    1.0000 0.63648  0.34021  0.27263  Biso   1.000  Ne
  He215    1.0000 0.61856  0.31946  0.28921  Biso   1.000  He
  He216    1.0000 0.61963  0.28753  0.27966  Biso   1.000  He
  Ne216    1.0000 0.60284  0.26647  0.29847  Biso   1.000  Ne
  Ne217    1.0000 0.33483  0.37538  0.29439  Biso   1.000  Ne
  He217    1.0000 0.30265  0.37903  0.30119  Biso   1.000  He
  He218    1.0000 0.28191  0.36001  0.28233  Biso   1.000  He
  Ne218    1.0000 0.25087  0.36772  0.28453  Biso   1.000  Ne
  Ne219    1.0000 0.82193  0.34998  0.78826  Biso   1.000  Ne
  He219    1.0000 0.80592  0.33922  0.76128  Biso   1.000  He
  He220    1.0000 0.78227  0.35931  0.74723  Biso   1.000  He
  Ne220    1.0000 0.76865  0.34750  0.71929  Biso   1.000  Ne
  Ne221    1.0000 0.45798  0.18568  0.16379  Biso   1.000  Ne
  He221    1.0000 0.45304  0.17998  0.19695  Biso   1.000  He
  He222    1.0000 0.43676  0.20368  0.21260  Biso   1.000  He
  Ne222    1.0000 0.43622  0.20041  0.24614  Biso   1.000  Ne
  Ne223    1.0000 0.91874  0.28170  0.67334  Biso   1.000  Ne
  He223    1.0000 0.92022  0.31511  0.66433  Biso   1.000  He
  He224    1.0000 0.94696  0.33391  0.67545  Biso   1.000  He
  Ne224    1.0000 0.93914  0.35097  0.70313  Biso   1.000  Ne
  Ne225    1.0000 0.47596  0.38870  0.04826  Biso   1.000  Ne
  He225    1.0000 0.49471  0.41130  0.06757  Biso   1.000  He
  He226    1.0000 0.47562  0.43084  0.08794  Biso   1.000  He
  Ne226    1.0000 0.49419  0.45629  0.09989  Biso   1.000  Ne
  Ne227    1.0000 0.34088  0.17841  0.48506  Biso   1.000  Ne
  He227    1.0000 0.32647  0.20263  0.50132  Biso   1.000  He
  He228    1.0000 0.34763  0.22524  0.51181  Biso   1.000  He
  Ne228    1.0000 0.33360  0.25168  0.52779  Biso   1.000  Ne
  Ne229    1.0000 0.96399  0.69760  0.19897  Biso   1.000  Ne
  He229    1.0000 0.95874  0.72064  0.17537  Biso   1.000  He
  He230    1.0000 0.93642  0.74466  0.18551  Biso   1.000  He
  Ne230    1.0000 0.92181  0.76483  0.15983  Biso   1.000  Ne
  Ne231    1.0000 0.19845  0.03416  0.15182  Biso   1.000  Ne
  He231    1.0000 0.19939  0.04983  0.18114  Biso   1.000  He
  He232    1.0000 0.18422  0.03495  0.20411  Biso   1.000  He
  Ne232    1.0000 0.18109  0.05317  0.22933  Biso   1.000  Ne
  Ne233    1.0000 0.56344  0.30676  0.82737  Biso   1.000  Ne
  He233    1.0000 0.58816  0.31520  0.84850  Biso   1.000  He
  He234    1.0000 0.57147  0.31507  0.87655  Biso   1.000  He
  Ne234    1.0000 0.59143  0.31884  0.90062  Biso   1.000  Ne
  Ne235    1.0000 0.56383  0.24113  0.93836  Biso   1.000  Ne
  He235    1.0000 0.58569  0.24001  0.96384  Biso   1.000  He
  He236    1.0000 0.60355  0.26755  0.96668  Biso   1.000  He
  Ne236    1.0000 0.63031  0.26505  0.98587  Biso   1.000  Ne
  Ne237    1.0000 0.46029  0.52763  0.30248  Biso   1.000  Ne
  He237    1.0000 0.46426  0.51392  0.33172  Biso   1.000  He
  He238    1.0000 0.49555  0.50094  0.33771  Biso   1.000  He
  Ne238    1.0000 0.49967  0.48626  0.36981  Biso   1.000  Ne
  Ne239    1.0000 0.94295  0.14052  0.27770  Biso   1.000  Ne
  He239    1.0000 0.96348  0.11426  0.28256  Biso   1.000  He
  He240    1.0000 0.95362  0.08932  0.26454  Biso   1.000  He
  Ne240    1.0000 0.96788  0.05872  0.26949  Biso   1.000  Ne
  Ne241    1.0000 0.43012  0.34750  0.92810  Biso   1.000  Ne
  He241    1.0000 0.41577  0.32558  0.91042  Biso   1.000  He
  He242    1.0000 0.41164  0.29769  0.92716  Biso   1.000  He
  Ne242    1.0000 0.39703  0.27281  0.91150  Biso   1.000  Ne
  Ne243    1.0000 0.53178  0.89649  0.85370  Biso   1.000  Ne
  He243    1.0000 0.53321  0.88408  0.88460  Biso   1.000  He
  He244    1.0000 0.56329  0.88810  0.89878  Biso   1.000  He
  Ne244    1.0000 0.56460  0.87283  0.92805  Biso   1.000  Ne
  Ne245    1.0000 0.62450  0.61909  0.24134  Biso   1.000  Ne
  He245    1.0000 0.62062  0.58716  0.23114  Biso   1.000  He
  He246    1.0000 0.62189  0.56855  0.25737  Biso   1.000  He
  Ne246    1.0000 0.61463  0.53571  0.25326  Biso   1.000  Ne
  Ne247    1.0000 0.34420  0.35915  0.01548  Biso   1.000  Ne
  He247    1.0000 0.31654  0.34491  0.02336  Biso   1.000  He
  He248    1.0000 0.29314  0.36697  0.03168  Biso   1.000  He
  Ne248    1.0000 0.26394  0.35398  0.04291  Biso   1.000  Ne
  Ne249    1.0000 0.22190  0.65494  0.01747  Biso   1.000  Ne
  He249    1.0000 0.18787  0.65013  0.02425  Biso   1.000  He
  He250    1.0000 0.17926  0.65016  0.05727  Biso   1.000  He
  Ne250    1.0000 0.14421  0.64624  0.06047  Biso   1.000  Ne
  Ne251    1.0000 0.81256  0.68558  0.65170  Biso   1.000  Ne
  He251    1.0000 0.79168  0.71140  0.65991  Biso   1.000  He
  He252    1.0000 0.79699  0.73835  0.64460  Biso   1.000  He
  Ne252    1.0000 0.77534  0.76210  0.65274  Biso   1.000  Ne
  Ne253    1.0000 0.08732  0.85776  0.93946  Biso   1.000  Ne
  He253    1.0000 0.09066  0.84356  0.90956  Biso   1.000  He
  He254    1.0000 0.08926  0.86265  0.88001  Biso   1.000  He
  Ne254    1.0000 0.11623  0.86900  0.86370  Biso   1.000  Ne
  Ne255    1.0000 0.09989  0.33329  0.72959  Biso   1.000  Ne
  He255    1.0000 0.10498  0.34915  0.70217  Biso   1.000  He
  He256    1.0000 0.09589  0.33162  0.67370  Biso   1.000  He
  Ne256    1.0000 0.10392  0.34449  0.64463  Biso   1.000  Ne
  Ne257    1.0000 0.38127  0.88757  0.75831  Biso   1.000  Ne
  He257    1.0000 0.39037  0.88201  0.78826  Biso   1.000  He
  He258    1.0000 0.39665  0.91062  0.80106  Biso   1.000  He
  Ne258    1.0000 0.40802  0.90905  0.83207  Biso   1.000  Ne
  Ne259    1.0000 0.61422  0.36590  0.97999  Biso   1.000  Ne
  He259    1.0000 0.58513  0.36938  0.96554  Biso   1.000  He
  He260    1.0000 0.57626  0.39949  0.95787  Biso   1.000  He
  Ne260    1.0000 0.58761  0.40829  0.92724  Biso   1.000  Ne
  Ne261    1.0000 0.92696  0.36390  0.81827  Biso   1.000  Ne
  He261    1.0000 0.93910  0.33981  0.79777  Biso   1.000  He
  He262    1.0000 0.94043  0.31029  0.81592  Biso   1.000  He
  Ne262    1.0000 0.94624  0.28103  0.79886  Biso   1.000  Ne
  Ne263    1.0000 0.96434  0.45335  0.59354  Biso   1.000  Ne
  He263    1.0000 0.94154  0.43027  0.60244  Biso   1.000  He
  He264    1.0000 0.92597  0.43864  0.63119  Biso   1.000  He
  Ne264    1.0000 0.90561  0.41620  0.64290  Biso   1.000  Ne
  Ne265    1.0000 0.57729  0.87010  0.63304  Biso   1.000  Ne
  He265    1.0000 0.55734  0.89694  0.63755  Biso   1.000  He
  He266    1.0000 0.57070  0.92776  0.63724  Biso   1.000  He
  Ne266    1.0000 0.54629  0.94801  0.64218  Biso   1.000  Ne
  Ne267    1.0000 0.10557  0.57862  0.65102  Biso   1.000  Ne
  He267    1.0000 0.10855  0.60667  0.67019  Biso   1.000  He
  He268    1.0000 0.11776  0.63426  0.65231  Biso   1.000  He
  Ne268    1.0000 0.12273  0.66184  0.67048  Biso   1.000  Ne
  Ne269    1.0000 0.89254  0.86115  0.84548  Biso   1.000  Ne
  He269    1.0000 0.86973  0.88051  0.85486  Biso   1.000  He
  He270    1.0000 0.84284  0.86273  0.85801  Biso   1.000  He
  Ne270    1.0000 0.81530  0.87875  0.85772  Biso   1.000  Ne
  Ne271    1.0000 0.23673  0.34184  0.50244  Biso   1.000  Ne
  He271    1.0000 0.22295  0.36327  0.48034  Biso   1.000  He
  He272    1.0000 0.23103  0.35392  0.44903  Biso   1.000  He
  Ne272    1.0000 0.21895  0.37184  0.42583  Biso   1.000  Ne
  Ne273    1.0000 0.84971  0.77674  0.01080  Biso   1.000  Ne
  He273    1.0000 0.83229  0.75045  0.00401  Biso   1.000  He
  He274    1.0000 0.83475  0.72278  0.02058  Biso   1.000  He
  Ne274    1.0000 0.81485  0.70001  0.01100  Biso   1.000  Ne
  Ne275    1.0000 0.62525  0.91588  0.49388  Biso   1.000  Ne
  He275    1.0000 0.65739  0.90777  0.50122  Biso   1.000  He
  He276    1.0000 0.67613  0.90210  0.47338  Biso   1.000  He
  Ne276    1.0000 0.70888  0.89624  0.47795  Biso   1.000  Ne
  Ne277    1.0000 0.08857  0.25100  0.75306  Biso   1.000  Ne
  He277    1.0000 0.12217  0.25721  0.75385  Biso   1.000  He
  He278    1.0000 0.13310  0.27477  0.78216  Biso   1.000  He
  Ne278    1.0000 0.16539  0.27694  0.78099  Biso   1.000  Ne
  Ne279    1.0000 0.11208  0.61893  0.77593  Biso   1.000  Ne
  He279    1.0000 0.10705  0.58294  0.77717  Biso   1.000  He
  He280    1.0000 0.10066  0.57006  0.74340  Biso   1.000  He
  Ne280    1.0000 0.09337  0.53917  0.74188  Biso   1.000  Ne
  Ne281    1.0000 0.92012  0.23070  0.51493  Biso   1.000  Ne
  He281    1.0000 0.92184  0.25187  0.48804  Biso   1.000  He
  He282    1.0000 0.93191  0.23973  0.45731  Biso   1.000  He
  Ne282    1.0000 0.93408  0.26214  0.43146  Biso   1.000  Ne
  Ne283    1.0000 0.15405  0.73663  0.74570  Biso   1.000  Ne
  He283    1.0000 0.13423  0.71169  0.75239  Biso   1.000  He
  He284    1.0000 0.10330  0.72203  0.75669  Biso   1.000  He
  Ne284    1.0000 0.08079  0.70124  0.77205  Biso   1.000  Ne
  Ne285    1.0000 0.78844  0.30763  0.35847  Biso   1.000  Ne
  He285    1.0000 0.79888  0.33852  0.36373  Biso   1.000  He
  He286    1.0000 0.82986  0.34283  0.37637  Biso   1.000  He
  Ne286    1.0000 0.83304  0.37566  0.38751  Biso   1.000  Ne
  Ne287    1.0000 0.24582  0.11281  0.73245  Biso   1.000  Ne
  He287    1.0000 0.27078  0.13405  0.74040  Biso   1.000  He
  He288    1.0000 0.29776  0.13095  0.72210  Biso   1.000  He
  Ne288    1.0000 0.32031  0.15321  0.72710  Biso   1.000  Ne
  Ne289    1.0000 0.32202  0.31985  0.61810  Biso   1.000  Ne
  He289    1.0000 0.32048  0.28555  0.62106  Biso   1.000  He
  He290    1.0000 0.34845  0.27498  0.61495  Biso   1.000  He
  Ne290    1.0000 0.35037  0.24097  0.61151  Biso   1.000  Ne
  Ne291    1.0000 0.29873  0.60115  0.98401  Biso   1.000  Ne
  He291    1.0000 0.28460  0.57178  0.97907  Biso   1.000  He
  He292    1.0000 0.30107  0.54973  0.96221  Biso   1.000  He
  Ne292    1.0000 0.28628  0.52206  0.95837  Biso   1.000  Ne
  Ne293    1.0000 0.72108  0.38514  0.80664  Biso   1.000  Ne
  He293    1.0000 0.72971  0.36723  0.83324  Biso   1.000  He
  He294    1.0000 0.72026  0.33476  0.83263  Biso   1.000  He
  Ne294    1.0000 0.69106  0.32847  0.84844  Biso   1.000  Ne
  Ne295    1.0000 0.10349  0.40854  0.53297  Biso   1.000  Ne
  He295    1.0000 0.11434  0.38185  0.51917  Biso   1.000  He
  He296    1.0000 0.09409  0.36642  0.49829  Biso   1.000  He
  Ne296    1.0000 0.11180  0.34861  0.47733  Biso   1.000  Ne
  Ne297    1.0000 0.23630  0.32593  0.66403  Biso   1.000  Ne
  He297    1.0000 0.22945  0.33437  0.69348  Biso   1.000  He
  He298    1.0000 0.19525  0.33472  0.69884  Biso   1.000  He
  Ne298    1.0000 0.18975  0.34802  0.73194  Biso   1.000  Ne
  Ne299    1.0000 0.93026  0.90982  0.05278  Biso   1.000  Ne
  He299    1.0000 0.91141  0.91200  0.02291  Biso   1.000  He
  He300    1.0000 0.92860  0.89637  0.00113  Biso   1.000  He
  Ne300    1.0000 0.92384  0.90293  0.96812  Biso   1.000  Ne
  Ne301    1.0000 0.26215  0.62190  0.79290  Biso   1.000  Ne
  He301    1.0000 0.23555  0.64065  0.78260  Biso   1.000  He
  He302    1.0000 0.24289  0.66501  0.76050  Biso   1.000  He
  Ne302    1.0000 0.21472  0.67757  0.74482  Biso   1.000  Ne
  Ne303    1.0000 0.32632  0.57589  0.15545  Biso   1.000  Ne
  He303    1.0000 0.29297  0.58177  0.15296  Biso   1.000  He
  He304    1.0000 0.27356  0.55549  0.14747  Biso   1.000  He
  Ne304    1.0000 0.24052  0.56288  0.13577  Biso   1.000  Ne
  Ne305    1.0000 0.41792  0.46129  0.40540  Biso   1.000  Ne
  He305    1.0000 0.41722  0.44381  0.37584  Biso   1.000  He
  He306    1.0000 0.40948  0.41101  0.37559  Biso   1.000  He
  Ne306    1.0000 0.40962  0.39869  0.34533  Biso   1.000  Ne
  Ne307    1.0000 0.08812  0.51506  0.46363  Biso   1.000  Ne
  He307    1.0000 0.09499  0.50593  0.49463  Biso   1.000  He
  He308    1.0000 0.07223  0.51628  0.51834  Biso   1.000  He
  Ne308    1.0000 0.07552  0.50432  0.54840  Biso   1.000  Ne
  Ne309    1.0000 0.61525  0.88883  0.80069  Biso   1.000  Ne
  He309    1.0000 0.61023  0.90337  0.76909  Biso   1.000  He
  He310    1.0000 0.58455  0.89092  0.75178  Biso   1.000  He
  Ne310    1.0000 0.57777  0.90921  0.72162  Biso   1.000  Ne
  Ne311    1.0000 0.97189  0.53904  0.66258  Biso   1.000  Ne
  He311    1.0000 0.99716  0.53015  0.64400  Biso   1.000  He
  He312    1.0000 0.00304  0.55448  0.62274  Biso   1.000  He
  Ne312    1.0000 0.02805  0.54969  0.60445  Biso   1.000  Ne
  Ne313    1.0000 0.78242  0.55064  0.63624  Biso   1.000  Ne
  He313    1.0000 0.77250  0.57742  0.65738  Biso   1.000  He
  He314    1.0000 0.76518  0.56959  0.68973  Biso   1.000  He
  Ne314    1.0000 0.75822  0.59507  0.70972  Biso   1.000  Ne
  Ne315    1.0000 0.65754  0.05573  0.50767  Biso   1.000  Ne
  He315    1.0000 0.68804  0.06215  0.50917  Biso   1.000  He
  He316    1.0000 0.70299  0.05858  0.47859  Biso   1.000  He
  Ne316    1.0000 0.73680  0.06439  0.47596  Biso   1.000  Ne
  Ne317    1.0000 0.58882  0.21846  0.13376  Biso   1.000  Ne
  He317    1.0000 0.55955  0.20072  0.13706  Biso   1.000  He
  He318    1.0000 0.54610  0.18453  0.11219  Biso   1.000  He
  Ne318    1.0000 0.51453  0.17384  0.11490  Biso   1.000  Ne
  Ne319    1.0000 0.82799  0.32154  0.65824  Biso   1.000  Ne
  He319    1.0000 0.82169  0.28820  0.66032  Biso   1.000  He
  He320    1.0000 0.82494  0.27419  0.69090  Biso   1.000  He
  Ne320    1.0000 0.79593  0.27166  0.70892  Biso   1.000  Ne
  Ne321    1.0000 0.73899  0.80338  0.16236  Biso   1.000  Ne
  He321    1.0000 0.70842  0.80579  0.16558  Biso   1.000  He
  He322    1.0000 0.69283  0.82461  0.14485  Biso   1.000  He
  Ne322    1.0000 0.66031  0.82196  0.14881  Biso   1.000  Ne
  Ne323    1.0000 0.44642  0.88133  0.37831  Biso   1.000  Ne
  He323    1.0000 0.44336  0.85072  0.37161  Biso   1.000  He
  He324    1.0000 0.45083  0.82981  0.39814  Biso   1.000  He
  Ne324    1.0000 0.45206  0.79912  0.38993  Biso   1.000  Ne
  Ne325    1.0000 0.82325  0.60363  0.14255  Biso   1.000  Ne
  He325    1.0000 0.81188  0.63331  0.14331  Biso   1.000  He
  He326    1.0000 0.77838  0.63390  0.14047  Biso   1.000  He
  Ne326    1.0000 0.76643  0.66600  0.14255  Biso   1.000  Ne
  Ne327    1.0000 0.58904  0.55976  0.89443  Biso   1.000  Ne
  He327    1.0000 0.58481  0.55774  0.85845  Biso   1.000  He
  He328    1.0000 0.61619  0.55618  0.84511  Biso   1.000  He
  Ne328    1.0000 0.60974  0.54933  0.81185  Biso   1.000  Ne
  Ne329    1.0000 0.45496  0.34666  0.15458  Biso   1.000  Ne
  He329    1.0000 0.44461  0.37545  0.13990  Biso   1.000  He
  He330    1.0000 0.43440  0.40051  0.16037  Biso   1.000  He
  Ne330    1.0000 0.42262  0.42590  0.14415  Biso   1.000  Ne
  Ne331    1.0000 0.88513  0.67840  0.46407  Biso   1.000  Ne
  He331    1.0000 0.91046  0.67244  0.48601  Biso   1.000  He
  He332    1.0000 0.91979  0.63879  0.48221  Biso   1.000  He
  Ne332    1.0000 0.94544  0.63197  0.50406  Biso   1.000  Ne
  Ne333    1.0000 0.91215  0.82474  0.99439  Biso   1.000  Ne
  He333    1.0000 0.92926  0.79871  0.98358  Biso   1.000  He
  He334    1.0000 0.93006  0.77241  0.00566  Biso   1.000  He
  Ne334    1.0000 0.94423  0.74674  0.99329  Biso   1.000  Ne
  Ne335    1.0000 0.59821  0.44398  0.03304  Biso   1.000  Ne
  He335    1.0000 0.58730  0.46036  0.06015  Biso   1.000  He
  He336    1.0000 0.59432  0.49204  0.05646  Biso   1.000  He
  Ne336    1.0000 0.58384  0.51212  0.08004  Biso   1.000  Ne
  Ne337    1.0000 0.29879  0.40929  0.49821  Biso   1.000  Ne
  He337    1.0000 0.31206  0.43359  0.48034  Biso   1.000  He
  He338    1.0000 0.33069  0.42426  0.45229  Biso   1.000  He
  Ne338    1.0000 0.34426  0.44841  0.43035  Biso   1.000  Ne
  Ne339    1.0000 0.92483  0.37416  0.33895  Biso   1.000  Ne
  He339    1.0000 0.93928  0.36526  0.36804  Biso   1.000  He
  He340    1.0000 0.92559  0.38418  0.39207  Biso   1.000  He
  Ne340    1.0000 0.93395  0.37597  0.42395  Biso   1.000  Ne
  Ne341    1.0000 0.17453  0.87367  0.97970  Biso   1.000  Ne
  He341    1.0000 0.17038  0.88474  0.95258  Biso   1.000  He
  He342    1.0000 0.19698  0.88363  0.93284  Biso   1.000  He
  Ne342    1.0000 0.18733  0.89121  0.90327  Biso   1.000  Ne
  Ne343    1.0000 0.45942  0.84035  0.48130  Biso   1.000  Ne
  He343    1.0000 0.43842  0.86369  0.48686  Biso   1.000  He
  He344    1.0000 0.40624  0.85073  0.49354  Biso   1.000  He
  Ne344    1.0000 0.38462  0.87472  0.49842  Biso   1.000  Ne
  Ne345    1.0000 0.87813  0.84471  0.16827  Biso   1.000  Ne
  He345    1.0000 0.86956  0.87616  0.17943  Biso   1.000  He
  He346    1.0000 0.84215  0.87672  0.19604  Biso   1.000  He
  Ne346    1.0000 0.83248  0.90590  0.20648  Biso   1.000  Ne
  Ne347    1.0000 0.03099  0.39918  0.60236  Biso   1.000  Ne
  He347    1.0000 0.03923  0.39700  0.63532  Biso   1.000  He
  He348    1.0000 0.06190  0.41940  0.64708  Biso   1.000  He
  Ne348    1.0000 0.06789  0.41588  0.67816  Biso   1.000  Ne
  Ne349    1.0000 0.36040  0.68304  0.96773  Biso   1.000  Ne
  He349    1.0000 0.39130  0.68767  0.95640  Biso   1.000  He
  He350    1.0000 0.39510  0.69943  0.92607  Biso   1.000  He
  Ne350    1.0000 0.39412  0.73175  0.91954  Biso   1.000  Ne
  Ne351    1.0000 0.06110  0.67638  0.05505  Biso   1.000  Ne
  He351    1.0000 0.04272  0.66527  0.08175  Biso   1.000  He
  He352    1.0000 0.01130  0.67669  0.08244  Biso   1.000  He
  Ne352    1.0000 0.99776  0.67090  0.10891  Biso   1.000  Ne
  Ne353    1.0000 0.09759  0.04307  0.17502  Biso   1.000  Ne
  He353    1.0000 0.08876  0.07319  0.16419  Biso   1.000  He
  He354    1.0000 0.10262  0.09859  0.18162  Biso   1.000  He
  Ne354    1.0000 0.09670  0.12828  0.17068  Biso   1.000  Ne
  Ne355    1.0000 0.22930  0.87693  0.44234  Biso   1.000  Ne
  He355    1.0000 0.24400  0.85324  0.46192  Biso   1.000  He
  He356    1.0000 0.26641  0.86516  0.48349  Biso   1.000  He
  Ne356    1.0000 0.28285  0.84411  0.50380  Biso   1.000  Ne
  Ne357    1.0000 0.65034  0.85296  0.67756  Biso   1.000  Ne
  He357    1.0000 0.67289  0.87827  0.67436  Biso   1.000  He
  He358    1.0000 0.68963  0.87376  0.64954  Biso   1.000  He
  Ne358    1.0000 0.71312  0.89436  0.64243  Biso   1.000  Ne
  Ne359    1.0000 0.92565  0.62934  0.65781  Biso   1.000  Ne
  He359    1.0000 0.89668  0.61269  0.66131  Biso   1.000  He
  He360    1.0000 0.90078  0.58146  0.67402  Biso   1.000  He
  Ne360    1.0000 0.87282  0.56851  0.68027  Biso   1.000  Ne
  Ne361    1.0000 0.83428  0.86484  0.30492  Biso   1.000  Ne
  He361    1.0000 0.86581  0.86909  0.31692  Biso   1.000  He
  He362    1.0000 0.88426  0.89068  0.30030  Biso   1.000  He
  Ne362    1.0000 0.91556  0.89500  0.31130  Biso   1.000  Ne
  Ne363    1.0000 0.78247  0.52112  0.88195  Biso   1.000  Ne
  He363    1.0000 0.79528  0.49092  0.88303  Biso   1.000  He
  He364    1.0000 0.81271  0.48815  0.91199  Biso   1.000  He
  Ne364    1.0000 0.83284  0.46257  0.91216  Biso   1.000  Ne
  Ne365    1.0000 0.35101  0.79791  0.75613  Biso   1.000  Ne
  He365    1.0000 0.38298  0.79509  0.76211  Biso   1.000  He
  He366    1.0000 0.39699  0.77169  0.74260  Biso   1.000  He
  Ne366    1.0000 0.43052  0.77046  0.75063  Biso   1.000  Ne
  Ne367    1.0000 0.79180  0.39435  0.63893  Biso   1.000  Ne
  He367    1.0000 0.82180  0.39844  0.65255  Biso   1.000  He
  He368    1.0000 0.82237  0.39326  0.68596  Biso   1.000  He
  Ne368    1.0000 0.85219  0.39363  0.70078  Biso   1.000  Ne
  Ne369    1.0000 0.29616  0.32130  0.21100  Biso   1.000  Ne
  He369    1.0000 0.31856  0.31208  0.18716  Biso   1.000  He
  He370    1.0000 0.34878  0.30304  0.19792  Biso   1.000  He
  Ne370    1.0000 0.36674  0.29493  0.17184  Biso   1.000  Ne
  Ne371    1.0000 0.11440  0.58754  0.45303  Biso   1.000  Ne
  He371    1.0000 0.12257  0.61794  0.46481  Biso   1.000  He
  He372    1.0000 0.10023  0.64254  0.46062  Biso   1.000  He
  Ne372    1.0000 0.10903  0.67118  0.47070  Biso   1.000  Ne
  Ne373    1.0000 0.96701  0.05190  0.17709  Biso   1.000  Ne
  He373    1.0000 0.95676  0.06503  0.15022  Biso   1.000  He
  He374    1.0000 0.93996  0.09339  0.15384  Biso   1.000  He
  Ne374    1.0000 0.93076  0.10385  0.12479  Biso   1.000  Ne
  Ne375    1.0000 0.10239  0.88205  0.30303  Biso   1.000  Ne
  He375    1.0000 0.11784  0.87154  0.27553  Biso   1.000  He
  He376    1.0000 0.15237  0.87456  0.27362  Biso   1.000  He
  Ne376    1.0000 0.16244  0.86294  0.24466  Biso   1.000  Ne
  Ne377    1.0000 0.86437  0.12987  0.15859  Biso   1.000  Ne
  He377    1.0000 0.86398  0.16259  0.16429  Biso   1.000  He
  He378    1.0000 0.87159  0.18449  0.14069  Biso   1.000  He
  Ne378    1.0000 0.87508  0.21727  0.15157  Biso   1.000  Ne
  Ne379    1.0000 0.84507  0.40133  0.31447  Biso   1.000  Ne
  He379    1.0000 0.86898  0.39960  0.29129  Biso   1.000  He
  He380    1.0000 0.86640  0.42377  0.26788  Biso   1.000  He
  Ne380    1.0000 0.88493  0.42016  0.24113  Biso   1.000  Ne
