data_image0
_cell_length_a       47.0716
_cell_length_b       46.489
_cell_length_c       46.4555
_cell_angle_alpha    90
_cell_angle_beta     90
_cell_angle_gamma    90

_symmetry_space_group_name_H-M    "P 1"
_symmetry_int_tables_number       1

loop_
  _symmetry_equiv_pos_as_xyz
  'x, y, z'

loop_
  _atom_site_label
  _atom_site_occupancy
  _atom_site_fract_x
  _atom_site_fract_y
  _atom_site_fract_z
  _atom_site_thermal_displace_type
  _atom_site_B_iso_or_equiv
  _atom_site_type_symbol
  Ne1      1.0000 0.88135  0.36135  0.82084  Biso   1.000  Ne
  He1      1.0000 0.87620  0.33835  0.79980  Biso   1.000  He
  He2      1.0000 0.84777  0.33923  0.78641  Biso   1.000  He
  Ne2      1.0000 0.84522  0.31609  0.76406  Biso   1.000  Ne
  Ne3      1.0000 0.13790  0.42536  0.67655  Biso   1.000  Ne
  He3      1.0000 0.15175  0.41817  0.64755  Biso   1.000  He
  He4      1.0000 0.13262  0.42177  0.62051  Biso   1.000  He
  Ne4      1.0000 0.15364  0.41385  0.59258  Biso   1.000  Ne
  Ne5      1.0000 0.86833  0.14423  0.20656  Biso   1.000  Ne
  He5      1.0000 0.84834  0.12737  0.22834  Biso   1.000  He
  He6      1.0000 0.86029  0.11999  0.25863  Biso   1.000  He
  Ne6      1.0000 0.84117  0.09979  0.27655  Biso   1.000  Ne
  Ne7      1.0000 0.72448  0.93296  0.03473  Biso   1.000  Ne
  He7      1.0000 0.70696  0.94788  0.01198  Biso   1.000  He
  He8      1.0000 0.70340  0.92776  0.98572  Biso   1.000  He
  Ne8      1.0000 0.68738  0.94362  0.96099  Biso   1.000  Ne
  Ne9      1.0000 0.06820  0.76246  0.76330  Biso   1.000  Ne
  He9      1.0000 0.10012  0.75346  0.76590  Biso   1.000  He
  He10     1.0000 0.10553  0.73854  0.79629  Biso   1.000  He
  Ne10     1.0000 0.13524  0.72968  0.79984  Biso   1.000  Ne
  Ne11     1.0000 0.58575  0.71512  0.82574  Biso   1.000  Ne
  He11     1.0000 0.57755  0.72803  0.79366  Biso   1.000  He
  He12     1.0000 0.59723  0.75130  0.77939  Biso   1.000  He
  Ne12     1.0000 0.58745  0.76026  0.75001  Biso   1.000  Ne
  Ne13     1.0000 0.30025  0.42321  0.85251  Biso   1.000  Ne
  He13     1.0000 0.30652  0.41123  0.88438  Biso   1.000  He
  He14     1.0000 0.27893  0.41156  0.90407  Biso   1.000  He
  Ne14     1.0000 0.28729  0.40269  0.93227  Biso   1.000  Ne
  Ne15     1.0000 0.54860  0.03494  0.58923  Biso   1.000  Ne
  He15     1.0000 0.53604  0.06328  0.57433  Biso   1.000  He
  He16     1.0000 0.54563  0.06711  0.54353  Biso   1.000  He
  Ne16     1.0000 0.53387  0.09051  0.52884  Biso   1.000  Ne
  Ne17     1.0000 0.44184  0.59743  0.07867  Biso   1.000  Ne
  He17     1.0000 0.45493  0.58011  0.05451  Biso   1.000  He
  He18     1.0000 0.45660  0.54812  0.06013  Biso   1.000  He
  Ne18     1.0000 0.45043  0.52919  0.03361  Biso   1.000  Ne
  Ne19     1.0000 0.57082  0.16433  0.56854  Biso   1.000  Ne
  He19     1.0000 0.57925  0.18471  0.59183  Biso   1.000  He
  He20     1.0000 0.60770  0.17910  0.60578  Biso   1.000  He
  Ne20     1.0000 0.61793  0.20466  0.62536  Biso   1.000  Ne
  Ne21     1.0000 0.88888  0.31295  0.00266  Biso   1.000  Ne
  He21     1.0000 0.91289  0.30022  0.98165  Biso   1.000  He
  He22     1.0000 0.91929  0.26731  0.98688  Biso   1.000  He
  Ne22     1.0000 0.93801  0.25689  0.96057  Biso   1.000  Ne
  Ne23     1.0000 0.34111  0.07475  0.22670  Biso   1.000  Ne
  He23     1.0000 0.36034  0.04971  0.21656  Biso   1.000  He
  He24     1.0000 0.35102  0.02178  0.22498  Biso   1.000  He
  Ne24     1.0000 0.37227  0.99664  0.21128  Biso   1.000  Ne
  Ne25     1.0000 0.09245  0.83001  0.67903  Biso   1.000  Ne
  He25     1.0000 0.09639  0.83186  0.64791  Biso   1.000  He
  He26     1.0000 0.07505  0.81303  0.63043  Biso   1.000  He
  Ne26     1.0000 0.07685  0.81877  0.59480  Biso   1.000  Ne
  Ne27     1.0000 0.69414  0.27264  0.42123  Biso   1.000  Ne
  He27     1.0000 0.72559  0.27286  0.41629  Biso   1.000  He
  He28     1.0000 0.73623  0.30496  0.41296  Biso   1.000  He
  Ne28     1.0000 0.76804  0.30925  0.41005  Biso   1.000  Ne
  Ne29     1.0000 0.54321  0.69512  0.32283  Biso   1.000  Ne
  He29     1.0000 0.52054  0.67287  0.33191  Biso   1.000  He
  He30     1.0000 0.52368  0.64217  0.32187  Biso   1.000  He
  Ne30     1.0000 0.50548  0.62081  0.33955  Biso   1.000  Ne
  Ne31     1.0000 0.24506  0.22058  0.16250  Biso   1.000  Ne
  He31     1.0000 0.22095  0.23830  0.17803  Biso   1.000  He
  He32     1.0000 0.22855  0.24767  0.20797  Biso   1.000  He
  Ne32     1.0000 0.20499  0.26683  0.22218  Biso   1.000  Ne
  Ne33     1.0000 0.99421  0.21410  0.64111  Biso   1.000  Ne
  He33     1.0000 0.96074  0.20875  0.64772  Biso   1.000  He
  He34     1.0000 0.95082  0.21119  0.68020  Biso   1.000  He
  Ne34     1.0000 0.91919  0.20448  0.68405  Biso   1.000  Ne
  Ne35     1.0000 0.04124  0.40482  0.44751  Biso   1.000  Ne
  He35     1.0000 0.05944  0.42703  0.46568  Biso   1.000  He
  He36     1.0000 0.06055  0.45552  0.44945  Biso   1.000  He
  Ne36     1.0000 0.07371  0.48008  0.46577  Biso   1.000  Ne
  Ne37     1.0000 0.69974  0.73354  0.86038  Biso   1.000  Ne
  He37     1.0000 0.71171  0.73533  0.82949  Biso   1.000  He
  He38     1.0000 0.72561  0.70417  0.81798  Biso   1.000  He
  Ne38     1.0000 0.74098  0.70380  0.78842  Biso   1.000  Ne
  Ne39     1.0000 0.27170  0.61498  0.93637  Biso   1.000  Ne
  He39     1.0000 0.25296  0.58681  0.94297  Biso   1.000  He
  He40     1.0000 0.22432  0.58680  0.92902  Biso   1.000  He
  Ne40     1.0000 0.20770  0.55819  0.93175  Biso   1.000  Ne
  Ne41     1.0000 0.55743  0.03733  0.15289  Biso   1.000  Ne
  He41     1.0000 0.55059  0.03316  0.18444  Biso   1.000  He
  He42     1.0000 0.52105  0.01585  0.19110  Biso   1.000  He
  Ne42     1.0000 0.51685  0.01018  0.22094  Biso   1.000  Ne
  Ne43     1.0000 0.99982  0.37766  0.06654  Biso   1.000  Ne
  He43     1.0000 0.01905  0.40003  0.05127  Biso   1.000  He
  He44     1.0000 0.05172  0.40155  0.05959  Biso   1.000  He
  Ne44     1.0000 0.06860  0.42743  0.04708  Biso   1.000  Ne
  Ne45     1.0000 0.06366  0.23641  0.56465  Biso   1.000  Ne
  He45     1.0000 0.09705  0.23144  0.56447  Biso   1.000  He
  He46     1.0000 0.10760  0.20361  0.57780  Biso   1.000  He
  Ne46     1.0000 0.14235  0.20106  0.57510  Biso   1.000  Ne
  Ne47     1.0000 0.17056  0.10740  0.61826  Biso   1.000  Ne
  He47     1.0000 0.14084  0.10014  0.62600  Biso   1.000  He
  He48     1.0000 0.12142  0.12777  0.63628  Biso   1.000  He
  Ne48     1.0000 0.09217  0.11616  0.64797  Biso   1.000  Ne
  Ne49     1.0000 0.77831  0.04738  0.12371  Biso   1.000  Ne
  He49     1.0000 0.74944  0.05033  0.14173  Biso   1.000  He
  He50     1.0000 0.73068  0.07506  0.13303  Biso   1.000  He
  Ne50     1.0000 0.70735  0.06459  0.11496  Biso   1.000  Ne
  Ne51     1.0000 0.14734  0.15440  0.85730  Biso   1.000  Ne
  He51     1.0000 0.11800  0.17286  0.85913  Biso   1.000  He
  He52     1.0000 0.10966  0.18456  0.83050  Biso   1.000  He
  Ne52     1.0000 0.07895  0.20274  0.83218  Biso   1.000  Ne
  Ne53     1.0000 0.07792  0.73580  0.06933  Biso   1.000  Ne
  He53     1.0000 0.09562  0.76425  0.07183  Biso   1.000  He
  He54     1.0000 0.07913  0.79442  0.07359  Biso   1.000  He
  Ne54     1.0000 0.09728  0.82066  0.07827  Biso   1.000  Ne
  Ne55     1.0000 0.69735  0.43935  0.72716  Biso   1.000  Ne
  He55     1.0000 0.68184  0.43887  0.76116  Biso   1.000  He
  He56     1.0000 0.70233  0.44193  0.78576  Biso   1.000  He
  Ne56     1.0000 0.68637  0.43525  0.81825  Biso   1.000  Ne
  Ne57     1.0000 0.70020  0.88136  0.76070  Biso   1.000  Ne
  He57     1.0000 0.71446  0.88677  0.73157  Biso   1.000  He
  He58     1.0000 0.70874  0.91574  0.71832  Biso   1.000  He
  Ne58     1.0000 0.72662  0.92099  0.69061  Biso   1.000  Ne
  Ne59     1.0000 0.55403  0.62419  0.83564  Biso   1.000  Ne
  He59     1.0000 0.56168  0.60401  0.81012  Biso   1.000  He
  He60     1.0000 0.54880  0.61367  0.78182  Biso   1.000  He
  Ne60     1.0000 0.55264  0.59037  0.75943  Biso   1.000  Ne
  Ne61     1.0000 0.87115  0.88671  0.19358  Biso   1.000  Ne
  He61     1.0000 0.89856  0.87409  0.20905  Biso   1.000  He
  He62     1.0000 0.90842  0.89268  0.23331  Biso   1.000  He
  Ne62     1.0000 0.93377  0.87955  0.24809  Biso   1.000  Ne
  Ne63     1.0000 0.03495  0.33141  0.13484  Biso   1.000  Ne
  He63     1.0000 0.03892  0.29995  0.11828  Biso   1.000  He
  He64     1.0000 0.06492  0.28432  0.13130  Biso   1.000  He
  Ne64     1.0000 0.07465  0.25860  0.11531  Biso   1.000  Ne
  Ne65     1.0000 0.71216  0.53149  0.31511  Biso   1.000  Ne
  He65     1.0000 0.69560  0.53523  0.28645  Biso   1.000  He
  He66     1.0000 0.69819  0.56361  0.26981  Biso   1.000  He
  Ne66     1.0000 0.67706  0.56785  0.24446  Biso   1.000  Ne
  Ne67     1.0000 0.51685  0.94772  0.13893  Biso   1.000  Ne
  He67     1.0000 0.48702  0.95582  0.14103  Biso   1.000  He
  He68     1.0000 0.47111  0.94655  0.11318  Biso   1.000  He
  Ne68     1.0000 0.43863  0.95280  0.11510  Biso   1.000  Ne
  Ne69     1.0000 0.09083  0.56197  0.32362  Biso   1.000  Ne
  He69     1.0000 0.11381  0.57507  0.30245  Biso   1.000  He
  He70     1.0000 0.10708  0.56959  0.27271  Biso   1.000  He
  Ne70     1.0000 0.13377  0.58315  0.25696  Biso   1.000  Ne
  Ne71     1.0000 0.38965  0.69359  0.18880  Biso   1.000  Ne
  He71     1.0000 0.40807  0.69072  0.16060  Biso   1.000  He
  He72     1.0000 0.39383  0.67226  0.13595  Biso   1.000  He
  Ne72     1.0000 0.41953  0.66942  0.11026  Biso   1.000  Ne
  Ne73     1.0000 0.07137  0.24793  0.35674  Biso   1.000  Ne
  He73     1.0000 0.05643  0.26596  0.33530  Biso   1.000  He
  He74     1.0000 0.07771  0.28967  0.32304  Biso   1.000  He
  Ne74     1.0000 0.06278  0.31039  0.30093  Biso   1.000  Ne
  Ne75     1.0000 0.62835  0.36946  0.74096  Biso   1.000  Ne
  He75     1.0000 0.61807  0.33964  0.72525  Biso   1.000  He
  He76     1.0000 0.62390  0.34112  0.69267  Biso   1.000  He
  Ne76     1.0000 0.61157  0.31605  0.67347  Biso   1.000  Ne
  Ne77     1.0000 0.13443  0.35815  0.42490  Biso   1.000  Ne
  He77     1.0000 0.15009  0.33773  0.40458  Biso   1.000  He
  He78     1.0000 0.13444  0.30870  0.39438  Biso   1.000  He
  Ne78     1.0000 0.15469  0.28894  0.37889  Biso   1.000  Ne
  Ne79     1.0000 0.48014  0.04590  0.10427  Biso   1.000  Ne
  He79     1.0000 0.45350  0.06638  0.09788  Biso   1.000  He
  He80     1.0000 0.42386  0.05222  0.10132  Biso   1.000  He
  Ne80     1.0000 0.39777  0.06988  0.09347  Biso   1.000  Ne
  Ne81     1.0000 0.11158  0.18268  0.44953  Biso   1.000  Ne
  He81     1.0000 0.13181  0.18236  0.42227  Biso   1.000  He
  He82     1.0000 0.16174  0.19709  0.42479  Biso   1.000  He
  Ne82     1.0000 0.17899  0.19926  0.39514  Biso   1.000  Ne
  Ne83     1.0000 0.76345  0.28929  0.92708  Biso   1.000  Ne
  He83     1.0000 0.78068  0.27343  0.95235  Biso   1.000  He
  He84     1.0000 0.79850  0.29328  0.97058  Biso   1.000  He
  Ne84     1.0000 0.81290  0.27923  0.99938  Biso   1.000  Ne
  Ne85     1.0000 0.86653  0.59575  0.18788  Biso   1.000  Ne
  He85     1.0000 0.87443  0.60484  0.21809  Biso   1.000  He
  He86     1.0000 0.84995  0.60917  0.24086  Biso   1.000  He
  Ne86     1.0000 0.83678  0.63771  0.24572  Biso   1.000  Ne
  Ne87     1.0000 0.52125  0.21587  0.95452  Biso   1.000  Ne
  He87     1.0000 0.49038  0.21089  0.97419  Biso   1.000  He
  He88     1.0000 0.46072  0.21622  0.96007  Biso   1.000  He
  Ne88     1.0000 0.43445  0.21369  0.98253  Biso   1.000  Ne
  Ne89     1.0000 0.34646  0.59779  0.72376  Biso   1.000  Ne
  He89     1.0000 0.33139  0.62669  0.72600  Biso   1.000  He
  He90     1.0000 0.35234  0.65129  0.72715  Biso   1.000  He
  Ne90     1.0000 0.33648  0.67990  0.72490  Biso   1.000  Ne
  Ne91     1.0000 0.33053  0.76734  0.11589  Biso   1.000  Ne
  He91     1.0000 0.36445  0.76479  0.11864  Biso   1.000  He
  He92     1.0000 0.37813  0.75105  0.09215  Biso   1.000  He
  Ne92     1.0000 0.41312  0.75117  0.09338  Biso   1.000  Ne
  Ne93     1.0000 0.43366  0.53048  0.28286  Biso   1.000  Ne
  He93     1.0000 0.40315  0.52389  0.28643  Biso   1.000  He
  He94     1.0000 0.39498  0.51795  0.31906  Biso   1.000  He
  Ne94     1.0000 0.36329  0.50871  0.32301  Biso   1.000  Ne
  Ne95     1.0000 0.90737  0.86279  0.75254  Biso   1.000  Ne
  He95     1.0000 0.90545  0.89146  0.76586  Biso   1.000  He
  He96     1.0000 0.91490  0.89409  0.79914  Biso   1.000  He
  Ne96     1.0000 0.91678  0.92704  0.80606  Biso   1.000  Ne
  Ne97     1.0000 0.04253  0.70390  0.59734  Biso   1.000  Ne
  He97     1.0000 0.07109  0.72073  0.60095  Biso   1.000  He
  He98     1.0000 0.09694  0.70787  0.58366  Biso   1.000  He
  Ne98     1.0000 0.12522  0.72720  0.58239  Biso   1.000  Ne
  Ne99     1.0000 0.90604  0.06781  0.85639  Biso   1.000  Ne
  He99     1.0000 0.89552  0.07676  0.82845  Biso   1.000  He
  He100    1.0000 0.90882  0.10663  0.81780  Biso   1.000  He
  Ne100    1.0000 0.89993  0.11546  0.78642  Biso   1.000  Ne
  Ne101    1.0000 0.24211  0.24613  0.71731  Biso   1.000  Ne
  He101    1.0000 0.25613  0.24874  0.68819  Biso   1.000  He
  He102    1.0000 0.28629  0.25926  0.69071  Biso   1.000  He
  Ne102    1.0000 0.29971  0.26815  0.66156  Biso   1.000  Ne
  Ne103    1.0000 0.77206  0.91706  0.61127  Biso   1.000  Ne
  He103    1.0000 0.74613  0.90092  0.60048  Biso   1.000  He
  He104    1.0000 0.72371  0.91502  0.58148  Biso   1.000  He
  Ne104    1.0000 0.69912  0.89358  0.57412  Biso   1.000  Ne
  Ne105    1.0000 0.45501  0.07919  0.47340  Biso   1.000  Ne
  He105    1.0000 0.47061  0.06361  0.44902  Biso   1.000  He
  He106    1.0000 0.45063  0.03756  0.43605  Biso   1.000  He
  Ne106    1.0000 0.46770  0.02131  0.41143  Biso   1.000  Ne
  Ne107    1.0000 0.87931  0.30221  0.43027  Biso   1.000  Ne
  He107    1.0000 0.85572  0.28098  0.41786  Biso   1.000  He
  He108    1.0000 0.86805  0.25015  0.40411  Biso   1.000  He
  Ne108    1.0000 0.84615  0.22960  0.39560  Biso   1.000  Ne
  Ne109    1.0000 0.07175  0.69116  0.68923  Biso   1.000  Ne
  He109    1.0000 0.08147  0.68110  0.71893  Biso   1.000  He
  He110    1.0000 0.06196  0.65526  0.73179  Biso   1.000  He
  Ne110    1.0000 0.07116  0.64462  0.76395  Biso   1.000  Ne
  Ne111    1.0000 0.84503  0.12364  0.87498  Biso   1.000  Ne
  He111    1.0000 0.81906  0.11488  0.89258  Biso   1.000  He
  He112    1.0000 0.82068  0.08501  0.90431  Biso   1.000  He
  Ne112    1.0000 0.79296  0.07988  0.92296  Biso   1.000  Ne
  Ne113    1.0000 0.35661  0.14494  0.28711  Biso   1.000  Ne
  He113    1.0000 0.37334  0.16663  0.30322  Biso   1.000  He
  He114    1.0000 0.35768  0.19686  0.30282  Biso   1.000  He
  Ne114    1.0000 0.37079  0.22299  0.31997  Biso   1.000  Ne
  Ne115    1.0000 0.13511  0.54991  0.97342  Biso   1.000  Ne
  He115    1.0000 0.12151  0.57913  0.97303  Biso   1.000  He
  He116    1.0000 0.11045  0.58654  0.94379  Biso   1.000  He
  Ne116    1.0000 0.09880  0.61590  0.94490  Biso   1.000  Ne
  Ne117    1.0000 0.09346  0.84037  0.16423  Biso   1.000  Ne
  He117    1.0000 0.08697  0.86090  0.18899  Biso   1.000  He
  He118    1.0000 0.09746  0.89286  0.18514  Biso   1.000  He
  Ne118    1.0000 0.08721  0.91084  0.21224  Biso   1.000  Ne
  Ne119    1.0000 0.79673  0.65022  0.39675  Biso   1.000  Ne
  He119    1.0000 0.82055  0.67370  0.39713  Biso   1.000  He
  He120    1.0000 0.81401  0.70217  0.38114  Biso   1.000  He
  Ne120    1.0000 0.83976  0.71928  0.37428  Biso   1.000  Ne
  Ne121    1.0000 0.35292  0.30820  0.32401  Biso   1.000  Ne
  He121    1.0000 0.37879  0.32042  0.30523  Biso   1.000  He
  He122    1.0000 0.38312  0.30110  0.27645  Biso   1.000  He
  Ne122    1.0000 0.40376  0.31491  0.25381  Biso   1.000  Ne
  Ne123    1.0000 0.56569  0.08412  0.71865  Biso   1.000  Ne
  He123    1.0000 0.57227  0.11741  0.71816  Biso   1.000  He
  He124    1.0000 0.56664  0.12968  0.68794  Biso   1.000  He
  Ne124    1.0000 0.57093  0.16139  0.68608  Biso   1.000  Ne
  Ne125    1.0000 0.66110  0.24271  0.20083  Biso   1.000  Ne
  He125    1.0000 0.66273  0.20847  0.19926  Biso   1.000  He
  He126    1.0000 0.67378  0.19966  0.16994  Biso   1.000  He
  Ne126    1.0000 0.66966  0.16690  0.16275  Biso   1.000  Ne
  Ne127    1.0000 0.76963  0.05765  0.38493  Biso   1.000  Ne
  He127    1.0000 0.74393  0.06339  0.40639  Biso   1.000  He
  He128    1.0000 0.71504  0.06397  0.39543  Biso   1.000  He
  Ne128    1.0000 0.69359  0.06806  0.41982  Biso   1.000  Ne
  Ne129    1.0000 0.55114  0.41552  0.77037  Biso   1.000  Ne
  He129    1.0000 0.57234  0.42880  0.79015  Biso   1.000  He
  He130    1.0000 0.57051  0.41707  0.82196  Biso   1.000  He
  Ne130    1.0000 0.58967  0.43508  0.84343  Biso   1.000  Ne
  Ne131    1.0000 0.54907  0.75099  0.67861  Biso   1.000  Ne
  He131    1.0000 0.54437  0.72356  0.69691  Biso   1.000  He
  He132    1.0000 0.51931  0.70063  0.68765  Biso   1.000  He
  Ne132    1.0000 0.52142  0.67346  0.70742  Biso   1.000  Ne
  Ne133    1.0000 0.18392  0.13864  0.51025  Biso   1.000  Ne
  He133    1.0000 0.19266  0.14462  0.54255  Biso   1.000  He
  He134    1.0000 0.21386  0.17103  0.54103  Biso   1.000  He
  Ne134    1.0000 0.22553  0.18368  0.57180  Biso   1.000  Ne
  Ne135    1.0000 0.94800  0.39815  0.45976  Biso   1.000  Ne
  He135    1.0000 0.92312  0.40592  0.44225  Biso   1.000  He
  He136    1.0000 0.91784  0.43800  0.44281  Biso   1.000  He
  Ne136    1.0000 0.89343  0.45029  0.42297  Biso   1.000  Ne
  Ne137    1.0000 0.98607  0.92960  0.55677  Biso   1.000  Ne
  He137    1.0000 0.99586  0.90251  0.54009  Biso   1.000  He
  He138    1.0000 0.98661  0.87477  0.55513  Biso   1.000  He
  Ne138    1.0000 0.00077  0.84860  0.54164  Biso   1.000  Ne
  Ne139    1.0000 0.41072  0.36466  0.16532  Biso   1.000  Ne
  He139    1.0000 0.41821  0.38722  0.18729  Biso   1.000  He
  He140    1.0000 0.43377  0.37606  0.21404  Biso   1.000  He
  Ne140    1.0000 0.44511  0.39735  0.23591  Biso   1.000  Ne
  Ne141    1.0000 0.85752  0.08012  0.58465  Biso   1.000  Ne
  He141    1.0000 0.82935  0.09000  0.57036  Biso   1.000  He
  He142    1.0000 0.83250  0.10894  0.54304  Biso   1.000  He
  Ne142    1.0000 0.80194  0.11148  0.53069  Biso   1.000  Ne
  Ne143    1.0000 0.56063  0.35302  0.05504  Biso   1.000  Ne
  He143    1.0000 0.56216  0.38770  0.05995  Biso   1.000  He
  He144    1.0000 0.55729  0.39919  0.09196  Biso   1.000  He
  Ne144    1.0000 0.56161  0.43163  0.09666  Biso   1.000  Ne
  Ne145    1.0000 0.56039  0.38500  0.91047  Biso   1.000  Ne
  He145    1.0000 0.58487  0.40849  0.91468  Biso   1.000  He
  He146    1.0000 0.61710  0.40024  0.90760  Biso   1.000  He
  Ne146    1.0000 0.63934  0.42335  0.91371  Biso   1.000  Ne
  Ne147    1.0000 0.44510  0.86960  0.20734  Biso   1.000  Ne
  He147    1.0000 0.43046  0.89484  0.22081  Biso   1.000  He
  He148    1.0000 0.45051  0.92170  0.22352  Biso   1.000  He
  Ne148    1.0000 0.43419  0.94619  0.23718  Biso   1.000  Ne
  Ne149    1.0000 0.77295  0.81384  0.06383  Biso   1.000  Ne
  He149    1.0000 0.75231  0.83690  0.05479  Biso   1.000  He
  He150    1.0000 0.72186  0.82664  0.05818  Biso   1.000  He
  Ne150    1.0000 0.69552  0.84746  0.05477  Biso   1.000  Ne
  Ne151    1.0000 0.12731  0.34910  0.21584  Biso   1.000  Ne
  He151    1.0000 0.13977  0.32867  0.19277  Biso   1.000  He
  He152    1.0000 0.14449  0.34246  0.16528  Biso   1.000  He
  Ne152    1.0000 0.15833  0.32274  0.14173  Biso   1.000  Ne
  Ne153    1.0000 0.13317  0.11824  0.29572  Biso   1.000  Ne
  He153    1.0000 0.14078  0.14621  0.28034  Biso   1.000  He
  He154    1.0000 0.11328  0.16502  0.27709  Biso   1.000  He
  Ne154    1.0000 0.12086  0.19535  0.26441  Biso   1.000  Ne
  Ne155    1.0000 0.20565  0.17081  0.80317  Biso   1.000  Ne
  He155    1.0000 0.19532  0.14706  0.77896  Biso   1.000  He
  He156    1.0000 0.20624  0.11562  0.78049  Biso   1.000  He
  Ne156    1.0000 0.19690  0.09350  0.75835  Biso   1.000  Ne
  Ne157    1.0000 0.77528  0.48188  0.82559  Biso   1.000  Ne
  He157    1.0000 0.78019  0.46131  0.85223  Biso   1.000  He
  He158    1.0000 0.81083  0.45518  0.86063  Biso   1.000  He
  Ne158    1.0000 0.81414  0.43500  0.88477  Biso   1.000  Ne
  Ne159    1.0000 0.04147  0.76670  0.91101  Biso   1.000  Ne
  He159    1.0000 0.06320  0.77224  0.88514  Biso   1.000  He
  He160    1.0000 0.09167  0.78570  0.89116  Biso   1.000  He
  Ne160    1.0000 0.11637  0.78385  0.86614  Biso   1.000  Ne
  Ne161    1.0000 0.31256  0.93400  0.59650  Biso   1.000  Ne
  He161    1.0000 0.28059  0.92355  0.59247  Biso   1.000  He
  He162    1.0000 0.25661  0.94828  0.59118  Biso   1.000  He
  Ne162    1.0000 0.22497  0.93572  0.58931  Biso   1.000  Ne
  Ne163    1.0000 0.99186  0.96988  0.03083  Biso   1.000  Ne
  He163    1.0000 0.99045  0.94969  0.00262  Biso   1.000  He
  He164    1.0000 0.01607  0.92947  0.99478  Biso   1.000  He
  Ne164    1.0000 0.01017  0.91285  0.96594  Biso   1.000  Ne
  Ne165    1.0000 0.62823  0.14247  0.09260  Biso   1.000  Ne
  He165    1.0000 0.63558  0.10835  0.09357  Biso   1.000  He
  He166    1.0000 0.60590  0.08837  0.09457  Biso   1.000  He
  Ne166    1.0000 0.59633  0.07832  0.06610  Biso   1.000  Ne
  Ne167    1.0000 0.63804  0.62329  0.17247  Biso   1.000  Ne
  He167    1.0000 0.61986  0.59534  0.17670  Biso   1.000  He
  He168    1.0000 0.58875  0.60073  0.17837  Biso   1.000  He
  Ne168    1.0000 0.57125  0.57096  0.18598  Biso   1.000  Ne
  Ne169    1.0000 0.29530  0.82480  0.23491  Biso   1.000  Ne
  He169    1.0000 0.27703  0.80563  0.25698  Biso   1.000  He
  He170    1.0000 0.28336  0.80986  0.29089  Biso   1.000  He
  Ne170    1.0000 0.26643  0.78886  0.31034  Biso   1.000  Ne
  Ne171    1.0000 0.34156  0.68924  0.47993  Biso   1.000  Ne
  He171    1.0000 0.36581  0.70702  0.49617  Biso   1.000  He
  He172    1.0000 0.39817  0.70019  0.48398  Biso   1.000  He
  Ne172    1.0000 0.42312  0.71082  0.50184  Biso   1.000  Ne
  Ne173    1.0000 0.41055  0.77937  0.94129  Biso   1.000  Ne
  He173    1.0000 0.40736  0.74657  0.95260  Biso   1.000  He
  He174    1.0000 0.41943  0.72550  0.93251  Biso   1.000  He
  Ne174    1.0000 0.41792  0.69456  0.94257  Biso   1.000  Ne
  Ne175    1.0000 0.96487  0.73316  0.96508  Biso   1.000  Ne
  He175    1.0000 0.95195  0.70500  0.97785  Biso   1.000  He
  He176    1.0000 0.96827  0.69441  0.00308  Biso   1.000  He
  Ne176    1.0000 0.95516  0.66843  0.01864  Biso   1.000  Ne
  Ne177    1.0000 0.34710  0.11558  0.59390  Biso   1.000  Ne
  He177    1.0000 0.32406  0.10478  0.61747  Biso   1.000  He
  He178    1.0000 0.32957  0.11382  0.64944  Biso   1.000  He
  Ne178    1.0000 0.30299  0.10481  0.66719  Biso   1.000  Ne
  Ne179    1.0000 0.71754  0.58811  0.09994  Biso   1.000  Ne
  He179    1.0000 0.68454  0.57409  0.09585  Biso   1.000  He
  He180    1.0000 0.66760  0.58782  0.07041  Biso   1.000  He
  Ne180    1.0000 0.63872  0.56817  0.06386  Biso   1.000  Ne
  Ne181    1.0000 0.79558  0.76933  0.91034  Biso   1.000  Ne
  He181    1.0000 0.81199  0.74906  0.89108  Biso   1.000  He
  He182    1.0000 0.79312  0.71931  0.88835  Biso   1.000  He
  Ne182    1.0000 0.81068  0.69477  0.86865  Biso   1.000  Ne
  Ne183    1.0000 0.11378  0.19506  0.10005  Biso   1.000  Ne
  He183    1.0000 0.14448  0.18693  0.08846  Biso   1.000  He
  He184    1.0000 0.16215  0.17144  0.11374  Biso   1.000  He
  Ne184    1.0000 0.18657  0.15436  0.10149  Biso   1.000  Ne
  Ne185    1.0000 0.41039  0.25810  0.87164  Biso   1.000  Ne
  He185    1.0000 0.39023  0.28456  0.87661  Biso   1.000  He
  He186    1.0000 0.40839  0.30927  0.88762  Biso   1.000  He
  Ne186    1.0000 0.39318  0.33858  0.89807  Biso   1.000  Ne
  Ne187    1.0000 0.08602  0.41352  0.20061  Biso   1.000  Ne
  He187    1.0000 0.05788  0.39876  0.21213  Biso   1.000  He
  He188    1.0000 0.05088  0.40811  0.24271  Biso   1.000  He
  Ne188    1.0000 0.02635  0.39446  0.25793  Biso   1.000  Ne
  Ne189    1.0000 0.80576  0.65993  0.13914  Biso   1.000  Ne
  He189    1.0000 0.77821  0.64516  0.14878  Biso   1.000  He
  He190    1.0000 0.74935  0.66399  0.14763  Biso   1.000  He
  Ne190    1.0000 0.72181  0.64602  0.15662  Biso   1.000  Ne
  Ne191    1.0000 0.17661  0.43069  0.39886  Biso   1.000  Ne
  He191    1.0000 0.19342  0.42497  0.42519  Biso   1.000  He
  He192    1.0000 0.22480  0.42350  0.42030  Biso   1.000  He
  Ne192    1.0000 0.24085  0.42205  0.44987  Biso   1.000  Ne
  Ne193    1.0000 0.72274  0.58561  0.60996  Biso   1.000  Ne
  He193    1.0000 0.71158  0.60342  0.58301  Biso   1.000  He
  He194    1.0000 0.69210  0.63080  0.59216  Biso   1.000  He
  Ne194    1.0000 0.70730  0.66100  0.59156  Biso   1.000  Ne
  Ne195    1.0000 0.55089  0.97233  0.47496  Biso   1.000  Ne
  He195    1.0000 0.53714  0.00277  0.47304  Biso   1.000  He
  He196    1.0000 0.54967  0.02207  0.44745  Biso   1.000  He
  Ne196    1.0000 0.57268  0.04678  0.45522  Biso   1.000  Ne
  Ne197    1.0000 0.84545  0.32537  0.89077  Biso   1.000  Ne
  He197    1.0000 0.87810  0.31202  0.89221  Biso   1.000  He
  He198    1.0000 0.88127  0.28273  0.87617  Biso   1.000  He
  Ne198    1.0000 0.91298  0.27448  0.87512  Biso   1.000  Ne
  Ne199    1.0000 0.63850  0.77085  0.90179  Biso   1.000  Ne
  He199    1.0000 0.61424  0.77578  0.92678  Biso   1.000  He
  He200    1.0000 0.58503  0.77087  0.91677  Biso   1.000  He
  Ne200    1.0000 0.56129  0.77364  0.94063  Biso   1.000  Ne
  Ne201    1.0000 0.43189  0.28751  0.52861  Biso   1.000  Ne
  He201    1.0000 0.46264  0.29298  0.51663  Biso   1.000  He
  He202    1.0000 0.46722  0.27361  0.48661  Biso   1.000  He
  Ne202    1.0000 0.49692  0.27830  0.46999  Biso   1.000  Ne
  Ne203    1.0000 0.26791  0.12506  0.84653  Biso   1.000  Ne
  He203    1.0000 0.28643  0.09959  0.84740  Biso   1.000  He
  He204    1.0000 0.27393  0.07961  0.86809  Biso   1.000  He
  Ne204    1.0000 0.29426  0.05026  0.87976  Biso   1.000  Ne
  Ne205    1.0000 0.40119  0.98077  0.46312  Biso   1.000  Ne
  He205    1.0000 0.41099  0.95678  0.48665  Biso   1.000  He
  He206    1.0000 0.44303  0.95361  0.48003  Biso   1.000  He
  Ne206    1.0000 0.45799  0.92839  0.49754  Biso   1.000  Ne
  Ne207    1.0000 0.14141  0.78180  0.26154  Biso   1.000  Ne
  He207    1.0000 0.15440  0.77845  0.29185  Biso   1.000  He
  He208    1.0000 0.16139  0.80759  0.30290  Biso   1.000  He
  Ne208    1.0000 0.17382  0.80807  0.33486  Biso   1.000  Ne
  Ne209    1.0000 0.19263  0.85566  0.93240  Biso   1.000  Ne
  He209    1.0000 0.20266  0.82423  0.92622  Biso   1.000  He
  He210    1.0000 0.18165  0.79808  0.93501  Biso   1.000  He
  Ne210    1.0000 0.19401  0.76914  0.92873  Biso   1.000  Ne
  Ne211    1.0000 0.84708  0.92447  0.88423  Biso   1.000  Ne
  He211    1.0000 0.82074  0.91834  0.90297  Biso   1.000  He
  He212    1.0000 0.79324  0.90810  0.88222  Biso   1.000  He
  Ne212    1.0000 0.76255  0.90691  0.89788  Biso   1.000  Ne
  Ne213    1.0000 0.09362  0.74276  0.19928  Biso   1.000  Ne
  He213    1.0000 0.09105  0.73109  0.16722  Biso   1.000  He
  He214    1.0000 0.05865  0.72095  0.15859  Biso   1.000  He
  Ne214    1.0000 0.05474  0.70490  0.13128  Biso   1.000  Ne
  Ne215    1.0000 0.53873  0.23239  0.34394  Biso   1.000  Ne
  He215    1.0000 0.55459  0.21413  0.31830  Biso   1.000  He
  He216    1.0000 0.55154  0.18203  0.32579  Biso   1.000  He
  Ne216    1.0000 0.57339  0.16024  0.30724  Biso   1.000  Ne
  Ne217    1.0000 0.41021  0.43208  0.88989  Biso   1.000  Ne
  He217    1.0000 0.39032  0.44030  0.91567  Biso   1.000  He
  He218    1.0000 0.40559  0.44025  0.94348  Biso   1.000  He
  Ne218    1.0000 0.38504  0.44198  0.96918  Biso   1.000  Ne
  Ne219    1.0000 0.02289  0.01888  0.30287  Biso   1.000  Ne
  He219    1.0000 0.02682  0.05097  0.29115  Biso   1.000  He
  He220    1.0000 0.00551  0.07341  0.30318  Biso   1.000  He
  Ne220    1.0000 0.00903  0.10433  0.29392  Biso   1.000  Ne
  Ne221    1.0000 0.32101  0.44203  0.29350  Biso   1.000  Ne
  He221    1.0000 0.30479  0.43880  0.26360  Biso   1.000  He
  He222    1.0000 0.32444  0.42070  0.24266  Biso   1.000  He
  Ne222    1.0000 0.31255  0.41774  0.21190  Biso   1.000  Ne
  Ne223    1.0000 0.48120  0.48565  0.38065  Biso   1.000  Ne
  He223    1.0000 0.49928  0.48085  0.35099  Biso   1.000  He
  He224    1.0000 0.48516  0.46170  0.32905  Biso   1.000  He
  Ne224    1.0000 0.50060  0.45844  0.30169  Biso   1.000  Ne
  Ne225    1.0000 0.84077  0.51272  0.20334  Biso   1.000  Ne
  He225    1.0000 0.86688  0.49027  0.19229  Biso   1.000  He
  He226    1.0000 0.87064  0.46577  0.21334  Biso   1.000  He
  Ne226    1.0000 0.89537  0.44434  0.20623  Biso   1.000  Ne
  Ne227    1.0000 0.26836  0.23296  0.92062  Biso   1.000  Ne
  He227    1.0000 0.25580  0.21019  0.89831  Biso   1.000  He
  He228    1.0000 0.22563  0.21585  0.88604  Biso   1.000  He
  Ne228    1.0000 0.20127  0.19926  0.90287  Biso   1.000  Ne
  Ne229    1.0000 0.96640  0.64957  0.14667  Biso   1.000  Ne
  He229    1.0000 0.97135  0.62901  0.17146  Biso   1.000  He
  He230    1.0000 0.96317  0.59844  0.16531  Biso   1.000  He
  Ne230    1.0000 0.96948  0.57832  0.18757  Biso   1.000  Ne
  Ne231    1.0000 0.65800  0.34748  0.85972  Biso   1.000  Ne
  He231    1.0000 0.69199  0.35186  0.85101  Biso   1.000  He
  He232    1.0000 0.71266  0.33102  0.86554  Biso   1.000  He
  Ne232    1.0000 0.74307  0.33423  0.85349  Biso   1.000  Ne
  Ne233    1.0000 0.15397  0.27801  0.77128  Biso   1.000  Ne
  He233    1.0000 0.12598  0.26686  0.78659  Biso   1.000  He
  He234    1.0000 0.09985  0.28014  0.77040  Biso   1.000  He
  Ne234    1.0000 0.07120  0.26780  0.77938  Biso   1.000  Ne
  Ne235    1.0000 0.85646  0.18426  0.82392  Biso   1.000  Ne
  He235    1.0000 0.87870  0.21124  0.82144  Biso   1.000  He
  He236    1.0000 0.88183  0.22702  0.79011  Biso   1.000  He
  Ne236    1.0000 0.90891  0.21930  0.77249  Biso   1.000  Ne
  Ne237    1.0000 0.81371  0.41072  0.73653  Biso   1.000  Ne
  He237    1.0000 0.82698  0.42491  0.76244  Biso   1.000  He
  He238    1.0000 0.85708  0.43799  0.75588  Biso   1.000  He
  Ne238    1.0000 0.88313  0.43257  0.78111  Biso   1.000  Ne
  Ne239    1.0000 0.64775  0.89096  0.17618  Biso   1.000  Ne
  He239    1.0000 0.65583  0.87647  0.20657  Biso   1.000  He
  He240    1.0000 0.68988  0.87674  0.21360  Biso   1.000  He
  Ne240    1.0000 0.69553  0.86432  0.24249  Biso   1.000  Ne
  Ne241    1.0000 0.08392  0.58781  0.66092  Biso   1.000  Ne
  He241    1.0000 0.09713  0.59500  0.63059  Biso   1.000  He
  He242    1.0000 0.12989  0.60148  0.63038  Biso   1.000  He
  Ne242    1.0000 0.14209  0.61252  0.60091  Biso   1.000  Ne
  Ne243    1.0000 0.87441  0.71798  0.94004  Biso   1.000  Ne
  He243    1.0000 0.86229  0.69332  0.95964  Biso   1.000  He
  He244    1.0000 0.82781  0.69392  0.96529  Biso   1.000  He
  Ne244    1.0000 0.81599  0.66766  0.98355  Biso   1.000  Ne
  Ne245    1.0000 0.61827  0.57720  0.54895  Biso   1.000  Ne
  He245    1.0000 0.64770  0.56407  0.55525  Biso   1.000  He
  He246    1.0000 0.66844  0.55895  0.53143  Biso   1.000  He
  Ne246    1.0000 0.69375  0.54111  0.54267  Biso   1.000  Ne
  Ne247    1.0000 0.14188  0.90034  0.08671  Biso   1.000  Ne
  He247    1.0000 0.11152  0.91533  0.09542  Biso   1.000  He
  He248    1.0000 0.08791  0.91189  0.07263  Biso   1.000  He
  Ne248    1.0000 0.06146  0.93009  0.08365  Biso   1.000  Ne
  Ne249    1.0000 0.22722  0.47144  0.09351  Biso   1.000  Ne
  He249    1.0000 0.20359  0.45131  0.08313  Biso   1.000  He
  He250    1.0000 0.19760  0.45140  0.05120  Biso   1.000  He
  Ne250    1.0000 0.17371  0.42957  0.04321  Biso   1.000  Ne
  Ne251    1.0000 0.54338  0.11854  0.92489  Biso   1.000  Ne
  He251    1.0000 0.54493  0.12021  0.89124  Biso   1.000  He
  He252    1.0000 0.54357  0.09179  0.87569  Biso   1.000  He
  Ne252    1.0000 0.55500  0.09327  0.84548  Biso   1.000  Ne
  Ne253    1.0000 0.53864  0.57370  0.06264  Biso   1.000  Ne
  He253    1.0000 0.54778  0.54516  0.04746  Biso   1.000  He
  He254    1.0000 0.57109  0.52940  0.06217  Biso   1.000  He
  Ne254    1.0000 0.57676  0.49732  0.05479  Biso   1.000  Ne
  Ne255    1.0000 0.06512  0.39329  0.35364  Biso   1.000  Ne
  He255    1.0000 0.08905  0.38294  0.33070  Biso   1.000  He
  He256    1.0000 0.09474  0.40564  0.30496  Biso   1.000  He
  Ne256    1.0000 0.12258  0.40039  0.28564  Biso   1.000  Ne
  Ne257    1.0000 0.20903  0.66667  0.04877  Biso   1.000  Ne
  He257    1.0000 0.21872  0.67199  0.08218  Biso   1.000  He
  He258    1.0000 0.25127  0.68362  0.08497  Biso   1.000  He
  Ne258    1.0000 0.25954  0.69658  0.11225  Biso   1.000  Ne
  Ne259    1.0000 0.29361  0.83765  0.42505  Biso   1.000  Ne
  He259    1.0000 0.26684  0.85255  0.41381  Biso   1.000  He
  He260    1.0000 0.26008  0.88124  0.42841  Biso   1.000  He
  Ne260    1.0000 0.22880  0.89193  0.42232  Biso   1.000  Ne
  Ne261    1.0000 0.32539  0.00527  0.81241  Biso   1.000  Ne
  He261    1.0000 0.30851  0.97559  0.81337  Biso   1.000  He
  He262    1.0000 0.27925  0.97480  0.82736  Biso   1.000  He
  Ne262    1.0000 0.26121  0.94685  0.82005  Biso   1.000  Ne
  Ne263    1.0000 0.42615  0.07387  0.58615  Biso   1.000  Ne
  He263    1.0000 0.44625  0.05299  0.57054  Biso   1.000  He
  He264    1.0000 0.44869  0.02511  0.59011  Biso   1.000  He
  Ne264    1.0000 0.46887  0.00097  0.57414  Biso   1.000  Ne
  Ne265    1.0000 0.80724  0.31617  0.68539  Biso   1.000  Ne
  He265    1.0000 0.82091  0.30511  0.65731  Biso   1.000  He
  He266    1.0000 0.80838  0.27702  0.64377  Biso   1.000  He
  Ne266    1.0000 0.82144  0.26785  0.61506  Biso   1.000  Ne
  Ne267    1.0000 0.49982  0.67088  0.51422  Biso   1.000  Ne
  He267    1.0000 0.51426  0.69874  0.52347  Biso   1.000  He
  He268    1.0000 0.51493  0.70157  0.55571  Biso   1.000  He
  Ne268    1.0000 0.52798  0.73023  0.56927  Biso   1.000  Ne
  Ne269    1.0000 0.32127  0.68892  0.94194  Biso   1.000  Ne
  He269    1.0000 0.33403  0.72029  0.94688  Biso   1.000  He
  He270    1.0000 0.31360  0.74154  0.96641  Biso   1.000  He
  Ne270    1.0000 0.32011  0.77562  0.96437  Biso   1.000  Ne
  Ne271    1.0000 0.25933  0.94753  0.97635  Biso   1.000  Ne
  He271    1.0000 0.24691  0.94970  0.94513  Biso   1.000  He
  He272    1.0000 0.25406  0.92322  0.92589  Biso   1.000  He
  Ne272    1.0000 0.24017  0.92386  0.89646  Biso   1.000  Ne
  Ne273    1.0000 0.80823  0.87574  0.13694  Biso   1.000  Ne
  He273    1.0000 0.83049  0.88640  0.11426  Biso   1.000  He
  He274    1.0000 0.81522  0.89439  0.08589  Biso   1.000  He
  Ne274    1.0000 0.83700  0.90226  0.06306  Biso   1.000  Ne
  Ne275    1.0000 0.28200  0.89907  0.66731  Biso   1.000  Ne
  He275    1.0000 0.28269  0.92275  0.69246  Biso   1.000  He
  He276    1.0000 0.31030  0.92293  0.71366  Biso   1.000  He
  Ne276    1.0000 0.30520  0.94619  0.73604  Biso   1.000  Ne
  Ne277    1.0000 0.08989  0.45365  0.79503  Biso   1.000  Ne
  He277    1.0000 0.08271  0.42326  0.78124  Biso   1.000  He
  He278    1.0000 0.10531  0.41469  0.75604  Biso   1.000  He
  Ne278    1.0000 0.09794  0.38233  0.74711  Biso   1.000  Ne
  Ne279    1.0000 0.96977  0.04391  0.68042  Biso   1.000  Ne
  He279    1.0000 0.95373  0.07413  0.68489  Biso   1.000  He
  He280    1.0000 0.97487  0.09939  0.69509  Biso   1.000  He
  Ne280    1.0000 0.95947  0.12861  0.69731  Biso   1.000  Ne
  Ne281    1.0000 0.37642  0.56078  0.08089  Biso   1.000  Ne
  He281    1.0000 0.35517  0.58152  0.09525  Biso   1.000  He
  He282    1.0000 0.35939  0.61407  0.09057  Biso   1.000  He
  Ne282    1.0000 0.33467  0.63627  0.09885  Biso   1.000  Ne
  Ne283    1.0000 0.77054  0.03655  0.59669  Biso   1.000  Ne
  He283    1.0000 0.75379  0.05689  0.57723  Biso   1.000  He
  He284    1.0000 0.74472  0.08340  0.59548  Biso   1.000  He
  Ne284    1.0000 0.72764  0.10808  0.58024  Biso   1.000  Ne
  Ne285    1.0000 0.77494  0.57573  0.40489  Biso   1.000  Ne
  He285    1.0000 0.74435  0.57323  0.41760  Biso   1.000  He
  He286    1.0000 0.72412  0.59981  0.40610  Biso   1.000  He
  Ne286    1.0000 0.69822  0.60587  0.42712  Biso   1.000  Ne
  Ne287    1.0000 0.68459  0.02475  0.94611  Biso   1.000  Ne
  He287    1.0000 0.68833  0.04636  0.91904  Biso   1.000  He
  He288    1.0000 0.67287  0.07484  0.91860  Biso   1.000  He
  Ne288    1.0000 0.64782  0.07453  0.89660  Biso   1.000  Ne
  Ne289    1.0000 0.54863  0.51141  0.69448  Biso   1.000  Ne
  He289    1.0000 0.52726  0.53590  0.69472  Biso   1.000  He
  He290    1.0000 0.50558  0.53313  0.66929  Biso   1.000  He
  Ne290    1.0000 0.48230  0.55985  0.67205  Biso   1.000  Ne
  Ne291    1.0000 0.69249  0.04828  0.02768  Biso   1.000  Ne
  He291    1.0000 0.68233  0.07757  0.03596  Biso   1.000  He
  He292    1.0000 0.69389  0.10195  0.01591  Biso   1.000  He
  Ne292    1.0000 0.68442  0.13253  0.02052  Biso   1.000  Ne
  Ne293    1.0000 0.20687  0.55064  0.11132  Biso   1.000  Ne
  He293    1.0000 0.19561  0.55147  0.14069  Biso   1.000  He
  He294    1.0000 0.22002  0.56015  0.16032  Biso   1.000  He
  Ne294    1.0000 0.20759  0.56096  0.19294  Biso   1.000  Ne
  Ne295    1.0000 0.45984  0.98253  0.78944  Biso   1.000  Ne
  He295    1.0000 0.47156  0.01113  0.79835  Biso   1.000  He
  He296    1.0000 0.45476  0.03856  0.78784  Biso   1.000  He
  Ne296    1.0000 0.47563  0.06602  0.78936  Biso   1.000  Ne
  Ne297    1.0000 0.92252  0.48246  0.58578  Biso   1.000  Ne
  He297    1.0000 0.93064  0.45167  0.58340  Biso   1.000  He
  He298    1.0000 0.90994  0.43579  0.56360  Biso   1.000  He
  Ne298    1.0000 0.91896  0.40455  0.55504  Biso   1.000  Ne
  Ne299    1.0000 0.15636  0.43765  0.87940  Biso   1.000  Ne
  He299    1.0000 0.14982  0.43934  0.91013  Biso   1.000  He
  He300    1.0000 0.16709  0.46172  0.92831  Biso   1.000  He
  Ne300    1.0000 0.15472  0.46732  0.95984  Biso   1.000  Ne
  Ne301    1.0000 0.23114  0.06786  0.15247  Biso   1.000  Ne
  He301    1.0000 0.25710  0.05553  0.13384  Biso   1.000  He
  He302    1.0000 0.26764  0.02692  0.14075  Biso   1.000  He
  Ne302    1.0000 0.29722  0.02353  0.12464  Biso   1.000  Ne
  Ne303    1.0000 0.63607  0.88439  0.32848  Biso   1.000  Ne
  He303    1.0000 0.60890  0.87126  0.33311  Biso   1.000  He
  He304    1.0000 0.58340  0.88309  0.31706  Biso   1.000  He
  Ne304    1.0000 0.55579  0.86372  0.32123  Biso   1.000  Ne
  Ne305    1.0000 0.59609  0.30594  0.48152  Biso   1.000  Ne
  He305    1.0000 0.62059  0.28648  0.49398  Biso   1.000  He
  He306    1.0000 0.63516  0.30033  0.52083  Biso   1.000  He
  Ne306    1.0000 0.65527  0.28016  0.54046  Biso   1.000  Ne
  Ne307    1.0000 0.30350  0.85254  0.12438  Biso   1.000  Ne
  He307    1.0000 0.31582  0.87620  0.14270  Biso   1.000  He
  He308    1.0000 0.34833  0.87138  0.14788  Biso   1.000  He
  Ne308    1.0000 0.36283  0.89715  0.16332  Biso   1.000  Ne
  Ne309    1.0000 0.49950  0.88427  0.86979  Biso   1.000  Ne
  He309    1.0000 0.47344  0.89442  0.85282  Biso   1.000  He
  He310    1.0000 0.47807  0.89382  0.82092  Biso   1.000  He
  Ne310    1.0000 0.45221  0.90681  0.80549  Biso   1.000  Ne
  Ne311    1.0000 0.00173  0.04184  0.10523  Biso   1.000  Ne
  He311    1.0000 0.02873  0.06122  0.09784  Biso   1.000  He
  He312    1.0000 0.02651  0.08300  0.07548  Biso   1.000  He
  Ne312    1.0000 0.05305  0.09968  0.07418  Biso   1.000  Ne
  Ne313    1.0000 0.92153  0.28704  0.11471  Biso   1.000  Ne
  He313    1.0000 0.91041  0.25331  0.12232  Biso   1.000  He
  He314    1.0000 0.91488  0.23246  0.09704  Biso   1.000  He
  Ne314    1.0000 0.90889  0.20043  0.10708  Biso   1.000  Ne
  Ne315    1.0000 0.08300  0.84937  0.40425  Biso   1.000  Ne
  He315    1.0000 0.11169  0.83494  0.39364  Biso   1.000  He
  He316    1.0000 0.13141  0.82224  0.41773  Biso   1.000  He
  Ne316    1.0000 0.12624  0.78911  0.41821  Biso   1.000  Ne
  Ne317    1.0000 0.10097  0.37291  0.85708  Biso   1.000  Ne
  He317    1.0000 0.07328  0.35268  0.85475  Biso   1.000  He
  He318    1.0000 0.05924  0.34610  0.82437  Biso   1.000  He
  Ne318    1.0000 0.03296  0.36625  0.81418  Biso   1.000  Ne
  Ne319    1.0000 0.30749  0.44653  0.76340  Biso   1.000  Ne
  He319    1.0000 0.29095  0.41973  0.75924  Biso   1.000  He
  He320    1.0000 0.25981  0.42321  0.76479  Biso   1.000  He
  Ne320    1.0000 0.24440  0.39545  0.76261  Biso   1.000  Ne
  Ne321    1.0000 0.31053  0.59035  0.84720  Biso   1.000  Ne
  He321    1.0000 0.34017  0.60572  0.84762  Biso   1.000  He
  He322    1.0000 0.33685  0.63680  0.86207  Biso   1.000  He
  Ne322    1.0000 0.36632  0.65439  0.85901  Biso   1.000  Ne
  Ne323    1.0000 0.58307  0.40022  0.65473  Biso   1.000  Ne
  He323    1.0000 0.56090  0.42277  0.66413  Biso   1.000  He
  He324    1.0000 0.53389  0.41228  0.68022  Biso   1.000  He
  Ne324    1.0000 0.51568  0.43828  0.69348  Biso   1.000  Ne
  Ne325    1.0000 0.10430  0.66701  0.41931  Biso   1.000  Ne
  He325    1.0000 0.07486  0.68618  0.41951  Biso   1.000  He
  He326    1.0000 0.07722  0.71775  0.41761  Biso   1.000  He
  Ne326    1.0000 0.04870  0.73487  0.42118  Biso   1.000  Ne
  Ne327    1.0000 0.93642  0.55179  0.54714  Biso   1.000  Ne
  He327    1.0000 0.91651  0.57139  0.56832  Biso   1.000  He
  He328    1.0000 0.89933  0.55375  0.58957  Biso   1.000  He
  Ne328    1.0000 0.88619  0.57085  0.61366  Biso   1.000  Ne
  Ne329    1.0000 0.16831  0.20409  0.70039  Biso   1.000  Ne
  He329    1.0000 0.14018  0.22275  0.69570  Biso   1.000  He
  He330    1.0000 0.13450  0.23189  0.66591  Biso   1.000  He
  Ne330    1.0000 0.10592  0.24826  0.66387  Biso   1.000  Ne
  Ne331    1.0000 0.59172  0.86151  0.04841  Biso   1.000  Ne
  He331    1.0000 0.59697  0.84012  0.07110  Biso   1.000  He
  He332    1.0000 0.59149  0.80935  0.05807  Biso   1.000  He
  Ne332    1.0000 0.59805  0.78621  0.07953  Biso   1.000  Ne
  Ne333    1.0000 0.66215  0.36922  0.07276  Biso   1.000  Ne
  He333    1.0000 0.68287  0.34333  0.08197  Biso   1.000  He
  He334    1.0000 0.71515  0.35172  0.08719  Biso   1.000  He
  Ne334    1.0000 0.73189  0.32767  0.10074  Biso   1.000  Ne
  Ne335    1.0000 0.17278  0.65548  0.91140  Biso   1.000  Ne
  He335    1.0000 0.18106  0.66560  0.94116  Biso   1.000  He
  He336    1.0000 0.16096  0.68907  0.95265  Biso   1.000  He
  Ne336    1.0000 0.16547  0.69795  0.98441  Biso   1.000  Ne
  Ne337    1.0000 0.58207  0.31061  0.22521  Biso   1.000  Ne
  He337    1.0000 0.57835  0.33175  0.19729  Biso   1.000  He
  He338    1.0000 0.57074  0.31618  0.16970  Biso   1.000  He
  Ne338    1.0000 0.56774  0.33606  0.14393  Biso   1.000  Ne
  Ne339    1.0000 0.57080  0.66781  0.91231  Biso   1.000  Ne
  He339    1.0000 0.59912  0.67476  0.89932  Biso   1.000  He
  He340    1.0000 0.62496  0.65229  0.90741  Biso   1.000  He
  Ne340    1.0000 0.65526  0.65926  0.89841  Biso   1.000  Ne
  Ne341    1.0000 0.33481  0.90582  0.38352  Biso   1.000  Ne
  He341    1.0000 0.32254  0.88304  0.36421  Biso   1.000  He
  He342    1.0000 0.34887  0.86366  0.35558  Biso   1.000  He
  Ne342    1.0000 0.33865  0.83714  0.34148  Biso   1.000  Ne
  Ne343    1.0000 0.58682  0.92678  0.20876  Biso   1.000  Ne
  He343    1.0000 0.59940  0.95239  0.19053  Biso   1.000  He
  He344    1.0000 0.62239  0.97154  0.20140  Biso   1.000  He
  Ne344    1.0000 0.62916  0.99345  0.18009  Biso   1.000  Ne
  Ne345    1.0000 0.65197  0.08752  0.57895  Biso   1.000  Ne
  He345    1.0000 0.63584  0.08723  0.60629  Biso   1.000  He
  He346    1.0000 0.65581  0.07701  0.62991  Biso   1.000  He
  Ne346    1.0000 0.63830  0.07840  0.66299  Biso   1.000  Ne
  Ne347    1.0000 0.44596  0.15015  0.86760  Biso   1.000  Ne
  He347    1.0000 0.42413  0.17510  0.86452  Biso   1.000  He
  He348    1.0000 0.41339  0.17945  0.83456  Biso   1.000  He
  Ne348    1.0000 0.38741  0.20105  0.83599  Biso   1.000  Ne
  Ne349    1.0000 0.72023  0.57403  0.89567  Biso   1.000  Ne
  He349    1.0000 0.74387  0.59226  0.90492  Biso   1.000  He
  He350    1.0000 0.73798  0.62164  0.91868  Biso   1.000  He
  Ne350    1.0000 0.76485  0.64210  0.92100  Biso   1.000  Ne
  Ne351    1.0000 0.32888  0.08427  0.41784  Biso   1.000  Ne
  He351    1.0000 0.30171  0.08359  0.43735  Biso   1.000  He
  He352    1.0000 0.28065  0.10854  0.42851  Biso   1.000  He
  Ne352    1.0000 0.25357  0.11049  0.45015  Biso   1.000  Ne
  Ne353    1.0000 0.13308  0.07409  0.22265  Biso   1.000  Ne
  He353    1.0000 0.13401  0.09486  0.19758  Biso   1.000  He
  He354    1.0000 0.13717  0.08244  0.16702  Biso   1.000  He
  Ne354    1.0000 0.12569  0.10124  0.14470  Biso   1.000  Ne
  Ne355    1.0000 0.31316  0.18007  0.69903  Biso   1.000  Ne
  He355    1.0000 0.34848  0.17520  0.70435  Biso   1.000  He
  He356    1.0000 0.36224  0.20107  0.71870  Biso   1.000  He
  Ne356    1.0000 0.39500  0.19628  0.72583  Biso   1.000  Ne
  Ne357    1.0000 0.24574  0.04709  0.21622  Biso   1.000  Ne
  He357    1.0000 0.23182  0.06094  0.24362  Biso   1.000  He
  He358    1.0000 0.22976  0.09569  0.23819  Biso   1.000  He
  Ne358    1.0000 0.21423  0.11470  0.26134  Biso   1.000  Ne
  Ne359    1.0000 0.46425  0.81062  0.00416  Biso   1.000  Ne
  He359    1.0000 0.47940  0.80505  0.03224  Biso   1.000  He
  He360    1.0000 0.48519  0.77307  0.04100  Biso   1.000  He
  Ne360    1.0000 0.50352  0.76682  0.06847  Biso   1.000  Ne
  Ne361    1.0000 0.58534  0.78171  0.21154  Biso   1.000  Ne
  He361    1.0000 0.56083  0.80189  0.22308  Biso   1.000  He
  He362    1.0000 0.56656  0.83487  0.23190  Biso   1.000  He
  Ne362    1.0000 0.54120  0.85105  0.24522  Biso   1.000  Ne
  Ne363    1.0000 0.47913  0.33735  0.29296  Biso   1.000  Ne
  He363    1.0000 0.47489  0.36667  0.31015  Biso   1.000  He
  He364    1.0000 0.44460  0.37600  0.31233  Biso   1.000  He
  Ne364    1.0000 0.44011  0.40502  0.32797  Biso   1.000  Ne
  Ne365    1.0000 0.23329  0.05349  0.32235  Biso   1.000  Ne
  He365    1.0000 0.20729  0.06748  0.34205  Biso   1.000  He
  He366    1.0000 0.21799  0.07488  0.37461  Biso   1.000  He
  Ne366    1.0000 0.19795  0.09646  0.38961  Biso   1.000  Ne
  Ne367    1.0000 0.79011  0.07175  0.76266  Biso   1.000  Ne
  He367    1.0000 0.79514  0.09590  0.78566  Biso   1.000  He
  He368    1.0000 0.76816  0.11134  0.79695  Biso   1.000  He
  Ne368    1.0000 0.77727  0.13671  0.81733  Biso   1.000  Ne
  Ne369    1.0000 0.64448  0.99818  0.08830  Biso   1.000  Ne
  He369    1.0000 0.64001  0.96348  0.08294  Biso   1.000  He
  He370    1.0000 0.65596  0.94283  0.10037  Biso   1.000  He
  Ne370    1.0000 0.65661  0.91052  0.08842  Biso   1.000  Ne
  Ne371    1.0000 0.28924  0.41441  0.09580  Biso   1.000  Ne
  He371    1.0000 0.31301  0.42017  0.11923  Biso   1.000  He
  He372    1.0000 0.33175  0.39626  0.12845  Biso   1.000  He
  Ne372    1.0000 0.35703  0.40872  0.14625  Biso   1.000  Ne
  Ne373    1.0000 0.93033  0.74444  0.05163  Biso   1.000  Ne
  He373    1.0000 0.92903  0.77569  0.06530  Biso   1.000  He
  He374    1.0000 0.90342  0.78255  0.08543  Biso   1.000  He
  Ne374    1.0000 0.90468  0.81434  0.09601  Biso   1.000  Ne
  Ne375    1.0000 0.90105  0.96370  0.96440  Biso   1.000  Ne
  He375    1.0000 0.89906  0.94368  0.93803  Biso   1.000  He
  He376    1.0000 0.92977  0.93595  0.92551  Biso   1.000  He
  Ne376    1.0000 0.93011  0.91414  0.89733  Biso   1.000  Ne
  Ne377    1.0000 0.75510  0.47762  0.94834  Biso   1.000  Ne
  He377    1.0000 0.76648  0.50361  0.93285  Biso   1.000  He
  He378    1.0000 0.79917  0.50212  0.92674  Biso   1.000  He
  Ne378    1.0000 0.81131  0.52924  0.91310  Biso   1.000  Ne
  Ne379    1.0000 0.06565  0.88785  0.88034  Biso   1.000  Ne
  He379    1.0000 0.07539  0.86519  0.85785  Biso   1.000  He
  He380    1.0000 0.06274  0.86938  0.82675  Biso   1.000  He
  Ne380    1.0000 0.07104  0.84517  0.80539  Biso   1.000  Ne
  Ne381    1.0000 0.38930  0.84813  0.01736  Biso   1.000  Ne
  He381    1.0000 0.36409  0.85310  0.99814  Biso   1.000  He
  He382    1.0000 0.33556  0.85709  0.01416  Biso   1.000  He
  Ne382    1.0000 0.30716  0.85765  0.99453  Biso   1.000  Ne
  Ne383    1.0000 0.38006  0.42685  0.81034  Biso   1.000  Ne
  He383    1.0000 0.38855  0.39944  0.82311  Biso   1.000  He
  He384    1.0000 0.39213  0.37578  0.80055  Biso   1.000  He
  Ne384    1.0000 0.40029  0.34492  0.80806  Biso   1.000  Ne
  Ne385    1.0000 0.12350  0.49089  0.07465  Biso   1.000  Ne
  He385    1.0000 0.10710  0.49991  0.10112  Biso   1.000  He
  He386    1.0000 0.07473  0.50234  0.09999  Biso   1.000  He
  Ne386    1.0000 0.05967  0.51127  0.12758  Biso   1.000  Ne
  Ne387    1.0000 0.60272  0.26919  0.79856  Biso   1.000  Ne
  He387    1.0000 0.59301  0.29681  0.81494  Biso   1.000  He
  He388    1.0000 0.56449  0.30908  0.80265  Biso   1.000  He
  Ne388    1.0000 0.56030  0.33454  0.82145  Biso   1.000  Ne
  Ne389    1.0000 0.23335  0.88005  0.29556  Biso   1.000  Ne
  He389    1.0000 0.20736  0.87499  0.27268  Biso   1.000  He
  He390    1.0000 0.18850  0.90254  0.27174  Biso   1.000  He
  Ne390    1.0000 0.16167  0.89888  0.25167  Biso   1.000  Ne
  Ne391    1.0000 0.33990  0.89588  0.26410  Biso   1.000  Ne
  He391    1.0000 0.31840  0.90395  0.24137  Biso   1.000  He
  He392    1.0000 0.32633  0.93034  0.22426  Biso   1.000  He
  Ne392    1.0000 0.30083  0.93677  0.20342  Biso   1.000  Ne
  Ne393    1.0000 0.39598  0.87416  0.44164  Biso   1.000  Ne
  He393    1.0000 0.38444  0.84720  0.45462  Biso   1.000  He
  He394    1.0000 0.37482  0.82256  0.43295  Biso   1.000  He
  Ne394    1.0000 0.36159  0.79534  0.44497  Biso   1.000  Ne
  Ne395    1.0000 0.99055  0.31423  0.87237  Biso   1.000  Ne
  He395    1.0000 0.98645  0.32832  0.90024  Biso   1.000  He
  He396    1.0000 0.95975  0.34737  0.90300  Biso   1.000  He
  Ne396    1.0000 0.95307  0.35754  0.93451  Biso   1.000  Ne
  Ne397    1.0000 0.42649  0.89793  0.59080  Biso   1.000  Ne
  He397    1.0000 0.40639  0.91660  0.57146  Biso   1.000  He
  He398    1.0000 0.40628  0.94761  0.57905  Biso   1.000  He
  Ne398    1.0000 0.39277  0.96809  0.55892  Biso   1.000  Ne
  Ne399    1.0000 0.01424  0.53618  0.58318  Biso   1.000  Ne
  He399    1.0000 0.04200  0.54788  0.57004  Biso   1.000  He
  He400    1.0000 0.03660  0.57893  0.55371  Biso   1.000  He
  Ne400    1.0000 0.04636  0.60731  0.57161  Biso   1.000  Ne
  Ne401    1.0000 0.15490  0.62758  0.72717  Biso   1.000  Ne
  He401    1.0000 0.17704  0.60715  0.73652  Biso   1.000  He
  He402    1.0000 0.20860  0.61565  0.72565  Biso   1.000  He
  Ne402    1.0000 0.23353  0.59326  0.73582  Biso   1.000  Ne
  Ne403    1.0000 0.56443  0.20595  0.15585  Biso   1.000  Ne
  He403    1.0000 0.55992  0.21806  0.18730  Biso   1.000  He
  He404    1.0000 0.57261  0.20401  0.21328  Biso   1.000  He
  Ne404    1.0000 0.56109  0.21620  0.24309  Biso   1.000  Ne
  Ne405    1.0000 0.16041  0.28388  0.87504  Biso   1.000  Ne
  He405    1.0000 0.15346  0.31494  0.88786  Biso   1.000  He
  He406    1.0000 0.12635  0.31410  0.90961  Biso   1.000  He
  Ne406    1.0000 0.12124  0.34234  0.92750  Biso   1.000  Ne
  Ne407    1.0000 0.30420  0.12029  0.00936  Biso   1.000  Ne
  He407    1.0000 0.32198  0.14808  0.00472  Biso   1.000  He
  He408    1.0000 0.31528  0.16157  0.97618  Biso   1.000  He
  Ne408    1.0000 0.33254  0.18953  0.97295  Biso   1.000  Ne
  Ne409    1.0000 0.16809  0.00107  0.65962  Biso   1.000  Ne
  He409    1.0000 0.18623  0.02790  0.65553  Biso   1.000  He
  He410    1.0000 0.20096  0.03798  0.68415  Biso   1.000  He
  Ne410    1.0000 0.21721  0.06443  0.67983  Biso   1.000  Ne
  Ne411    1.0000 0.78936  0.15872  0.43106  Biso   1.000  Ne
  He411    1.0000 0.75634  0.16326  0.43804  Biso   1.000  He
  He412    1.0000 0.73581  0.14930  0.41710  Biso   1.000  He
  Ne412    1.0000 0.70446  0.15018  0.42252  Biso   1.000  Ne
  Ne413    1.0000 0.99976  0.45096  0.79667  Biso   1.000  Ne
  He413    1.0000 0.98270  0.42811  0.81537  Biso   1.000  He
  He414    1.0000 0.95947  0.43751  0.83946  Biso   1.000  He
  Ne414    1.0000 0.94831  0.40974  0.85851  Biso   1.000  Ne
  Ne415    1.0000 0.44692  0.79490  0.82090  Biso   1.000  Ne
  He415    1.0000 0.42538  0.79058  0.79474  Biso   1.000  He
  He416    1.0000 0.41999  0.82245  0.78132  Biso   1.000  He
  Ne416    1.0000 0.39517  0.82081  0.75715  Biso   1.000  Ne
  Ne417    1.0000 0.60434  0.89157  0.90187  Biso   1.000  Ne
  He417    1.0000 0.59606  0.87409  0.87345  Biso   1.000  He
  He418    1.0000 0.61975  0.85736  0.85941  Biso   1.000  He
  Ne418    1.0000 0.61363  0.84384  0.82816  Biso   1.000  Ne
  Ne419    1.0000 0.76497  0.17195  0.67852  Biso   1.000  Ne
  He419    1.0000 0.79679  0.17721  0.68673  Biso   1.000  He
  He420    1.0000 0.80365  0.16246  0.71535  Biso   1.000  He
  Ne420    1.0000 0.83395  0.17022  0.72717  Biso   1.000  Ne
  Ne421    1.0000 0.66044  0.82410  0.59897  Biso   1.000  Ne
  He421    1.0000 0.63100  0.82803  0.58269  Biso   1.000  He
  He422    1.0000 0.60452  0.83125  0.60357  Biso   1.000  He
  Ne422    1.0000 0.57422  0.82246  0.59079  Biso   1.000  Ne
  Ne423    1.0000 0.32445  0.41070  0.39767  Biso   1.000  Ne
  He423    1.0000 0.31910  0.37902  0.38718  Biso   1.000  He
  He424    1.0000 0.28817  0.37067  0.38342  Biso   1.000  He
  Ne424    1.0000 0.27154  0.35562  0.41071  Biso   1.000  Ne
  Ne425    1.0000 0.56430  0.20408  0.76066  Biso   1.000  Ne
  He425    1.0000 0.53625  0.18879  0.75837  Biso   1.000  He
  He426    1.0000 0.53380  0.16057  0.77454  Biso   1.000  He
  Ne426    1.0000 0.50431  0.14519  0.77660  Biso   1.000  Ne
  Ne427    1.0000 0.05856  0.61156  0.17771  Biso   1.000  Ne
  He427    1.0000 0.06555  0.61671  0.21116  Biso   1.000  He
  He428    1.0000 0.05785  0.64918  0.22077  Biso   1.000  He
  Ne428    1.0000 0.06625  0.65479  0.25174  Biso   1.000  Ne
  Ne429    1.0000 0.52851  0.57180  0.96765  Biso   1.000  Ne
  He429    1.0000 0.54295  0.57607  0.93744  Biso   1.000  He
  He430    1.0000 0.57515  0.57837  0.94132  Biso   1.000  He
  Ne430    1.0000 0.59138  0.57741  0.91316  Biso   1.000  Ne
  Ne431    1.0000 0.41100  0.52029  0.96405  Biso   1.000  Ne
  He431    1.0000 0.40516  0.53021  0.93356  Biso   1.000  He
  He432    1.0000 0.41142  0.56503  0.93032  Biso   1.000  He
  Ne432    1.0000 0.40454  0.57855  0.89949  Biso   1.000  Ne
  Ne433    1.0000 0.81600  0.80164  0.46956  Biso   1.000  Ne
  He433    1.0000 0.79988  0.81481  0.49894  Biso   1.000  He
  He434    1.0000 0.78446  0.84401  0.49661  Biso   1.000  He
  Ne434    1.0000 0.76774  0.85207  0.52269  Biso   1.000  Ne
  Ne435    1.0000 0.71096  0.67051  0.68346  Biso   1.000  Ne
  He435    1.0000 0.68875  0.69078  0.69279  Biso   1.000  He
  He436    1.0000 0.68044  0.71199  0.66823  Biso   1.000  He
  Ne436    1.0000 0.65543  0.73240  0.67925  Biso   1.000  Ne
  Ne437    1.0000 0.41731  0.54948  0.14890  Biso   1.000  Ne
  He437    1.0000 0.41507  0.56489  0.17977  Biso   1.000  He
  He438    1.0000 0.41086  0.59649  0.17811  Biso   1.000  He
  Ne438    1.0000 0.41004  0.61181  0.20613  Biso   1.000  Ne
  Ne439    1.0000 0.79779  0.66401  0.57745  Biso   1.000  Ne
  He439    1.0000 0.80789  0.63402  0.56683  Biso   1.000  He
  He440    1.0000 0.80924  0.61354  0.59250  Biso   1.000  He
  Ne440    1.0000 0.81513  0.58186  0.58266  Biso   1.000  Ne
  Ne441    1.0000 0.67559  0.75306  0.04443  Biso   1.000  Ne
  He441    1.0000 0.66156  0.72667  0.05619  Biso   1.000  He
  He442    1.0000 0.67981  0.69964  0.06630  Biso   1.000  He
  Ne442    1.0000 0.66219  0.67390  0.08203  Biso   1.000  Ne
  Ne443    1.0000 0.30904  0.33471  0.89855  Biso   1.000  Ne
  He443    1.0000 0.30744  0.31088  0.87283  Biso   1.000  He
  He444    1.0000 0.27736  0.29779  0.87240  Biso   1.000  He
  Ne444    1.0000 0.27399  0.27465  0.85030  Biso   1.000  Ne
  Ne445    1.0000 0.63954  0.20489  0.74336  Biso   1.000  Ne
  He445    1.0000 0.65693  0.20106  0.77229  Biso   1.000  He
  He446    1.0000 0.68808  0.21218  0.77256  Biso   1.000  He
  Ne446    1.0000 0.70086  0.21030  0.80506  Biso   1.000  Ne
  Ne447    1.0000 0.74761  0.18029  0.12758  Biso   1.000  Ne
  He447    1.0000 0.76560  0.16758  0.10363  Biso   1.000  He
  He448    1.0000 0.78694  0.14756  0.11605  Biso   1.000  He
  Ne448    1.0000 0.80422  0.13009  0.09170  Biso   1.000  Ne
  Ne449    1.0000 0.67720  0.41375  0.15401  Biso   1.000  Ne
  He449    1.0000 0.64674  0.41850  0.16659  Biso   1.000  He
  He450    1.0000 0.62222  0.39963  0.15648  Biso   1.000  He
  Ne450    1.0000 0.59308  0.41334  0.16972  Biso   1.000  Ne
  Ne451    1.0000 0.66617  0.08208  0.28628  Biso   1.000  Ne
  He451    1.0000 0.65526  0.07420  0.25400  Biso   1.000  He
  He452    1.0000 0.67748  0.08532  0.23057  Biso   1.000  He
  Ne452    1.0000 0.67029  0.07354  0.20084  Biso   1.000  Ne
  Ne453    1.0000 0.52357  0.73005  0.41295  Biso   1.000  Ne
  He453    1.0000 0.53358  0.73108  0.44526  Biso   1.000  He
  He454    1.0000 0.56061  0.70968  0.45259  Biso   1.000  He
  Ne454    1.0000 0.58805  0.72464  0.44791  Biso   1.000  Ne
  Ne455    1.0000 0.21345  0.40326  0.32756  Biso   1.000  Ne
  He455    1.0000 0.21355  0.37521  0.31326  Biso   1.000  He
  He456    1.0000 0.18606  0.35547  0.31807  Biso   1.000  He
  Ne456    1.0000 0.18365  0.32871  0.29694  Biso   1.000  Ne
  Ne457    1.0000 0.38863  0.22288  0.15111  Biso   1.000  Ne
  He457    1.0000 0.37075  0.20108  0.12881  Biso   1.000  He
  He458    1.0000 0.34077  0.20962  0.12447  Biso   1.000  He
  Ne458    1.0000 0.32324  0.18978  0.10180  Biso   1.000  Ne
  Ne459    1.0000 0.65453  0.81972  0.97817  Biso   1.000  Ne
  He459    1.0000 0.67970  0.83796  0.95991  Biso   1.000  He
  He460    1.0000 0.67608  0.84046  0.92654  Biso   1.000  He
  Ne460    1.0000 0.70334  0.84957  0.90530  Biso   1.000  Ne
  Ne461    1.0000 0.91104  0.61625  0.73590  Biso   1.000  Ne
  He461    1.0000 0.89211  0.62711  0.71077  Biso   1.000  He
  He462    1.0000 0.90650  0.64928  0.69386  Biso   1.000  He
  Ne462    1.0000 0.89249  0.65274  0.66462  Biso   1.000  Ne
  Ne463    1.0000 0.02895  0.29439  0.96644  Biso   1.000  Ne
  He463    1.0000 0.02448  0.29810  0.99918  Biso   1.000  He
  He464    1.0000 0.99928  0.28004  0.01025  Biso   1.000  He
  Ne464    1.0000 0.00013  0.28037  0.04553  Biso   1.000  Ne
  Ne465    1.0000 0.05103  0.48020  0.87572  Biso   1.000  Ne
  He465    1.0000 0.04077  0.46120  0.90385  Biso   1.000  He
  He466    1.0000 0.05085  0.42907  0.90449  Biso   1.000  He
  Ne466    1.0000 0.04513  0.41333  0.93248  Biso   1.000  Ne
  Ne467    1.0000 0.70133  0.42532  0.53896  Biso   1.000  Ne
  He467    1.0000 0.67353  0.43867  0.53496  Biso   1.000  He
  He468    1.0000 0.65072  0.41815  0.52024  Biso   1.000  He
  Ne468    1.0000 0.62074  0.43448  0.51288  Biso   1.000  Ne
  Ne469    1.0000 0.12027  0.25851  0.21623  Biso   1.000  Ne
  He469    1.0000 0.08704  0.26355  0.21371  Biso   1.000  He
  He470    1.0000 0.06636  0.23740  0.20947  Biso   1.000  He
  Ne470    1.0000 0.03486  0.24549  0.21276  Biso   1.000  Ne
  Ne471    1.0000 0.95904  0.78035  0.31251  Biso   1.000  Ne
  He471    1.0000 0.93383  0.75803  0.31482  Biso   1.000  He
  He472    1.0000 0.93659  0.73776  0.29072  Biso   1.000  He
  Ne472    1.0000 0.91122  0.71586  0.28698  Biso   1.000  Ne
  Ne473    1.0000 0.08215  0.65580  0.34165  Biso   1.000  Ne
  He473    1.0000 0.11712  0.65370  0.33791  Biso   1.000  He
  He474    1.0000 0.13506  0.68164  0.32856  Biso   1.000  He
  Ne474    1.0000 0.16810  0.67597  0.32619  Biso   1.000  Ne
  Ne475    1.0000 0.15704  0.94116  0.88478  Biso   1.000  Ne
  He475    1.0000 0.15941  0.93885  0.85256  Biso   1.000  He
  He476    1.0000 0.13407  0.92622  0.83593  Biso   1.000  He
  Ne476    1.0000 0.13791  0.92323  0.80157  Biso   1.000  Ne
  Ne477    1.0000 0.98782  0.53998  0.44030  Biso   1.000  Ne
  He477    1.0000 0.00837  0.54195  0.41563  Biso   1.000  He
  He478    1.0000 0.03818  0.55464  0.42628  Biso   1.000  He
  Ne478    1.0000 0.05990  0.56008  0.40148  Biso   1.000  Ne
  Ne479    1.0000 0.90873  0.64779  0.34373  Biso   1.000  Ne
  He479    1.0000 0.90711  0.63783  0.31273  Biso   1.000  He
  He480    1.0000 0.92926  0.61299  0.30266  Biso   1.000  He
  Ne480    1.0000 0.92571  0.60584  0.27030  Biso   1.000  Ne
  Ne481    1.0000 0.83966  0.01585  0.67869  Biso   1.000  Ne
  He481    1.0000 0.85910  0.00003  0.69757  Biso   1.000  He
  He482    1.0000 0.88522  0.98844  0.68226  Biso   1.000  He
  Ne482    1.0000 0.90474  0.97138  0.70566  Biso   1.000  Ne
  Ne483    1.0000 0.33663  0.21640  0.61833  Biso   1.000  Ne
  He483    1.0000 0.36958  0.21527  0.61045  Biso   1.000  He
  He484    1.0000 0.37584  0.20803  0.57834  Biso   1.000  He
  Ne484    1.0000 0.40768  0.20074  0.57391  Biso   1.000  Ne
  Ne485    1.0000 0.89690  0.84507  0.91344  Biso   1.000  Ne
  He485    1.0000 0.88322  0.83324  0.88564  Biso   1.000  He
  He486    1.0000 0.88699  0.79976  0.87727  Biso   1.000  He
  Ne486    1.0000 0.86951  0.79326  0.85126  Biso   1.000  Ne
  Ne487    1.0000 0.92835  0.79997  0.23680  Biso   1.000  Ne
  He487    1.0000 0.90966  0.77419  0.22588  Biso   1.000  He
  He488    1.0000 0.90221  0.77686  0.19249  Biso   1.000  He
  Ne488    1.0000 0.89094  0.74768  0.17983  Biso   1.000  Ne
  Ne489    1.0000 0.62319  0.66441  0.38018  Biso   1.000  Ne
  He489    1.0000 0.65357  0.65584  0.36851  Biso   1.000  He
  He490    1.0000 0.65467  0.63136  0.34447  Biso   1.000  He
  Ne490    1.0000 0.68667  0.62264  0.33373  Biso   1.000  Ne
  Ne491    1.0000 0.84960  0.06863  0.14242  Biso   1.000  Ne
  He491    1.0000 0.87927  0.07723  0.12961  Biso   1.000  He
  He492    1.0000 0.87909  0.10912  0.11750  Biso   1.000  He
  Ne492    1.0000 0.90945  0.12148  0.10894  Biso   1.000  Ne
  Ne493    1.0000 0.70789  0.71607  0.32244  Biso   1.000  Ne
  He493    1.0000 0.70245  0.74452  0.33778  Biso   1.000  He
  He494    1.0000 0.67692  0.74276  0.36094  Biso   1.000  He
  Ne494    1.0000 0.67710  0.77080  0.37819  Biso   1.000  Ne
  Ne495    1.0000 0.57789  0.65458  0.10705  Biso   1.000  Ne
  He495    1.0000 0.58513  0.69045  0.10865  Biso   1.000  He
  He496    1.0000 0.59951  0.69924  0.13573  Biso   1.000  He
  Ne496    1.0000 0.60681  0.73319  0.14010  Biso   1.000  Ne
  Ne497    1.0000 0.41177  0.16060  0.64807  Biso   1.000  Ne
  He497    1.0000 0.41171  0.12870  0.65917  Biso   1.000  He
  He498    1.0000 0.40971  0.12565  0.69205  Biso   1.000  He
  Ne498    1.0000 0.40932  0.09392  0.70385  Biso   1.000  Ne
  Ne499    1.0000 0.62581  0.62667  0.64880  Biso   1.000  Ne
  He499    1.0000 0.59958  0.62989  0.63386  Biso   1.000  He
  He500    1.0000 0.60008  0.65242  0.60836  Biso   1.000  He
  Ne500    1.0000 0.56983  0.65777  0.59626  Biso   1.000  Ne
  Ne501    1.0000 0.01506  0.44549  0.59260  Biso   1.000  Ne
  He501    1.0000 0.02073  0.44528  0.56024  Biso   1.000  He
  He502    1.0000 0.05213  0.43196  0.55680  Biso   1.000  He
  Ne502    1.0000 0.05422  0.39909  0.55433  Biso   1.000  Ne
  Ne503    1.0000 0.00876  0.84462  0.45000  Biso   1.000  Ne
  He503    1.0000 0.03384  0.84210  0.46865  Biso   1.000  He
  He504    1.0000 0.04156  0.80913  0.47771  Biso   1.000  He
  Ne504    1.0000 0.07230  0.80550  0.49296  Biso   1.000  Ne
  Ne505    1.0000 0.27919  0.58731  0.21373  Biso   1.000  Ne
  He505    1.0000 0.30463  0.59744  0.19461  Biso   1.000  He
  He506    1.0000 0.31440  0.62629  0.20532  Biso   1.000  He
  Ne506    1.0000 0.33580  0.64087  0.18293  Biso   1.000  Ne
  Ne507    1.0000 0.26146  0.86153  0.82277  Biso   1.000  Ne
  He507    1.0000 0.27445  0.85963  0.79360  Biso   1.000  He
  He508    1.0000 0.26312  0.83802  0.77426  Biso   1.000  He
  Ne508    1.0000 0.27538  0.83694  0.74026  Biso   1.000  Ne
  Ne509    1.0000 0.79182  0.59532  0.67323  Biso   1.000  Ne
  He509    1.0000 0.80658  0.61156  0.69706  Biso   1.000  He
  He510    1.0000 0.80406  0.64417  0.69891  Biso   1.000  He
  Ne510    1.0000 0.81163  0.65630  0.72937  Biso   1.000  Ne
  Ne511    1.0000 0.63501  0.67922  0.75908  Biso   1.000  Ne
  He511    1.0000 0.64292  0.66327  0.78644  Biso   1.000  He
  He512    1.0000 0.64682  0.63093  0.78179  Biso   1.000  He
  Ne512    1.0000 0.65332  0.61574  0.80882  Biso   1.000  Ne
  Ne513    1.0000 0.37919  0.35681  0.54139  Biso   1.000  Ne
  He513    1.0000 0.35608  0.37025  0.52175  Biso   1.000  He
  He514    1.0000 0.33159  0.35067  0.51918  Biso   1.000  He
  Ne514    1.0000 0.30600  0.36468  0.50325  Biso   1.000  Ne
  Ne515    1.0000 0.68962  0.73793  0.57015  Biso   1.000  Ne
  He515    1.0000 0.65854  0.74741  0.57535  Biso   1.000  He
  He516    1.0000 0.64126  0.72398  0.58810  Biso   1.000  He
  Ne516    1.0000 0.61087  0.73269  0.59975  Biso   1.000  Ne
  Ne517    1.0000 0.62331  0.51897  0.31165  Biso   1.000  Ne
  He517    1.0000 0.61968  0.54031  0.33597  Biso   1.000  He
  He518    1.0000 0.64734  0.54471  0.35309  Biso   1.000  He
  Ne518    1.0000 0.64564  0.56494  0.38169  Biso   1.000  Ne
  Ne519    1.0000 0.65828  0.36355  0.40641  Biso   1.000  Ne
  He519    1.0000 0.63995  0.38495  0.42351  Biso   1.000  He
  He520    1.0000 0.60803  0.38980  0.41567  Biso   1.000  He
  Ne520    1.0000 0.58845  0.40868  0.43859  Biso   1.000  Ne
  Ne521    1.0000 0.61595  0.24021  0.91368  Biso   1.000  Ne
  He521    1.0000 0.58879  0.22592  0.90069  Biso   1.000  He
  He522    1.0000 0.56604  0.24837  0.89026  Biso   1.000  He
  Ne522    1.0000 0.54053  0.23341  0.87276  Biso   1.000  Ne
  Ne523    1.0000 0.01153  0.07114  0.93299  Biso   1.000  Ne
  He523    1.0000 0.02635  0.04545  0.94653  Biso   1.000  He
  He524    1.0000 0.05482  0.05376  0.96062  Biso   1.000  He
  Ne524    1.0000 0.07130  0.02546  0.97081  Biso   1.000  Ne
  Ne525    1.0000 0.61494  0.59313  0.26975  Biso   1.000  Ne
  He525    1.0000 0.59076  0.61248  0.26003  Biso   1.000  He
  He526    1.0000 0.60011  0.63949  0.24365  Biso   1.000  He
  Ne526    1.0000 0.57459  0.65975  0.23348  Biso   1.000  Ne
  Ne527    1.0000 0.83961  0.22730  0.93454  Biso   1.000  Ne
  He527    1.0000 0.85705  0.19740  0.92798  Biso   1.000  He
  He528    1.0000 0.88879  0.19608  0.93955  Biso   1.000  He
  Ne528    1.0000 0.90067  0.16284  0.93485  Biso   1.000  Ne
  Ne529    1.0000 0.02226  0.51496  0.21257  Biso   1.000  Ne
  He529    1.0000 0.05339  0.52730  0.20837  Biso   1.000  He
  He530    1.0000 0.07482  0.50393  0.21779  Biso   1.000  He
  Ne530    1.0000 0.10505  0.51477  0.20840  Biso   1.000  Ne
  Ne531    1.0000 0.79673  0.42165  0.65463  Biso   1.000  Ne
  He531    1.0000 0.82891  0.42333  0.64263  Biso   1.000  He
  He532    1.0000 0.85085  0.41717  0.66317  Biso   1.000  He
  Ne532    1.0000 0.88042  0.42141  0.64998  Biso   1.000  Ne
  Ne533    1.0000 0.58984  0.92737  0.56214  Biso   1.000  Ne
  He533    1.0000 0.55734  0.93113  0.56778  Biso   1.000  He
  He534    1.0000 0.54008  0.91073  0.54908  Biso   1.000  He
  Ne534    1.0000 0.50774  0.90924  0.55606  Biso   1.000  Ne
  Ne535    1.0000 0.04461  0.09570  0.20668  Biso   1.000  Ne
  He535    1.0000 0.04577  0.12906  0.19923  Biso   1.000  He
  He536    1.0000 0.05474  0.13425  0.16753  Biso   1.000  He
  Ne536    1.0000 0.05144  0.16685  0.15932  Biso   1.000  Ne
  Ne537    1.0000 0.29942  0.57771  0.33919  Biso   1.000  Ne
  He537    1.0000 0.27118  0.58350  0.32138  Biso   1.000  He
  He538    1.0000 0.26324  0.61649  0.31873  Biso   1.000  He
  Ne538    1.0000 0.23918  0.62406  0.29750  Biso   1.000  Ne
  Ne539    1.0000 0.63875  0.14983  0.83321  Biso   1.000  Ne
  He539    1.0000 0.63767  0.15184  0.86472  Biso   1.000  He
  He540    1.0000 0.66016  0.17044  0.87925  Biso   1.000  He
  Ne540    1.0000 0.65531  0.17440  0.91095  Biso   1.000  Ne
  Ne541    1.0000 0.52122  0.93283  0.42000  Biso   1.000  Ne
  He541    1.0000 0.54648  0.92220  0.40185  Biso   1.000  He
  He542    1.0000 0.57629  0.92481  0.41760  Biso   1.000  He
  Ne542    1.0000 0.60353  0.91824  0.39818  Biso   1.000  Ne
  Ne543    1.0000 0.07318  0.61714  0.05448  Biso   1.000  Ne
  He543    1.0000 0.04779  0.60085  0.03827  Biso   1.000  He
  He544    1.0000 0.05317  0.58911  0.00743  Biso   1.000  He
  Ne544    1.0000 0.02703  0.57397  0.99263  Biso   1.000  Ne
  Ne545    1.0000 0.92245  0.91803  0.04539  Biso   1.000  Ne
  He545    1.0000 0.92380  0.89664  0.07160  Biso   1.000  He
  He546    1.0000 0.91090  0.91122  0.09721  Biso   1.000  He
  Ne546    1.0000 0.91597  0.89420  0.12439  Biso   1.000  Ne
  Ne547    1.0000 0.71473  0.89119  0.41546  Biso   1.000  Ne
  He547    1.0000 0.68479  0.88166  0.41279  Biso   1.000  He
  He548    1.0000 0.68067  0.84851  0.41172  Biso   1.000  He
  Ne548    1.0000 0.64851  0.83873  0.41052  Biso   1.000  Ne
  Ne549    1.0000 0.90868  0.31664  0.66448  Biso   1.000  Ne
  He549    1.0000 0.90245  0.29138  0.64121  Biso   1.000  He
  He550    1.0000 0.91789  0.29677  0.61173  Biso   1.000  He
  Ne550    1.0000 0.91380  0.27087  0.58938  Biso   1.000  Ne
  Ne551    1.0000 0.87827  0.59238  0.40193  Biso   1.000  Ne
  He551    1.0000 0.87340  0.57026  0.42856  Biso   1.000  He
  He552    1.0000 0.89984  0.55560  0.43721  Biso   1.000  He
  Ne552    1.0000 0.89698  0.53461  0.46247  Biso   1.000  Ne
  Ne553    1.0000 0.03380  0.82692  0.29763  Biso   1.000  Ne
  He553    1.0000 0.02665  0.85880  0.30722  Biso   1.000  He
  He554    1.0000 0.02609  0.86616  0.33725  Biso   1.000  He
  Ne554    1.0000 0.02433  0.90023  0.34707  Biso   1.000  Ne
  Ne555    1.0000 0.43968  0.27920  0.63927  Biso   1.000  Ne
  He555    1.0000 0.44970  0.30324  0.65808  Biso   1.000  He
  He556    1.0000 0.43758  0.30092  0.68913  Biso   1.000  He
  Ne556    1.0000 0.44769  0.32815  0.71130  Biso   1.000  Ne
  Ne557    1.0000 0.71263  0.24086  0.87608  Biso   1.000  Ne
  He557    1.0000 0.72869  0.22125  0.89800  Biso   1.000  He
  He558    1.0000 0.75151  0.20220  0.88414  Biso   1.000  He
  Ne558    1.0000 0.76929  0.18173  0.90354  Biso   1.000  Ne
  Ne559    1.0000 0.55760  0.34227  0.29536  Biso   1.000  Ne
  He559    1.0000 0.57162  0.32560  0.31992  Biso   1.000  He
  He560    1.0000 0.60264  0.33690  0.32706  Biso   1.000  He
  Ne560    1.0000 0.61740  0.32192  0.35442  Biso   1.000  Ne
  Ne561    1.0000 0.66793  0.25667  0.11142  Biso   1.000  Ne
  He561    1.0000 0.67560  0.24872  0.08041  Biso   1.000  He
  He562    1.0000 0.65953  0.22035  0.07025  Biso   1.000  He
  Ne562    1.0000 0.66866  0.21215  0.03913  Biso   1.000  Ne
  Ne563    1.0000 0.84201  0.57858  0.33196  Biso   1.000  Ne
  He563    1.0000 0.81355  0.59702  0.33800  Biso   1.000  He
  He564    1.0000 0.79837  0.60599  0.31109  Biso   1.000  He
  Ne564    1.0000 0.76931  0.62282  0.31423  Biso   1.000  Ne
  Ne565    1.0000 0.78504  0.95364  0.38378  Biso   1.000  Ne
  He565    1.0000 0.79177  0.97596  0.35864  Biso   1.000  He
  He566    1.0000 0.78086  0.96850  0.32489  Biso   1.000  He
  Ne566    1.0000 0.78779  0.99579  0.30415  Biso   1.000  Ne
  Ne567    1.0000 0.20375  0.40949  0.22377  Biso   1.000  Ne
  He567    1.0000 0.20273  0.40467  0.19137  Biso   1.000  He
  He568    1.0000 0.17836  0.42855  0.18016  Biso   1.000  He
  Ne568    1.0000 0.17231  0.42164  0.14841  Biso   1.000  Ne
  Ne569    1.0000 0.27330  0.72178  0.87007  Biso   1.000  Ne
  He569    1.0000 0.24766  0.73897  0.86829  Biso   1.000  He
  He570    1.0000 0.25398  0.76624  0.84882  Biso   1.000  He
  Ne570    1.0000 0.22988  0.79057  0.84875  Biso   1.000  Ne
  Ne571    1.0000 0.16924  0.53019  0.85484  Biso   1.000  Ne
  He571    1.0000 0.18840  0.54928  0.83333  Biso   1.000  He
  He572    1.0000 0.20660  0.57404  0.84744  Biso   1.000  He
  Ne572    1.0000 0.21851  0.59607  0.82597  Biso   1.000  Ne
  Ne573    1.0000 0.84203  0.72282  0.58793  Biso   1.000  Ne
  He573    1.0000 0.86650  0.70540  0.56950  Biso   1.000  He
  He574    1.0000 0.87552  0.67634  0.58073  Biso   1.000  He
  Ne574    1.0000 0.89288  0.65669  0.56110  Biso   1.000  Ne
  Ne575    1.0000 0.54723  0.83307  0.42092  Biso   1.000  Ne
  He575    1.0000 0.56623  0.82126  0.39730  Biso   1.000  He
  He576    1.0000 0.55629  0.79406  0.38332  Biso   1.000  He
  Ne576    1.0000 0.57659  0.77734  0.36248  Biso   1.000  Ne
  Ne577    1.0000 0.37113  0.34902  0.06167  Biso   1.000  Ne
  He577    1.0000 0.36207  0.31748  0.06701  Biso   1.000  He
  He578    1.0000 0.38413  0.29375  0.05617  Biso   1.000  He
  Ne578    1.0000 0.37616  0.26385  0.06310  Biso   1.000  Ne
  Ne579    1.0000 0.17527  0.27962  0.05908  Biso   1.000  Ne
  He579    1.0000 0.16382  0.30820  0.04369  Biso   1.000  He
  He580    1.0000 0.18619  0.33001  0.03896  Biso   1.000  He
  Ne580    1.0000 0.17455  0.35460  0.01643  Biso   1.000  Ne
  Ne581    1.0000 0.05615  0.15601  0.93630  Biso   1.000  Ne
  He581    1.0000 0.08094  0.17836  0.92953  Biso   1.000  He
  He582    1.0000 0.06753  0.20960  0.93083  Biso   1.000  He
  Ne582    1.0000 0.08893  0.23397  0.91889  Biso   1.000  Ne
  Ne583    1.0000 0.41987  0.64729  0.33867  Biso   1.000  Ne
  He583    1.0000 0.41088  0.67173  0.35850  Biso   1.000  He
  He584    1.0000 0.42333  0.67100  0.38915  Biso   1.000  He
  Ne584    1.0000 0.41043  0.69619  0.41010  Biso   1.000  Ne
  Ne585    1.0000 0.07656  0.53709  0.82501  Biso   1.000  Ne
  He585    1.0000 0.05381  0.53966  0.80092  Biso   1.000  He
  He586    1.0000 0.02712  0.55568  0.80992  Biso   1.000  He
  Ne586    1.0000 0.99891  0.55097  0.78975  Biso   1.000  Ne
  Ne587    1.0000 0.47616  0.41054  0.42616  Biso   1.000  Ne
  He587    1.0000 0.48989  0.37967  0.42075  Biso   1.000  He
  He588    1.0000 0.51349  0.37895  0.40050  Biso   1.000  He
  Ne588    1.0000 0.53489  0.35073  0.40549  Biso   1.000  Ne
  Ne589    1.0000 0.65209  0.63613  0.48439  Biso   1.000  Ne
  He589    1.0000 0.62563  0.65590  0.49116  Biso   1.000  He
  He590    1.0000 0.63183  0.67787  0.51502  Biso   1.000  He
  Ne590    1.0000 0.60618  0.69663  0.52464  Biso   1.000  Ne
  Ne591    1.0000 0.01516  0.19336  0.39326  Biso   1.000  Ne
  He591    1.0000 0.98185  0.20013  0.39582  Biso   1.000  He
  He592    1.0000 0.96125  0.18345  0.37328  Biso   1.000  He
  Ne592    1.0000 0.93131  0.19291  0.37287  Biso   1.000  Ne
  Ne593    1.0000 0.33079  0.83927  0.61153  Biso   1.000  Ne
  He593    1.0000 0.35264  0.81725  0.62543  Biso   1.000  He
  He594    1.0000 0.37671  0.81085  0.60593  Biso   1.000  He
  Ne594    1.0000 0.39861  0.78881  0.61771  Biso   1.000  Ne
  Ne595    1.0000 0.67438  0.05377  0.81400  Biso   1.000  Ne
  He595    1.0000 0.66541  0.05572  0.78297  Biso   1.000  He
  He596    1.0000 0.68592  0.07140  0.76363  Biso   1.000  He
  Ne596    1.0000 0.67994  0.06842  0.73008  Biso   1.000  Ne
  Ne597    1.0000 0.14926  0.99899  0.35907  Biso   1.000  Ne
  He597    1.0000 0.15363  0.96910  0.34320  Biso   1.000  He
  He598    1.0000 0.14619  0.94351  0.36482  Biso   1.000  He
  Ne598    1.0000 0.15271  0.91124  0.35499  Biso   1.000  Ne
  Ne599    1.0000 0.20855  0.58783  0.40512  Biso   1.000  Ne
  He599    1.0000 0.17476  0.58445  0.40826  Biso   1.000  He
  He600    1.0000 0.16517  0.59068  0.43886  Biso   1.000  He
  Ne600    1.0000 0.13048  0.58722  0.44316  Biso   1.000  Ne
  Ne601    1.0000 0.18795  0.70921  0.40805  Biso   1.000  Ne
  He601    1.0000 0.21151  0.73138  0.39794  Biso   1.000  He
  He602    1.0000 0.20408  0.76149  0.40476  Biso   1.000  He
  Ne602    1.0000 0.22617  0.78317  0.39125  Biso   1.000  Ne
  Ne603    1.0000 0.17732  0.85329  0.64284  Biso   1.000  Ne
  He603    1.0000 0.19037  0.87756  0.66158  Biso   1.000  He
  He604    1.0000 0.17752  0.90725  0.65556  Biso   1.000  He
  Ne604    1.0000 0.18895  0.93142  0.67532  Biso   1.000  Ne
  Ne605    1.0000 0.39130  0.28806  0.41733  Biso   1.000  Ne
  He605    1.0000 0.36383  0.29650  0.43640  Biso   1.000  He
  He606    1.0000 0.33730  0.28135  0.42427  Biso   1.000  He
  Ne606    1.0000 0.31005  0.28245  0.44530  Biso   1.000  Ne
  Ne607    1.0000 0.56515  0.49710  0.96376  Biso   1.000  Ne
  He607    1.0000 0.54497  0.47206  0.95271  Biso   1.000  He
  He608    1.0000 0.51831  0.46646  0.97417  Biso   1.000  He
  Ne608    1.0000 0.50229  0.43794  0.96610  Biso   1.000  Ne
  Ne609    1.0000 0.05543  0.04609  0.69703  Biso   1.000  Ne
  He609    1.0000 0.06628  0.01802  0.70576  Biso   1.000  He
  He610    1.0000 0.09621  0.01460  0.72086  Biso   1.000  He
  Ne610    1.0000 0.10254  0.98273  0.72973  Biso   1.000  Ne
  Ne611    1.0000 0.68481  0.45802  0.34416  Biso   1.000  Ne
  He611    1.0000 0.71097  0.44171  0.35602  Biso   1.000  He
  He612    1.0000 0.71719  0.44725  0.38838  Biso   1.000  He
  Ne612    1.0000 0.74161  0.42795  0.40184  Biso   1.000  Ne
  Ne613    1.0000 0.17769  0.77419  0.15621  Biso   1.000  Ne
  He613    1.0000 0.16932  0.79959  0.13670  Biso   1.000  He
  He614    1.0000 0.18490  0.80368  0.10712  Biso   1.000  He
  Ne614    1.0000 0.17833  0.83370  0.09370  Biso   1.000  Ne
  Ne615    1.0000 0.57387  0.17506  0.41263  Biso   1.000  Ne
  He615    1.0000 0.58227  0.14287  0.40705  Biso   1.000  He
  He616    1.0000 0.60993  0.13282  0.38860  Biso   1.000  He
  Ne616    1.0000 0.62475  0.10826  0.40143  Biso   1.000  Ne
  Ne617    1.0000 0.53068  0.26849  0.06580  Biso   1.000  Ne
  He617    1.0000 0.54070  0.23466  0.06804  Biso   1.000  He
  He618    1.0000 0.53147  0.21752  0.04221  Biso   1.000  He
  Ne618    1.0000 0.53940  0.18516  0.04262  Biso   1.000  Ne
  Ne619    1.0000 0.97370  0.22211  0.54668  Biso   1.000  Ne
  He619    1.0000 0.97742  0.20678  0.51763  Biso   1.000  He
  He620    1.0000 0.00692  0.19218  0.50952  Biso   1.000  He
  Ne620    1.0000 0.00458  0.17488  0.48008  Biso   1.000  Ne
  Ne621    1.0000 0.14063  0.12976  0.72195  Biso   1.000  Ne
  He621    1.0000 0.11870  0.14512  0.74005  Biso   1.000  He
  He622    1.0000 0.09753  0.16288  0.72221  Biso   1.000  He
  Ne622    1.0000 0.07668  0.18117  0.73897  Biso   1.000  Ne
  Ne623    1.0000 0.88853  0.29446  0.28828  Biso   1.000  Ne
  He623    1.0000 0.88320  0.32615  0.29953  Biso   1.000  He
  He624    1.0000 0.87917  0.32792  0.33113  Biso   1.000  He
  Ne624    1.0000 0.87173  0.35778  0.33871  Biso   1.000  Ne
  Ne625    1.0000 0.15504  0.32064  0.56725  Biso   1.000  Ne
  He625    1.0000 0.12401  0.31038  0.57623  Biso   1.000  He
  He626    1.0000 0.10061  0.32829  0.56707  Biso   1.000  He
  Ne626    1.0000 0.07096  0.31382  0.57448  Biso   1.000  Ne
  Ne627    1.0000 0.73292  0.31601  0.65724  Biso   1.000  Ne
  He627    1.0000 0.71441  0.33494  0.63600  Biso   1.000  He
  He628    1.0000 0.71220  0.36754  0.64594  Biso   1.000  He
  Ne628    1.0000 0.69771  0.38618  0.62171  Biso   1.000  Ne
  Ne629    1.0000 0.85652  0.74502  0.68578  Biso   1.000  Ne
  He629    1.0000 0.87543  0.74953  0.65714  Biso   1.000  He
  He630    1.0000 0.90237  0.77023  0.66240  Biso   1.000  He
  Ne630    1.0000 0.92265  0.77639  0.63661  Biso   1.000  Ne
  Ne631    1.0000 0.85852  0.35131  0.57973  Biso   1.000  Ne
  He631    1.0000 0.83237  0.36940  0.58296  Biso   1.000  He
  He632    1.0000 0.80248  0.35473  0.57496  Biso   1.000  He
  Ne632    1.0000 0.77768  0.37845  0.57954  Biso   1.000  Ne
  Ne633    1.0000 0.96080  0.05866  0.03864  Biso   1.000  Ne
  He633    1.0000 0.94908  0.07597  0.01482  Biso   1.000  He
  He634    1.0000 0.94515  0.05863  0.98730  Biso   1.000  He
  Ne634    1.0000 0.93454  0.07326  0.96093  Biso   1.000  Ne
  Ne635    1.0000 0.31508  0.71819  0.60956  Biso   1.000  Ne
  He635    1.0000 0.30427  0.74520  0.59391  Biso   1.000  He
  He636    1.0000 0.27433  0.74364  0.58358  Biso   1.000  He
  Ne636    1.0000 0.25543  0.76950  0.59149  Biso   1.000  Ne
  Ne637    1.0000 0.92331  0.78787  0.55529  Biso   1.000  Ne
  He637    1.0000 0.91831  0.77175  0.52555  Biso   1.000  He
  He638    1.0000 0.94314  0.77637  0.50247  Biso   1.000  He
  Ne638    1.0000 0.93781  0.80579  0.48366  Biso   1.000  Ne
  Ne639    1.0000 0.73474  0.93044  0.81581  Biso   1.000  Ne
  He639    1.0000 0.71041  0.92596  0.84123  Biso   1.000  He
  He640    1.0000 0.70645  0.95413  0.85656  Biso   1.000  He
  Ne640    1.0000 0.68215  0.95238  0.87826  Biso   1.000  Ne
  Ne641    1.0000 0.78178  0.82443  0.38904  Biso   1.000  Ne
  He641    1.0000 0.80925  0.82145  0.37078  Biso   1.000  He
  He642    1.0000 0.82770  0.84892  0.37819  Biso   1.000  He
  Ne642    1.0000 0.85905  0.84876  0.36267  Biso   1.000  Ne
  Ne643    1.0000 0.90849  0.34388  0.19080  Biso   1.000  Ne
  He643    1.0000 0.93285  0.32092  0.18802  Biso   1.000  He
  He644    1.0000 0.96198  0.32727  0.19984  Biso   1.000  He
  Ne644    1.0000 0.98711  0.30589  0.19444  Biso   1.000  Ne
  Ne645    1.0000 0.19619  0.10101  0.90909  Biso   1.000  Ne
  He645    1.0000 0.17034  0.08963  0.92543  Biso   1.000  He
  He646    1.0000 0.14072  0.09703  0.91297  Biso   1.000  He
  Ne646    1.0000 0.11621  0.09025  0.93270  Biso   1.000  Ne
  Ne647    1.0000 0.85007  0.38465  0.41629  Biso   1.000  Ne
  He647    1.0000 0.82307  0.40253  0.40896  Biso   1.000  He
  He648    1.0000 0.82323  0.41639  0.38188  Biso   1.000  He
  Ne648    1.0000 0.80826  0.39712  0.35648  Biso   1.000  Ne
  Ne649    1.0000 0.27305  0.17432  0.32569  Biso   1.000  Ne
  He649    1.0000 0.27823  0.15624  0.35399  Biso   1.000  He
  He650    1.0000 0.26318  0.17114  0.37944  Biso   1.000  He
  Ne650    1.0000 0.28199  0.18701  0.40199  Biso   1.000  Ne
  Ne651    1.0000 0.07624  0.10180  0.78830  Biso   1.000  Ne
  He651    1.0000 0.06522  0.11476  0.81401  Biso   1.000  He
  He652    1.0000 0.07180  0.09850  0.84203  Biso   1.000  He
  Ne652    1.0000 0.05781  0.11020  0.86933  Biso   1.000  Ne
  Ne653    1.0000 0.88218  0.10522  0.68282  Biso   1.000  Ne
  He653    1.0000 0.84963  0.10220  0.69327  Biso   1.000  He
  He654    1.0000 0.82883  0.10359  0.66660  Biso   1.000  He
  Ne654    1.0000 0.79599  0.10079  0.67557  Biso   1.000  Ne
  Ne655    1.0000 0.18588  0.65610  0.24821  Biso   1.000  Ne
  He655    1.0000 0.18397  0.64942  0.21763  Biso   1.000  He
  He656    1.0000 0.21166  0.65556  0.19878  Biso   1.000  He
  Ne656    1.0000 0.21272  0.64819  0.16814  Biso   1.000  Ne
  Ne657    1.0000 0.08477  0.34146  0.65545  Biso   1.000  Ne
  He657    1.0000 0.07704  0.37058  0.65119  Biso   1.000  He
  He658    1.0000 0.05917  0.38803  0.67587  Biso   1.000  He
  Ne658    1.0000 0.04978  0.41804  0.66574  Biso   1.000  Ne
  Ne659    1.0000 0.60074  0.46810  0.38709  Biso   1.000  Ne
  He659    1.0000 0.59111  0.46267  0.35348  Biso   1.000  He
  He660    1.0000 0.59835  0.43276  0.34148  Biso   1.000  He
  Ne660    1.0000 0.58793  0.42610  0.31051  Biso   1.000  Ne
  Ne661    1.0000 0.26522  0.33514  0.11263  Biso   1.000  Ne
  He661    1.0000 0.26358  0.31074  0.08896  Biso   1.000  He
  He662    1.0000 0.26588  0.27993  0.10238  Biso   1.000  He
  Ne662    1.0000 0.26427  0.25256  0.08297  Biso   1.000  Ne
  Ne663    1.0000 0.64282  0.89335  0.67957  Biso   1.000  Ne
  He663    1.0000 0.62060  0.89818  0.65460  Biso   1.000  He
  He664    1.0000 0.59200  0.91132  0.66478  Biso   1.000  He
  Ne664    1.0000 0.56621  0.91433  0.64193  Biso   1.000  Ne
  Ne665    1.0000 0.47817  0.10752  0.18900  Biso   1.000  Ne
  He665    1.0000 0.44625  0.11492  0.18124  Biso   1.000  He
  He666    1.0000 0.42546  0.11932  0.20799  Biso   1.000  He
  Ne666    1.0000 0.41990  0.15389  0.21601  Biso   1.000  Ne
  Ne667    1.0000 0.55862  0.06675  0.33381  Biso   1.000  Ne
  He667    1.0000 0.57317  0.06623  0.30326  Biso   1.000  He
  He668    1.0000 0.55295  0.06616  0.27752  Biso   1.000  He
  Ne668    1.0000 0.55745  0.09152  0.25967  Biso   1.000  Ne
  Ne669    1.0000 0.39879  0.07523  0.29110  Biso   1.000  Ne
  He669    1.0000 0.36657  0.06523  0.29797  Biso   1.000  He
  He670    1.0000 0.35484  0.07548  0.32691  Biso   1.000  He
  Ne670    1.0000 0.32451  0.06671  0.33569  Biso   1.000  Ne
  Ne671    1.0000 0.76771  0.70798  0.22470  Biso   1.000  Ne
  He671    1.0000 0.74065  0.69115  0.22137  Biso   1.000  He
  He672    1.0000 0.71920  0.69755  0.24679  Biso   1.000  He
  Ne672    1.0000 0.68807  0.68438  0.24116  Biso   1.000  Ne
  Ne673    1.0000 0.23235  0.86759  0.19040  Biso   1.000  Ne
  He673    1.0000 0.23692  0.89436  0.17501  Biso   1.000  He
  He674    1.0000 0.22325  0.89928  0.14559  Biso   1.000  He
  Ne674    1.0000 0.23221  0.92763  0.13359  Biso   1.000  Ne
  Ne675    1.0000 0.66226  0.81993  0.13406  Biso   1.000  Ne
  He675    1.0000 0.67434  0.79014  0.13547  Biso   1.000  He
  He676    1.0000 0.70851  0.78764  0.13220  Biso   1.000  He
  Ne676    1.0000 0.72260  0.76007  0.12962  Biso   1.000  Ne
  Ne677    1.0000 0.55148  0.92330  0.74546  Biso   1.000  Ne
  He677    1.0000 0.57647  0.91443  0.76784  Biso   1.000  He
  He678    1.0000 0.59894  0.94054  0.77045  Biso   1.000  He
  Ne678    1.0000 0.62211  0.93637  0.79218  Biso   1.000  Ne
  Ne679    1.0000 0.27490  0.65651  0.50578  Biso   1.000  Ne
  He679    1.0000 0.27877  0.63845  0.53458  Biso   1.000  He
  He680    1.0000 0.28026  0.65455  0.56586  Biso   1.000  He
  Ne680    1.0000 0.28578  0.63300  0.59085  Biso   1.000  Ne
  Ne681    1.0000 0.41235  0.85706  0.68081  Biso   1.000  Ne
  He681    1.0000 0.39311  0.88114  0.66600  Biso   1.000  He
  He682    1.0000 0.40321  0.91096  0.67937  Biso   1.000  He
  Ne682    1.0000 0.38915  0.93879  0.66463  Biso   1.000  Ne
  Ne683    1.0000 0.19231  0.89206  0.73838  Biso   1.000  Ne
  He683    1.0000 0.17893  0.86332  0.74707  Biso   1.000  He
  He684    1.0000 0.19177  0.83798  0.72714  Biso   1.000  He
  Ne684    1.0000 0.17969  0.80974  0.73748  Biso   1.000  Ne
  Ne685    1.0000 0.46723  0.43624  0.05613  Biso   1.000  Ne
  He685    1.0000 0.43839  0.44186  0.06658  Biso   1.000  He
  He686    1.0000 0.41599  0.42822  0.04661  Biso   1.000  He
  Ne686    1.0000 0.38426  0.43667  0.05201  Biso   1.000  Ne
  Ne687    1.0000 0.31494  0.72496  0.38341  Biso   1.000  Ne
  He687    1.0000 0.33404  0.75142  0.37870  Biso   1.000  He
  He688    1.0000 0.36692  0.74867  0.36723  Biso   1.000  He
  Ne688    1.0000 0.38075  0.77789  0.36365  Biso   1.000  Ne
  Ne689    1.0000 0.42521  0.76894  0.21894  Biso   1.000  Ne
  He689    1.0000 0.42246  0.79965  0.22783  Biso   1.000  He
  He690    1.0000 0.39715  0.80572  0.25373  Biso   1.000  He
  Ne690    1.0000 0.39758  0.83659  0.26827  Biso   1.000  Ne
  Ne691    1.0000 0.67002  0.52159  0.63339  Biso   1.000  Ne
  He691    1.0000 0.65074  0.49615  0.62531  Biso   1.000  He
  He692    1.0000 0.65773  0.46443  0.63603  Biso   1.000  He
  Ne692    1.0000 0.63604  0.44159  0.62289  Biso   1.000  Ne
  Ne693    1.0000 0.53196  0.30716  0.63097  Biso   1.000  Ne
  He693    1.0000 0.54754  0.30075  0.60045  Biso   1.000  He
  He694    1.0000 0.52546  0.29006  0.57913  Biso   1.000  He
  Ne694    1.0000 0.53847  0.27781  0.55001  Biso   1.000  Ne
  Ne695    1.0000 0.36011  0.20212  0.39760  Biso   1.000  Ne
  He695    1.0000 0.38092  0.17799  0.40515  Biso   1.000  He
  He696    1.0000 0.37561  0.14941  0.38688  Biso   1.000  He
  Ne696    1.0000 0.40010  0.12798  0.38863  Biso   1.000  Ne
  Ne697    1.0000 0.90725  0.19086  0.57712  Biso   1.000  Ne
  He697    1.0000 0.87595  0.20089  0.56514  Biso   1.000  He
  He698    1.0000 0.84998  0.18836  0.58043  Biso   1.000  He
  Ne698    1.0000 0.82230  0.19516  0.56711  Biso   1.000  Ne
  Ne699    1.0000 0.18761  0.28569  0.63341  Biso   1.000  Ne
  He699    1.0000 0.21863  0.29581  0.63172  Biso   1.000  He
  He700    1.0000 0.22079  0.31703  0.60609  Biso   1.000  He
  Ne700    1.0000 0.25220  0.32167  0.60072  Biso   1.000  Ne
