data_image0
_cell_length_a       46.6412
_cell_length_b       47.3678
_cell_length_c       46.4253
_cell_angle_alpha    90
_cell_angle_beta     90
_cell_angle_gamma    90

_symmetry_space_group_name_H-M    "P 1"
_symmetry_int_tables_number       1

loop_
  _symmetry_equiv_pos_as_xyz
  'x, y, z'

loop_
  _atom_site_label
  _atom_site_occupancy
  _atom_site_fract_x
  _atom_site_fract_y
  _atom_site_fract_z
  _atom_site_thermal_displace_type
  _atom_site_B_iso_or_equiv
  _atom_site_type_symbol
  Ne1      1.0000 0.40699  0.04845  0.32140  Biso   1.000  Ne
  He1      1.0000 0.41948  0.06319  0.34720  Biso   1.000  He
  He2      1.0000 0.41346  0.04668  0.37717  Biso   1.000  He
  Ne2      1.0000 0.40631  0.06882  0.40295  Biso   1.000  Ne
  Ne3      1.0000 0.90549  0.13385  0.81302  Biso   1.000  Ne
  He3      1.0000 0.90697  0.10068  0.81572  Biso   1.000  He
  He4      1.0000 0.91768  0.09248  0.84500  Biso   1.000  He
  Ne4      1.0000 0.91498  0.05977  0.85340  Biso   1.000  Ne
  Ne5      1.0000 0.12975  0.56318  0.37107  Biso   1.000  Ne
  He5      1.0000 0.10666  0.56009  0.34742  Biso   1.000  He
  He6      1.0000 0.12043  0.56508  0.31671  Biso   1.000  He
  Ne6      1.0000 0.09759  0.56308  0.29156  Biso   1.000  Ne
  Ne7      1.0000 0.81341  0.51611  0.10785  Biso   1.000  Ne
  He7      1.0000 0.79680  0.53796  0.12898  Biso   1.000  He
  He8      1.0000 0.81617  0.54699  0.15497  Biso   1.000  He
  Ne8      1.0000 0.80473  0.57311  0.17220  Biso   1.000  Ne
  Ne9      1.0000 0.94208  0.06942  0.15314  Biso   1.000  Ne
  He9      1.0000 0.92932  0.09377  0.17048  Biso   1.000  He
  He10     1.0000 0.93549  0.12303  0.15339  Biso   1.000  He
  Ne10     1.0000 0.92809  0.14982  0.16686  Biso   1.000  Ne
  Ne11     1.0000 0.84744  0.65384  0.63918  Biso   1.000  Ne
  He11     1.0000 0.85680  0.62972  0.66114  Biso   1.000  He
  He12     1.0000 0.86240  0.59944  0.64709  Biso   1.000  He
  Ne12     1.0000 0.87071  0.57588  0.66769  Biso   1.000  Ne
  Ne13     1.0000 0.23563  0.85992  0.76886  Biso   1.000  Ne
  He13     1.0000 0.25766  0.86446  0.74562  Biso   1.000  He
  He14     1.0000 0.24686  0.88573  0.72073  Biso   1.000  He
  Ne14     1.0000 0.26675  0.88521  0.69323  Biso   1.000  Ne
  Ne15     1.0000 0.17419  0.31896  0.01716  Biso   1.000  Ne
  He15     1.0000 0.19276  0.34724  0.02170  Biso   1.000  He
  He16     1.0000 0.21736  0.34342  0.04147  Biso   1.000  He
  Ne16     1.0000 0.23246  0.37176  0.04997  Biso   1.000  Ne
  Ne17     1.0000 0.56741  0.84748  0.42250  Biso   1.000  Ne
  He17     1.0000 0.57332  0.82077  0.44054  Biso   1.000  He
  He18     1.0000 0.56730  0.79229  0.42116  Biso   1.000  He
  Ne18     1.0000 0.56987  0.76422  0.44080  Biso   1.000  Ne
  Ne19     1.0000 0.58189  0.03248  0.44755  Biso   1.000  Ne
  He19     1.0000 0.59695  0.05064  0.42274  Biso   1.000  He
  He20     1.0000 0.57928  0.04699  0.39386  Biso   1.000  He
  Ne20     1.0000 0.59192  0.06311  0.36847  Biso   1.000  Ne
  Ne21     1.0000 0.57007  0.22318  0.04517  Biso   1.000  Ne
  He21     1.0000 0.60393  0.22701  0.03903  Biso   1.000  He
  He22     1.0000 0.62051  0.23128  0.06570  Biso   1.000  He
  Ne22     1.0000 0.64999  0.24016  0.05829  Biso   1.000  Ne
  Ne23     1.0000 0.42561  0.07655  0.54300  Biso   1.000  Ne
  He23     1.0000 0.40082  0.07503  0.56794  Biso   1.000  He
  He24     1.0000 0.38386  0.10106  0.57856  Biso   1.000  He
  Ne24     1.0000 0.35634  0.10209  0.56343  Biso   1.000  Ne
  Ne25     1.0000 0.92087  0.15835  0.91198  Biso   1.000  Ne
  He25     1.0000 0.89308  0.15214  0.89119  Biso   1.000  He
  He26     1.0000 0.86418  0.14644  0.90626  Biso   1.000  He
  Ne26     1.0000 0.83925  0.14197  0.88518  Biso   1.000  Ne
  Ne27     1.0000 0.43872  0.91110  0.38408  Biso   1.000  Ne
  He27     1.0000 0.41242  0.89413  0.37286  Biso   1.000  He
  He28     1.0000 0.41472  0.89086  0.34019  Biso   1.000  He
  Ne28     1.0000 0.39467  0.87003  0.32793  Biso   1.000  Ne
  Ne29     1.0000 0.93828  0.41744  0.34304  Biso   1.000  Ne
  He29     1.0000 0.91557  0.41771  0.31988  Biso   1.000  He
  He30     1.0000 0.92917  0.41609  0.29086  Biso   1.000  He
  Ne30     1.0000 0.91289  0.42465  0.26211  Biso   1.000  Ne
  Ne31     1.0000 0.07428  0.94365  0.28300  Biso   1.000  Ne
  He31     1.0000 0.05861  0.91620  0.29675  Biso   1.000  He
  He32     1.0000 0.04841  0.92198  0.32754  Biso   1.000  He
  Ne32     1.0000 0.03326  0.89413  0.34042  Biso   1.000  Ne
  Ne33     1.0000 0.73508  0.08961  0.16873  Biso   1.000  Ne
  He33     1.0000 0.72269  0.07149  0.19116  Biso   1.000  He
  He34     1.0000 0.68971  0.06694  0.18964  Biso   1.000  He
  Ne34     1.0000 0.67818  0.04301  0.21173  Biso   1.000  Ne
  Ne35     1.0000 0.17627  0.12417  0.91388  Biso   1.000  Ne
  He35     1.0000 0.20391  0.11191  0.90700  Biso   1.000  He
  He36     1.0000 0.20516  0.07725  0.90971  Biso   1.000  He
  Ne36     1.0000 0.23377  0.06497  0.89755  Biso   1.000  Ne
  Ne37     1.0000 0.37593  0.24299  0.92470  Biso   1.000  Ne
  He37     1.0000 0.37240  0.27359  0.93410  Biso   1.000  He
  He38     1.0000 0.38235  0.29581  0.91200  Biso   1.000  He
  Ne38     1.0000 0.38475  0.32812  0.92454  Biso   1.000  Ne
  Ne39     1.0000 0.04221  0.50474  0.22881  Biso   1.000  Ne
  He39     1.0000 0.03767  0.53272  0.21383  Biso   1.000  He
  He40     1.0000 0.04266  0.53246  0.18154  Biso   1.000  He
  Ne40     1.0000 0.04224  0.56224  0.16714  Biso   1.000  Ne
  Ne41     1.0000 0.74220  0.60870  0.79757  Biso   1.000  Ne
  He41     1.0000 0.71345  0.60169  0.81390  Biso   1.000  He
  He42     1.0000 0.68987  0.58275  0.79973  Biso   1.000  He
  Ne42     1.0000 0.66505  0.57259  0.82191  Biso   1.000  Ne
  Ne43     1.0000 0.60754  0.63055  0.19976  Biso   1.000  Ne
  He43     1.0000 0.61593  0.65948  0.21023  Biso   1.000  He
  He44     1.0000 0.61158  0.68350  0.18627  Biso   1.000  He
  Ne44     1.0000 0.61829  0.71768  0.19609  Biso   1.000  Ne
  Ne45     1.0000 0.12125  0.29364  0.22610  Biso   1.000  Ne
  He45     1.0000 0.11977  0.32459  0.23794  Biso   1.000  He
  He46     1.0000 0.09188  0.34090  0.22340  Biso   1.000  He
  Ne46     1.0000 0.08389  0.37114  0.23550  Biso   1.000  Ne
  Ne47     1.0000 0.17884  0.18200  0.15850  Biso   1.000  Ne
  He47     1.0000 0.16415  0.18314  0.12707  Biso   1.000  He
  He48     1.0000 0.17694  0.20103  0.10310  Biso   1.000  He
  Ne48     1.0000 0.16143  0.20312  0.07530  Biso   1.000  Ne
  Ne49     1.0000 0.85650  0.05263  0.07544  Biso   1.000  Ne
  He49     1.0000 0.84643  0.06373  0.10472  Biso   1.000  He
  He50     1.0000 0.81437  0.06718  0.10597  Biso   1.000  He
  Ne50     1.0000 0.80495  0.07771  0.13640  Biso   1.000  Ne
  Ne51     1.0000 0.31145  0.34021  0.20923  Biso   1.000  Ne
  He51     1.0000 0.28981  0.35845  0.22529  Biso   1.000  He
  He52     1.0000 0.30092  0.37567  0.25130  Biso   1.000  He
  Ne52     1.0000 0.27759  0.38640  0.26985  Biso   1.000  Ne
  Ne53     1.0000 0.10010  0.90165  0.18196  Biso   1.000  Ne
  He53     1.0000 0.11455  0.87387  0.19426  Biso   1.000  He
  He54     1.0000 0.12140  0.85316  0.17093  Biso   1.000  He
  Ne54     1.0000 0.13841  0.82657  0.18131  Biso   1.000  Ne
  Ne55     1.0000 0.40685  0.94029  0.56971  Biso   1.000  Ne
  He55     1.0000 0.43635  0.93430  0.58730  Biso   1.000  He
  He56     1.0000 0.45668  0.95911  0.58702  Biso   1.000  He
  Ne56     1.0000 0.48688  0.94962  0.59567  Biso   1.000  Ne
  Ne57     1.0000 0.13897  0.23774  0.29503  Biso   1.000  Ne
  He57     1.0000 0.14582  0.21951  0.32290  Biso   1.000  He
  He58     1.0000 0.14943  0.23824  0.34954  Biso   1.000  He
  Ne58     1.0000 0.15717  0.22333  0.37681  Biso   1.000  Ne
  Ne59     1.0000 0.59103  0.31657  0.07154  Biso   1.000  Ne
  He59     1.0000 0.60485  0.30636  0.09903  Biso   1.000  He
  He60     1.0000 0.58519  0.29181  0.11934  Biso   1.000  He
  Ne60     1.0000 0.59878  0.27470  0.14493  Biso   1.000  Ne
  Ne61     1.0000 0.60210  0.65301  0.92218  Biso   1.000  Ne
  He61     1.0000 0.63617  0.64860  0.92328  Biso   1.000  He
  He62     1.0000 0.65163  0.66236  0.89919  Biso   1.000  He
  Ne62     1.0000 0.68675  0.66010  0.90457  Biso   1.000  Ne
  Ne63     1.0000 0.59352  0.39473  0.93082  Biso   1.000  Ne
  He63     1.0000 0.59938  0.39813  0.89922  Biso   1.000  He
  He64     1.0000 0.57246  0.39613  0.88050  Biso   1.000  He
  Ne64     1.0000 0.57503  0.40049  0.84800  Biso   1.000  Ne
  Ne65     1.0000 0.10739  0.88229  0.94541  Biso   1.000  Ne
  He65     1.0000 0.13731  0.87553  0.93592  Biso   1.000  He
  He66     1.0000 0.15804  0.90179  0.93004  Biso   1.000  He
  Ne66     1.0000 0.18878  0.88994  0.92866  Biso   1.000  Ne
  Ne67     1.0000 0.66722  0.93492  0.80546  Biso   1.000  Ne
  He67     1.0000 0.67527  0.92910  0.83641  Biso   1.000  He
  He68     1.0000 0.70313  0.94461  0.84806  Biso   1.000  He
  Ne68     1.0000 0.71242  0.93610  0.87865  Biso   1.000  Ne
  Ne69     1.0000 0.82541  0.56579  0.81796  Biso   1.000  Ne
  He69     1.0000 0.83795  0.57927  0.79159  Biso   1.000  He
  He70     1.0000 0.81930  0.57187  0.76416  Biso   1.000  He
  Ne70     1.0000 0.82952  0.58322  0.73425  Biso   1.000  Ne
  Ne71     1.0000 0.76839  0.61456  0.93825  Biso   1.000  Ne
  He71     1.0000 0.76571  0.58896  0.91995  Biso   1.000  He
  He72     1.0000 0.73658  0.57597  0.91806  Biso   1.000  He
  Ne72     1.0000 0.73616  0.54683  0.90466  Biso   1.000  Ne
  Ne73     1.0000 0.26246  0.59735  0.42804  Biso   1.000  Ne
  He73     1.0000 0.23566  0.61540  0.42792  Biso   1.000  He
  He74     1.0000 0.21165  0.60327  0.44434  Biso   1.000  He
  Ne74     1.0000 0.18858  0.62515  0.45217  Biso   1.000  Ne
  Ne75     1.0000 0.38064  0.58523  0.26474  Biso   1.000  Ne
  He75     1.0000 0.39617  0.56839  0.24112  Biso   1.000  He
  He76     1.0000 0.38970  0.57740  0.20951  Biso   1.000  He
  Ne76     1.0000 0.40449  0.55824  0.18950  Biso   1.000  Ne
  Ne77     1.0000 0.30733  0.89617  0.39274  Biso   1.000  Ne
  He77     1.0000 0.28524  0.87347  0.39513  Biso   1.000  He
  He78     1.0000 0.27616  0.87076  0.42687  Biso   1.000  He
  Ne78     1.0000 0.25751  0.84681  0.43621  Biso   1.000  Ne
  Ne79     1.0000 0.91172  0.40906  0.72545  Biso   1.000  Ne
  He79     1.0000 0.90667  0.38052  0.70812  Biso   1.000  He
  He80     1.0000 0.91185  0.35230  0.72695  Biso   1.000  He
  Ne80     1.0000 0.90418  0.32411  0.71301  Biso   1.000  Ne
  Ne81     1.0000 0.00770  0.28050  0.83324  Biso   1.000  Ne
  He81     1.0000 0.97774  0.29237  0.83581  Biso   1.000  He
  He82     1.0000 0.96993  0.31241  0.80981  Biso   1.000  He
  Ne82     1.0000 0.94205  0.33197  0.81044  Biso   1.000  Ne
  Ne83     1.0000 0.39097  0.90730  0.73790  Biso   1.000  Ne
  He83     1.0000 0.38668  0.90590  0.70668  Biso   1.000  He
  He84     1.0000 0.41223  0.91670  0.68801  Biso   1.000  He
  Ne84     1.0000 0.40719  0.91691  0.65624  Biso   1.000  Ne
  Ne85     1.0000 0.91386  0.64753  0.31181  Biso   1.000  Ne
  He85     1.0000 0.92214  0.61651  0.32542  Biso   1.000  He
  He86     1.0000 0.90342  0.61023  0.35167  Biso   1.000  He
  Ne86     1.0000 0.90457  0.57941  0.36229  Biso   1.000  Ne
  Ne87     1.0000 0.28779  0.58698  0.09456  Biso   1.000  Ne
  He87     1.0000 0.31343  0.60115  0.10711  Biso   1.000  He
  He88     1.0000 0.31777  0.58665  0.13689  Biso   1.000  He
  Ne88     1.0000 0.34627  0.59576  0.15103  Biso   1.000  Ne
  Ne89     1.0000 0.20882  0.13075  0.36943  Biso   1.000  Ne
  He89     1.0000 0.20923  0.11704  0.33840  Biso   1.000  He
  He90     1.0000 0.20426  0.14041  0.31377  Biso   1.000  He
  Ne90     1.0000 0.20316  0.12798  0.28281  Biso   1.000  Ne
  Ne91     1.0000 0.32116  0.05206  0.37425  Biso   1.000  Ne
  He91     1.0000 0.31852  0.08355  0.36724  Biso   1.000  He
  He92     1.0000 0.30237  0.10014  0.39419  Biso   1.000  He
  Ne92     1.0000 0.29475  0.13243  0.39108  Biso   1.000  Ne
  Ne93     1.0000 0.73261  0.39362  0.21553  Biso   1.000  Ne
  He93     1.0000 0.76501  0.39386  0.22844  Biso   1.000  He
  He94     1.0000 0.77570  0.36418  0.23260  Biso   1.000  He
  Ne94     1.0000 0.80861  0.36183  0.24648  Biso   1.000  Ne
  Ne95     1.0000 0.42655  0.67165  0.93029  Biso   1.000  Ne
  He95     1.0000 0.40211  0.68510  0.91042  Biso   1.000  He
  He96     1.0000 0.40333  0.71898  0.90803  Biso   1.000  He
  Ne96     1.0000 0.37749  0.73231  0.89388  Biso   1.000  Ne
  Ne97     1.0000 0.11937  0.32644  0.32410  Biso   1.000  Ne
  He97     1.0000 0.11062  0.31297  0.35467  Biso   1.000  He
  He98     1.0000 0.08616  0.32748  0.36859  Biso   1.000  He
  Ne98     1.0000 0.07811  0.31554  0.39741  Biso   1.000  Ne
  Ne99     1.0000 0.93990  0.46067  0.54376  Biso   1.000  Ne
  He99     1.0000 0.95455  0.43589  0.52694  Biso   1.000  He
  He100    1.0000 0.94083  0.42856  0.49670  Biso   1.000  He
  Ne100    1.0000 0.95792  0.40497  0.48275  Biso   1.000  Ne
  Ne101    1.0000 0.46165  0.65222  0.34619  Biso   1.000  Ne
  He101    1.0000 0.48145  0.62980  0.34031  Biso   1.000  He
  He102    1.0000 0.47822  0.62026  0.31019  Biso   1.000  He
  Ne102    1.0000 0.50095  0.59795  0.30458  Biso   1.000  Ne
  Ne103    1.0000 0.78891  0.71337  0.90610  Biso   1.000  Ne
  He103    1.0000 0.76302  0.69883  0.88687  Biso   1.000  He
  He104    1.0000 0.77071  0.70691  0.85359  Biso   1.000  He
  Ne104    1.0000 0.74593  0.69965  0.83287  Biso   1.000  Ne
  Ne105    1.0000 0.07035  0.53915  0.72833  Biso   1.000  Ne
  He105    1.0000 0.08913  0.56077  0.71332  Biso   1.000  He
  He106    1.0000 0.07966  0.59115  0.71878  Biso   1.000  He
  Ne106    1.0000 0.09423  0.61408  0.69947  Biso   1.000  Ne
  Ne107    1.0000 0.07595  0.74310  0.62021  Biso   1.000  Ne
  He107    1.0000 0.07457  0.75481  0.65126  Biso   1.000  He
  He108    1.0000 0.05561  0.73630  0.67212  Biso   1.000  He
  Ne108    1.0000 0.05348  0.74973  0.70346  Biso   1.000  Ne
  Ne109    1.0000 0.40634  0.74738  0.24406  Biso   1.000  Ne
  He109    1.0000 0.41798  0.71954  0.23949  Biso   1.000  He
  He110    1.0000 0.39559  0.69509  0.23139  Biso   1.000  He
  Ne110    1.0000 0.40825  0.66836  0.24218  Biso   1.000  Ne
  Ne111    1.0000 0.24465  0.58201  0.30617  Biso   1.000  Ne
  He111    1.0000 0.26287  0.55786  0.31984  Biso   1.000  He
  He112    1.0000 0.27466  0.56669  0.34993  Biso   1.000  He
  Ne112    1.0000 0.29792  0.54781  0.36317  Biso   1.000  Ne
  Ne113    1.0000 0.08737  0.23383  0.15359  Biso   1.000  Ne
  He113    1.0000 0.08873  0.25181  0.12711  Biso   1.000  He
  He114    1.0000 0.07564  0.23772  0.09966  Biso   1.000  He
  Ne114    1.0000 0.07684  0.25665  0.07108  Biso   1.000  Ne
  Ne115    1.0000 0.47146  0.48860  0.06165  Biso   1.000  Ne
  He115    1.0000 0.46774  0.51812  0.06969  Biso   1.000  He
  He116    1.0000 0.47150  0.52329  0.10345  Biso   1.000  He
  Ne116    1.0000 0.47101  0.55741  0.10948  Biso   1.000  Ne
  Ne117    1.0000 0.45215  0.43555  0.00089  Biso   1.000  Ne
  He117    1.0000 0.44321  0.42436  0.03061  Biso   1.000  He
  He118    1.0000 0.46704  0.40448  0.04628  Biso   1.000  He
  Ne118    1.0000 0.46065  0.39821  0.07942  Biso   1.000  Ne
  Ne119    1.0000 0.71475  0.90638  0.59637  Biso   1.000  Ne
  He119    1.0000 0.68753  0.89005  0.59394  Biso   1.000  He
  He120    1.0000 0.65876  0.90866  0.59858  Biso   1.000  He
  Ne120    1.0000 0.63063  0.89224  0.59098  Biso   1.000  Ne
  Ne121    1.0000 0.25069  0.05725  0.06945  Biso   1.000  Ne
  He121    1.0000 0.22308  0.07168  0.06227  Biso   1.000  He
  He122    1.0000 0.21388  0.09270  0.08553  Biso   1.000  He
  Ne122    1.0000 0.18377  0.10887  0.07964  Biso   1.000  Ne
  Ne123    1.0000 0.25468  0.04216  0.33189  Biso   1.000  Ne
  He123    1.0000 0.22894  0.02985  0.31289  Biso   1.000  He
  He124    1.0000 0.22091  0.04747  0.28612  Biso   1.000  He
  Ne124    1.0000 0.19590  0.03583  0.26882  Biso   1.000  Ne
  Ne125    1.0000 0.57263  0.61614  0.74395  Biso   1.000  Ne
  He125    1.0000 0.59519  0.64087  0.73708  Biso   1.000  He
  He126    1.0000 0.59725  0.66025  0.76256  Biso   1.000  He
  Ne126    1.0000 0.61824  0.68480  0.76117  Biso   1.000  Ne
  Ne127    1.0000 0.89885  0.30457  0.35286  Biso   1.000  Ne
  He127    1.0000 0.91192  0.30302  0.38408  Biso   1.000  He
  He128    1.0000 0.90361  0.32490  0.40648  Biso   1.000  He
  Ne128    1.0000 0.91309  0.31684  0.43624  Biso   1.000  Ne
  Ne129    1.0000 0.08971  0.41173  0.39502  Biso   1.000  Ne
  He129    1.0000 0.08248  0.40343  0.36406  Biso   1.000  He
  He130    1.0000 0.10298  0.41641  0.34257  Biso   1.000  He
  Ne130    1.0000 0.09856  0.40360  0.31256  Biso   1.000  Ne
  Ne131    1.0000 0.80434  0.17654  0.81164  Biso   1.000  Ne
  He131    1.0000 0.81994  0.20393  0.81941  Biso   1.000  He
  He132    1.0000 0.84407  0.21539  0.79949  Biso   1.000  He
  Ne132    1.0000 0.85175  0.24577  0.80677  Biso   1.000  Ne
  Ne133    1.0000 0.33418  0.79771  0.43493  Biso   1.000  Ne
  He133    1.0000 0.36450  0.80080  0.42389  Biso   1.000  He
  He134    1.0000 0.38276  0.82003  0.44351  Biso   1.000  He
  Ne134    1.0000 0.41485  0.82566  0.43177  Biso   1.000  Ne
  Ne135    1.0000 0.25120  0.17058  0.91675  Biso   1.000  Ne
  He135    1.0000 0.26103  0.19580  0.93502  Biso   1.000  He
  He136    1.0000 0.28545  0.21368  0.92273  Biso   1.000  He
  Ne136    1.0000 0.28826  0.24651  0.93242  Biso   1.000  Ne
  Ne137    1.0000 0.16226  0.91333  0.26288  Biso   1.000  Ne
  He137    1.0000 0.16356  0.87826  0.26376  Biso   1.000  He
  He138    1.0000 0.13507  0.86576  0.27996  Biso   1.000  He
  Ne138    1.0000 0.13208  0.83353  0.27817  Biso   1.000  Ne
  Ne139    1.0000 0.95052  0.93030  0.04636  Biso   1.000  Ne
  He139    1.0000 0.95088  0.94552  0.01594  Biso   1.000  He
  He140    1.0000 0.94137  0.92438  0.99189  Biso   1.000  He
  Ne140    1.0000 0.93840  0.93959  0.96129  Biso   1.000  Ne
  Ne141    1.0000 0.21457  0.41481  0.42962  Biso   1.000  Ne
  He141    1.0000 0.18770  0.39827  0.41693  Biso   1.000  He
  He142    1.0000 0.19444  0.38997  0.38517  Biso   1.000  He
  Ne142    1.0000 0.17464  0.36472  0.37375  Biso   1.000  Ne
  Ne143    1.0000 0.15402  0.55938  0.18542  Biso   1.000  Ne
  He143    1.0000 0.18275  0.54527  0.17868  Biso   1.000  He
  He144    1.0000 0.20034  0.55261  0.15332  Biso   1.000  He
  Ne144    1.0000 0.22886  0.53640  0.15519  Biso   1.000  Ne
  Ne145    1.0000 0.88361  0.29406  0.27042  Biso   1.000  Ne
  He145    1.0000 0.87556  0.29003  0.23702  Biso   1.000  He
  He146    1.0000 0.87883  0.31855  0.21853  Biso   1.000  He
  Ne146    1.0000 0.86697  0.31933  0.18693  Biso   1.000  Ne
  Ne147    1.0000 0.68867  0.07234  0.41021  Biso   1.000  Ne
  He147    1.0000 0.69005  0.10431  0.40858  Biso   1.000  He
  He148    1.0000 0.68093  0.11896  0.43676  Biso   1.000  He
  Ne148    1.0000 0.68659  0.15176  0.43587  Biso   1.000  Ne
  Ne149    1.0000 0.44941  0.40527  0.23960  Biso   1.000  Ne
  He149    1.0000 0.42361  0.38737  0.22894  Biso   1.000  He
  He150    1.0000 0.39907  0.40236  0.21129  Biso   1.000  He
  Ne150    1.0000 0.37670  0.38033  0.19513  Biso   1.000  Ne
  Ne151    1.0000 0.62111  0.69125  0.08480  Biso   1.000  Ne
  He151    1.0000 0.59144  0.70348  0.08660  Biso   1.000  He
  He152    1.0000 0.59143  0.73595  0.09719  Biso   1.000  He
  Ne152    1.0000 0.56366  0.74753  0.10304  Biso   1.000  Ne
  Ne153    1.0000 0.02159  0.40993  0.56510  Biso   1.000  Ne
  He153    1.0000 0.03117  0.39862  0.53596  Biso   1.000  He
  He154    1.0000 0.05514  0.41418  0.52196  Biso   1.000  He
  Ne154    1.0000 0.06153  0.40590  0.48898  Biso   1.000  Ne
  Ne155    1.0000 0.64488  0.61720  0.07782  Biso   1.000  Ne
  He155    1.0000 0.66852  0.60478  0.09933  Biso   1.000  He
  He156    1.0000 0.68345  0.57718  0.08682  Biso   1.000  He
  Ne156    1.0000 0.70517  0.56260  0.10609  Biso   1.000  Ne
  Ne157    1.0000 0.49121  0.37681  0.32003  Biso   1.000  Ne
  He157    1.0000 0.52266  0.36800  0.31332  Biso   1.000  He
  He158    1.0000 0.53891  0.35050  0.33783  Biso   1.000  He
  Ne158    1.0000 0.57043  0.34377  0.32938  Biso   1.000  Ne
  Ne159    1.0000 0.01377  0.61147  0.81794  Biso   1.000  Ne
  He159    1.0000 0.99081  0.63614  0.82043  Biso   1.000  He
  He160    1.0000 0.96571  0.63316  0.80163  Biso   1.000  He
  Ne160    1.0000 0.94439  0.65785  0.80391  Biso   1.000  Ne
  Ne161    1.0000 0.84309  0.41193  0.40344  Biso   1.000  Ne
  He161    1.0000 0.81695  0.40082  0.42331  Biso   1.000  He
  He162    1.0000 0.80602  0.37112  0.41741  Biso   1.000  He
  Ne162    1.0000 0.77999  0.36263  0.43525  Biso   1.000  Ne
  Ne163    1.0000 0.95009  0.63821  0.42706  Biso   1.000  Ne
  He163    1.0000 0.93326  0.66759  0.42988  Biso   1.000  He
  He164    1.0000 0.89823  0.66747  0.42168  Biso   1.000  He
  Ne164    1.0000 0.88183  0.69535  0.43078  Biso   1.000  Ne
  Ne165    1.0000 0.78695  0.87533  0.83845  Biso   1.000  Ne
  He165    1.0000 0.77601  0.87756  0.87125  Biso   1.000  He
  He166    1.0000 0.79655  0.88866  0.89476  Biso   1.000  He
  Ne166    1.0000 0.78406  0.88882  0.92541  Biso   1.000  Ne
  Ne167    1.0000 0.03353  0.70154  0.99056  Biso   1.000  Ne
  He167    1.0000 0.06554  0.70417  0.00143  Biso   1.000  He
  He168    1.0000 0.08779  0.71112  0.97625  Biso   1.000  He
  Ne168    1.0000 0.11954  0.71164  0.98799  Biso   1.000  Ne
  Ne169    1.0000 0.94491  0.87942  0.83454  Biso   1.000  Ne
  He169    1.0000 0.92010  0.89686  0.85009  Biso   1.000  He
  He170    1.0000 0.92401  0.89785  0.88313  Biso   1.000  He
  Ne170    1.0000 0.90352  0.91483  0.89879  Biso   1.000  Ne
  Ne171    1.0000 0.94417  0.25012  0.93846  Biso   1.000  Ne
  He171    1.0000 0.94225  0.25278  0.90700  Biso   1.000  He
  He172    1.0000 0.91232  0.24517  0.89413  Biso   1.000  He
  Ne172    1.0000 0.90405  0.25504  0.86259  Biso   1.000  Ne
  Ne173    1.0000 0.95575  0.01932  0.07771  Biso   1.000  Ne
  He173    1.0000 0.96584  0.04899  0.06848  Biso   1.000  He
  He174    1.0000 0.97418  0.04831  0.03486  Biso   1.000  He
  Ne174    1.0000 0.98636  0.07709  0.02243  Biso   1.000  Ne
  Ne175    1.0000 0.11770  0.81907  0.80854  Biso   1.000  Ne
  He175    1.0000 0.10879  0.85097  0.80442  Biso   1.000  He
  He176    1.0000 0.10352  0.86719  0.83317  Biso   1.000  He
  Ne176    1.0000 0.09671  0.89907  0.83184  Biso   1.000  Ne
  Ne177    1.0000 0.33696  0.79232  0.72608  Biso   1.000  Ne
  He177    1.0000 0.36428  0.81342  0.72939  Biso   1.000  He
  He178    1.0000 0.38891  0.80761  0.70990  Biso   1.000  He
  Ne178    1.0000 0.41247  0.83041  0.71342  Biso   1.000  Ne
  Ne179    1.0000 0.28327  0.31466  0.08091  Biso   1.000  Ne
  He179    1.0000 0.27185  0.32154  0.11286  Biso   1.000  He
  He180    1.0000 0.24713  0.30413  0.12232  Biso   1.000  He
  Ne180    1.0000 0.22390  0.32156  0.14086  Biso   1.000  Ne
  Ne181    1.0000 0.09845  0.78957  0.10864  Biso   1.000  Ne
  He181    1.0000 0.11483  0.76763  0.12994  Biso   1.000  He
  He182    1.0000 0.10432  0.73488  0.12555  Biso   1.000  He
  Ne182    1.0000 0.11292  0.71086  0.14649  Biso   1.000  Ne
  Ne183    1.0000 0.58876  0.65080  0.83684  Biso   1.000  Ne
  He183    1.0000 0.59152  0.61899  0.85137  Biso   1.000  He
  He184    1.0000 0.58388  0.59416  0.83112  Biso   1.000  He
  Ne184    1.0000 0.58695  0.56203  0.84217  Biso   1.000  Ne
  Ne185    1.0000 0.80588  0.44295  0.14417  Biso   1.000  Ne
  He185    1.0000 0.83652  0.44378  0.16116  Biso   1.000  He
  He186    1.0000 0.84710  0.47512  0.16383  Biso   1.000  He
  Ne186    1.0000 0.87344  0.47952  0.18329  Biso   1.000  Ne
  Ne187    1.0000 0.38057  0.70703  0.62656  Biso   1.000  Ne
  He187    1.0000 0.34923  0.71360  0.63067  Biso   1.000  He
  He188    1.0000 0.33161  0.68388  0.63484  Biso   1.000  He
  Ne188    1.0000 0.29711  0.68826  0.63698  Biso   1.000  Ne
  Ne189    1.0000 0.49410  0.50092  0.97223  Biso   1.000  Ne
  He189    1.0000 0.51153  0.47719  0.95391  Biso   1.000  He
  He190    1.0000 0.51354  0.48314  0.92211  Biso   1.000  He
  Ne190    1.0000 0.53047  0.45784  0.90674  Biso   1.000  Ne
  Ne191    1.0000 0.56703  0.41429  0.09561  Biso   1.000  Ne
  He191    1.0000 0.58480  0.41323  0.12359  Biso   1.000  He
  He192    1.0000 0.59318  0.38309  0.13565  Biso   1.000  He
  Ne192    1.0000 0.61172  0.38745  0.16270  Biso   1.000  Ne
  Ne193    1.0000 0.65752  0.77225  0.91991  Biso   1.000  Ne
  He193    1.0000 0.62765  0.77443  0.93494  Biso   1.000  He
  He194    1.0000 0.60847  0.74960  0.92970  Biso   1.000  He
  Ne194    1.0000 0.57453  0.75299  0.93898  Biso   1.000  Ne
  Ne195    1.0000 0.41763  0.21464  0.07164  Biso   1.000  Ne
  He195    1.0000 0.41177  0.23600  0.09438  Biso   1.000  He
  He196    1.0000 0.42273  0.26709  0.08679  Biso   1.000  He
  Ne196    1.0000 0.42320  0.28834  0.11170  Biso   1.000  Ne
  Ne197    1.0000 0.72656  0.81103  0.69667  Biso   1.000  Ne
  He197    1.0000 0.71705  0.80176  0.72766  Biso   1.000  He
  He198    1.0000 0.69292  0.78058  0.73035  Biso   1.000  He
  Ne198    1.0000 0.68485  0.77550  0.76198  Biso   1.000  Ne
  Ne199    1.0000 0.06053  0.07326  0.95696  Biso   1.000  Ne
  He199    1.0000 0.09024  0.07642  0.93897  Biso   1.000  He
  He200    1.0000 0.10120  0.04906  0.92459  Biso   1.000  He
  Ne200    1.0000 0.12906  0.05468  0.90430  Biso   1.000  Ne
  Ne201    1.0000 0.41324  0.42706  0.85317  Biso   1.000  Ne
  He201    1.0000 0.40798  0.41351  0.88282  Biso   1.000  He
  He202    1.0000 0.37886  0.41655  0.89299  Biso   1.000  He
  Ne202    1.0000 0.37385  0.41156  0.92657  Biso   1.000  Ne
  Ne203    1.0000 0.34945  0.62523  0.81982  Biso   1.000  Ne
  He203    1.0000 0.35841  0.60902  0.79690  Biso   1.000  He
  He204    1.0000 0.38806  0.61758  0.78412  Biso   1.000  He
  Ne204    1.0000 0.39503  0.59562  0.76264  Biso   1.000  Ne
  Ne205    1.0000 0.25061  0.37511  0.70568  Biso   1.000  Ne
  He205    1.0000 0.22552  0.37153  0.68668  Biso   1.000  He
  He206    1.0000 0.23221  0.37369  0.65327  Biso   1.000  He
  Ne206    1.0000 0.20761  0.37441  0.63164  Biso   1.000  Ne
  Ne207    1.0000 0.35003  0.39110  0.08097  Biso   1.000  Ne
  He207    1.0000 0.33317  0.38676  0.10541  Biso   1.000  He
  He208    1.0000 0.33152  0.41267  0.12159  Biso   1.000  He
  Ne208    1.0000 0.31421  0.40723  0.14943  Biso   1.000  Ne
  Ne209    1.0000 0.67295  0.06335  0.67392  Biso   1.000  Ne
  He209    1.0000 0.65181  0.06800  0.64860  Biso   1.000  He
  He210    1.0000 0.66113  0.09226  0.62738  Biso   1.000  He
  Ne210    1.0000 0.67635  0.08367  0.59803  Biso   1.000  Ne
  Ne211    1.0000 0.09984  0.24906  0.92802  Biso   1.000  Ne
  He211    1.0000 0.09496  0.21415  0.92819  Biso   1.000  He
  He212    1.0000 0.06777  0.20267  0.91849  Biso   1.000  He
  Ne212    1.0000 0.07284  0.17072  0.91612  Biso   1.000  Ne
  Ne213    1.0000 0.61224  0.83194  0.66964  Biso   1.000  Ne
  He213    1.0000 0.61611  0.81573  0.63961  Biso   1.000  He
  He214    1.0000 0.59119  0.81778  0.61624  Biso   1.000  He
  Ne214    1.0000 0.59746  0.80212  0.58867  Biso   1.000  Ne
  Ne215    1.0000 0.07890  0.08806  0.83921  Biso   1.000  Ne
  He215    1.0000 0.07437  0.12051  0.84231  Biso   1.000  He
  He216    1.0000 0.07387  0.13839  0.81379  Biso   1.000  He
  Ne216    1.0000 0.06765  0.17003  0.81888  Biso   1.000  Ne
  Ne217    1.0000 0.24430  0.57334  0.77908  Biso   1.000  Ne
  He217    1.0000 0.22442  0.58406  0.75436  Biso   1.000  He
  He218    1.0000 0.20826  0.56249  0.73525  Biso   1.000  He
  Ne218    1.0000 0.19039  0.57650  0.71171  Biso   1.000  Ne
  Ne219    1.0000 0.07688  0.12807  0.33577  Biso   1.000  Ne
  He219    1.0000 0.09766  0.10669  0.32511  Biso   1.000  He
  He220    1.0000 0.09694  0.11040  0.29090  Biso   1.000  He
  Ne220    1.0000 0.12166  0.09292  0.27469  Biso   1.000  Ne
  Ne221    1.0000 0.23381  0.79460  0.66659  Biso   1.000  Ne
  He221    1.0000 0.21980  0.77473  0.64357  Biso   1.000  He
  He222    1.0000 0.21503  0.74575  0.65768  Biso   1.000  He
  Ne222    1.0000 0.19938  0.72183  0.63713  Biso   1.000  Ne
  Ne223    1.0000 0.14355  0.42696  0.20431  Biso   1.000  Ne
  He223    1.0000 0.15713  0.43243  0.23643  Biso   1.000  He
  He224    1.0000 0.18938  0.41844  0.24087  Biso   1.000  He
  Ne224    1.0000 0.19759  0.41705  0.27246  Biso   1.000  Ne
  Ne225    1.0000 0.91802  0.65131  0.57891  Biso   1.000  Ne
  He225    1.0000 0.92043  0.61923  0.59167  Biso   1.000  He
  He226    1.0000 0.91186  0.59572  0.56991  Biso   1.000  He
  Ne226    1.0000 0.92026  0.56424  0.58216  Biso   1.000  Ne
  Ne227    1.0000 0.49003  0.04633  0.44945  Biso   1.000  Ne
  He227    1.0000 0.46473  0.03854  0.47166  Biso   1.000  He
  He228    1.0000 0.47172  0.00770  0.48625  Biso   1.000  He
  Ne228    1.0000 0.44722  0.99838  0.50691  Biso   1.000  Ne
  Ne229    1.0000 0.08855  0.53127  0.58289  Biso   1.000  Ne
  He229    1.0000 0.09018  0.55848  0.60499  Biso   1.000  He
  He230    1.0000 0.07017  0.58452  0.59901  Biso   1.000  He
  Ne230    1.0000 0.07106  0.60738  0.62315  Biso   1.000  Ne
  Ne231    1.0000 0.72974  0.36121  0.89977  Biso   1.000  Ne
  He231    1.0000 0.71720  0.34467  0.87613  Biso   1.000  He
  He232    1.0000 0.72224  0.31290  0.87543  Biso   1.000  He
  Ne232    1.0000 0.70039  0.29105  0.89125  Biso   1.000  Ne
  Ne233    1.0000 0.55961  0.25647  0.88461  Biso   1.000  Ne
  He233    1.0000 0.56136  0.28346  0.90338  Biso   1.000  He
  He234    1.0000 0.57699  0.31111  0.89055  Biso   1.000  He
  Ne234    1.0000 0.60925  0.30792  0.89364  Biso   1.000  Ne
  Ne235    1.0000 0.91547  0.79868  0.08055  Biso   1.000  Ne
  He235    1.0000 0.92898  0.82071  0.09921  Biso   1.000  He
  He236    1.0000 0.92843  0.84915  0.08298  Biso   1.000  He
  Ne236    1.0000 0.94321  0.87406  0.10076  Biso   1.000  Ne
  Ne237    1.0000 0.59673  0.13934  0.43361  Biso   1.000  Ne
  He237    1.0000 0.60750  0.15635  0.40908  Biso   1.000  He
  He238    1.0000 0.61693  0.14162  0.38000  Biso   1.000  He
  Ne238    1.0000 0.62982  0.16134  0.35932  Biso   1.000  Ne
  Ne239    1.0000 0.36115  0.27854  0.71278  Biso   1.000  Ne
  He239    1.0000 0.32653  0.27767  0.70591  Biso   1.000  He
  He240    1.0000 0.31721  0.27733  0.67291  Biso   1.000  He
  Ne240    1.0000 0.28446  0.28177  0.66888  Biso   1.000  Ne
  Ne241    1.0000 0.60473  0.55737  0.13946  Biso   1.000  Ne
  He241    1.0000 0.57903  0.56134  0.12014  Biso   1.000  He
  He242    1.0000 0.57693  0.53687  0.09739  Biso   1.000  He
  Ne242    1.0000 0.55284  0.54222  0.07854  Biso   1.000  Ne
  Ne243    1.0000 0.27498  0.88452  0.60704  Biso   1.000  Ne
  He243    1.0000 0.30136  0.86429  0.59931  Biso   1.000  He
  He244    1.0000 0.32891  0.87965  0.61472  Biso   1.000  He
  Ne244    1.0000 0.34667  0.90182  0.59565  Biso   1.000  Ne
  Ne245    1.0000 0.85166  0.82140  0.91816  Biso   1.000  Ne
  He245    1.0000 0.87660  0.80246  0.91800  Biso   1.000  He
  He246    1.0000 0.90685  0.81982  0.91705  Biso   1.000  He
  Ne246    1.0000 0.93233  0.80002  0.91870  Biso   1.000  Ne
  Ne247    1.0000 0.18994  0.55998  0.60824  Biso   1.000  Ne
  He247    1.0000 0.18146  0.59030  0.60271  Biso   1.000  He
  He248    1.0000 0.16061  0.60117  0.62368  Biso   1.000  He
  Ne248    1.0000 0.14849  0.62958  0.61443  Biso   1.000  Ne
  Ne249    1.0000 0.82673  0.57468  0.57043  Biso   1.000  Ne
  He249    1.0000 0.79519  0.57738  0.57872  Biso   1.000  He
  He250    1.0000 0.79286  0.58387  0.61242  Biso   1.000  He
  Ne250    1.0000 0.76231  0.58201  0.62207  Biso   1.000  Ne
  Ne251    1.0000 0.34304  0.78672  0.61948  Biso   1.000  Ne
  He251    1.0000 0.37426  0.79329  0.62670  Biso   1.000  He
  He252    1.0000 0.38671  0.82082  0.61664  Biso   1.000  He
  Ne252    1.0000 0.41699  0.82799  0.62842  Biso   1.000  Ne
  Ne253    1.0000 0.90571  0.19906  0.08214  Biso   1.000  Ne
  He253    1.0000 0.89847  0.16756  0.07394  Biso   1.000  He
  He254    1.0000 0.92386  0.14517  0.07925  Biso   1.000  He
  Ne254    1.0000 0.92140  0.11593  0.06376  Biso   1.000  Ne
  Ne255    1.0000 0.08449  0.15914  0.08282  Biso   1.000  Ne
  He255    1.0000 0.08895  0.12413  0.07961  Biso   1.000  He
  He256    1.0000 0.07584  0.10941  0.05352  Biso   1.000  He
  Ne256    1.0000 0.08370  0.07725  0.05218  Biso   1.000  Ne
  Ne257    1.0000 0.33319  0.65358  0.93795  Biso   1.000  Ne
  He257    1.0000 0.31674  0.63512  0.91514  Biso   1.000  He
  He258    1.0000 0.31088  0.60170  0.92338  Biso   1.000  He
  Ne258    1.0000 0.29696  0.58539  0.89624  Biso   1.000  Ne
  Ne259    1.0000 0.81301  0.69624  0.38744  Biso   1.000  Ne
  He259    1.0000 0.79784  0.72403  0.37736  Biso   1.000  He
  He260    1.0000 0.77794  0.73623  0.40156  Biso   1.000  He
  Ne260    1.0000 0.76283  0.76543  0.39576  Biso   1.000  Ne
  Ne261    1.0000 0.77796  0.89836  0.44212  Biso   1.000  Ne
  He261    1.0000 0.76328  0.89875  0.41102  Biso   1.000  He
  He262    1.0000 0.73118  0.89514  0.41286  Biso   1.000  He
  Ne262    1.0000 0.71478  0.90066  0.38394  Biso   1.000  Ne
  Ne263    1.0000 0.02807  0.92048  0.00838  Biso   1.000  Ne
  He263    1.0000 0.04946  0.94871  0.00838  Biso   1.000  He
  He264    1.0000 0.06855  0.95660  0.03404  Biso   1.000  He
  Ne264    1.0000 0.08964  0.98226  0.03256  Biso   1.000  Ne
  Ne265    1.0000 0.09362  0.69929  0.44915  Biso   1.000  Ne
  He265    1.0000 0.10331  0.66970  0.43814  Biso   1.000  He
  He266    1.0000 0.09858  0.66643  0.40687  Biso   1.000  He
  Ne266    1.0000 0.11277  0.64028  0.39270  Biso   1.000  Ne
  Ne267    1.0000 0.61982  0.07820  0.28330  Biso   1.000  Ne
  He267    1.0000 0.64483  0.08709  0.29883  Biso   1.000  He
  He268    1.0000 0.67059  0.06832  0.30148  Biso   1.000  He
  Ne268    1.0000 0.69366  0.07993  0.31772  Biso   1.000  Ne
  Ne269    1.0000 0.24647  0.67132  0.48214  Biso   1.000  Ne
  He269    1.0000 0.23485  0.70181  0.47035  Biso   1.000  He
  He270    1.0000 0.20781  0.69951  0.45515  Biso   1.000  He
  Ne270    1.0000 0.20555  0.71968  0.43162  Biso   1.000  Ne
  Ne271    1.0000 0.33204  0.07941  0.67585  Biso   1.000  Ne
  He271    1.0000 0.35951  0.07596  0.65915  Biso   1.000  He
  He272    1.0000 0.38509  0.07958  0.67697  Biso   1.000  He
  Ne272    1.0000 0.41326  0.07707  0.65937  Biso   1.000  Ne
  Ne273    1.0000 0.91693  0.01499  0.93265  Biso   1.000  Ne
  He273    1.0000 0.92640  0.03872  0.95012  Biso   1.000  He
  He274    1.0000 0.93954  0.06235  0.93078  Biso   1.000  He
  Ne274    1.0000 0.96025  0.08123  0.94920  Biso   1.000  Ne
  Ne275    1.0000 0.58820  0.29494  0.23149  Biso   1.000  Ne
  He275    1.0000 0.58345  0.27043  0.25699  Biso   1.000  He
  He276    1.0000 0.59179  0.28021  0.28503  Biso   1.000  He
  Ne276    1.0000 0.58338  0.26261  0.30933  Biso   1.000  Ne
  Ne277    1.0000 0.05610  0.24085  0.42204  Biso   1.000  Ne
  He277    1.0000 0.06674  0.23778  0.39047  Biso   1.000  He
  He278    1.0000 0.05399  0.21089  0.37683  Biso   1.000  He
  Ne278    1.0000 0.06502  0.20266  0.34662  Biso   1.000  Ne
  Ne279    1.0000 0.30107  0.24856  0.42106  Biso   1.000  Ne
  He279    1.0000 0.27645  0.25740  0.40645  Biso   1.000  He
  He280    1.0000 0.27238  0.29025  0.41024  Biso   1.000  He
  Ne280    1.0000 0.24886  0.30434  0.39178  Biso   1.000  Ne
  Ne281    1.0000 0.64394  0.55500  0.72553  Biso   1.000  Ne
  He281    1.0000 0.66343  0.56503  0.69951  Biso   1.000  He
  He282    1.0000 0.66563  0.59774  0.69199  Biso   1.000  He
  Ne282    1.0000 0.68405  0.60585  0.66400  Biso   1.000  Ne
  Ne283    1.0000 0.74180  0.75638  0.05863  Biso   1.000  Ne
  He283    1.0000 0.74449  0.78719  0.04781  Biso   1.000  He
  He284    1.0000 0.71548  0.80302  0.04702  Biso   1.000  He
  Ne284    1.0000 0.71690  0.83589  0.03582  Biso   1.000  Ne
  Ne285    1.0000 0.75150  0.22727  0.86386  Biso   1.000  Ne
  He285    1.0000 0.77096  0.21749  0.88961  Biso   1.000  He
  He286    1.0000 0.79884  0.23596  0.89248  Biso   1.000  He
  Ne286    1.0000 0.82257  0.22153  0.91386  Biso   1.000  Ne
  Ne287    1.0000 0.93207  0.18271  0.25366  Biso   1.000  Ne
  He287    1.0000 0.92103  0.20781  0.27408  Biso   1.000  He
  He288    1.0000 0.92808  0.20160  0.30520  Biso   1.000  He
  Ne288    1.0000 0.91740  0.22343  0.32955  Biso   1.000  Ne
  Ne289    1.0000 0.64730  0.55957  0.92012  Biso   1.000  Ne
  He289    1.0000 0.61661  0.54811  0.92321  Biso   1.000  He
  He290    1.0000 0.59115  0.56856  0.91736  Biso   1.000  He
  Ne290    1.0000 0.55989  0.55421  0.92203  Biso   1.000  Ne
  Ne291    1.0000 0.84155  0.06480  0.92016  Biso   1.000  Ne
  He291    1.0000 0.84545  0.05568  0.88886  Biso   1.000  He
  He292    1.0000 0.82181  0.06631  0.86895  Biso   1.000  He
  Ne292    1.0000 0.81855  0.05322  0.83765  Biso   1.000  Ne
  Ne293    1.0000 0.21132  0.60706  0.08674  Biso   1.000  Ne
  He293    1.0000 0.21332  0.62396  0.11601  Biso   1.000  He
  He294    1.0000 0.18388  0.63781  0.12372  Biso   1.000  He
  Ne294    1.0000 0.18609  0.65336  0.15491  Biso   1.000  Ne
  Ne295    1.0000 0.11137  0.20746  0.58825  Biso   1.000  Ne
  He295    1.0000 0.11450  0.23855  0.59165  Biso   1.000  He
  He296    1.0000 0.13207  0.25422  0.56585  Biso   1.000  He
  Ne296    1.0000 0.13643  0.28625  0.56946  Biso   1.000  Ne
  Ne297    1.0000 0.00816  0.91608  0.92678  Biso   1.000  Ne
  He297    1.0000 0.03871  0.92214  0.93276  Biso   1.000  He
  He298    1.0000 0.04761  0.95307  0.92712  Biso   1.000  He
  Ne298    1.0000 0.07967  0.95854  0.93644  Biso   1.000  Ne
  Ne299    1.0000 0.38664  0.57472  0.88208  Biso   1.000  Ne
  He299    1.0000 0.41192  0.58817  0.86973  Biso   1.000  He
  He300    1.0000 0.41087  0.62038  0.86655  Biso   1.000  He
  Ne300    1.0000 0.43573  0.63810  0.85051  Biso   1.000  Ne
  Ne301    1.0000 0.41673  0.92487  0.46667  Biso   1.000  Ne
  He301    1.0000 0.44430  0.90927  0.47735  Biso   1.000  He
  He302    1.0000 0.47151  0.92127  0.46430  Biso   1.000  He
  Ne302    1.0000 0.49990  0.90534  0.47033  Biso   1.000  Ne
  Ne303    1.0000 0.55316  0.40174  0.01345  Biso   1.000  Ne
  He303    1.0000 0.55514  0.43490  0.00807  Biso   1.000  He
  He304    1.0000 0.58552  0.45097  0.00657  Biso   1.000  He
  Ne304    1.0000 0.58172  0.48445  0.99675  Biso   1.000  Ne
  Ne305    1.0000 0.60381  0.88681  0.27414  Biso   1.000  Ne
  He305    1.0000 0.61021  0.89951  0.30303  Biso   1.000  He
  He306    1.0000 0.59063  0.88883  0.32865  Biso   1.000  He
  Ne306    1.0000 0.59892  0.90311  0.35759  Biso   1.000  Ne
  Ne307    1.0000 0.08206  0.80446  0.94670  Biso   1.000  Ne
  He307    1.0000 0.10351  0.79216  0.92708  Biso   1.000  He
  He308    1.0000 0.10125  0.80590  0.89660  Biso   1.000  He
  Ne308    1.0000 0.12176  0.79054  0.87901  Biso   1.000  Ne
  Ne309    1.0000 0.77671  0.42975  0.31645  Biso   1.000  Ne
  He309    1.0000 0.79350  0.40068  0.31957  Biso   1.000  He
  He310    1.0000 0.82731  0.40209  0.31887  Biso   1.000  He
  Ne310    1.0000 0.83903  0.37287  0.33229  Biso   1.000  Ne
  Ne311    1.0000 0.09136  0.39921  0.67053  Biso   1.000  Ne
  He311    1.0000 0.08748  0.36726  0.67910  Biso   1.000  He
  He312    1.0000 0.07721  0.35058  0.65175  Biso   1.000  He
  Ne312    1.0000 0.08269  0.31974  0.65566  Biso   1.000  Ne
  Ne313    1.0000 0.07795  0.61597  0.22447  Biso   1.000  Ne
  He313    1.0000 0.06585  0.64643  0.22254  Biso   1.000  He
  He314    1.0000 0.05744  0.65796  0.19167  Biso   1.000  He
  Ne314    1.0000 0.04115  0.68612  0.18901  Biso   1.000  Ne
  Ne315    1.0000 0.68076  0.49146  0.29238  Biso   1.000  Ne
  He315    1.0000 0.69484  0.50650  0.32020  Biso   1.000  He
  He316    1.0000 0.69694  0.48494  0.34726  Biso   1.000  He
  Ne316    1.0000 0.71100  0.49745  0.37428  Biso   1.000  Ne
  Ne317    1.0000 0.44924  0.73823  0.70261  Biso   1.000  Ne
  He317    1.0000 0.43712  0.73434  0.73218  Biso   1.000  He
  He318    1.0000 0.43951  0.70334  0.74558  Biso   1.000  He
  Ne318    1.0000 0.42303  0.69786  0.77407  Biso   1.000  Ne
  Ne319    1.0000 0.08839  0.34917  0.57103  Biso   1.000  Ne
  He319    1.0000 0.11719  0.36127  0.57923  Biso   1.000  He
  He320    1.0000 0.12056  0.39554  0.57631  Biso   1.000  He
  Ne320    1.0000 0.14869  0.40816  0.58451  Biso   1.000  Ne
  Ne321    1.0000 0.59690  0.03396  0.54604  Biso   1.000  Ne
  He321    1.0000 0.56902  0.04994  0.53844  Biso   1.000  He
  He322    1.0000 0.55551  0.06389  0.56829  Biso   1.000  He
  Ne322    1.0000 0.52776  0.08130  0.56501  Biso   1.000  Ne
  Ne323    1.0000 0.40606  0.16670  0.63412  Biso   1.000  Ne
  He323    1.0000 0.40383  0.18184  0.60215  Biso   1.000  He
  He324    1.0000 0.37227  0.18551  0.59025  Biso   1.000  He
  Ne324    1.0000 0.36795  0.21676  0.57721  Biso   1.000  Ne
  Ne325    1.0000 0.39478  0.36102  0.75892  Biso   1.000  Ne
  He325    1.0000 0.39503  0.33480  0.78068  Biso   1.000  He
  He326    1.0000 0.36606  0.33324  0.79563  Biso   1.000  He
  Ne326    1.0000 0.35984  0.30435  0.81181  Biso   1.000  Ne
  Ne327    1.0000 0.58806  0.15237  0.59555  Biso   1.000  Ne
  He327    1.0000 0.61248  0.16551  0.61672  Biso   1.000  He
  He328    1.0000 0.64230  0.17725  0.60161  Biso   1.000  He
  Ne328    1.0000 0.66387  0.18934  0.62267  Biso   1.000  Ne
  Ne329    1.0000 0.15125  0.39121  0.77314  Biso   1.000  Ne
  He329    1.0000 0.16967  0.39604  0.79939  Biso   1.000  He
  He330    1.0000 0.15323  0.40424  0.82877  Biso   1.000  He
  Ne330    1.0000 0.17477  0.40842  0.85395  Biso   1.000  Ne
  Ne331    1.0000 0.03682  0.54211  0.51170  Biso   1.000  Ne
  He331    1.0000 0.06121  0.52316  0.49649  Biso   1.000  He
  He332    1.0000 0.08006  0.53690  0.47236  Biso   1.000  He
  Ne332    1.0000 0.10997  0.51940  0.46282  Biso   1.000  Ne
  Ne333    1.0000 0.65441  0.62384  0.30425  Biso   1.000  Ne
  He333    1.0000 0.68231  0.61503  0.28857  Biso   1.000  He
  He334    1.0000 0.68007  0.60658  0.25613  Biso   1.000  He
  Ne334    1.0000 0.68112  0.57544  0.24914  Biso   1.000  Ne
  Ne335    1.0000 0.50923  0.83149  0.91624  Biso   1.000  Ne
  He335    1.0000 0.50999  0.82016  0.88472  Biso   1.000  He
  He336    1.0000 0.53558  0.79848  0.88222  Biso   1.000  He
  Ne336    1.0000 0.53661  0.78456  0.85625  Biso   1.000  Ne
  Ne337    1.0000 0.56778  0.07320  0.65372  Biso   1.000  Ne
  He337    1.0000 0.56865  0.08776  0.68319  Biso   1.000  He
  He338    1.0000 0.56678  0.12106  0.68123  Biso   1.000  He
  Ne338    1.0000 0.56570  0.13094  0.71272  Biso   1.000  Ne
  Ne339    1.0000 0.21317  0.10502  0.81445  Biso   1.000  Ne
  He339    1.0000 0.19198  0.08976  0.79341  Biso   1.000  He
  He340    1.0000 0.17559  0.06549  0.80742  Biso   1.000  He
  Ne340    1.0000 0.15932  0.05097  0.78608  Biso   1.000  Ne
  Ne341    1.0000 0.91118  0.56259  0.74790  Biso   1.000  Ne
  He341    1.0000 0.90404  0.59276  0.75370  Biso   1.000  He
  He342    1.0000 0.91070  0.61091  0.72890  Biso   1.000  He
  Ne342    1.0000 0.90369  0.64267  0.73258  Biso   1.000  Ne
  Ne343    1.0000 0.15192  0.08861  0.14838  Biso   1.000  Ne
  He343    1.0000 0.13928  0.11437  0.16496  Biso   1.000  He
  He344    1.0000 0.10734  0.11845  0.16162  Biso   1.000  He
  Ne344    1.0000 0.09438  0.14208  0.18261  Biso   1.000  Ne
  Ne345    1.0000 0.79217  0.40807  0.72419  Biso   1.000  Ne
  He345    1.0000 0.77884  0.40647  0.69571  Biso   1.000  He
  He346    1.0000 0.75942  0.43054  0.69042  Biso   1.000  He
  Ne346    1.0000 0.74316  0.43107  0.66349  Biso   1.000  Ne
  Ne347    1.0000 0.66644  0.31926  0.21516  Biso   1.000  Ne
  He347    1.0000 0.69253  0.30033  0.22042  Biso   1.000  He
  He348    1.0000 0.69055  0.26709  0.22009  Biso   1.000  He
  Ne348    1.0000 0.71963  0.25199  0.23128  Biso   1.000  Ne
  Ne349    1.0000 0.29107  0.06645  0.78681  Biso   1.000  Ne
  He349    1.0000 0.29638  0.09021  0.76343  Biso   1.000  He
  He350    1.0000 0.29729  0.12111  0.77854  Biso   1.000  He
  Ne350    1.0000 0.30319  0.14687  0.76064  Biso   1.000  Ne
  Ne351    1.0000 0.54489  0.77220  0.01297  Biso   1.000  Ne
  He351    1.0000 0.51264  0.76800  0.01024  Biso   1.000  He
  He352    1.0000 0.50422  0.76953  0.97873  Biso   1.000  He
  Ne352    1.0000 0.47137  0.76299  0.96829  Biso   1.000  Ne
  Ne353    1.0000 0.87698  0.23376  0.42494  Biso   1.000  Ne
  He353    1.0000 0.84749  0.24191  0.41095  Biso   1.000  He
  He354    1.0000 0.83588  0.27177  0.41470  Biso   1.000  He
  Ne354    1.0000 0.80354  0.27832  0.41036  Biso   1.000  Ne
  Ne355    1.0000 0.75111  0.37838  0.10747  Biso   1.000  Ne
  He355    1.0000 0.72156  0.39774  0.10219  Biso   1.000  He
  He356    1.0000 0.69371  0.38135  0.11025  Biso   1.000  He
  Ne356    1.0000 0.66655  0.39346  0.09297  Biso   1.000  Ne
  Ne357    1.0000 0.70055  0.75804  0.64248  Biso   1.000  Ne
  He357    1.0000 0.70673  0.78440  0.62464  Biso   1.000  He
  He358    1.0000 0.68424  0.79414  0.60032  Biso   1.000  He
  Ne358    1.0000 0.69036  0.82047  0.58528  Biso   1.000  Ne
  Ne359    1.0000 0.92868  0.90232  0.23504  Biso   1.000  Ne
  He359    1.0000 0.90379  0.91092  0.21262  Biso   1.000  He
  He360    1.0000 0.91461  0.90889  0.18075  Biso   1.000  He
  Ne360    1.0000 0.89338  0.91800  0.15506  Biso   1.000  Ne
  Ne361    1.0000 0.98148  0.53589  0.45448  Biso   1.000  Ne
  He361    1.0000 0.98117  0.51979  0.42449  Biso   1.000  He
  He362    1.0000 0.98907  0.48828  0.42740  Biso   1.000  He
  Ne362    1.0000 0.96341  0.46723  0.42069  Biso   1.000  Ne
  Ne363    1.0000 0.68757  0.81483  0.42690  Biso   1.000  Ne
  He363    1.0000 0.67422  0.78541  0.42068  Biso   1.000  He
  He364    1.0000 0.68430  0.77119  0.39304  Biso   1.000  He
  Ne364    1.0000 0.66687  0.74370  0.38670  Biso   1.000  Ne
  Ne365    1.0000 0.71923  0.97207  0.98332  Biso   1.000  Ne
  He365    1.0000 0.72464  0.00080  0.96624  Biso   1.000  He
  He366    1.0000 0.70831  0.99992  0.93678  Biso   1.000  He
  Ne366    1.0000 0.71052  0.03029  0.92353  Biso   1.000  Ne
  Ne367    1.0000 0.10572  0.91955  0.10306  Biso   1.000  Ne
  He367    1.0000 0.13044  0.90242  0.09035  Biso   1.000  He
  He368    1.0000 0.15813  0.90101  0.10964  Biso   1.000  He
  Ne368    1.0000 0.18157  0.88063  0.10058  Biso   1.000  Ne
  Ne369    1.0000 0.53894  0.97058  0.47466  Biso   1.000  Ne
  He369    1.0000 0.55117  0.96322  0.50474  Biso   1.000  He
  He370    1.0000 0.58458  0.95144  0.50622  Biso   1.000  He
  Ne370    1.0000 0.59467  0.93861  0.53559  Biso   1.000  Ne
  Ne371    1.0000 0.56215  0.72263  0.35438  Biso   1.000  Ne
  He371    1.0000 0.55361  0.69966  0.32894  Biso   1.000  He
  He372    1.0000 0.57911  0.68198  0.31765  Biso   1.000  He
  Ne372    1.0000 0.57218  0.66076  0.29143  Biso   1.000  Ne
  Ne373    1.0000 0.92517  0.33254  0.58936  Biso   1.000  Ne
  He373    1.0000 0.92414  0.35916  0.60812  Biso   1.000  He
  He374    1.0000 0.91938  0.38818  0.59236  Biso   1.000  He
  Ne374    1.0000 0.91431  0.41221  0.61188  Biso   1.000  Ne
  Ne375    1.0000 0.82814  0.39809  0.63019  Biso   1.000  Ne
  He375    1.0000 0.83792  0.37383  0.61208  Biso   1.000  He
  He376    1.0000 0.83214  0.34443  0.62365  Biso   1.000  He
  Ne376    1.0000 0.84211  0.31869  0.60526  Biso   1.000  Ne
  Ne377    1.0000 0.78641  0.85760  0.07425  Biso   1.000  Ne
  He377    1.0000 0.81493  0.86629  0.08906  Biso   1.000  He
  He378    1.0000 0.82237  0.89619  0.08129  Biso   1.000  He
  Ne378    1.0000 0.85462  0.90878  0.08371  Biso   1.000  Ne
  Ne379    1.0000 0.29160  0.36411  0.89654  Biso   1.000  Ne
  He379    1.0000 0.26317  0.37431  0.90599  Biso   1.000  He
  He380    1.0000 0.25880  0.38053  0.93921  Biso   1.000  He
  Ne380    1.0000 0.22754  0.38934  0.94691  Biso   1.000  Ne
