data_image0
_cell_length_a       47.1148
_cell_length_b       46.6056
_cell_length_c       46.5146
_cell_angle_alpha    90
_cell_angle_beta     90
_cell_angle_gamma    90

_symmetry_space_group_name_H-M    "P 1"
_symmetry_int_tables_number       1

loop_
  _symmetry_equiv_pos_as_xyz
  'x, y, z'

loop_
  _atom_site_label
  _atom_site_occupancy
  _atom_site_fract_x
  _atom_site_fract_y
  _atom_site_fract_z
  _atom_site_thermal_displace_type
  _atom_site_B_iso_or_equiv
  _atom_site_type_symbol
  Ne1      1.0000 0.73638  0.93312  0.37316  Biso   1.000  Ne
  He1      1.0000 0.74159  0.92119  0.34271  Biso   1.000  He
  He2      1.0000 0.71268  0.91780  0.32620  Biso   1.000  He
  Ne2      1.0000 0.72010  0.91551  0.29211  Biso   1.000  Ne
  Ne3      1.0000 0.35139  0.07002  0.41618  Biso   1.000  Ne
  He3      1.0000 0.33786  0.08304  0.38967  Biso   1.000  He
  He4      1.0000 0.34242  0.11774  0.38230  Biso   1.000  He
  Ne4      1.0000 0.32597  0.12681  0.35460  Biso   1.000  Ne
  Ne5      1.0000 0.22233  0.83090  0.47733  Biso   1.000  Ne
  He5      1.0000 0.22385  0.80275  0.49352  Biso   1.000  He
  He6      1.0000 0.24305  0.80071  0.51694  Biso   1.000  He
  Ne6      1.0000 0.24505  0.77073  0.53178  Biso   1.000  Ne
  Ne7      1.0000 0.09923  0.31906  0.91027  Biso   1.000  Ne
  He7      1.0000 0.07905  0.30004  0.89213  Biso   1.000  He
  He8      1.0000 0.08121  0.29919  0.85696  Biso   1.000  He
  Ne8      1.0000 0.06284  0.32422  0.84346  Biso   1.000  Ne
  Ne9      1.0000 0.63542  0.37396  0.92162  Biso   1.000  Ne
  He9      1.0000 0.61299  0.39818  0.92201  Biso   1.000  He
  He10     1.0000 0.62465  0.42996  0.92933  Biso   1.000  He
  Ne10     1.0000 0.60100  0.45279  0.93354  Biso   1.000  Ne
  Ne11     1.0000 0.79921  0.19080  0.12634  Biso   1.000  Ne
  He11     1.0000 0.77588  0.16689  0.13564  Biso   1.000  He
  He12     1.0000 0.74513  0.17615  0.13267  Biso   1.000  He
  Ne12     1.0000 0.72246  0.15026  0.13485  Biso   1.000  Ne
  Ne13     1.0000 0.91561  0.91212  0.06877  Biso   1.000  Ne
  He13     1.0000 0.94552  0.92356  0.06533  Biso   1.000  He
  He14     1.0000 0.96743  0.91278  0.08919  Biso   1.000  He
  Ne14     1.0000 0.99976  0.92467  0.08392  Biso   1.000  Ne
  Ne15     1.0000 0.64237  0.31116  0.08952  Biso   1.000  Ne
  He15     1.0000 0.67053  0.32636  0.09021  Biso   1.000  He
  He16     1.0000 0.67319  0.35457  0.07431  Biso   1.000  He
  Ne16     1.0000 0.70264  0.37179  0.07525  Biso   1.000  Ne
  Ne17     1.0000 0.25947  0.09308  0.69408  Biso   1.000  Ne
  He17     1.0000 0.26642  0.09801  0.66173  Biso   1.000  He
  He18     1.0000 0.24011  0.09236  0.64322  Biso   1.000  He
  Ne18     1.0000 0.24616  0.09001  0.61053  Biso   1.000  Ne
  Ne19     1.0000 0.94284  0.57181  0.59199  Biso   1.000  Ne
  He19     1.0000 0.97279  0.57477  0.58064  Biso   1.000  He
  He20     1.0000 0.99093  0.54594  0.58970  Biso   1.000  He
  Ne20     1.0000 0.02322  0.54643  0.58362  Biso   1.000  Ne
  Ne21     1.0000 0.46485  0.24922  0.68557  Biso   1.000  Ne
  He21     1.0000 0.44117  0.22739  0.67734  Biso   1.000  He
  He22     1.0000 0.44893  0.19493  0.67937  Biso   1.000  He
  Ne22     1.0000 0.42316  0.17807  0.67135  Biso   1.000  Ne
  Ne23     1.0000 0.95154  0.06120  0.22591  Biso   1.000  Ne
  He23     1.0000 0.92983  0.06488  0.25127  Biso   1.000  He
  He24     1.0000 0.89874  0.07202  0.24211  Biso   1.000  He
  Ne24     1.0000 0.87773  0.08199  0.26848  Biso   1.000  Ne
  Ne25     1.0000 0.94339  0.83140  0.18715  Biso   1.000  Ne
  He25     1.0000 0.95575  0.81805  0.15784  Biso   1.000  He
  He26     1.0000 0.95471  0.83789  0.12990  Biso   1.000  He
  Ne26     1.0000 0.92643  0.83275  0.11310  Biso   1.000  Ne
  Ne27     1.0000 0.10157  0.86119  0.27933  Biso   1.000  Ne
  He27     1.0000 0.11382  0.83200  0.27454  Biso   1.000  He
  He28     1.0000 0.12290  0.82100  0.24190  Biso   1.000  He
  Ne28     1.0000 0.13831  0.79145  0.23970  Biso   1.000  Ne
  Ne29     1.0000 0.28381  0.35141  0.90295  Biso   1.000  Ne
  He29     1.0000 0.29612  0.38382  0.89458  Biso   1.000  He
  He30     1.0000 0.32845  0.38821  0.90189  Biso   1.000  He
  Ne30     1.0000 0.34105  0.41412  0.88341  Biso   1.000  Ne
  Ne31     1.0000 0.57839  0.88985  0.71091  Biso   1.000  Ne
  He31     1.0000 0.59028  0.87474  0.68187  Biso   1.000  He
  He32     1.0000 0.59994  0.84241  0.68445  Biso   1.000  He
  Ne32     1.0000 0.60607  0.82964  0.65347  Biso   1.000  Ne
  Ne33     1.0000 0.11277  0.68845  0.40172  Biso   1.000  Ne
  He33     1.0000 0.12972  0.70722  0.41914  Biso   1.000  He
  He34     1.0000 0.11110  0.73455  0.42653  Biso   1.000  He
  Ne34     1.0000 0.12572  0.75780  0.44670  Biso   1.000  Ne
  Ne35     1.0000 0.11806  0.65565  0.56944  Biso   1.000  Ne
  He35     1.0000 0.11682  0.67483  0.60151  Biso   1.000  He
  He36     1.0000 0.14545  0.67675  0.61987  Biso   1.000  He
  Ne36     1.0000 0.14795  0.69358  0.64876  Biso   1.000  Ne
  Ne37     1.0000 0.37848  0.42457  0.20938  Biso   1.000  Ne
  He37     1.0000 0.39125  0.42447  0.17688  Biso   1.000  He
  He38     1.0000 0.42333  0.41584  0.17304  Biso   1.000  He
  Ne38     1.0000 0.43290  0.42248  0.14385  Biso   1.000  Ne
  Ne39     1.0000 0.23341  0.46615  0.09371  Biso   1.000  Ne
  He39     1.0000 0.26548  0.45521  0.09006  Biso   1.000  He
  He40     1.0000 0.27997  0.44668  0.11986  Biso   1.000  He
  Ne40     1.0000 0.31274  0.43958  0.11815  Biso   1.000  Ne
  Ne41     1.0000 0.93731  0.48776  0.46240  Biso   1.000  Ne
  He41     1.0000 0.94021  0.51840  0.46937  Biso   1.000  He
  He42     1.0000 0.96647  0.52836  0.48823  Biso   1.000  He
  Ne42     1.0000 0.96762  0.56085  0.49050  Biso   1.000  Ne
  Ne43     1.0000 0.43980  0.03673  0.43698  Biso   1.000  Ne
  He43     1.0000 0.46804  0.02105  0.44277  Biso   1.000  He
  He44     1.0000 0.47103  0.99421  0.42468  Biso   1.000  He
  Ne44     1.0000 0.49385  0.97306  0.43515  Biso   1.000  Ne
  Ne45     1.0000 0.61561  0.04065  0.56910  Biso   1.000  Ne
  He45     1.0000 0.61420  0.07153  0.58290  Biso   1.000  He
  He46     1.0000 0.60661  0.09635  0.56467  Biso   1.000  He
  Ne46     1.0000 0.59094  0.11958  0.58515  Biso   1.000  Ne
  Ne47     1.0000 0.82541  0.36896  0.59634  Biso   1.000  Ne
  He47     1.0000 0.83728  0.37900  0.62706  Biso   1.000  He
  He48     1.0000 0.83024  0.41065  0.63114  Biso   1.000  He
  Ne48     1.0000 0.84647  0.42432  0.65723  Biso   1.000  Ne
  Ne49     1.0000 0.13857  0.80388  0.14250  Biso   1.000  Ne
  He49     1.0000 0.15837  0.82334  0.12601  Biso   1.000  He
  He50     1.0000 0.14412  0.84201  0.10230  Biso   1.000  He
  Ne50     1.0000 0.15051  0.82867  0.07343  Biso   1.000  Ne
  Ne51     1.0000 0.09876  0.06276  0.25487  Biso   1.000  Ne
  He51     1.0000 0.12169  0.07664  0.23384  Biso   1.000  He
  He52     1.0000 0.15210  0.07556  0.24711  Biso   1.000  He
  Ne52     1.0000 0.17564  0.09518  0.23124  Biso   1.000  Ne
  Ne53     1.0000 0.85861  0.86365  0.92424  Biso   1.000  Ne
  He53     1.0000 0.83252  0.87849  0.91008  Biso   1.000  He
  He54     1.0000 0.82729  0.87340  0.87744  Biso   1.000  He
  Ne54     1.0000 0.80291  0.88777  0.86660  Biso   1.000  Ne
  Ne55     1.0000 0.21603  0.63895  0.57236  Biso   1.000  Ne
  He55     1.0000 0.20625  0.62352  0.60080  Biso   1.000  He
  He56     1.0000 0.18137  0.60144  0.59291  Biso   1.000  He
  Ne56     1.0000 0.16737  0.58478  0.61801  Biso   1.000  Ne
  Ne57     1.0000 0.07519  0.37667  0.43817  Biso   1.000  Ne
  He57     1.0000 0.08738  0.40596  0.42965  Biso   1.000  He
  He58     1.0000 0.11780  0.40915  0.43875  Biso   1.000  He
  Ne58     1.0000 0.13449  0.43719  0.43491  Biso   1.000  Ne
  Ne59     1.0000 0.42936  0.75144  0.36141  Biso   1.000  Ne
  He59     1.0000 0.43646  0.78089  0.37361  Biso   1.000  He
  He60     1.0000 0.43856  0.78647  0.40756  Biso   1.000  He
  Ne60     1.0000 0.43685  0.81842  0.41458  Biso   1.000  Ne
  Ne61     1.0000 0.56728  0.52567  0.09037  Biso   1.000  Ne
  He61     1.0000 0.58852  0.51484  0.06638  Biso   1.000  He
  He62     1.0000 0.60072  0.53971  0.04532  Biso   1.000  He
  Ne62     1.0000 0.62286  0.53007  0.02247  Biso   1.000  Ne
  Ne63     1.0000 0.26358  0.60887  0.08070  Biso   1.000  Ne
  He63     1.0000 0.28432  0.63005  0.09570  Biso   1.000  He
  He64     1.0000 0.30395  0.61505  0.11836  Biso   1.000  He
  Ne64     1.0000 0.32800  0.63608  0.13129  Biso   1.000  Ne
  Ne65     1.0000 0.90288  0.68306  0.39865  Biso   1.000  Ne
  He65     1.0000 0.91922  0.68767  0.36872  Biso   1.000  He
  He66     1.0000 0.94302  0.66717  0.36439  Biso   1.000  He
  Ne66     1.0000 0.95995  0.67027  0.33735  Biso   1.000  Ne
  Ne67     1.0000 0.03869  0.58255  0.20846  Biso   1.000  Ne
  He67     1.0000 0.03629  0.55821  0.18638  Biso   1.000  He
  He68     1.0000 0.03788  0.56967  0.15385  Biso   1.000  He
  Ne68     1.0000 0.03825  0.54469  0.13083  Biso   1.000  Ne
  Ne69     1.0000 0.19125  0.40699  0.39108  Biso   1.000  Ne
  He69     1.0000 0.19836  0.42569  0.36485  Biso   1.000  He
  He70     1.0000 0.20427  0.40846  0.33586  Biso   1.000  He
  Ne70     1.0000 0.21139  0.42306  0.30830  Biso   1.000  Ne
  Ne71     1.0000 0.61368  0.65445  0.08099  Biso   1.000  Ne
  He71     1.0000 0.60613  0.63384  0.10590  Biso   1.000  He
  He72     1.0000 0.60016  0.60420  0.09795  Biso   1.000  He
  Ne72     1.0000 0.59134  0.58676  0.12510  Biso   1.000  Ne
  Ne73     1.0000 0.79482  0.73352  0.85714  Biso   1.000  Ne
  He73     1.0000 0.81091  0.76040  0.86480  Biso   1.000  He
  He74     1.0000 0.83980  0.75447  0.88393  Biso   1.000  He
  Ne74     1.0000 0.85732  0.78308  0.89248  Biso   1.000  Ne
  Ne75     1.0000 0.25493  0.42034  0.59457  Biso   1.000  Ne
  He75     1.0000 0.22123  0.41977  0.60567  Biso   1.000  He
  He76     1.0000 0.19917  0.41243  0.58281  Biso   1.000  He
  Ne76     1.0000 0.16845  0.40964  0.59472  Biso   1.000  Ne
  Ne77     1.0000 0.85410  0.89790  0.77166  Biso   1.000  Ne
  He77     1.0000 0.88255  0.90432  0.75469  Biso   1.000  He
  He78     1.0000 0.91061  0.89841  0.76922  Biso   1.000  He
  Ne78     1.0000 0.93691  0.90405  0.75048  Biso   1.000  Ne
  Ne79     1.0000 0.68293  0.59163  0.23262  Biso   1.000  Ne
  He79     1.0000 0.69612  0.57107  0.25633  Biso   1.000  He
  He80     1.0000 0.66984  0.55529  0.26833  Biso   1.000  He
  Ne80     1.0000 0.67522  0.53653  0.29318  Biso   1.000  Ne
  Ne81     1.0000 0.46938  0.75069  0.91478  Biso   1.000  Ne
  He81     1.0000 0.45765  0.72198  0.92592  Biso   1.000  He
  He82     1.0000 0.44927  0.69726  0.90550  Biso   1.000  He
  Ne82     1.0000 0.44171  0.67121  0.92583  Biso   1.000  Ne
  Ne83     1.0000 0.93452  0.60640  0.29779  Biso   1.000  Ne
  He83     1.0000 0.90684  0.58889  0.29984  Biso   1.000  He
  He84     1.0000 0.88210  0.60284  0.31731  Biso   1.000  He
  Ne84     1.0000 0.85690  0.58233  0.31833  Biso   1.000  Ne
  Ne85     1.0000 0.71289  0.40248  0.89269  Biso   1.000  Ne
  He85     1.0000 0.72165  0.40048  0.86312  Biso   1.000  He
  He86     1.0000 0.70955  0.42113  0.84149  Biso   1.000  He
  Ne86     1.0000 0.72054  0.41230  0.81100  Biso   1.000  Ne
  Ne87     1.0000 0.38597  0.24615  0.07466  Biso   1.000  Ne
  He87     1.0000 0.39432  0.27130  0.09313  Biso   1.000  He
  He88     1.0000 0.39880  0.29959  0.07600  Biso   1.000  He
  Ne88     1.0000 0.41600  0.32441  0.09291  Biso   1.000  Ne
  Ne89     1.0000 0.13904  0.67656  0.95617  Biso   1.000  Ne
  He89     1.0000 0.16082  0.69306  0.97576  Biso   1.000  He
  He90     1.0000 0.18626  0.67381  0.98265  Biso   1.000  He
  Ne90     1.0000 0.20801  0.68954  0.00259  Biso   1.000  Ne
  Ne91     1.0000 0.02815  0.97023  0.71337  Biso   1.000  Ne
  He91     1.0000 0.00893  0.95644  0.69106  Biso   1.000  He
  He92     1.0000 0.00679  0.92127  0.69422  Biso   1.000  He
  Ne92     1.0000 0.98661  0.90762  0.66988  Biso   1.000  Ne
  Ne93     1.0000 0.26203  0.28053  0.41010  Biso   1.000  Ne
  He93     1.0000 0.28468  0.28832  0.43500  Biso   1.000  He
  He94     1.0000 0.31495  0.27410  0.42764  Biso   1.000  He
  Ne94     1.0000 0.33651  0.27938  0.45289  Biso   1.000  Ne
  Ne95     1.0000 0.65344  0.41485  0.16642  Biso   1.000  Ne
  He95     1.0000 0.63537  0.42194  0.19496  Biso   1.000  He
  He96     1.0000 0.64596  0.40876  0.22328  Biso   1.000  He
  Ne96     1.0000 0.62812  0.41644  0.25155  Biso   1.000  Ne
  Ne97     1.0000 0.60541  0.87185  0.27490  Biso   1.000  Ne
  He97     1.0000 0.61247  0.89264  0.24940  Biso   1.000  He
  He98     1.0000 0.63750  0.91255  0.25811  Biso   1.000  He
  Ne98     1.0000 0.65086  0.93328  0.23396  Biso   1.000  Ne
  Ne99     1.0000 0.13673  0.40661  0.71536  Biso   1.000  Ne
  He99     1.0000 0.15994  0.40558  0.69397  Biso   1.000  He
  He100    1.0000 0.18962  0.40475  0.70645  Biso   1.000  He
  Ne100    1.0000 0.21400  0.40363  0.68479  Biso   1.000  Ne
  Ne101    1.0000 0.13856  0.22403  0.25669  Biso   1.000  Ne
  He101    1.0000 0.16591  0.22772  0.23702  Biso   1.000  He
  He102    1.0000 0.17723  0.25919  0.23032  Biso   1.000  He
  Ne102    1.0000 0.20232  0.26038  0.21180  Biso   1.000  Ne
  Ne103    1.0000 0.91672  0.88290  0.86589  Biso   1.000  Ne
  He103    1.0000 0.92573  0.89530  0.89340  Biso   1.000  He
  He104    1.0000 0.94086  0.87496  0.91624  Biso   1.000  He
  Ne104    1.0000 0.95029  0.89135  0.94455  Biso   1.000  Ne
  Ne105    1.0000 0.31407  0.72164  0.13361  Biso   1.000  Ne
  He105    1.0000 0.28219  0.71250  0.12217  Biso   1.000  He
  He106    1.0000 0.26115  0.73789  0.12457  Biso   1.000  He
  Ne106    1.0000 0.22932  0.73181  0.11501  Biso   1.000  Ne
  Ne107    1.0000 0.92332  0.33594  0.32231  Biso   1.000  Ne
  He107    1.0000 0.92664  0.36772  0.32941  Biso   1.000  He
  He108    1.0000 0.92816  0.38703  0.29950  Biso   1.000  He
  Ne108    1.0000 0.93183  0.42084  0.30640  Biso   1.000  Ne
  Ne109    1.0000 0.11464  0.29563  0.67295  Biso   1.000  Ne
  He109    1.0000 0.09971  0.32298  0.66335  Biso   1.000  He
  He110    1.0000 0.11830  0.34139  0.64058  Biso   1.000  He
  Ne110    1.0000 0.10134  0.36326  0.62659  Biso   1.000  Ne
  Ne111    1.0000 0.10671  0.90469  0.71202  Biso   1.000  Ne
  He111    1.0000 0.08203  0.88557  0.72615  Biso   1.000  He
  He112    1.0000 0.08201  0.85523  0.71188  Biso   1.000  He
  Ne112    1.0000 0.05750  0.83788  0.71984  Biso   1.000  Ne
  Ne113    1.0000 0.18993  0.23563  0.56581  Biso   1.000  Ne
  He113    1.0000 0.15778  0.23940  0.56048  Biso   1.000  He
  He114    1.0000 0.14130  0.25111  0.58616  Biso   1.000  He
  Ne114    1.0000 0.10844  0.25301  0.58503  Biso   1.000  Ne
  Ne115    1.0000 0.21681  0.07793  0.31882  Biso   1.000  Ne
  He115    1.0000 0.24618  0.07581  0.30263  Biso   1.000  He
  He116    1.0000 0.24737  0.09358  0.27628  Biso   1.000  He
  Ne116    1.0000 0.27423  0.08985  0.25456  Biso   1.000  Ne
  Ne117    1.0000 0.24909  0.54139  0.91608  Biso   1.000  Ne
  He117    1.0000 0.25015  0.57341  0.92929  Biso   1.000  He
  He118    1.0000 0.22361  0.59337  0.91768  Biso   1.000  He
  Ne118    1.0000 0.19267  0.59084  0.93183  Biso   1.000  Ne
  Ne119    1.0000 0.09766  0.89599  0.85393  Biso   1.000  Ne
  He119    1.0000 0.11156  0.87917  0.82995  Biso   1.000  He
  He120    1.0000 0.14277  0.89380  0.82312  Biso   1.000  He
  Ne120    1.0000 0.15493  0.88462  0.79240  Biso   1.000  Ne
  Ne121    1.0000 0.49556  0.42155  0.99108  Biso   1.000  Ne
  He121    1.0000 0.47149  0.44135  0.97999  Biso   1.000  He
  He122    1.0000 0.45101  0.42706  0.95931  Biso   1.000  He
  Ne122    1.0000 0.43042  0.44851  0.94585  Biso   1.000  Ne
  Ne123    1.0000 0.38455  0.28060  0.37002  Biso   1.000  Ne
  He123    1.0000 0.41411  0.29368  0.36698  Biso   1.000  He
  He124    1.0000 0.42984  0.28561  0.33875  Biso   1.000  He
  Ne124    1.0000 0.45977  0.30127  0.33255  Biso   1.000  Ne
  Ne125    1.0000 0.08471  0.80738  0.87635  Biso   1.000  Ne
  He125    1.0000 0.09254  0.77900  0.89050  Biso   1.000  He
  He126    1.0000 0.12512  0.77830  0.89942  Biso   1.000  He
  Ne126    1.0000 0.13312  0.75375  0.91884  Biso   1.000  Ne
  Ne127    1.0000 0.85789  0.77513  0.37522  Biso   1.000  Ne
  He127    1.0000 0.85095  0.74352  0.37652  Biso   1.000  He
  He128    1.0000 0.84472  0.72975  0.34641  Biso   1.000  He
  Ne128    1.0000 0.83289  0.70004  0.35198  Biso   1.000  Ne
  Ne129    1.0000 0.77620  0.44642  0.43275  Biso   1.000  Ne
  He129    1.0000 0.78660  0.41578  0.43173  Biso   1.000  He
  He130    1.0000 0.76283  0.39442  0.43579  Biso   1.000  He
  Ne130    1.0000 0.77425  0.36365  0.42650  Biso   1.000  Ne
  Ne131    1.0000 0.15665  0.09171  0.07628  Biso   1.000  Ne
  He131    1.0000 0.18192  0.11089  0.08366  Biso   1.000  He
  He132    1.0000 0.20944  0.09500  0.08122  Biso   1.000  He
  Ne132    1.0000 0.23745  0.11577  0.08775  Biso   1.000  Ne
  Ne133    1.0000 0.76262  0.64649  0.92544  Biso   1.000  Ne
  He133    1.0000 0.78492  0.62339  0.91692  Biso   1.000  He
  He134    1.0000 0.81393  0.63696  0.90625  Biso   1.000  He
  Ne134    1.0000 0.83656  0.61552  0.90330  Biso   1.000  Ne
  Ne135    1.0000 0.29277  0.67637  0.20602  Biso   1.000  Ne
  He135    1.0000 0.29752  0.64483  0.20896  Biso   1.000  He
  He136    1.0000 0.32827  0.63415  0.21511  Biso   1.000  He
  Ne136    1.0000 0.33369  0.60227  0.21818  Biso   1.000  Ne
  Ne137    1.0000 0.91201  0.46809  0.06544  Biso   1.000  Ne
  He137    1.0000 0.92649  0.46374  0.09537  Biso   1.000  He
  He138    1.0000 0.90611  0.44667  0.11763  Biso   1.000  He
  Ne138    1.0000 0.90157  0.46620  0.14331  Biso   1.000  Ne
  Ne139    1.0000 0.93378  0.17618  0.86176  Biso   1.000  Ne
  He139    1.0000 0.91707  0.15289  0.87862  Biso   1.000  He
  He140    1.0000 0.92503  0.12383  0.87100  Biso   1.000  He
  Ne140    1.0000 0.90380  0.09968  0.88232  Biso   1.000  Ne
  Ne141    1.0000 0.83248  0.89109  0.14951  Biso   1.000  Ne
  He141    1.0000 0.85103  0.90683  0.17031  Biso   1.000  He
  He142    1.0000 0.88437  0.90029  0.17145  Biso   1.000  He
  Ne142    1.0000 0.89880  0.91374  0.19824  Biso   1.000  Ne
  Ne143    1.0000 0.58227  0.43000  0.85451  Biso   1.000  Ne
  He143    1.0000 0.60469  0.41114  0.83748  Biso   1.000  He
  He144    1.0000 0.59518  0.38196  0.82661  Biso   1.000  He
  Ne144    1.0000 0.62031  0.36356  0.81950  Biso   1.000  Ne
  Ne145    1.0000 0.70891  0.79831  0.29386  Biso   1.000  Ne
  He145    1.0000 0.73074  0.77794  0.30229  Biso   1.000  He
  He146    1.0000 0.72744  0.76392  0.33164  Biso   1.000  He
  Ne146    1.0000 0.75377  0.74926  0.34372  Biso   1.000  Ne
  Ne147    1.0000 0.61445  0.21537  0.90364  Biso   1.000  Ne
  He147    1.0000 0.61282  0.24991  0.90839  Biso   1.000  He
  He148    1.0000 0.63167  0.26651  0.88629  Biso   1.000  He
  Ne148    1.0000 0.62846  0.30079  0.88712  Biso   1.000  Ne
  Ne149    1.0000 0.98217  0.72203  0.16687  Biso   1.000  Ne
  He149    1.0000 0.99901  0.72021  0.13714  Biso   1.000  He
  He150    1.0000 0.02912  0.70765  0.14140  Biso   1.000  He
  Ne150    1.0000 0.05275  0.70844  0.11812  Biso   1.000  Ne
  Ne151    1.0000 0.80570  0.41893  0.30795  Biso   1.000  Ne
  He151    1.0000 0.83392  0.40847  0.32228  Biso   1.000  He
  He152    1.0000 0.83844  0.42938  0.34911  Biso   1.000  He
  Ne152    1.0000 0.86676  0.42267  0.36649  Biso   1.000  Ne
  Ne153    1.0000 0.73307  0.90182  0.12904  Biso   1.000  Ne
  He153    1.0000 0.76114  0.89824  0.11504  Biso   1.000  He
  He154    1.0000 0.76026  0.90561  0.08309  Biso   1.000  He
  Ne154    1.0000 0.78998  0.90369  0.06634  Biso   1.000  Ne
  Ne155    1.0000 0.62179  0.83468  0.42614  Biso   1.000  Ne
  He155    1.0000 0.63226  0.84059  0.39520  Biso   1.000  He
  He156    1.0000 0.66487  0.83651  0.38769  Biso   1.000  He
  Ne156    1.0000 0.67253  0.84876  0.35765  Biso   1.000  Ne
  Ne157    1.0000 0.41877  0.91290  0.43485  Biso   1.000  Ne
  He157    1.0000 0.41521  0.90129  0.40543  Biso   1.000  He
  He158    1.0000 0.43748  0.91568  0.38231  Biso   1.000  He
  Ne158    1.0000 0.43300  0.90902  0.34814  Biso   1.000  Ne
  Ne159    1.0000 0.78258  0.16965  0.45858  Biso   1.000  Ne
  He159    1.0000 0.78492  0.14054  0.44382  Biso   1.000  He
  He160    1.0000 0.76114  0.11887  0.44868  Biso   1.000  He
  Ne160    1.0000 0.76779  0.09031  0.43615  Biso   1.000  Ne
  Ne161    1.0000 0.06906  0.47990  0.58488  Biso   1.000  Ne
  He161    1.0000 0.07319  0.45052  0.57054  Biso   1.000  He
  He162    1.0000 0.07499  0.45616  0.53770  Biso   1.000  He
  Ne162    1.0000 0.08746  0.42957  0.52209  Biso   1.000  Ne
  Ne163    1.0000 0.68713  0.64813  0.10725  Biso   1.000  Ne
  He163    1.0000 0.68510  0.61601  0.11348  Biso   1.000  He
  He164    1.0000 0.70146  0.60506  0.14256  Biso   1.000  He
  Ne164    1.0000 0.70737  0.57081  0.14555  Biso   1.000  Ne
  Ne165    1.0000 0.71213  0.16763  0.61826  Biso   1.000  Ne
  He165    1.0000 0.70449  0.14288  0.59760  Biso   1.000  He
  He166    1.0000 0.69974  0.11671  0.61474  Biso   1.000  He
  Ne166    1.0000 0.69390  0.08750  0.59911  Biso   1.000  Ne
  Ne167    1.0000 0.42973  0.04866  0.53015  Biso   1.000  Ne
  He167    1.0000 0.43380  0.01633  0.51800  Biso   1.000  He
  He168    1.0000 0.46146  0.99818  0.52860  Biso   1.000  He
  Ne168    1.0000 0.46201  0.96992  0.51272  Biso   1.000  Ne
  Ne169    1.0000 0.80332  0.36525  0.23153  Biso   1.000  Ne
  He169    1.0000 0.77850  0.37695  0.21370  Biso   1.000  He
  He170    1.0000 0.76430  0.40590  0.21954  Biso   1.000  He
  Ne170    1.0000 0.73854  0.41305  0.19986  Biso   1.000  Ne
  Ne171    1.0000 0.59879  0.18492  0.36028  Biso   1.000  Ne
  He171    1.0000 0.59427  0.21359  0.37472  Biso   1.000  He
  He172    1.0000 0.59555  0.21328  0.40765  Biso   1.000  He
  Ne172    1.0000 0.58792  0.24336  0.41960  Biso   1.000  Ne
  Ne173    1.0000 0.78842  0.80552  0.59562  Biso   1.000  Ne
  He173    1.0000 0.75557  0.79718  0.58816  Biso   1.000  He
  He174    1.0000 0.75620  0.76826  0.57084  Biso   1.000  He
  Ne174    1.0000 0.73028  0.76530  0.55051  Biso   1.000  Ne
  Ne175    1.0000 0.94078  0.38294  0.66517  Biso   1.000  Ne
  He175    1.0000 0.94907  0.38505  0.63418  Biso   1.000  He
  He176    1.0000 0.92696  0.37016  0.61608  Biso   1.000  He
  Ne176    1.0000 0.94106  0.36537  0.58778  Biso   1.000  Ne
  Ne177    1.0000 0.94837  0.44147  0.38630  Biso   1.000  Ne
  He177    1.0000 0.96333  0.43159  0.41324  Biso   1.000  He
  He178    1.0000 0.94642  0.40536  0.42445  Biso   1.000  He
  Ne178    1.0000 0.96159  0.39114  0.44834  Biso   1.000  Ne
  Ne179    1.0000 0.95585  0.13654  0.16787  Biso   1.000  Ne
  He179    1.0000 0.94751  0.13562  0.19751  Biso   1.000  He
  He180    1.0000 0.92104  0.15309  0.20703  Biso   1.000  He
  Ne180    1.0000 0.91058  0.14655  0.23867  Biso   1.000  Ne
  Ne181    1.0000 0.58331  0.06626  0.39365  Biso   1.000  Ne
  He181    1.0000 0.60543  0.09056  0.39510  Biso   1.000  He
  He182    1.0000 0.61448  0.09443  0.42412  Biso   1.000  He
  Ne182    1.0000 0.63657  0.11812  0.42869  Biso   1.000  Ne
  Ne183    1.0000 0.92429  0.30853  0.41362  Biso   1.000  Ne
  He183    1.0000 0.89670  0.31661  0.42962  Biso   1.000  He
  He184    1.0000 0.88539  0.34461  0.41938  Biso   1.000  He
  Ne184    1.0000 0.85491  0.35952  0.43134  Biso   1.000  Ne
  Ne185    1.0000 0.13309  0.75535  0.05004  Biso   1.000  Ne
  He185    1.0000 0.12025  0.72354  0.04398  Biso   1.000  He
  He186    1.0000 0.13288  0.70037  0.06194  Biso   1.000  He
  Ne186    1.0000 0.11756  0.67167  0.06655  Biso   1.000  Ne
  Ne187    1.0000 0.05708  0.54764  0.40467  Biso   1.000  Ne
  He187    1.0000 0.08091  0.56606  0.41787  Biso   1.000  He
  He188    1.0000 0.10620  0.54397  0.43100  Biso   1.000  He
  Ne188    1.0000 0.13711  0.55915  0.43853  Biso   1.000  Ne
  Ne189    1.0000 0.13778  0.34396  0.32606  Biso   1.000  Ne
  He189    1.0000 0.12615  0.37296  0.31745  Biso   1.000  He
  He190    1.0000 0.10290  0.38189  0.34064  Biso   1.000  He
  Ne190    1.0000 0.08802  0.41484  0.33975  Biso   1.000  Ne
  Ne191    1.0000 0.38901  0.59156  0.11051  Biso   1.000  Ne
  He191    1.0000 0.39185  0.58706  0.14419  Biso   1.000  He
  He192    1.0000 0.41947  0.60282  0.15907  Biso   1.000  He
  Ne192    1.0000 0.41709  0.60351  0.19268  Biso   1.000  Ne
  Ne193    1.0000 0.78868  0.06051  0.54208  Biso   1.000  Ne
  He193    1.0000 0.79167  0.07838  0.57115  Biso   1.000  He
  He194    1.0000 0.79588  0.11125  0.57153  Biso   1.000  He
  Ne194    1.0000 0.80449  0.12425  0.60096  Biso   1.000  Ne
  Ne195    1.0000 0.62990  0.73924  0.92832  Biso   1.000  Ne
  He195    1.0000 0.62858  0.70720  0.91598  Biso   1.000  He
  He196    1.0000 0.62189  0.70338  0.88301  Biso   1.000  He
  Ne196    1.0000 0.61514  0.67184  0.87326  Biso   1.000  Ne
  Ne197    1.0000 0.19612  0.33404  0.60644  Biso   1.000  Ne
  He197    1.0000 0.22619  0.33183  0.58855  Biso   1.000  He
  He198    1.0000 0.25265  0.31522  0.60150  Biso   1.000  He
  Ne198    1.0000 0.28026  0.31625  0.58302  Biso   1.000  Ne
  Ne199    1.0000 0.70106  0.24619  0.09443  Biso   1.000  Ne
  He199    1.0000 0.73302  0.24854  0.09581  Biso   1.000  He
  He200    1.0000 0.74659  0.27586  0.10463  Biso   1.000  He
  Ne200    1.0000 0.78227  0.27310  0.10254  Biso   1.000  Ne
  Ne201    1.0000 0.37185  0.40265  0.76124  Biso   1.000  Ne
  He201    1.0000 0.33984  0.39681  0.75338  Biso   1.000  He
  He202    1.0000 0.31953  0.38921  0.77909  Biso   1.000  He
  Ne202    1.0000 0.28700  0.38779  0.77367  Biso   1.000  Ne
  Ne203    1.0000 0.85570  0.24926  0.07089  Biso   1.000  Ne
  He203    1.0000 0.87540  0.27272  0.05811  Biso   1.000  He
  He204    1.0000 0.91152  0.26727  0.06251  Biso   1.000  He
  Ne204    1.0000 0.92472  0.28101  0.09016  Biso   1.000  Ne
  Ne205    1.0000 0.85682  0.58617  0.60560  Biso   1.000  Ne
  He205    1.0000 0.83921  0.59827  0.63393  Biso   1.000  He
  He206    1.0000 0.85035  0.62684  0.64589  Biso   1.000  He
  Ne206    1.0000 0.83517  0.63986  0.67427  Biso   1.000  Ne
  Ne207    1.0000 0.69094  0.17561  0.41071  Biso   1.000  Ne
  He207    1.0000 0.70721  0.17205  0.37867  Biso   1.000  He
  He208    1.0000 0.69043  0.17178  0.35320  Biso   1.000  He
  Ne208    1.0000 0.70809  0.16645  0.32797  Biso   1.000  Ne
  Ne209    1.0000 0.31850  0.12995  0.20251  Biso   1.000  Ne
  He209    1.0000 0.34887  0.11773  0.19885  Biso   1.000  He
  He210    1.0000 0.35428  0.09513  0.22492  Biso   1.000  He
  Ne210    1.0000 0.38297  0.07989  0.22632  Biso   1.000  Ne
  Ne211    1.0000 0.54103  0.96745  0.21826  Biso   1.000  Ne
  He211    1.0000 0.51846  0.99084  0.20786  Biso   1.000  He
  He212    1.0000 0.52289  0.02282  0.22096  Biso   1.000  He
  Ne212    1.0000 0.54432  0.04337  0.20131  Biso   1.000  Ne
  Ne213    1.0000 0.86240  0.06488  0.14909  Biso   1.000  Ne
  He213    1.0000 0.83279  0.05546  0.13517  Biso   1.000  He
  He214    1.0000 0.82769  0.07561  0.11058  Biso   1.000  He
  Ne214    1.0000 0.79980  0.06958  0.09593  Biso   1.000  Ne
  Ne215    1.0000 0.43872  0.43899  0.05240  Biso   1.000  Ne
  He215    1.0000 0.45078  0.47145  0.05799  Biso   1.000  He
  He216    1.0000 0.42789  0.49533  0.06218  Biso   1.000  He
  Ne216    1.0000 0.44146  0.52242  0.07007  Biso   1.000  Ne
  Ne217    1.0000 0.61390  0.92234  0.35667  Biso   1.000  Ne
  He217    1.0000 0.62817  0.92414  0.38742  Biso   1.000  He
  He218    1.0000 0.65539  0.94410  0.38755  Biso   1.000  He
  Ne218    1.0000 0.66401  0.94793  0.41953  Biso   1.000  Ne
  Ne219    1.0000 0.65322  0.60641  0.80943  Biso   1.000  Ne
  He219    1.0000 0.62552  0.59067  0.81901  Biso   1.000  He
  He220    1.0000 0.61508  0.60170  0.84970  Biso   1.000  He
  Ne220    1.0000 0.58837  0.58342  0.85945  Biso   1.000  Ne
  Ne221    1.0000 0.09612  0.56195  0.65387  Biso   1.000  Ne
  He221    1.0000 0.10644  0.57422  0.68377  Biso   1.000  He
  He222    1.0000 0.13178  0.56159  0.70121  Biso   1.000  He
  Ne222    1.0000 0.13222  0.57593  0.73220  Biso   1.000  Ne
  Ne223    1.0000 0.74025  0.51246  0.50804  Biso   1.000  Ne
  He223    1.0000 0.73735  0.54355  0.49804  Biso   1.000  He
  He224    1.0000 0.75394  0.54637  0.46898  Biso   1.000  He
  Ne224    1.0000 0.75173  0.57796  0.45666  Biso   1.000  Ne
  Ne225    1.0000 0.42636  0.72971  0.27878  Biso   1.000  Ne
  He225    1.0000 0.41079  0.73606  0.25102  Biso   1.000  He
  He226    1.0000 0.39600  0.71036  0.23951  Biso   1.000  He
  Ne226    1.0000 0.36411  0.70811  0.25108  Biso   1.000  Ne
  Ne227    1.0000 0.45870  0.11962  0.76748  Biso   1.000  Ne
  He227    1.0000 0.46135  0.12148  0.73593  Biso   1.000  He
  He228    1.0000 0.44187  0.10265  0.71761  Biso   1.000  He
  Ne228    1.0000 0.45505  0.10002  0.68339  Biso   1.000  Ne
  Ne229    1.0000 0.95646  0.24122  0.17940  Biso   1.000  Ne
  He229    1.0000 0.95288  0.27255  0.19123  Biso   1.000  He
  He230    1.0000 0.97893  0.29176  0.19817  Biso   1.000  He
  Ne230    1.0000 0.96723  0.31919  0.21682  Biso   1.000  Ne
  Ne231    1.0000 0.91281  0.62449  0.85511  Biso   1.000  Ne
  He231    1.0000 0.93007  0.64591  0.83563  Biso   1.000  He
  He232    1.0000 0.91804  0.67613  0.83153  Biso   1.000  He
  Ne232    1.0000 0.94035  0.69596  0.82283  Biso   1.000  Ne
  Ne233    1.0000 0.94824  0.02451  0.03508  Biso   1.000  Ne
  He233    1.0000 0.95095  0.02429  0.00162  Biso   1.000  He
  He234    1.0000 0.98328  0.01195  0.99402  Biso   1.000  He
  Ne234    1.0000 0.99584  0.01665  0.96375  Biso   1.000  Ne
  Ne235    1.0000 0.34168  0.24383  0.19103  Biso   1.000  Ne
  He235    1.0000 0.32343  0.25026  0.16511  Biso   1.000  He
  He236    1.0000 0.30548  0.27759  0.16657  Biso   1.000  He
  Ne236    1.0000 0.28414  0.27968  0.13993  Biso   1.000  Ne
  Ne237    1.0000 0.16039  0.61231  0.25245  Biso   1.000  Ne
  He237    1.0000 0.12996  0.59992  0.26719  Biso   1.000  He
  He238    1.0000 0.13473  0.57567  0.29363  Biso   1.000  He
  Ne238    1.0000 0.10801  0.57116  0.31196  Biso   1.000  Ne
  Ne239    1.0000 0.69597  0.56907  0.88743  Biso   1.000  Ne
  He239    1.0000 0.70704  0.59449  0.89979  Biso   1.000  He
  He240    1.0000 0.68798  0.61982  0.89356  Biso   1.000  He
  Ne240    1.0000 0.69267  0.64710  0.91357  Biso   1.000  Ne
  Ne241    1.0000 0.95228  0.32947  0.77726  Biso   1.000  Ne
  He241    1.0000 0.95739  0.30986  0.74888  Biso   1.000  He
  He242    1.0000 0.93549  0.31596  0.72451  Biso   1.000  He
  Ne242    1.0000 0.93257  0.29696  0.69569  Biso   1.000  Ne
  Ne243    1.0000 0.99651  0.43907  0.57186  Biso   1.000  Ne
  He243    1.0000 0.96233  0.43695  0.57366  Biso   1.000  He
  He244    1.0000 0.94622  0.44934  0.54705  Biso   1.000  He
  Ne244    1.0000 0.91625  0.44318  0.54832  Biso   1.000  Ne
  Ne245    1.0000 0.60205  0.73411  0.73395  Biso   1.000  Ne
  He245    1.0000 0.58867  0.70969  0.75483  Biso   1.000  He
  He246    1.0000 0.61117  0.69448  0.77323  Biso   1.000  He
  Ne246    1.0000 0.60149  0.67472  0.79854  Biso   1.000  Ne
  Ne247    1.0000 0.54723  0.08795  0.50852  Biso   1.000  Ne
  He247    1.0000 0.53233  0.06173  0.49589  Biso   1.000  He
  He248    1.0000 0.55165  0.03678  0.50461  Biso   1.000  He
  Ne248    1.0000 0.53849  0.00642  0.49831  Biso   1.000  Ne
  Ne249    1.0000 0.20350  0.73597  0.31020  Biso   1.000  Ne
  He249    1.0000 0.18425  0.71278  0.32600  Biso   1.000  He
  He250    1.0000 0.15162  0.71489  0.32196  Biso   1.000  He
  Ne250    1.0000 0.13713  0.68760  0.33073  Biso   1.000  Ne
  Ne251    1.0000 0.10499  0.30160  0.42407  Biso   1.000  Ne
  He251    1.0000 0.12650  0.31885  0.40528  Biso   1.000  He
  He252    1.0000 0.15915  0.30905  0.41098  Biso   1.000  He
  Ne252    1.0000 0.18388  0.32872  0.39343  Biso   1.000  Ne
  Ne253    1.0000 0.83789  0.05315  0.37302  Biso   1.000  Ne
  He253    1.0000 0.83529  0.05441  0.34163  Biso   1.000  He
  He254    1.0000 0.80494  0.06936  0.33494  Biso   1.000  He
  Ne254    1.0000 0.79701  0.07287  0.30127  Biso   1.000  Ne
  Ne255    1.0000 0.93877  0.65668  0.63883  Biso   1.000  Ne
  He255    1.0000 0.93770  0.63681  0.66708  Biso   1.000  He
  He256    1.0000 0.92823  0.60312  0.66256  Biso   1.000  He
  Ne256    1.0000 0.93033  0.58544  0.68832  Biso   1.000  Ne
  Ne257    1.0000 0.39733  0.32362  0.90234  Biso   1.000  Ne
  He257    1.0000 0.40415  0.35284  0.88834  Biso   1.000  He
  He258    1.0000 0.43185  0.36718  0.89653  Biso   1.000  He
  Ne258    1.0000 0.43127  0.39912  0.88468  Biso   1.000  Ne
  Ne259    1.0000 0.45508  0.39067  0.72374  Biso   1.000  Ne
  He259    1.0000 0.45391  0.41837  0.70659  Biso   1.000  He
  He260    1.0000 0.46612  0.44375  0.72561  Biso   1.000  He
  Ne260    1.0000 0.46620  0.47280  0.71008  Biso   1.000  Ne
  Ne261    1.0000 0.98928  0.50916  0.87725  Biso   1.000  Ne
  He261    1.0000 0.01526  0.51563  0.86503  Biso   1.000  He
  He262    1.0000 0.01624  0.53692  0.84111  Biso   1.000  He
  Ne262    1.0000 0.04781  0.54831  0.83428  Biso   1.000  Ne
  Ne263    1.0000 0.13343  0.54908  0.54545  Biso   1.000  Ne
  He263    1.0000 0.10834  0.56000  0.52893  Biso   1.000  He
  He264    1.0000 0.09037  0.58333  0.54234  Biso   1.000  He
  Ne264    1.0000 0.06480  0.59335  0.52521  Biso   1.000  Ne
  Ne265    1.0000 0.09901  0.01036  0.98294  Biso   1.000  Ne
  He265    1.0000 0.09339  0.03932  0.96727  Biso   1.000  He
  He266    1.0000 0.10330  0.04153  0.93549  Biso   1.000  He
  Ne266    1.0000 0.09575  0.06998  0.91936  Biso   1.000  Ne
  Ne267    1.0000 0.69451  0.08738  0.32722  Biso   1.000  Ne
  He267    1.0000 0.66990  0.08995  0.30603  Biso   1.000  He
  He268    1.0000 0.64041  0.07654  0.31748  Biso   1.000  He
  Ne268    1.0000 0.61822  0.07295  0.29528  Biso   1.000  Ne
  Ne269    1.0000 0.07707  0.22260  0.33387  Biso   1.000  Ne
  He269    1.0000 0.06925  0.20176  0.31023  Biso   1.000  He
  He270    1.0000 0.07283  0.17108  0.31959  Biso   1.000  He
  Ne270    1.0000 0.06483  0.14988  0.29470  Biso   1.000  Ne
  Ne271    1.0000 0.33011  0.92712  0.64028  Biso   1.000  Ne
  He271    1.0000 0.33008  0.91165  0.61114  Biso   1.000  He
  He272    1.0000 0.35254  0.88739  0.60821  Biso   1.000  He
  Ne272    1.0000 0.34871  0.87217  0.57783  Biso   1.000  Ne
  Ne273    1.0000 0.63500  0.69559  0.17394  Biso   1.000  Ne
  He273    1.0000 0.62501  0.66416  0.17676  Biso   1.000  He
  He274    1.0000 0.61093  0.65685  0.20507  Biso   1.000  He
  Ne274    1.0000 0.60630  0.62395  0.21195  Biso   1.000  Ne
  Ne275    1.0000 0.81499  0.62905  0.78638  Biso   1.000  Ne
  He275    1.0000 0.78174  0.61572  0.79008  Biso   1.000  He
  He276    1.0000 0.77384  0.61261  0.82164  Biso   1.000  He
  Ne276    1.0000 0.74088  0.59962  0.82668  Biso   1.000  Ne
  Ne277    1.0000 0.59472  0.89685  0.57941  Biso   1.000  Ne
  He277    1.0000 0.62464  0.88660  0.57724  Biso   1.000  He
  He278    1.0000 0.64739  0.91127  0.57926  Biso   1.000  He
  Ne278    1.0000 0.67913  0.89895  0.57698  Biso   1.000  Ne
  Ne279    1.0000 0.58507  0.61244  0.94406  Biso   1.000  Ne
  He279    1.0000 0.59432  0.58070  0.95478  Biso   1.000  He
  He280    1.0000 0.62373  0.57203  0.94085  Biso   1.000  He
  Ne280    1.0000 0.63331  0.54058  0.94492  Biso   1.000  Ne
  Ne281    1.0000 0.14612  0.53564  0.20599  Biso   1.000  Ne
  He281    1.0000 0.17378  0.55671  0.20554  Biso   1.000  He
  He282    1.0000 0.18646  0.56402  0.17409  Biso   1.000  He
  Ne282    1.0000 0.21196  0.58408  0.17014  Biso   1.000  Ne
  Ne283    1.0000 0.37583  0.68829  0.08674  Biso   1.000  Ne
  He283    1.0000 0.40920  0.68761  0.08621  Biso   1.000  He
  He284    1.0000 0.41882  0.68530  0.11609  Biso   1.000  He
  Ne284    1.0000 0.44822  0.69307  0.12162  Biso   1.000  Ne
  Ne285    1.0000 0.21149  0.65532  0.40159  Biso   1.000  Ne
  He285    1.0000 0.19606  0.63308  0.38470  Biso   1.000  He
  He286    1.0000 0.21661  0.60784  0.37317  Biso   1.000  He
  Ne286    1.0000 0.20067  0.58372  0.35907  Biso   1.000  Ne
  Ne287    1.0000 0.24096  0.65592  0.30309  Biso   1.000  Ne
  He287    1.0000 0.26673  0.63438  0.31085  Biso   1.000  He
  He288    1.0000 0.27769  0.61479  0.28864  Biso   1.000  He
  Ne288    1.0000 0.30611  0.59918  0.29735  Biso   1.000  Ne
  Ne289    1.0000 0.62127  0.04731  0.70821  Biso   1.000  Ne
  He289    1.0000 0.63687  0.06904  0.68970  Biso   1.000  He
  He290    1.0000 0.62992  0.09928  0.70076  Biso   1.000  He
  Ne290    1.0000 0.64848  0.12244  0.68482  Biso   1.000  Ne
  Ne291    1.0000 0.57073  0.35749  0.08131  Biso   1.000  Ne
  He291    1.0000 0.57327  0.39049  0.07619  Biso   1.000  He
  He292    1.0000 0.60009  0.39879  0.05801  Biso   1.000  He
  Ne292    1.0000 0.60276  0.43079  0.04827  Biso   1.000  Ne
  Ne293    1.0000 0.18546  0.34044  0.08343  Biso   1.000  Ne
  He293    1.0000 0.21731  0.33210  0.08486  Biso   1.000  He
  He294    1.0000 0.22570  0.31041  0.06334  Biso   1.000  He
  Ne294    1.0000 0.25807  0.30520  0.06905  Biso   1.000  Ne
  Ne295    1.0000 0.08142  0.01744  0.07918  Biso   1.000  Ne
  He295    1.0000 0.05959  0.04090  0.06673  Biso   1.000  He
  He296    1.0000 0.02803  0.03692  0.07557  Biso   1.000  He
  Ne296    1.0000 0.00943  0.06347  0.06464  Biso   1.000  Ne
  Ne297    1.0000 0.54122  0.30019  0.37084  Biso   1.000  Ne
  He297    1.0000 0.54183  0.29985  0.33782  Biso   1.000  He
  He298    1.0000 0.56831  0.28641  0.32413  Biso   1.000  He
  Ne298    1.0000 0.56484  0.28416  0.29045  Biso   1.000  Ne
  Ne299    1.0000 0.95991  0.60962  0.43935  Biso   1.000  Ne
  He299    1.0000 0.95357  0.60817  0.40744  Biso   1.000  He
  He300    1.0000 0.92587  0.59105  0.39695  Biso   1.000  He
  Ne300    1.0000 0.93230  0.56052  0.38541  Biso   1.000  Ne
  Ne301    1.0000 0.42009  0.92526  0.68096  Biso   1.000  Ne
  He301    1.0000 0.41065  0.90863  0.71000  Biso   1.000  He
  He302    1.0000 0.38674  0.88337  0.70646  Biso   1.000  He
  Ne302    1.0000 0.37304  0.87231  0.73373  Biso   1.000  Ne
  Ne303    1.0000 0.13659  0.09925  0.78598  Biso   1.000  Ne
  He303    1.0000 0.12010  0.08023  0.76544  Biso   1.000  He
  He304    1.0000 0.08874  0.08450  0.76269  Biso   1.000  He
  Ne304    1.0000 0.07180  0.06271  0.74432  Biso   1.000  Ne
  Ne305    1.0000 0.09125  0.17513  0.91799  Biso   1.000  Ne
  He305    1.0000 0.08199  0.15211  0.89962  Biso   1.000  He
  He306    1.0000 0.09997  0.14648  0.87246  Biso   1.000  He
  Ne306    1.0000 0.09202  0.12099  0.85540  Biso   1.000  Ne
  Ne307    1.0000 0.52043  0.57716  0.03910  Biso   1.000  Ne
  He307    1.0000 0.49220  0.58219  0.05711  Biso   1.000  He
  He308    1.0000 0.47286  0.60412  0.04404  Biso   1.000  He
  Ne308    1.0000 0.44463  0.61074  0.06452  Biso   1.000  Ne
  Ne309    1.0000 0.83557  0.93748  0.65744  Biso   1.000  Ne
  He309    1.0000 0.85786  0.95638  0.67496  Biso   1.000  He
  He310    1.0000 0.88885  0.94922  0.66897  Biso   1.000  He
  Ne310    1.0000 0.91198  0.96502  0.68572  Biso   1.000  Ne
  Ne311    1.0000 0.59881  0.34973  0.16251  Biso   1.000  Ne
  He311    1.0000 0.59136  0.32796  0.18633  Biso   1.000  He
  He312    1.0000 0.58484  0.29950  0.17479  Biso   1.000  He
  Ne312    1.0000 0.57867  0.27810  0.20059  Biso   1.000  Ne
  Ne313    1.0000 0.20958  0.75638  0.90366  Biso   1.000  Ne
  He313    1.0000 0.22856  0.75368  0.93253  Biso   1.000  He
  He314    1.0000 0.26136  0.74545  0.92754  Biso   1.000  He
  Ne314    1.0000 0.28136  0.77269  0.92783  Biso   1.000  Ne
  Ne315    1.0000 0.53631  0.52182  0.92275  Biso   1.000  Ne
  He315    1.0000 0.51435  0.53448  0.94307  Biso   1.000  He
  He316    1.0000 0.51159  0.56703  0.93646  Biso   1.000  He
  Ne316    1.0000 0.48693  0.58269  0.95156  Biso   1.000  Ne
  Ne317    1.0000 0.12160  0.90151  0.17504  Biso   1.000  Ne
  He317    1.0000 0.14865  0.88721  0.18852  Biso   1.000  He
  He318    1.0000 0.17263  0.90935  0.18955  Biso   1.000  He
  Ne318    1.0000 0.20004  0.89604  0.20245  Biso   1.000  Ne
  Ne319    1.0000 0.44484  0.13782  0.27945  Biso   1.000  Ne
  He319    1.0000 0.43845  0.12752  0.30973  Biso   1.000  He
  He320    1.0000 0.44917  0.09768  0.32014  Biso   1.000  He
  Ne320    1.0000 0.43876  0.09316  0.35057  Biso   1.000  Ne
  Ne321    1.0000 0.35677  0.28309  0.25828  Biso   1.000  Ne
  He321    1.0000 0.37953  0.26148  0.26810  Biso   1.000  He
  He322    1.0000 0.36977  0.24379  0.29225  Biso   1.000  He
  Ne322    1.0000 0.39340  0.22230  0.30226  Biso   1.000  Ne
  Ne323    1.0000 0.33656  0.07118  0.60847  Biso   1.000  Ne
  He323    1.0000 0.32595  0.08928  0.57959  Biso   1.000  He
  He324    1.0000 0.34650  0.11122  0.56962  Biso   1.000  He
  Ne324    1.0000 0.33566  0.14446  0.57193  Biso   1.000  Ne
  Ne325    1.0000 0.28929  0.15942  0.91048  Biso   1.000  Ne
  He325    1.0000 0.28987  0.12703  0.91828  Biso   1.000  He
  He326    1.0000 0.31102  0.12074  0.94446  Biso   1.000  He
  Ne326    1.0000 0.30368  0.09090  0.95607  Biso   1.000  Ne
  Ne327    1.0000 0.41476  0.93233  0.58683  Biso   1.000  Ne
  He327    1.0000 0.43602  0.90739  0.59054  Biso   1.000  He
  He328    1.0000 0.45057  0.89882  0.56125  Biso   1.000  He
  Ne328    1.0000 0.47717  0.87589  0.56014  Biso   1.000  Ne
  Ne329    1.0000 0.18628  0.07669  0.91243  Biso   1.000  Ne
  He329    1.0000 0.18542  0.08027  0.87682  Biso   1.000  He
  He330    1.0000 0.21395  0.08061  0.86250  Biso   1.000  He
  Ne330    1.0000 0.21024  0.08094  0.82971  Biso   1.000  Ne
  Ne331    1.0000 0.90212  0.09593  0.09057  Biso   1.000  Ne
  He331    1.0000 0.91760  0.12324  0.08354  Biso   1.000  He
  He332    1.0000 0.90838  0.14891  0.09994  Biso   1.000  He
  Ne332    1.0000 0.92697  0.17551  0.09179  Biso   1.000  Ne
  Ne333    1.0000 0.83699  0.97262  0.44061  Biso   1.000  Ne
  He333    1.0000 0.81841  0.94441  0.44987  Biso   1.000  He
  He334    1.0000 0.83059  0.93156  0.47762  Biso   1.000  He
  Ne334    1.0000 0.81980  0.90389  0.49018  Biso   1.000  Ne
  Ne335    1.0000 0.41141  0.79745  0.58550  Biso   1.000  Ne
  He335    1.0000 0.41165  0.81767  0.61371  Biso   1.000  He
  He336    1.0000 0.43494  0.80771  0.63497  Biso   1.000  He
  Ne336    1.0000 0.43660  0.82672  0.66285  Biso   1.000  Ne
  Ne337    1.0000 0.76311  0.87741  0.64777  Biso   1.000  Ne
  He337    1.0000 0.76447  0.90139  0.62273  Biso   1.000  He
  He338    1.0000 0.78072  0.89262  0.59368  Biso   1.000  He
  Ne338    1.0000 0.77830  0.91280  0.56841  Biso   1.000  Ne
  Ne339    1.0000 0.54874  0.14814  0.13085  Biso   1.000  Ne
  He339    1.0000 0.52456  0.15197  0.15259  Biso   1.000  He
  He340    1.0000 0.50745  0.18264  0.14455  Biso   1.000  He
  Ne340    1.0000 0.48040  0.18488  0.16449  Biso   1.000  Ne
  Ne341    1.0000 0.24086  0.87618  0.92331  Biso   1.000  Ne
  He341    1.0000 0.20776  0.88241  0.91748  Biso   1.000  He
  He342    1.0000 0.19004  0.85396  0.91098  Biso   1.000  He
  Ne342    1.0000 0.15911  0.85967  0.90768  Biso   1.000  Ne
  Ne343    1.0000 0.08742  0.93406  0.09502  Biso   1.000  Ne
  He343    1.0000 0.11900  0.93365  0.10203  Biso   1.000  He
  He344    1.0000 0.13653  0.93681  0.07479  Biso   1.000  He
  Ne344    1.0000 0.17070  0.93230  0.07462  Biso   1.000  Ne
  Ne345    1.0000 0.69603  0.19359  0.91742  Biso   1.000  Ne
  He345    1.0000 0.69371  0.22190  0.90571  Biso   1.000  He
  He346    1.0000 0.72108  0.24014  0.89787  Biso   1.000  He
  Ne346    1.0000 0.71942  0.25281  0.86555  Biso   1.000  Ne
  Ne347    1.0000 0.60201  0.79735  0.23487  Biso   1.000  Ne
  He347    1.0000 0.62186  0.76846  0.22794  Biso   1.000  He
  He348    1.0000 0.63594  0.75697  0.25501  Biso   1.000  He
  Ne348    1.0000 0.64634  0.72696  0.25407  Biso   1.000  Ne
  Ne349    1.0000 0.94769  0.06284  0.78929  Biso   1.000  Ne
  He349    1.0000 0.92564  0.08707  0.78717  Biso   1.000  He
  He350    1.0000 0.89429  0.07792  0.79646  Biso   1.000  He
  Ne350    1.0000 0.87365  0.10447  0.79692  Biso   1.000  Ne
  Ne351    1.0000 0.05449  0.69261  0.85036  Biso   1.000  Ne
  He351    1.0000 0.04915  0.66958  0.82713  Biso   1.000  He
  He352    1.0000 0.07358  0.64707  0.82303  Biso   1.000  He
  Ne352    1.0000 0.06821  0.62741  0.79876  Biso   1.000  Ne
  Ne353    1.0000 0.88368  0.29032  0.80366  Biso   1.000  Ne
  He353    1.0000 0.87985  0.26440  0.78135  Biso   1.000  He
  He354    1.0000 0.87264  0.23359  0.79415  Biso   1.000  He
  Ne354    1.0000 0.87780  0.20814  0.76977  Biso   1.000  Ne
  Ne355    1.0000 0.23305  0.87071  0.08845  Biso   1.000  Ne
  He355    1.0000 0.24566  0.84405  0.07960  Biso   1.000  He
  He356    1.0000 0.27996  0.84224  0.08726  Biso   1.000  He
  Ne356    1.0000 0.29704  0.81539  0.07880  Biso   1.000  Ne
  Ne357    1.0000 0.15973  0.03174  0.64684  Biso   1.000  Ne
  He357    1.0000 0.18225  0.02362  0.62657  Biso   1.000  He
  He358    1.0000 0.17246  0.02016  0.59459  Biso   1.000  He
  Ne358    1.0000 0.19539  0.01534  0.57022  Biso   1.000  Ne
  Ne359    1.0000 0.60705  0.17689  0.73572  Biso   1.000  Ne
  He359    1.0000 0.59288  0.19410  0.76204  Biso   1.000  He
  He360    1.0000 0.60429  0.22295  0.77363  Biso   1.000  He
  Ne360    1.0000 0.58342  0.23754  0.79496  Biso   1.000  Ne
  Ne361    1.0000 0.14383  0.19902  0.45275  Biso   1.000  Ne
  He361    1.0000 0.14265  0.19370  0.48753  Biso   1.000  He
  He362    1.0000 0.11260  0.19111  0.50024  Biso   1.000  He
  Ne362    1.0000 0.11237  0.18636  0.53102  Biso   1.000  Ne
  Ne363    1.0000 0.33873  0.20071  0.42424  Biso   1.000  Ne
  He363    1.0000 0.37031  0.19997  0.41261  Biso   1.000  He
  He364    1.0000 0.38630  0.17328  0.42512  Biso   1.000  He
  Ne364    1.0000 0.41845  0.17081  0.41834  Biso   1.000  Ne
  Ne365    1.0000 0.22647  0.33861  0.17417  Biso   1.000  Ne
  He365    1.0000 0.24315  0.36510  0.18828  Biso   1.000  He
  He366    1.0000 0.27579  0.36048  0.19251  Biso   1.000  He
  Ne366    1.0000 0.29488  0.37913  0.17500  Biso   1.000  Ne
  Ne367    1.0000 0.29142  0.85702  0.83188  Biso   1.000  Ne
  He367    1.0000 0.26312  0.87665  0.82357  Biso   1.000  He
  He368    1.0000 0.25668  0.90171  0.84499  Biso   1.000  He
  Ne368    1.0000 0.22604  0.91352  0.83721  Biso   1.000  Ne
  Ne369    1.0000 0.12904  0.21171  0.10928  Biso   1.000  Ne
  He369    1.0000 0.11550  0.19462  0.08731  Biso   1.000  He
  He370    1.0000 0.10928  0.16707  0.09931  Biso   1.000  He
  Ne370    1.0000 0.09673  0.14422  0.07953  Biso   1.000  Ne
  Ne371    1.0000 0.44346  0.18358  0.57159  Biso   1.000  Ne
  He371    1.0000 0.44555  0.15915  0.59227  Biso   1.000  He
  He372    1.0000 0.44666  0.12798  0.57766  Biso   1.000  He
  Ne372    1.0000 0.45203  0.10330  0.59921  Biso   1.000  Ne
  Ne373    1.0000 0.92177  0.45646  0.23125  Biso   1.000  Ne
  He373    1.0000 0.95168  0.44827  0.22015  Biso   1.000  He
  He374    1.0000 0.97739  0.47105  0.22251  Biso   1.000  He
  Ne374    1.0000 0.00778  0.45843  0.21571  Biso   1.000  Ne
  Ne375    1.0000 0.31408  0.56798  0.83336  Biso   1.000  Ne
  He375    1.0000 0.33982  0.57956  0.85064  Biso   1.000  He
  He376    1.0000 0.33386  0.57948  0.88343  Biso   1.000  He
  Ne376    1.0000 0.36338  0.58484  0.89797  Biso   1.000  Ne
  Ne377    1.0000 0.67568  0.90812  0.73293  Biso   1.000  Ne
  He377    1.0000 0.68290  0.88669  0.70732  Biso   1.000  He
  He378    1.0000 0.67794  0.90044  0.67809  Biso   1.000  He
  Ne378    1.0000 0.68584  0.88240  0.65189  Biso   1.000  Ne
  Ne379    1.0000 0.06649  0.90256  0.95244  Biso   1.000  Ne
  He379    1.0000 0.05467  0.93226  0.94678  Biso   1.000  He
  He380    1.0000 0.06647  0.94397  0.91889  Biso   1.000  He
  Ne380    1.0000 0.05679  0.97562  0.91282  Biso   1.000  Ne
