data_image0
_cell_length_a       46.9149
_cell_length_b       46.7171
_cell_length_c       46.5217
_cell_angle_alpha    90
_cell_angle_beta     90
_cell_angle_gamma    90

_symmetry_space_group_name_H-M    "P 1"
_symmetry_int_tables_number       1

loop_
  _symmetry_equiv_pos_as_xyz
  'x, y, z'

loop_
  _atom_site_label
  _atom_site_occupancy
  _atom_site_fract_x
  _atom_site_fract_y
  _atom_site_fract_z
  _atom_site_thermal_displace_type
  _atom_site_B_iso_or_equiv
  _atom_site_type_symbol
  Ne1      1.0000 0.36741  0.84628  0.66988  Biso   1.000  Ne
  He1      1.0000 0.39367  0.86364  0.66708  Biso   1.000  He
  He2      1.0000 0.41239  0.85911  0.69378  Biso   1.000  He
  Ne2      1.0000 0.43790  0.88338  0.69994  Biso   1.000  Ne
  Ne3      1.0000 0.12306  0.13947  0.14989  Biso   1.000  Ne
  He3      1.0000 0.10772  0.15169  0.17877  Biso   1.000  He
  He4      1.0000 0.11292  0.13400  0.20584  Biso   1.000  He
  Ne4      1.0000 0.09807  0.14419  0.23219  Biso   1.000  Ne
  Ne5      1.0000 0.46896  0.89674  0.24431  Biso   1.000  Ne
  He5      1.0000 0.45797  0.87003  0.23180  Biso   1.000  He
  He6      1.0000 0.48399  0.85100  0.22030  Biso   1.000  He
  Ne6      1.0000 0.47823  0.81801  0.21794  Biso   1.000  Ne
  Ne7      1.0000 0.33811  0.13663  0.44803  Biso   1.000  Ne
  He7      1.0000 0.32785  0.10662  0.45493  Biso   1.000  He
  He8      1.0000 0.31309  0.09200  0.42956  Biso   1.000  He
  Ne8      1.0000 0.29846  0.06309  0.43544  Biso   1.000  Ne
  Ne9      1.0000 0.38038  0.68898  0.10074  Biso   1.000  Ne
  He9      1.0000 0.40472  0.66758  0.11191  Biso   1.000  He
  He10     1.0000 0.43501  0.68019  0.10739  Biso   1.000  He
  Ne10     1.0000 0.46049  0.65938  0.11401  Biso   1.000  Ne
  Ne11     1.0000 0.60432  0.68553  0.80154  Biso   1.000  Ne
  He11     1.0000 0.58873  0.68460  0.77415  Biso   1.000  He
  He12     1.0000 0.59204  0.65639  0.76083  Biso   1.000  He
  Ne12     1.0000 0.57386  0.65411  0.73381  Biso   1.000  Ne
  Ne13     1.0000 0.37390  0.55214  0.90022  Biso   1.000  Ne
  He13     1.0000 0.33888  0.56058  0.90243  Biso   1.000  He
  He14     1.0000 0.33281  0.58057  0.92951  Biso   1.000  He
  Ne14     1.0000 0.30133  0.59219  0.93256  Biso   1.000  Ne
  Ne15     1.0000 0.80200  0.05634  0.07394  Biso   1.000  Ne
  He15     1.0000 0.83357  0.05112  0.08461  Biso   1.000  He
  He16     1.0000 0.83558  0.05963  0.11616  Biso   1.000  He
  Ne16     1.0000 0.86508  0.05037  0.13275  Biso   1.000  Ne
  Ne17     1.0000 0.56975  0.38764  0.06030  Biso   1.000  Ne
  He17     1.0000 0.58124  0.40074  0.03137  Biso   1.000  He
  He18     1.0000 0.58724  0.43446  0.03931  Biso   1.000  He
  Ne18     1.0000 0.60192  0.45034  0.01570  Biso   1.000  Ne
  Ne19     1.0000 0.38754  0.90717  0.43627  Biso   1.000  Ne
  He19     1.0000 0.36565  0.88658  0.42083  Biso   1.000  He
  He20     1.0000 0.33336  0.89460  0.42818  Biso   1.000  He
  Ne20     1.0000 0.31087  0.87005  0.41612  Biso   1.000  Ne
  Ne21     1.0000 0.20158  0.71491  0.58806  Biso   1.000  Ne
  He21     1.0000 0.17215  0.73116  0.58145  Biso   1.000  He
  He22     1.0000 0.17487  0.75074  0.55616  Biso   1.000  He
  Ne22     1.0000 0.15370  0.77321  0.55675  Biso   1.000  Ne
  Ne23     1.0000 0.93732  0.82368  0.07792  Biso   1.000  Ne
  He23     1.0000 0.93188  0.79984  0.09727  Biso   1.000  He
  He24     1.0000 0.91396  0.77534  0.08327  Biso   1.000  He
  Ne24     1.0000 0.90776  0.74750  0.10130  Biso   1.000  Ne
  Ne25     1.0000 0.11299  0.53001  0.26483  Biso   1.000  Ne
  He25     1.0000 0.13956  0.54142  0.28445  Biso   1.000  He
  He26     1.0000 0.13105  0.55607  0.31053  Biso   1.000  He
  Ne26     1.0000 0.15542  0.56639  0.33217  Biso   1.000  Ne
  Ne27     1.0000 0.75168  0.37699  0.24622  Biso   1.000  Ne
  He27     1.0000 0.76363  0.38540  0.21658  Biso   1.000  He
  He28     1.0000 0.74634  0.37025  0.19082  Biso   1.000  He
  Ne28     1.0000 0.75807  0.37446  0.15886  Biso   1.000  Ne
  Ne29     1.0000 0.63208  0.77477  0.61986  Biso   1.000  Ne
  He29     1.0000 0.62278  0.80158  0.60140  Biso   1.000  He
  He30     1.0000 0.59116  0.80824  0.60280  Biso   1.000  He
  Ne30     1.0000 0.58331  0.83049  0.58137  Biso   1.000  Ne
  Ne31     1.0000 0.66562  0.63517  0.87613  Biso   1.000  Ne
  He31     1.0000 0.64284  0.64361  0.89844  Biso   1.000  He
  He32     1.0000 0.61343  0.64801  0.88489  Biso   1.000  He
  Ne32     1.0000 0.58823  0.65628  0.90712  Biso   1.000  Ne
  Ne33     1.0000 0.41838  0.37961  0.24872  Biso   1.000  Ne
  He33     1.0000 0.40997  0.38128  0.21869  Biso   1.000  He
  He34     1.0000 0.43608  0.37896  0.19850  Biso   1.000  He
  Ne34     1.0000 0.43221  0.38455  0.16736  Biso   1.000  Ne
  Ne35     1.0000 0.72374  0.39294  0.77931  Biso   1.000  Ne
  He35     1.0000 0.74151  0.36665  0.76956  Biso   1.000  He
  He36     1.0000 0.75981  0.37151  0.74403  Biso   1.000  He
  Ne36     1.0000 0.78280  0.34791  0.73898  Biso   1.000  Ne
  Ne37     1.0000 0.59050  0.04171  0.38994  Biso   1.000  Ne
  He37     1.0000 0.60297  0.03716  0.41964  Biso   1.000  He
  He38     1.0000 0.60310  0.00671  0.42959  Biso   1.000  He
  Ne38     1.0000 0.57671  0.99379  0.44515  Biso   1.000  Ne
  Ne39     1.0000 0.15944  0.24061  0.27798  Biso   1.000  Ne
  He39     1.0000 0.16468  0.24997  0.30878  Biso   1.000  He
  He40     1.0000 0.15157  0.22957  0.32866  Biso   1.000  He
  Ne40     1.0000 0.15795  0.23680  0.36201  Biso   1.000  Ne
  Ne41     1.0000 0.13021  0.55243  0.59366  Biso   1.000  Ne
  He41     1.0000 0.12250  0.53318  0.56656  Biso   1.000  He
  He42     1.0000 0.09680  0.54658  0.54982  Biso   1.000  He
  Ne42     1.0000 0.09302  0.52887  0.52074  Biso   1.000  Ne
  Ne43     1.0000 0.74954  0.19509  0.37145  Biso   1.000  Ne
  He43     1.0000 0.77767  0.19504  0.39074  Biso   1.000  He
  He44     1.0000 0.80577  0.19721  0.37165  Biso   1.000  He
  Ne44     1.0000 0.83318  0.19319  0.38885  Biso   1.000  Ne
  Ne45     1.0000 0.83705  0.04408  0.89816  Biso   1.000  Ne
  He45     1.0000 0.85870  0.06941  0.90658  Biso   1.000  He
  He46     1.0000 0.85071  0.10096  0.90790  Biso   1.000  He
  Ne46     1.0000 0.87470  0.11869  0.92239  Biso   1.000  Ne
  Ne47     1.0000 0.12061  0.53084  0.43254  Biso   1.000  Ne
  He47     1.0000 0.08927  0.53684  0.41868  Biso   1.000  He
  He48     1.0000 0.06343  0.53120  0.43930  Biso   1.000  He
  Ne48     1.0000 0.03289  0.53912  0.42668  Biso   1.000  Ne
  Ne49     1.0000 0.19414  0.08176  0.19003  Biso   1.000  Ne
  He49     1.0000 0.16886  0.06373  0.17746  Biso   1.000  He
  He50     1.0000 0.14294  0.06236  0.19711  Biso   1.000  He
  Ne50     1.0000 0.11854  0.04484  0.18674  Biso   1.000  Ne
  Ne51     1.0000 0.23886  0.03739  0.77841  Biso   1.000  Ne
  He51     1.0000 0.26413  0.05125  0.76060  Biso   1.000  He
  He52     1.0000 0.26220  0.04634  0.72777  Biso   1.000  He
  Ne52     1.0000 0.28919  0.05634  0.71073  Biso   1.000  Ne
  Ne53     1.0000 0.42533  0.59609  0.84246  Biso   1.000  Ne
  He53     1.0000 0.41231  0.57356  0.82278  Biso   1.000  He
  He54     1.0000 0.38403  0.58031  0.80523  Biso   1.000  He
  Ne54     1.0000 0.37524  0.55574  0.78582  Biso   1.000  Ne
  Ne55     1.0000 0.41668  0.09556  0.78026  Biso   1.000  Ne
  He55     1.0000 0.44793  0.08199  0.78599  Biso   1.000  He
  He56     1.0000 0.44718  0.05183  0.79657  Biso   1.000  He
  Ne56     1.0000 0.47757  0.03799  0.79440  Biso   1.000  Ne
  Ne57     1.0000 0.45472  0.85877  0.32493  Biso   1.000  Ne
  He57     1.0000 0.44564  0.86871  0.35590  Biso   1.000  He
  He58     1.0000 0.45150  0.84487  0.37885  Biso   1.000  He
  Ne58     1.0000 0.44700  0.85447  0.41191  Biso   1.000  Ne
  Ne59     1.0000 0.94177  0.38106  0.55601  Biso   1.000  Ne
  He59     1.0000 0.96461  0.40324  0.54682  Biso   1.000  He
  He60     1.0000 0.96133  0.43365  0.56585  Biso   1.000  He
  Ne60     1.0000 0.98861  0.45238  0.55525  Biso   1.000  Ne
  Ne61     1.0000 0.74167  0.53798  0.91492  Biso   1.000  Ne
  He61     1.0000 0.72761  0.55761  0.89055  Biso   1.000  He
  He62     1.0000 0.74515  0.55543  0.86270  Biso   1.000  He
  Ne62     1.0000 0.72479  0.56926  0.83710  Biso   1.000  Ne
  Ne63     1.0000 0.66751  0.40043  0.09942  Biso   1.000  Ne
  He63     1.0000 0.69784  0.38907  0.10128  Biso   1.000  He
  He64     1.0000 0.71335  0.38763  0.07116  Biso   1.000  He
  Ne64     1.0000 0.74370  0.37759  0.07585  Biso   1.000  Ne
  Ne65     1.0000 0.20074  0.38701  0.33252  Biso   1.000  Ne
  He65     1.0000 0.18467  0.36145  0.31883  Biso   1.000  He
  He66     1.0000 0.16116  0.36782  0.29849  Biso   1.000  He
  Ne66     1.0000 0.14581  0.34081  0.28722  Biso   1.000  Ne
  Ne67     1.0000 0.75473  0.83495  0.07508  Biso   1.000  Ne
  He67     1.0000 0.73178  0.84990  0.05757  Biso   1.000  He
  He68     1.0000 0.71970  0.83426  0.02813  Biso   1.000  He
  Ne68     1.0000 0.69965  0.85075  0.01061  Biso   1.000  Ne
  Ne69     1.0000 0.16783  0.65886  0.33835  Biso   1.000  Ne
  He69     1.0000 0.13671  0.65045  0.33523  Biso   1.000  He
  He70     1.0000 0.12584  0.63382  0.36291  Biso   1.000  He
  Ne70     1.0000 0.09578  0.62444  0.36400  Biso   1.000  Ne
  Ne71     1.0000 0.12803  0.88581  0.91735  Biso   1.000  Ne
  He71     1.0000 0.14491  0.88708  0.88826  Biso   1.000  He
  He72     1.0000 0.12819  0.88197  0.86184  Biso   1.000  He
  Ne72     1.0000 0.14576  0.88709  0.83388  Biso   1.000  Ne
  Ne73     1.0000 0.56478  0.30297  0.27821  Biso   1.000  Ne
  He73     1.0000 0.58456  0.28008  0.26434  Biso   1.000  He
  He74     1.0000 0.58698  0.27910  0.22861  Biso   1.000  He
  Ne74     1.0000 0.60489  0.25257  0.21784  Biso   1.000  Ne
  Ne75     1.0000 0.81269  0.39607  0.82901  Biso   1.000  Ne
  He75     1.0000 0.79768  0.36858  0.83684  Biso   1.000  He
  He76     1.0000 0.78031  0.37305  0.86691  Biso   1.000  He
  Ne76     1.0000 0.76392  0.34407  0.86999  Biso   1.000  Ne
  Ne77     1.0000 0.36820  0.89367  0.59166  Biso   1.000  Ne
  He77     1.0000 0.39771  0.89475  0.57649  Biso   1.000  He
  He78     1.0000 0.42272  0.90081  0.59795  Biso   1.000  He
  Ne78     1.0000 0.45541  0.89377  0.58581  Biso   1.000  Ne
  Ne79     1.0000 0.70748  0.55426  0.17117  Biso   1.000  Ne
  He79     1.0000 0.72490  0.56413  0.19888  Biso   1.000  He
  He80     1.0000 0.70618  0.58082  0.22067  Biso   1.000  He
  Ne80     1.0000 0.71932  0.59393  0.24748  Biso   1.000  Ne
  Ne81     1.0000 0.41767  0.91409  0.78574  Biso   1.000  Ne
  He81     1.0000 0.40192  0.88631  0.79676  Biso   1.000  He
  He82     1.0000 0.37397  0.89481  0.81559  Biso   1.000  He
  Ne82     1.0000 0.35696  0.86579  0.82086  Biso   1.000  Ne
  Ne83     1.0000 0.25362  0.04837  0.61459  Biso   1.000  Ne
  He83     1.0000 0.25471  0.07163  0.63533  Biso   1.000  He
  He84     1.0000 0.26893  0.09808  0.62570  Biso   1.000  He
  Ne84     1.0000 0.27102  0.12014  0.64936  Biso   1.000  Ne
  Ne85     1.0000 0.06524  0.04602  0.94715  Biso   1.000  Ne
  He85     1.0000 0.06010  0.01859  0.93121  Biso   1.000  He
  He86     1.0000 0.06245  0.99376  0.95298  Biso   1.000  He
  Ne86     1.0000 0.05857  0.96421  0.93895  Biso   1.000  Ne
  Ne87     1.0000 0.59288  0.96874  0.53615  Biso   1.000  Ne
  He87     1.0000 0.58110  0.93970  0.55272  Biso   1.000  He
  He88     1.0000 0.56185  0.94381  0.57760  Biso   1.000  He
  Ne88     1.0000 0.54922  0.91573  0.58988  Biso   1.000  Ne
  Ne89     1.0000 0.04618  0.86580  0.03828  Biso   1.000  Ne
  He89     1.0000 0.06020  0.89145  0.05515  Biso   1.000  He
  He90     1.0000 0.08971  0.88329  0.06549  Biso   1.000  He
  Ne90     1.0000 0.09999  0.90354  0.09122  Biso   1.000  Ne
  Ne91     1.0000 0.15660  0.73439  0.18438  Biso   1.000  Ne
  He91     1.0000 0.12801  0.73742  0.20008  Biso   1.000  He
  He92     1.0000 0.13022  0.73524  0.23269  Biso   1.000  He
  Ne92     1.0000 0.10144  0.73407  0.24972  Biso   1.000  Ne
  Ne93     1.0000 0.42294  0.37714  0.84068  Biso   1.000  Ne
  He93     1.0000 0.42544  0.34439  0.83311  Biso   1.000  He
  He94     1.0000 0.43369  0.32446  0.85953  Biso   1.000  He
  Ne94     1.0000 0.43628  0.29297  0.85015  Biso   1.000  Ne
  Ne95     1.0000 0.10387  0.77662  0.13498  Biso   1.000  Ne
  He95     1.0000 0.08935  0.80722  0.13569  Biso   1.000  He
  He96     1.0000 0.10520  0.82678  0.15462  Biso   1.000  He
  Ne96     1.0000 0.09562  0.85709  0.16162  Biso   1.000  Ne
  Ne97     1.0000 0.36258  0.03859  0.73394  Biso   1.000  Ne
  He97     1.0000 0.37462  0.01720  0.75379  Biso   1.000  He
  He98     1.0000 0.35125  0.00268  0.77452  Biso   1.000  He
  Ne98     1.0000 0.36690  0.98193  0.79535  Biso   1.000  Ne
  Ne99     1.0000 0.88873  0.13403  0.08744  Biso   1.000  Ne
  He99     1.0000 0.91844  0.14745  0.08183  Biso   1.000  He
  He100    1.0000 0.91613  0.18163  0.07964  Biso   1.000  He
  Ne100    1.0000 0.94582  0.19479  0.07692  Biso   1.000  Ne
  Ne101    1.0000 0.91856  0.64249  0.38816  Biso   1.000  Ne
  He101    1.0000 0.91853  0.64233  0.35546  Biso   1.000  He
  He102    1.0000 0.94043  0.62332  0.33957  Biso   1.000  He
  Ne102    1.0000 0.93403  0.62607  0.30789  Biso   1.000  Ne
  Ne103    1.0000 0.42180  0.82411  0.60720  Biso   1.000  Ne
  He103    1.0000 0.40545  0.80342  0.59162  Biso   1.000  He
  He104    1.0000 0.42593  0.78067  0.57909  Biso   1.000  He
  Ne104    1.0000 0.41041  0.75568  0.56758  Biso   1.000  Ne
  Ne105    1.0000 0.64796  0.07431  0.29775  Biso   1.000  Ne
  He105    1.0000 0.62779  0.09508  0.32010  Biso   1.000  He
  He106    1.0000 0.61400  0.11980  0.30651  Biso   1.000  He
  Ne106    1.0000 0.59606  0.14176  0.32566  Biso   1.000  Ne
  Ne107    1.0000 0.53612  0.01820  0.54925  Biso   1.000  Ne
  He107    1.0000 0.51479  0.03270  0.53142  Biso   1.000  He
  He108    1.0000 0.52080  0.03352  0.50162  Biso   1.000  He
  Ne108    1.0000 0.50005  0.05174  0.48505  Biso   1.000  Ne
  Ne109    1.0000 0.17560  0.62370  0.42611  Biso   1.000  Ne
  He109    1.0000 0.19436  0.59709  0.43240  Biso   1.000  He
  He110    1.0000 0.19523  0.57785  0.40490  Biso   1.000  He
  Ne110    1.0000 0.20717  0.54877  0.41039  Biso   1.000  Ne
  Ne111    1.0000 0.42603  0.04737  0.37701  Biso   1.000  Ne
  He111    1.0000 0.43492  0.07809  0.38894  Biso   1.000  He
  He112    1.0000 0.41873  0.09046  0.41599  Biso   1.000  He
  Ne112    1.0000 0.43175  0.11837  0.42592  Biso   1.000  Ne
  Ne113    1.0000 0.60579  0.38367  0.87813  Biso   1.000  Ne
  He113    1.0000 0.63926  0.38943  0.87578  Biso   1.000  He
  He114    1.0000 0.65558  0.38779  0.90618  Biso   1.000  He
  Ne114    1.0000 0.68929  0.38440  0.90484  Biso   1.000  Ne
  Ne115    1.0000 0.92265  0.68350  0.56577  Biso   1.000  Ne
  He115    1.0000 0.92277  0.65411  0.58068  Biso   1.000  He
  He116    1.0000 0.89295  0.64432  0.59562  Biso   1.000  He
  Ne116    1.0000 0.89183  0.64880  0.62904  Biso   1.000  Ne
  Ne117    1.0000 0.44123  0.14349  0.60199  Biso   1.000  Ne
  He117    1.0000 0.44427  0.17432  0.60794  Biso   1.000  He
  He118    1.0000 0.44586  0.18957  0.57978  Biso   1.000  He
  Ne118    1.0000 0.45468  0.22204  0.58386  Biso   1.000  Ne
  Ne119    1.0000 0.47350  0.56784  0.05238  Biso   1.000  Ne
  He119    1.0000 0.46632  0.56646  0.08298  Biso   1.000  He
  He120    1.0000 0.46143  0.53721  0.09557  Biso   1.000  He
  Ne120    1.0000 0.45671  0.53249  0.12700  Biso   1.000  Ne
  Ne121    1.0000 0.59337  0.29972  0.10584  Biso   1.000  Ne
  He121    1.0000 0.59745  0.27227  0.12293  Biso   1.000  He
  He122    1.0000 0.60957  0.24759  0.10521  Biso   1.000  He
  Ne122    1.0000 0.61163  0.21794  0.12039  Biso   1.000  Ne
  Ne123    1.0000 0.33489  0.33805  0.07808  Biso   1.000  Ne
  He123    1.0000 0.33463  0.35438  0.10817  Biso   1.000  He
  He124    1.0000 0.34978  0.38451  0.10891  Biso   1.000  He
  Ne124    1.0000 0.34865  0.39719  0.13874  Biso   1.000  Ne
  Ne125    1.0000 0.07748  0.62739  0.59065  Biso   1.000  Ne
  He125    1.0000 0.09192  0.65844  0.59066  Biso   1.000  He
  He126    1.0000 0.07818  0.68287  0.57705  Biso   1.000  He
  Ne126    1.0000 0.09651  0.70952  0.57488  Biso   1.000  Ne
  Ne127    1.0000 0.46663  0.43780  0.91300  Biso   1.000  Ne
  He127    1.0000 0.48284  0.45023  0.93927  Biso   1.000  He
  He128    1.0000 0.46495  0.47417  0.95827  Biso   1.000  He
  Ne128    1.0000 0.48380  0.48628  0.98213  Biso   1.000  Ne
  Ne129    1.0000 0.91841  0.64226  0.72465  Biso   1.000  Ne
  He129    1.0000 0.91892  0.65975  0.75373  Biso   1.000  He
  He130    1.0000 0.88956  0.66772  0.76825  Biso   1.000  He
  Ne130    1.0000 0.89554  0.68632  0.79568  Biso   1.000  Ne
  Ne131    1.0000 0.40061  0.38536  0.91960  Biso   1.000  Ne
  He131    1.0000 0.36886  0.39747  0.92405  Biso   1.000  He
  He132    1.0000 0.35083  0.38706  0.90152  Biso   1.000  He
  Ne132    1.0000 0.32145  0.40148  0.90438  Biso   1.000  Ne
  Ne133    1.0000 0.70347  0.63933  0.09799  Biso   1.000  Ne
  He133    1.0000 0.67515  0.62846  0.08443  Biso   1.000  He
  He134    1.0000 0.64490  0.63201  0.09950  Biso   1.000  He
  Ne134    1.0000 0.61979  0.61735  0.07902  Biso   1.000  Ne
  Ne135    1.0000 0.94885  0.39282  0.37513  Biso   1.000  Ne
  He135    1.0000 0.91841  0.38597  0.37868  Biso   1.000  He
  He136    1.0000 0.91062  0.37771  0.41221  Biso   1.000  He
  Ne136    1.0000 0.87816  0.36772  0.41522  Biso   1.000  Ne
  Ne137    1.0000 0.79517  0.57166  0.65707  Biso   1.000  Ne
  He137    1.0000 0.81772  0.55069  0.64294  Biso   1.000  He
  He138    1.0000 0.81258  0.54314  0.61316  Biso   1.000  He
  Ne138    1.0000 0.83741  0.52477  0.59994  Biso   1.000  Ne
  Ne139    1.0000 0.56638  0.54721  0.01693  Biso   1.000  Ne
  He139    1.0000 0.56107  0.55417  0.98437  Biso   1.000  He
  He140    1.0000 0.55188  0.53091  0.96434  Biso   1.000  He
  Ne140    1.0000 0.54494  0.54086  0.93145  Biso   1.000  Ne
  Ne141    1.0000 0.55364  0.10530  0.21668  Biso   1.000  Ne
  He141    1.0000 0.57234  0.10206  0.19032  Biso   1.000  He
  He142    1.0000 0.56425  0.12357  0.16327  Biso   1.000  He
  Ne142    1.0000 0.58324  0.11968  0.13742  Biso   1.000  Ne
  Ne143    1.0000 0.48772  0.27536  0.66131  Biso   1.000  Ne
  He143    1.0000 0.47398  0.25460  0.68227  Biso   1.000  He
  He144    1.0000 0.46403  0.26956  0.70732  Biso   1.000  He
  Ne144    1.0000 0.44271  0.25400  0.72711  Biso   1.000  Ne
  Ne145    1.0000 0.18573  0.26912  0.44578  Biso   1.000  Ne
  He145    1.0000 0.18645  0.30252  0.43994  Biso   1.000  He
  He146    1.0000 0.17491  0.30966  0.40861  Biso   1.000  He
  Ne146    1.0000 0.18611  0.33819  0.39664  Biso   1.000  Ne
  Ne147    1.0000 0.61163  0.90003  0.64408  Biso   1.000  Ne
  He147    1.0000 0.62572  0.90166  0.61479  Biso   1.000  He
  He148    1.0000 0.64909  0.87889  0.60792  Biso   1.000  He
  Ne148    1.0000 0.67612  0.88883  0.59113  Biso   1.000  Ne
  Ne149    1.0000 0.09969  0.38932  0.36115  Biso   1.000  Ne
  He149    1.0000 0.11465  0.36308  0.37328  Biso   1.000  He
  He150    1.0000 0.09725  0.33671  0.36815  Biso   1.000  He
  Ne150    1.0000 0.10781  0.30625  0.37890  Biso   1.000  Ne
  Ne151    1.0000 0.65514  0.87983  0.36463  Biso   1.000  Ne
  He151    1.0000 0.63607  0.87878  0.33656  Biso   1.000  He
  He152    1.0000 0.64471  0.90007  0.31087  Biso   1.000  He
  Ne152    1.0000 0.62353  0.90398  0.28589  Biso   1.000  Ne
  Ne153    1.0000 0.82392  0.80955  0.87611  Biso   1.000  Ne
  He153    1.0000 0.82835  0.84088  0.87333  Biso   1.000  He
  He154    1.0000 0.82586  0.85550  0.90170  Biso   1.000  He
  Ne154    1.0000 0.83190  0.88574  0.89744  Biso   1.000  Ne
  Ne155    1.0000 0.07003  0.71303  0.67474  Biso   1.000  Ne
  He155    1.0000 0.09178  0.72352  0.69789  Biso   1.000  He
  He156    1.0000 0.07655  0.73352  0.72511  Biso   1.000  He
  Ne156    1.0000 0.09762  0.74610  0.74962  Biso   1.000  Ne
  Ne157    1.0000 0.44288  0.96232  0.50388  Biso   1.000  Ne
  He157    1.0000 0.44246  0.93083  0.49599  Biso   1.000  He
  He158    1.0000 0.46722  0.91568  0.50971  Biso   1.000  He
  Ne158    1.0000 0.46748  0.88487  0.50157  Biso   1.000  Ne
  Ne159    1.0000 0.14266  0.38389  0.59567  Biso   1.000  Ne
  He159    1.0000 0.17280  0.37026  0.59999  Biso   1.000  He
  He160    1.0000 0.19846  0.39103  0.60240  Biso   1.000  He
  Ne160    1.0000 0.22803  0.37613  0.60298  Biso   1.000  Ne
  Ne161    1.0000 0.94359  0.07594  0.93022  Biso   1.000  Ne
  He161    1.0000 0.94371  0.04293  0.92623  Biso   1.000  He
  He162    1.0000 0.96966  0.02819  0.93987  Biso   1.000  He
  Ne162    1.0000 0.96700  0.99503  0.93598  Biso   1.000  Ne
  Ne163    1.0000 0.14936  0.74484  0.91792  Biso   1.000  Ne
  He163    1.0000 0.13520  0.76339  0.89265  Biso   1.000  He
  He164    1.0000 0.12105  0.79373  0.89766  Biso   1.000  He
  Ne164    1.0000 0.10896  0.80792  0.87074  Biso   1.000  Ne
  Ne165    1.0000 0.76581  0.10028  0.26946  Biso   1.000  Ne
  He165    1.0000 0.73401  0.10971  0.27223  Biso   1.000  He
  He166    1.0000 0.72796  0.13644  0.28752  Biso   1.000  He
  Ne166    1.0000 0.69552  0.14299  0.28512  Biso   1.000  Ne
  Ne167    1.0000 0.58950  0.18448  0.90637  Biso   1.000  Ne
  He167    1.0000 0.61699  0.20094  0.91134  Biso   1.000  He
  He168    1.0000 0.61129  0.22512  0.93316  Biso   1.000  He
  Ne168    1.0000 0.63817  0.24678  0.93966  Biso   1.000  Ne
  Ne169    1.0000 0.95663  0.54032  0.35813  Biso   1.000  Ne
  He169    1.0000 0.94437  0.54780  0.38942  Biso   1.000  He
  He170    1.0000 0.96339  0.56845  0.40510  Biso   1.000  He
  Ne170    1.0000 0.94892  0.57785  0.43243  Biso   1.000  Ne
  Ne171    1.0000 0.86036  0.53158  0.22543  Biso   1.000  Ne
  He171    1.0000 0.85771  0.54859  0.25638  Biso   1.000  He
  He172    1.0000 0.88764  0.54902  0.27407  Biso   1.000  He
  Ne172    1.0000 0.88096  0.56729  0.30184  Biso   1.000  Ne
  Ne173    1.0000 0.63656  0.84589  0.69914  Biso   1.000  Ne
  He173    1.0000 0.66927  0.83854  0.69317  Biso   1.000  He
  He174    1.0000 0.67538  0.80749  0.69207  Biso   1.000  He
  Ne174    1.0000 0.70718  0.79982  0.69909  Biso   1.000  Ne
  Ne175    1.0000 0.66712  0.31040  0.81312  Biso   1.000  Ne
  He175    1.0000 0.66645  0.28662  0.83671  Biso   1.000  He
  He176    1.0000 0.64967  0.26032  0.82376  Biso   1.000  He
  Ne176    1.0000 0.63867  0.23618  0.84596  Biso   1.000  Ne
  Ne177    1.0000 0.93243  0.91703  0.96127  Biso   1.000  Ne
  He177    1.0000 0.96059  0.91657  0.94651  Biso   1.000  He
  He178    1.0000 0.98309  0.89231  0.95719  Biso   1.000  He
  Ne178    1.0000 0.01225  0.89114  0.93878  Biso   1.000  Ne
  Ne179    1.0000 0.19925  0.97810  0.71031  Biso   1.000  Ne
  He179    1.0000 0.20078  0.96974  0.67737  Biso   1.000  He
  He180    1.0000 0.23067  0.96960  0.66593  Biso   1.000  He
  Ne180    1.0000 0.23154  0.96306  0.63355  Biso   1.000  Ne
  Ne181    1.0000 0.78885  0.56702  0.40399  Biso   1.000  Ne
  He181    1.0000 0.81224  0.58014  0.41987  Biso   1.000  He
  He182    1.0000 0.84279  0.58555  0.40755  Biso   1.000  He
  Ne182    1.0000 0.86530  0.56107  0.41414  Biso   1.000  Ne
  Ne183    1.0000 0.93508  0.20487  0.56708  Biso   1.000  Ne
  He183    1.0000 0.96096  0.18370  0.57122  Biso   1.000  He
  He184    1.0000 0.97283  0.18390  0.60227  Biso   1.000  He
  Ne184    1.0000 0.99818  0.16103  0.60288  Biso   1.000  Ne
  Ne185    1.0000 0.31354  0.42664  0.59710  Biso   1.000  Ne
  He185    1.0000 0.32001  0.43003  0.56336  Biso   1.000  He
  He186    1.0000 0.29277  0.44521  0.55122  Biso   1.000  He
  Ne186    1.0000 0.29809  0.45889  0.52316  Biso   1.000  Ne
  Ne187    1.0000 0.15656  0.06964  0.09146  Biso   1.000  Ne
  He187    1.0000 0.18585  0.08115  0.09916  Biso   1.000  He
  He188    1.0000 0.18588  0.11370  0.10132  Biso   1.000  He
  Ne188    1.0000 0.21549  0.12548  0.10841  Biso   1.000  Ne
  Ne189    1.0000 0.74059  0.09545  0.36484  Biso   1.000  Ne
  He189    1.0000 0.72099  0.07679  0.38508  Biso   1.000  He
  He190    1.0000 0.69327  0.06554  0.37402  Biso   1.000  He
  Ne190    1.0000 0.67707  0.04887  0.39663  Biso   1.000  Ne
  Ne191    1.0000 0.58758  0.11603  0.41757  Biso   1.000  Ne
  He191    1.0000 0.62182  0.11704  0.41692  Biso   1.000  He
  He192    1.0000 0.63093  0.14389  0.39513  Biso   1.000  He
  Ne192    1.0000 0.66258  0.15296  0.39094  Biso   1.000  Ne
  Ne193    1.0000 0.76509  0.53266  0.06680  Biso   1.000  Ne
  He193    1.0000 0.78381  0.55470  0.08317  Biso   1.000  He
  He194    1.0000 0.76854  0.58357  0.07936  Biso   1.000  He
  Ne194    1.0000 0.78129  0.60872  0.09808  Biso   1.000  Ne
  Ne195    1.0000 0.75456  0.67584  0.41094  Biso   1.000  Ne
  He195    1.0000 0.72319  0.66829  0.39620  Biso   1.000  He
  He196    1.0000 0.70297  0.69273  0.39523  Biso   1.000  He
  Ne196    1.0000 0.67411  0.68925  0.38033  Biso   1.000  Ne
  Ne197    1.0000 0.11014  0.12095  0.34412  Biso   1.000  Ne
  He197    1.0000 0.09109  0.14537  0.33026  Biso   1.000  He
  He198    1.0000 0.06172  0.14881  0.34497  Biso   1.000  He
  Ne198    1.0000 0.04096  0.16579  0.32733  Biso   1.000  Ne
  Ne199    1.0000 0.70792  0.73151  0.10063  Biso   1.000  Ne
  He199    1.0000 0.70431  0.73916  0.06665  Biso   1.000  He
  He200    1.0000 0.67266  0.74986  0.05768  Biso   1.000  He
  Ne200    1.0000 0.67052  0.75797  0.02618  Biso   1.000  Ne
  Ne201    1.0000 0.74497  0.15994  0.60252  Biso   1.000  Ne
  He201    1.0000 0.76587  0.18170  0.58861  Biso   1.000  He
  He202    1.0000 0.79098  0.16777  0.57130  Biso   1.000  He
  Ne202    1.0000 0.81405  0.18560  0.55658  Biso   1.000  Ne
  Ne203    1.0000 0.91909  0.82410  0.81246  Biso   1.000  Ne
  He203    1.0000 0.90436  0.84875  0.82730  Biso   1.000  He
  He204    1.0000 0.92357  0.86722  0.84511  Biso   1.000  He
  Ne204    1.0000 0.90642  0.89047  0.86254  Biso   1.000  Ne
  Ne205    1.0000 0.58302  0.87087  0.40771  Biso   1.000  Ne
  He205    1.0000 0.58641  0.89781  0.42683  Biso   1.000  He
  He206    1.0000 0.58318  0.89420  0.46089  Biso   1.000  He
  Ne206    1.0000 0.55461  0.90259  0.46807  Biso   1.000  Ne
  Ne207    1.0000 0.61516  0.78976  0.36857  Biso   1.000  Ne
  He207    1.0000 0.63016  0.76418  0.38823  Biso   1.000  He
  He208    1.0000 0.61952  0.76435  0.41988  Biso   1.000  He
  Ne208    1.0000 0.63286  0.74124  0.43667  Biso   1.000  Ne
  Ne209    1.0000 0.90223  0.11426  0.26480  Biso   1.000  Ne
  He209    1.0000 0.91792  0.08772  0.25254  Biso   1.000  He
  He210    1.0000 0.93655  0.09273  0.22557  Biso   1.000  He
  Ne210    1.0000 0.95417  0.06776  0.21283  Biso   1.000  Ne
  Ne211    1.0000 0.16199  0.03616  0.93976  Biso   1.000  Ne
  He211    1.0000 0.19162  0.03528  0.92175  Biso   1.000  He
  He212    1.0000 0.18732  0.03997  0.88988  Biso   1.000  He
  Ne212    1.0000 0.21425  0.03530  0.87314  Biso   1.000  Ne
  Ne213    1.0000 0.63582  0.60214  0.18210  Biso   1.000  Ne
  He213    1.0000 0.61587  0.59893  0.20520  Biso   1.000  He
  He214    1.0000 0.61677  0.56774  0.21739  Biso   1.000  He
  Ne214    1.0000 0.59596  0.56213  0.24305  Biso   1.000  Ne
  Ne215    1.0000 0.20413  0.77279  0.11009  Biso   1.000  Ne
  He215    1.0000 0.21725  0.80084  0.12024  Biso   1.000  He
  He216    1.0000 0.19642  0.82423  0.12262  Biso   1.000  He
  Ne216    1.0000 0.20984  0.85273  0.13105  Biso   1.000  Ne
  Ne217    1.0000 0.65520  0.70725  0.67546  Biso   1.000  Ne
  He217    1.0000 0.64969  0.73271  0.69572  Biso   1.000  He
  He218    1.0000 0.62228  0.73045  0.71378  Biso   1.000  He
  Ne218    1.0000 0.61972  0.75021  0.73826  Biso   1.000  Ne
  Ne219    1.0000 0.66779  0.41030  0.20482  Biso   1.000  Ne
  He219    1.0000 0.64513  0.40084  0.17987  Biso   1.000  He
  He220    1.0000 0.61551  0.39247  0.19059  Biso   1.000  He
  Ne220    1.0000 0.59573  0.38531  0.16450  Biso   1.000  Ne
  Ne221    1.0000 0.06600  0.02312  0.10876  Biso   1.000  Ne
  He221    1.0000 0.07255  0.03736  0.07808  Biso   1.000  He
  He222    1.0000 0.08509  0.01479  0.05546  Biso   1.000  He
  Ne222    1.0000 0.09121  0.02115  0.02415  Biso   1.000  Ne
  Ne223    1.0000 0.93259  0.26398  0.40941  Biso   1.000  Ne
  He223    1.0000 0.94581  0.23872  0.42568  Biso   1.000  He
  He224    1.0000 0.92303  0.21406  0.42761  Biso   1.000  He
  Ne224    1.0000 0.93191  0.18700  0.44007  Biso   1.000  Ne
  Ne225    1.0000 0.11381  0.12499  0.81120  Biso   1.000  Ne
  He225    1.0000 0.11738  0.11313  0.84466  Biso   1.000  He
  He226    1.0000 0.12111  0.13379  0.86872  Biso   1.000  He
  Ne226    1.0000 0.12127  0.11850  0.89894  Biso   1.000  Ne
  Ne227    1.0000 0.16817  0.11787  0.26012  Biso   1.000  Ne
  He227    1.0000 0.18979  0.11079  0.28642  Biso   1.000  He
  He228    1.0000 0.19809  0.07971  0.28803  Biso   1.000  He
  Ne228    1.0000 0.21936  0.07283  0.31404  Biso   1.000  Ne
  Ne229    1.0000 0.90670  0.76492  0.89026  Biso   1.000  Ne
  He229    1.0000 0.90855  0.79552  0.90071  Biso   1.000  He
  He230    1.0000 0.93821  0.80613  0.91030  Biso   1.000  He
  Ne230    1.0000 0.94142  0.83762  0.92175  Biso   1.000  Ne
  Ne231    1.0000 0.61585  0.54721  0.12058  Biso   1.000  Ne
  He231    1.0000 0.60291  0.52811  0.09703  Biso   1.000  He
  He232    1.0000 0.56886  0.52628  0.10415  Biso   1.000  He
  Ne232    1.0000 0.55505  0.50526  0.08339  Biso   1.000  Ne
  Ne233    1.0000 0.95221  0.07890  0.05844  Biso   1.000  Ne
  He233    1.0000 0.96672  0.05185  0.05081  Biso   1.000  He
  He234    1.0000 0.95131  0.02427  0.06031  Biso   1.000  He
  Ne234    1.0000 0.96527  0.99618  0.05872  Biso   1.000  Ne
  Ne235    1.0000 0.92610  0.27770  0.58805  Biso   1.000  Ne
  He235    1.0000 0.91289  0.28649  0.61450  Biso   1.000  He
  He236    1.0000 0.93057  0.29158  0.64297  Biso   1.000  He
  Ne236    1.0000 0.91114  0.29359  0.66960  Biso   1.000  Ne
  Ne237    1.0000 0.99366  0.46542  0.41990  Biso   1.000  Ne
  He237    1.0000 0.00374  0.44999  0.45092  Biso   1.000  He
  He238    1.0000 0.03648  0.44870  0.45108  Biso   1.000  He
  Ne238    1.0000 0.04746  0.43760  0.48153  Biso   1.000  Ne
  Ne239    1.0000 0.79746  0.89157  0.11839  Biso   1.000  Ne
  He239    1.0000 0.83072  0.89016  0.11489  Biso   1.000  He
  He240    1.0000 0.84327  0.87453  0.08846  Biso   1.000  He
  Ne240    1.0000 0.87366  0.88201  0.08540  Biso   1.000  Ne
  Ne241    1.0000 0.86441  0.38678  0.30616  Biso   1.000  Ne
  He241    1.0000 0.84088  0.37987  0.32636  Biso   1.000  He
  He242    1.0000 0.81287  0.37534  0.31033  Biso   1.000  He
  Ne242    1.0000 0.79693  0.35117  0.32932  Biso   1.000  Ne
  Ne243    1.0000 0.86452  0.32260  0.56831  Biso   1.000  Ne
  He243    1.0000 0.83654  0.32765  0.58355  Biso   1.000  He
  He244    1.0000 0.81127  0.33418  0.56118  Biso   1.000  He
  Ne244    1.0000 0.77985  0.33132  0.57634  Biso   1.000  Ne
  Ne245    1.0000 0.24459  0.53870  0.20704  Biso   1.000  Ne
  He245    1.0000 0.27705  0.55341  0.21386  Biso   1.000  He
  He246    1.0000 0.29924  0.55434  0.18913  Biso   1.000  He
  Ne246    1.0000 0.32787  0.56675  0.20108  Biso   1.000  Ne
  Ne247    1.0000 0.09384  0.53884  0.70261  Biso   1.000  Ne
  He247    1.0000 0.09287  0.56825  0.69015  Biso   1.000  He
  He248    1.0000 0.10780  0.58954  0.70725  Biso   1.000  He
  Ne248    1.0000 0.10978  0.62313  0.69550  Biso   1.000  Ne
  Ne249    1.0000 0.68253  0.85146  0.16377  Biso   1.000  Ne
  He249    1.0000 0.65416  0.84805  0.14630  Biso   1.000  He
  He250    1.0000 0.63281  0.87294  0.14516  Biso   1.000  He
  Ne250    1.0000 0.60647  0.86895  0.12409  Biso   1.000  Ne
  Ne251    1.0000 0.63655  0.55067  0.91529  Biso   1.000  Ne
  He251    1.0000 0.62567  0.54206  0.88700  Biso   1.000  He
  He252    1.0000 0.62056  0.56644  0.86384  Biso   1.000  He
  Ne252    1.0000 0.60424  0.55867  0.83542  Biso   1.000  Ne
  Ne253    1.0000 0.95640  0.52326  0.48564  Biso   1.000  Ne
  He253    1.0000 0.97277  0.53893  0.50844  Biso   1.000  He
  He254    1.0000 0.00396  0.52375  0.51682  Biso   1.000  He
  Ne254    1.0000 0.01454  0.53278  0.54580  Biso   1.000  Ne
  Ne255    1.0000 0.20619  0.26412  0.04818  Biso   1.000  Ne
  He255    1.0000 0.20275  0.23516  0.06428  Biso   1.000  He
  He256    1.0000 0.17187  0.22214  0.06105  Biso   1.000  He
  Ne256    1.0000 0.16584  0.19720  0.08041  Biso   1.000  Ne
  Ne257    1.0000 0.89752  0.96251  0.32765  Biso   1.000  Ne
  He257    1.0000 0.88082  0.98552  0.30484  Biso   1.000  He
  He258    1.0000 0.85674  0.00536  0.32112  Biso   1.000  He
  Ne258    1.0000 0.83907  0.02469  0.30232  Biso   1.000  Ne
  Ne259    1.0000 0.49242  0.43632  0.09366  Biso   1.000  Ne
  He259    1.0000 0.47333  0.43152  0.06639  Biso   1.000  He
  He260    1.0000 0.44290  0.44003  0.07451  Biso   1.000  He
  Ne260    1.0000 0.41785  0.41560  0.07623  Biso   1.000  Ne
  Ne261    1.0000 0.89292  0.54981  0.65836  Biso   1.000  Ne
  He261    1.0000 0.92049  0.55089  0.64171  Biso   1.000  He
  He262    1.0000 0.91705  0.53628  0.61170  Biso   1.000  He
  Ne262    1.0000 0.94776  0.53432  0.59723  Biso   1.000  Ne
  Ne263    1.0000 0.77104  0.13874  0.05592  Biso   1.000  Ne
  He263    1.0000 0.74545  0.15628  0.04704  Biso   1.000  He
  He264    1.0000 0.71446  0.14381  0.05865  Biso   1.000  He
  Ne264    1.0000 0.68868  0.16018  0.05049  Biso   1.000  Ne
  Ne265    1.0000 0.43811  0.04215  0.55527  Biso   1.000  Ne
  He265    1.0000 0.43437  0.03604  0.58780  Biso   1.000  He
  He266    1.0000 0.44714  0.05836  0.60874  Biso   1.000  He
  Ne266    1.0000 0.44756  0.04796  0.64048  Biso   1.000  Ne
  Ne267    1.0000 0.67517  0.29668  0.09266  Biso   1.000  Ne
  He267    1.0000 0.68482  0.29256  0.12418  Biso   1.000  He
  He268    1.0000 0.68550  0.31959  0.14605  Biso   1.000  He
  Ne268    1.0000 0.68688  0.31307  0.17635  Biso   1.000  Ne
  Ne269    1.0000 0.06134  0.16925  0.54448  Biso   1.000  Ne
  He269    1.0000 0.09265  0.17936  0.53638  Biso   1.000  He
  He270    1.0000 0.11479  0.17502  0.56342  Biso   1.000  He
  Ne270    1.0000 0.14799  0.18690  0.55826  Biso   1.000  Ne
  Ne271    1.0000 0.34098  0.05440  0.64029  Biso   1.000  Ne
  He271    1.0000 0.33751  0.07625  0.61776  Biso   1.000  He
  He272    1.0000 0.36456  0.09241  0.61545  Biso   1.000  He
  Ne272    1.0000 0.36415  0.12002  0.59735  Biso   1.000  Ne
  Ne273    1.0000 0.84579  0.37825  0.68073  Biso   1.000  Ne
  He273    1.0000 0.86381  0.38844  0.70574  Biso   1.000  He
  He274    1.0000 0.89923  0.38198  0.70087  Biso   1.000  He
  Ne274    1.0000 0.91695  0.39510  0.72282  Biso   1.000  Ne
  Ne275    1.0000 0.72959  0.88945  0.79859  Biso   1.000  Ne
  He275    1.0000 0.72488  0.89151  0.76631  Biso   1.000  He
  He276    1.0000 0.70695  0.91653  0.75680  Biso   1.000  He
  Ne276    1.0000 0.70646  0.91701  0.72501  Biso   1.000  Ne
  Ne277    1.0000 0.27913  0.84839  0.80233  Biso   1.000  Ne
  He277    1.0000 0.25737  0.84685  0.83033  Biso   1.000  He
  He278    1.0000 0.25208  0.87585  0.84407  Biso   1.000  He
  Ne278    1.0000 0.23291  0.87418  0.87027  Biso   1.000  Ne
  Ne279    1.0000 0.72989  0.07246  0.56693  Biso   1.000  Ne
  He279    1.0000 0.70212  0.05505  0.57661  Biso   1.000  He
  He280    1.0000 0.67269  0.07114  0.57611  Biso   1.000  He
  Ne280    1.0000 0.64544  0.05566  0.58633  Biso   1.000  Ne
  Ne281    1.0000 0.89994  0.85835  0.16115  Biso   1.000  Ne
  He281    1.0000 0.90332  0.87824  0.18840  Biso   1.000  He
  He282    1.0000 0.91936  0.86386  0.21321  Biso   1.000  He
  Ne282    1.0000 0.92037  0.88516  0.24117  Biso   1.000  Ne
  Ne283    1.0000 0.56789  0.72179  0.60742  Biso   1.000  Ne
  He283    1.0000 0.56497  0.70688  0.57781  Biso   1.000  He
  He284    1.0000 0.53438  0.70203  0.56708  Biso   1.000  He
  Ne284    1.0000 0.53329  0.68876  0.53679  Biso   1.000  Ne
  Ne285    1.0000 0.31023  0.79030  0.58186  Biso   1.000  Ne
  He285    1.0000 0.29676  0.81244  0.60468  Biso   1.000  He
  He286    1.0000 0.27781  0.83599  0.58976  Biso   1.000  He
  Ne286    1.0000 0.26559  0.85968  0.61040  Biso   1.000  Ne
  Ne287    1.0000 0.42694  0.58592  0.94956  Biso   1.000  Ne
  He287    1.0000 0.42428  0.60872  0.92616  Biso   1.000  He
  He288    1.0000 0.39982  0.63102  0.93148  Biso   1.000  He
  Ne288    1.0000 0.39624  0.64806  0.90732  Biso   1.000  Ne
  Ne289    1.0000 0.61868  0.27513  0.74233  Biso   1.000  Ne
  He289    1.0000 0.62988  0.24541  0.74500  Biso   1.000  He
  He290    1.0000 0.62064  0.22686  0.71711  Biso   1.000  He
  Ne290    1.0000 0.62958  0.19593  0.71955  Biso   1.000  Ne
  Ne291    1.0000 0.20848  0.57222  0.61081  Biso   1.000  Ne
  He291    1.0000 0.20112  0.55936  0.63962  Biso   1.000  He
  He292    1.0000 0.22888  0.56239  0.65820  Biso   1.000  He
  Ne292    1.0000 0.22609  0.55246  0.69137  Biso   1.000  Ne
  Ne293    1.0000 0.40809  0.16508  0.69373  Biso   1.000  Ne
  He293    1.0000 0.42132  0.13867  0.70840  Biso   1.000  He
  He294    1.0000 0.43547  0.11513  0.68703  Biso   1.000  He
  Ne294    1.0000 0.44902  0.09068  0.70254  Biso   1.000  Ne
  Ne295    1.0000 0.64444  0.21629  0.62466  Biso   1.000  Ne
  He295    1.0000 0.63469  0.19074  0.60460  Biso   1.000  He
  He296    1.0000 0.61535  0.19656  0.58009  Biso   1.000  He
  Ne296    1.0000 0.60906  0.16934  0.56418  Biso   1.000  Ne
  Ne297    1.0000 0.71537  0.10098  0.65070  Biso   1.000  Ne
  He297    1.0000 0.74303  0.10141  0.66663  Biso   1.000  He
  He298    1.0000 0.76029  0.07086  0.66340  Biso   1.000  He
  Ne298    1.0000 0.78851  0.06984  0.67977  Biso   1.000  Ne
  Ne299    1.0000 0.44984  0.34294  0.06279  Biso   1.000  Ne
  He299    1.0000 0.43401  0.31793  0.07568  Biso   1.000  He
  He300    1.0000 0.40452  0.30920  0.06684  Biso   1.000  He
  Ne300    1.0000 0.39418  0.28133  0.07875  Biso   1.000  Ne
  Ne301    1.0000 0.08673  0.32055  0.61914  Biso   1.000  Ne
  He301    1.0000 0.09515  0.29895  0.64248  Biso   1.000  He
  He302    1.0000 0.12074  0.28000  0.63305  Biso   1.000  He
  Ne302    1.0000 0.13030  0.26093  0.65716  Biso   1.000  Ne
  Ne303    1.0000 0.10496  0.34094  0.72746  Biso   1.000  Ne
  He303    1.0000 0.11706  0.36778  0.71467  Biso   1.000  He
  He304    1.0000 0.12712  0.36193  0.68551  Biso   1.000  He
  Ne304    1.0000 0.13663  0.38942  0.66761  Biso   1.000  Ne
  Ne305    1.0000 0.03456  0.67012  0.90104  Biso   1.000  Ne
  He305    1.0000 0.01138  0.67181  0.92739  Biso   1.000  He
  He306    1.0000 0.02417  0.68195  0.95646  Biso   1.000  He
  Ne306    1.0000 0.99634  0.69075  0.97359  Biso   1.000  Ne
  Ne307    1.0000 0.35993  0.57563  0.12478  Biso   1.000  Ne
  He307    1.0000 0.33895  0.57896  0.10336  Biso   1.000  He
  He308    1.0000 0.31598  0.55436  0.10765  Biso   1.000  He
  Ne308    1.0000 0.29152  0.55900  0.08711  Biso   1.000  Ne
  Ne309    1.0000 0.95938  0.36533  0.26527  Biso   1.000  Ne
  He309    1.0000 0.94166  0.33787  0.27571  Biso   1.000  He
  He310    1.0000 0.94001  0.33038  0.30825  Biso   1.000  He
  Ne310    1.0000 0.92272  0.30084  0.31187  Biso   1.000  Ne
  Ne311    1.0000 0.93978  0.11633  0.82947  Biso   1.000  Ne
  He311    1.0000 0.93683  0.09029  0.84945  Biso   1.000  He
  He312    1.0000 0.93782  0.06283  0.83472  Biso   1.000  He
  Ne312    1.0000 0.93237  0.03765  0.85339  Biso   1.000  Ne
  Ne313    1.0000 0.80297  0.67594  0.96212  Biso   1.000  Ne
  He313    1.0000 0.78882  0.66265  0.93395  Biso   1.000  He
  He314    1.0000 0.76423  0.64026  0.93878  Biso   1.000  He
  Ne314    1.0000 0.74294  0.63875  0.91435  Biso   1.000  Ne
  Ne315    1.0000 0.28639  0.28996  0.91819  Biso   1.000  Ne
  He315    1.0000 0.31839  0.28184  0.92417  Biso   1.000  He
  He316    1.0000 0.33814  0.29861  0.90573  Biso   1.000  He
  Ne316    1.0000 0.36868  0.28847  0.91150  Biso   1.000  Ne
  Ne317    1.0000 0.95111  0.26313  0.24143  Biso   1.000  Ne
  He317    1.0000 0.94720  0.23033  0.24183  Biso   1.000  He
  He318    1.0000 0.94724  0.21477  0.21161  Biso   1.000  He
  Ne318    1.0000 0.93767  0.18511  0.21043  Biso   1.000  Ne
  Ne319    1.0000 0.42436  0.72580  0.17745  Biso   1.000  Ne
  He319    1.0000 0.45745  0.72998  0.17022  Biso   1.000  He
  He320    1.0000 0.46111  0.75390  0.14901  Biso   1.000  He
  Ne320    1.0000 0.49068  0.76547  0.13431  Biso   1.000  Ne
