data_image0
_cell_length_a       46.586
_cell_length_b       46.4903
_cell_length_c       46.5612
_cell_angle_alpha    90
_cell_angle_beta     90
_cell_angle_gamma    90

_symmetry_space_group_name_H-M    "P 1"
_symmetry_int_tables_number       1

loop_
  _symmetry_equiv_pos_as_xyz
  'x, y, z'

loop_
  _atom_site_label
  _atom_site_occupancy
  _atom_site_fract_x
  _atom_site_fract_y
  _atom_site_fract_z
  _atom_site_thermal_displace_type
  _atom_site_B_iso_or_equiv
  _atom_site_type_symbol
  Ne1      1.0000 0.39129  0.17798  0.59342  Biso   1.000  Ne
  He1      1.0000 0.39717  0.15407  0.61485  Biso   1.000  He
  He2      1.0000 0.42254  0.13625  0.61084  Biso   1.000  He
  Ne2      1.0000 0.42751  0.11694  0.63850  Biso   1.000  Ne
  Ne3      1.0000 0.12978  0.38256  0.60873  Biso   1.000  Ne
  He3      1.0000 0.16133  0.38166  0.60300  Biso   1.000  He
  He4      1.0000 0.18012  0.39746  0.62664  Biso   1.000  He
  Ne4      1.0000 0.21318  0.39486  0.62615  Biso   1.000  Ne
  Ne5      1.0000 0.16939  0.89755  0.83656  Biso   1.000  Ne
  He5      1.0000 0.13777  0.89039  0.85323  Biso   1.000  He
  He6      1.0000 0.11326  0.87738  0.83169  Biso   1.000  He
  Ne6      1.0000 0.08654  0.86683  0.84589  Biso   1.000  Ne
  Ne7      1.0000 0.58814  0.18459  0.45238  Biso   1.000  Ne
  He7      1.0000 0.58285  0.20158  0.42337  Biso   1.000  He
  He8      1.0000 0.56356  0.22827  0.42398  Biso   1.000  He
  Ne8      1.0000 0.56648  0.24486  0.39522  Biso   1.000  Ne
  Ne9      1.0000 0.31496  0.08288  0.68244  Biso   1.000  Ne
  He9      1.0000 0.33505  0.05931  0.69547  Biso   1.000  He
  He10     1.0000 0.36805  0.06814  0.68759  Biso   1.000  He
  Ne10     1.0000 0.38957  0.04578  0.70103  Biso   1.000  Ne
  Ne11     1.0000 0.91498  0.87744  0.18564  Biso   1.000  Ne
  He11     1.0000 0.89821  0.84864  0.17544  Biso   1.000  He
  He12     1.0000 0.91434  0.82091  0.18891  Biso   1.000  He
  Ne12     1.0000 0.89670  0.79511  0.18405  Biso   1.000  Ne
  Ne13     1.0000 0.36032  0.36808  0.10053  Biso   1.000  Ne
  He13     1.0000 0.34610  0.36641  0.12867  Biso   1.000  He
  He14     1.0000 0.35453  0.39139  0.14960  Biso   1.000  He
  Ne14     1.0000 0.34630  0.38667  0.18158  Biso   1.000  Ne
  Ne15     1.0000 0.11233  0.04160  0.95158  Biso   1.000  Ne
  He15     1.0000 0.10347  0.03631  0.92162  Biso   1.000  He
  He16     1.0000 0.08986  0.06333  0.90776  Biso   1.000  He
  Ne16     1.0000 0.08464  0.05781  0.87421  Biso   1.000  Ne
  Ne17     1.0000 0.62068  0.56669  0.10985  Biso   1.000  Ne
  He17     1.0000 0.59107  0.57854  0.11145  Biso   1.000  He
  He18     1.0000 0.57951  0.58291  0.08099  Biso   1.000  He
  Ne18     1.0000 0.55055  0.59343  0.08007  Biso   1.000  Ne
  Ne19     1.0000 0.23757  0.88949  0.18047  Biso   1.000  Ne
  He19     1.0000 0.21319  0.86985  0.16590  Biso   1.000  He
  He20     1.0000 0.19650  0.88334  0.14152  Biso   1.000  He
  Ne20     1.0000 0.17623  0.86340  0.12489  Biso   1.000  Ne
  Ne21     1.0000 0.61190  0.75032  0.72029  Biso   1.000  Ne
  He21     1.0000 0.62086  0.77597  0.74157  Biso   1.000  He
  He22     1.0000 0.60898  0.80379  0.73023  Biso   1.000  He
  Ne22     1.0000 0.62835  0.82212  0.71183  Biso   1.000  Ne
  Ne23     1.0000 0.51499  0.74640  0.99304  Biso   1.000  Ne
  He23     1.0000 0.51148  0.77128  0.01340  Biso   1.000  He
  He24     1.0000 0.49686  0.76536  0.04388  Biso   1.000  He
  Ne24     1.0000 0.48571  0.79369  0.06068  Biso   1.000  Ne
  Ne25     1.0000 0.53075  0.04501  0.52973  Biso   1.000  Ne
  He25     1.0000 0.49727  0.05056  0.53236  Biso   1.000  He
  He26     1.0000 0.47706  0.02487  0.52458  Biso   1.000  He
  Ne26     1.0000 0.44526  0.03165  0.51444  Biso   1.000  Ne
  Ne27     1.0000 0.44861  0.45632  0.07942  Biso   1.000  Ne
  He27     1.0000 0.45675  0.43284  0.10005  Biso   1.000  He
  He28     1.0000 0.43617  0.40589  0.10026  Biso   1.000  He
  Ne28     1.0000 0.44402  0.38268  0.12435  Biso   1.000  Ne
  Ne29     1.0000 0.19936  0.84359  0.47436  Biso   1.000  Ne
  He29     1.0000 0.21273  0.84602  0.44522  Biso   1.000  He
  He30     1.0000 0.24212  0.83372  0.44006  Biso   1.000  He
  Ne30     1.0000 0.24685  0.83167  0.40551  Biso   1.000  Ne
  Ne31     1.0000 0.57578  0.05363  0.72402  Biso   1.000  Ne
  He31     1.0000 0.56799  0.06958  0.69538  Biso   1.000  He
  He32     1.0000 0.56473  0.05060  0.66917  Biso   1.000  He
  Ne32     1.0000 0.56048  0.06823  0.64032  Biso   1.000  Ne
  Ne33     1.0000 0.40971  0.28216  0.18872  Biso   1.000  Ne
  He33     1.0000 0.40379  0.31461  0.18581  Biso   1.000  He
  He34     1.0000 0.42571  0.33280  0.20294  Biso   1.000  He
  Ne34     1.0000 0.42234  0.36592  0.19947  Biso   1.000  Ne
  Ne35     1.0000 0.29478  0.65499  0.20860  Biso   1.000  Ne
  He35     1.0000 0.30560  0.66064  0.17921  Biso   1.000  He
  He36     1.0000 0.31302  0.63219  0.15905  Biso   1.000  He
  Ne36     1.0000 0.32627  0.63718  0.12870  Biso   1.000  Ne
  Ne37     1.0000 0.70458  0.09902  0.73395  Biso   1.000  Ne
  He37     1.0000 0.72785  0.07252  0.73766  Biso   1.000  He
  He38     1.0000 0.74589  0.06482  0.71064  Biso   1.000  He
  Ne38     1.0000 0.76633  0.03701  0.71364  Biso   1.000  Ne
  Ne39     1.0000 0.41934  0.94123  0.55356  Biso   1.000  Ne
  He39     1.0000 0.43761  0.91964  0.53638  Biso   1.000  He
  He40     1.0000 0.46829  0.92028  0.54468  Biso   1.000  He
  Ne40     1.0000 0.48606  0.90076  0.52504  Biso   1.000  Ne
  Ne41     1.0000 0.05168  0.68464  0.86610  Biso   1.000  Ne
  He41     1.0000 0.06592  0.66290  0.84566  Biso   1.000  He
  He42     1.0000 0.04352  0.64106  0.83099  Biso   1.000  He
  Ne42     1.0000 0.05873  0.62234  0.80557  Biso   1.000  Ne
  Ne43     1.0000 0.37914  0.04952  0.61118  Biso   1.000  Ne
  He43     1.0000 0.41042  0.04364  0.60182  Biso   1.000  He
  He44     1.0000 0.42898  0.03316  0.62670  Biso   1.000  He
  Ne44     1.0000 0.45809  0.02382  0.61373  Biso   1.000  Ne
  Ne45     1.0000 0.70415  0.30465  0.48860  Biso   1.000  Ne
  He45     1.0000 0.68781  0.32871  0.47205  Biso   1.000  He
  He46     1.0000 0.69481  0.32692  0.43986  Biso   1.000  He
  Ne46     1.0000 0.67910  0.34956  0.42407  Biso   1.000  Ne
  Ne47     1.0000 0.96877  0.98926  0.54882  Biso   1.000  Ne
  He47     1.0000 0.95028  0.01065  0.53135  Biso   1.000  He
  He48     1.0000 0.95755  0.04315  0.53105  Biso   1.000  He
  Ne48     1.0000 0.93658  0.06000  0.51204  Biso   1.000  Ne
  Ne49     1.0000 0.74069  0.19140  0.80832  Biso   1.000  Ne
  He49     1.0000 0.72179  0.18536  0.78038  Biso   1.000  He
  He50     1.0000 0.68890  0.17501  0.78554  Biso   1.000  He
  Ne50     1.0000 0.67390  0.17114  0.75809  Biso   1.000  Ne
  Ne51     1.0000 0.70055  0.99459  0.19689  Biso   1.000  Ne
  He51     1.0000 0.70219  0.98457  0.16384  Biso   1.000  He
  He52     1.0000 0.71630  0.95466  0.16108  Biso   1.000  He
  Ne52     1.0000 0.72136  0.94206  0.13305  Biso   1.000  Ne
  Ne53     1.0000 0.09447  0.15210  0.61889  Biso   1.000  Ne
  He53     1.0000 0.08998  0.16135  0.58733  Biso   1.000  He
  He54     1.0000 0.07437  0.19046  0.58325  Biso   1.000  He
  Ne54     1.0000 0.07256  0.19774  0.55428  Biso   1.000  Ne
  Ne55     1.0000 0.15607  0.65697  0.94613  Biso   1.000  Ne
  He55     1.0000 0.17838  0.68010  0.94104  Biso   1.000  He
  He56     1.0000 0.16514  0.70957  0.93895  Biso   1.000  He
  Ne56     1.0000 0.18740  0.73548  0.93573  Biso   1.000  Ne
  Ne57     1.0000 0.13741  0.10204  0.29394  Biso   1.000  Ne
  He57     1.0000 0.11618  0.07835  0.29801  Biso   1.000  He
  He58     1.0000 0.12295  0.05051  0.28088  Biso   1.000  He
  Ne58     1.0000 0.09882  0.02668  0.28214  Biso   1.000  Ne
  Ne59     1.0000 0.68645  0.60721  0.71506  Biso   1.000  Ne
  He59     1.0000 0.69223  0.64008  0.71264  Biso   1.000  He
  He60     1.0000 0.69270  0.65184  0.74240  Biso   1.000  He
  Ne60     1.0000 0.69320  0.68580  0.74281  Biso   1.000  Ne
  Ne61     1.0000 0.51495  0.51302  0.09709  Biso   1.000  Ne
  He61     1.0000 0.49244  0.53402  0.08823  Biso   1.000  He
  He62     1.0000 0.47648  0.52463  0.06016  Biso   1.000  He
  Ne62     1.0000 0.45243  0.54606  0.05320  Biso   1.000  Ne
  Ne63     1.0000 0.54813  0.19106  0.01893  Biso   1.000  Ne
  He63     1.0000 0.51992  0.19602  0.03424  Biso   1.000  He
  He64     1.0000 0.49844  0.17095  0.03547  Biso   1.000  He
  Ne64     1.0000 0.47175  0.18099  0.05117  Biso   1.000  Ne
  Ne65     1.0000 0.86767  0.78228  0.89371  Biso   1.000  Ne
  He65     1.0000 0.89460  0.76427  0.89581  Biso   1.000  He
  He66     1.0000 0.90412  0.76101  0.92883  Biso   1.000  He
  Ne66     1.0000 0.91940  0.73123  0.93435  Biso   1.000  Ne
  Ne67     1.0000 0.58563  0.04726  0.28340  Biso   1.000  Ne
  He67     1.0000 0.59169  0.06667  0.30774  Biso   1.000  He
  He68     1.0000 0.58759  0.05549  0.33948  Biso   1.000  He
  Ne68     1.0000 0.59041  0.07842  0.36188  Biso   1.000  Ne
  Ne69     1.0000 0.30455  0.55086  0.15238  Biso   1.000  Ne
  He69     1.0000 0.30543  0.54644  0.18543  Biso   1.000  He
  He70     1.0000 0.33551  0.55293  0.19880  Biso   1.000  He
  Ne70     1.0000 0.34151  0.58503  0.20952  Biso   1.000  Ne
  Ne71     1.0000 0.41833  0.84625  0.24306  Biso   1.000  Ne
  He71     1.0000 0.41703  0.86907  0.26766  Biso   1.000  He
  He72     1.0000 0.44136  0.86747  0.29010  Biso   1.000  He
  Ne72     1.0000 0.44022  0.88753  0.31574  Biso   1.000  Ne
  Ne73     1.0000 0.06954  0.23268  0.71031  Biso   1.000  Ne
  He73     1.0000 0.09122  0.20755  0.71489  Biso   1.000  He
  He74     1.0000 0.07614  0.18149  0.73168  Biso   1.000  He
  Ne74     1.0000 0.09461  0.15573  0.74071  Biso   1.000  Ne
  Ne75     1.0000 0.95696  0.53346  0.58849  Biso   1.000  Ne
  He75     1.0000 0.95005  0.56464  0.57985  Biso   1.000  He
  He76     1.0000 0.92677  0.58032  0.59863  Biso   1.000  He
  Ne76     1.0000 0.92171  0.61247  0.58897  Biso   1.000  Ne
  Ne77     1.0000 0.57461  0.06965  0.46046  Biso   1.000  Ne
  He77     1.0000 0.57808  0.03900  0.46599  Biso   1.000  He
  He78     1.0000 0.59910  0.03203  0.48909  Biso   1.000  He
  Ne78     1.0000 0.60565  0.00151  0.49084  Biso   1.000  Ne
  Ne79     1.0000 0.98081  0.45788  0.43051  Biso   1.000  Ne
  He79     1.0000 0.98818  0.43706  0.45438  Biso   1.000  He
  He80     1.0000 0.01265  0.41431  0.44809  Biso   1.000  He
  Ne80     1.0000 0.01085  0.38913  0.46723  Biso   1.000  Ne
  Ne81     1.0000 0.46197  0.25090  0.68115  Biso   1.000  Ne
  He81     1.0000 0.47934  0.25039  0.65214  Biso   1.000  He
  He82     1.0000 0.45494  0.24802  0.62899  Biso   1.000  He
  Ne82     1.0000 0.46804  0.24804  0.59704  Biso   1.000  Ne
  Ne83     1.0000 0.84542  0.52047  0.14671  Biso   1.000  Ne
  He83     1.0000 0.86965  0.50327  0.16175  Biso   1.000  He
  He84     1.0000 0.85888  0.48257  0.18356  Biso   1.000  He
  Ne84     1.0000 0.88318  0.46976  0.20196  Biso   1.000  Ne
  Ne85     1.0000 0.59833  0.67356  0.87816  Biso   1.000  Ne
  He85     1.0000 0.58366  0.66633  0.90859  Biso   1.000  He
  He86     1.0000 0.59657  0.64028  0.92324  Biso   1.000  He
  Ne86     1.0000 0.58271  0.63433  0.95372  Biso   1.000  Ne
  Ne87     1.0000 0.25012  0.07209  0.08075  Biso   1.000  Ne
  He87     1.0000 0.21843  0.06706  0.09238  Biso   1.000  He
  He88     1.0000 0.21570  0.05567  0.12284  Biso   1.000  He
  Ne88     1.0000 0.18413  0.04890  0.12928  Biso   1.000  Ne
  Ne89     1.0000 0.69757  0.86079  0.12931  Biso   1.000  Ne
  He89     1.0000 0.72501  0.84341  0.12424  Biso   1.000  He
  He90     1.0000 0.74863  0.86000  0.10765  Biso   1.000  He
  Ne90     1.0000 0.78074  0.85016  0.11352  Biso   1.000  Ne
  Ne91     1.0000 0.77889  0.31358  0.91020  Biso   1.000  Ne
  He91     1.0000 0.77951  0.33600  0.88476  Biso   1.000  He
  He92     1.0000 0.78377  0.31856  0.85572  Biso   1.000  He
  Ne92     1.0000 0.77811  0.33329  0.82699  Biso   1.000  Ne
  Ne93     1.0000 0.44095  0.39225  0.41210  Biso   1.000  Ne
  He93     1.0000 0.41535  0.38502  0.42674  Biso   1.000  He
  He94     1.0000 0.39617  0.36477  0.40970  Biso   1.000  He
  Ne94     1.0000 0.36273  0.36212  0.41835  Biso   1.000  Ne
  Ne95     1.0000 0.32965  0.89988  0.22632  Biso   1.000  Ne
  He95     1.0000 0.30358  0.88810  0.24607  Biso   1.000  He
  He96     1.0000 0.29289  0.86066  0.23762  Biso   1.000  He
  Ne96     1.0000 0.26082  0.85608  0.24566  Biso   1.000  Ne
  Ne97     1.0000 0.59247  0.91849  0.49785  Biso   1.000  Ne
  He97     1.0000 0.59899  0.92699  0.46701  Biso   1.000  He
  He98     1.0000 0.58741  0.90580  0.44243  Biso   1.000  He
  Ne98     1.0000 0.55764  0.91277  0.42899  Biso   1.000  Ne
  Ne99     1.0000 0.74573  0.20483  0.24875  Biso   1.000  Ne
  He99     1.0000 0.74250  0.22947  0.22614  Biso   1.000  He
  He100    1.0000 0.73212  0.25789  0.23863  Biso   1.000  He
  Ne100    1.0000 0.72522  0.28119  0.21775  Biso   1.000  Ne
  Ne101    1.0000 0.92243  0.28473  0.60119  Biso   1.000  Ne
  He101    1.0000 0.91191  0.30462  0.62393  Biso   1.000  He
  He102    1.0000 0.92351  0.29990  0.65491  Biso   1.000  He
  Ne102    1.0000 0.90995  0.32396  0.67557  Biso   1.000  Ne
  Ne103    1.0000 0.16735  0.40181  0.79507  Biso   1.000  Ne
  He103    1.0000 0.14675  0.37592  0.79572  Biso   1.000  He
  He104    1.0000 0.14543  0.36301  0.82557  Biso   1.000  He
  Ne104    1.0000 0.13180  0.33253  0.82538  Biso   1.000  Ne
  Ne105    1.0000 0.20102  0.54019  0.00999  Biso   1.000  Ne
  He105    1.0000 0.20403  0.52274  0.03811  Biso   1.000  He
  He106    1.0000 0.21366  0.49022  0.03549  Biso   1.000  He
  Ne106    1.0000 0.21661  0.47161  0.06455  Biso   1.000  Ne
  Ne107    1.0000 0.56719  0.14760  0.78421  Biso   1.000  Ne
  He107    1.0000 0.57456  0.11243  0.78023  Biso   1.000  He
  He108    1.0000 0.56893  0.09534  0.80844  Biso   1.000  He
  Ne108    1.0000 0.57374  0.06352  0.80854  Biso   1.000  Ne
  Ne109    1.0000 0.94548  0.29587  0.25408  Biso   1.000  Ne
  He109    1.0000 0.94823  0.28040  0.22263  Biso   1.000  He
  He110    1.0000 0.94107  0.24672  0.22347  Biso   1.000  He
  Ne110    1.0000 0.94311  0.22681  0.19801  Biso   1.000  Ne
  Ne111    1.0000 0.86510  0.39840  0.65954  Biso   1.000  Ne
  He111    1.0000 0.86119  0.39734  0.62884  Biso   1.000  He
  He112    1.0000 0.86479  0.36748  0.61713  Biso   1.000  He
  Ne112    1.0000 0.86361  0.36400  0.58332  Biso   1.000  Ne
  Ne113    1.0000 0.70914  0.68068  0.91336  Biso   1.000  Ne
  He113    1.0000 0.70760  0.66986  0.88029  Biso   1.000  He
  He114    1.0000 0.67577  0.65918  0.87294  Biso   1.000  He
  Ne114    1.0000 0.66823  0.64967  0.84128  Biso   1.000  Ne
  Ne115    1.0000 0.92923  0.29064  0.33964  Biso   1.000  Ne
  He115    1.0000 0.90460  0.27473  0.35716  Biso   1.000  He
  He116    1.0000 0.91616  0.26302  0.38468  Biso   1.000  He
  Ne116    1.0000 0.89347  0.24462  0.39822  Biso   1.000  Ne
  Ne117    1.0000 0.13438  0.06278  0.72725  Biso   1.000  Ne
  He117    1.0000 0.13523  0.06862  0.76159  Biso   1.000  He
  He118    1.0000 0.16033  0.05240  0.77635  Biso   1.000  He
  Ne118    1.0000 0.16010  0.06103  0.81014  Biso   1.000  Ne
  Ne119    1.0000 0.92956  0.95303  0.95366  Biso   1.000  Ne
  He119    1.0000 0.92878  0.95417  0.98727  Biso   1.000  He
  He120    1.0000 0.92152  0.98543  0.00003  Biso   1.000  He
  Ne120    1.0000 0.92196  0.98925  0.03377  Biso   1.000  Ne
  Ne121    1.0000 0.68793  0.15798  0.61050  Biso   1.000  Ne
  He121    1.0000 0.69810  0.19028  0.61529  Biso   1.000  He
  He122    1.0000 0.69148  0.20138  0.64781  Biso   1.000  He
  Ne122    1.0000 0.70012  0.23328  0.66005  Biso   1.000  Ne
  Ne123    1.0000 0.31271  0.28114  0.08886  Biso   1.000  Ne
  He123    1.0000 0.28020  0.29211  0.09307  Biso   1.000  He
  He124    1.0000 0.27501  0.30040  0.12507  Biso   1.000  He
  Ne124    1.0000 0.24374  0.30554  0.13169  Biso   1.000  Ne
  Ne125    1.0000 0.40771  0.74050  0.04800  Biso   1.000  Ne
  He125    1.0000 0.40120  0.73470  0.08061  Biso   1.000  He
  He126    1.0000 0.41823  0.74950  0.10435  Biso   1.000  He
  Ne126    1.0000 0.40565  0.74221  0.13239  Biso   1.000  Ne
  Ne127    1.0000 0.09568  0.64035  0.61122  Biso   1.000  Ne
  He127    1.0000 0.09342  0.65171  0.64234  Biso   1.000  He
  He128    1.0000 0.09215  0.62652  0.66504  Biso   1.000  He
  Ne128    1.0000 0.08857  0.63446  0.69690  Biso   1.000  Ne
  Ne129    1.0000 0.93107  0.73654  0.65174  Biso   1.000  Ne
  He129    1.0000 0.92723  0.72163  0.61975  Biso   1.000  He
  He130    1.0000 0.90795  0.73791  0.59676  Biso   1.000  He
  Ne130    1.0000 0.91358  0.73137  0.56457  Biso   1.000  Ne
  Ne131    1.0000 0.54702  0.42873  0.91342  Biso   1.000  Ne
  He131    1.0000 0.57134  0.40880  0.92105  Biso   1.000  He
  He132    1.0000 0.56503  0.38952  0.94741  Biso   1.000  He
  Ne132    1.0000 0.59279  0.37453  0.95822  Biso   1.000  Ne
  Ne133    1.0000 0.07554  0.39638  0.75390  Biso   1.000  Ne
  He133    1.0000 0.08668  0.38148  0.72574  Biso   1.000  He
  He134    1.0000 0.06639  0.38587  0.70165  Biso   1.000  He
  Ne134    1.0000 0.07804  0.37118  0.67300  Biso   1.000  Ne
  Ne135    1.0000 0.42419  0.60353  0.16780  Biso   1.000  Ne
  He135    1.0000 0.41478  0.62610  0.14626  Biso   1.000  He
  He136    1.0000 0.40331  0.61485  0.11748  Biso   1.000  He
  Ne136    1.0000 0.40771  0.64082  0.09661  Biso   1.000  Ne
  Ne137    1.0000 0.62261  0.72000  0.37515  Biso   1.000  Ne
  He137    1.0000 0.64805  0.72932  0.39278  Biso   1.000  He
  He138    1.0000 0.67775  0.72434  0.38074  Biso   1.000  He
  Ne138    1.0000 0.70284  0.73430  0.40087  Biso   1.000  Ne
  Ne139    1.0000 0.49868  0.49898  0.71719  Biso   1.000  Ne
  He139    1.0000 0.48337  0.47223  0.72861  Biso   1.000  He
  He140    1.0000 0.45155  0.47384  0.73510  Biso   1.000  He
  Ne140    1.0000 0.44071  0.44751  0.75354  Biso   1.000  Ne
  Ne141    1.0000 0.83469  0.70615  0.66552  Biso   1.000  Ne
  He141    1.0000 0.83645  0.70734  0.63015  Biso   1.000  He
  He142    1.0000 0.82600  0.68169  0.61413  Biso   1.000  He
  Ne142    1.0000 0.83161  0.68497  0.57956  Biso   1.000  Ne
  Ne143    1.0000 0.82016  0.19332  0.85109  Biso   1.000  Ne
  He143    1.0000 0.83628  0.18607  0.88034  Biso   1.000  He
  He144    1.0000 0.82435  0.19847  0.90699  Biso   1.000  He
  Ne144    1.0000 0.84023  0.18959  0.93582  Biso   1.000  Ne
  Ne145    1.0000 0.51360  0.99762  0.44249  Biso   1.000  Ne
  He145    1.0000 0.50123  0.96759  0.44817  Biso   1.000  He
  He146    1.0000 0.47016  0.96281  0.43558  Biso   1.000  He
  Ne146    1.0000 0.45761  0.93387  0.44472  Biso   1.000  Ne
  Ne147    1.0000 0.67431  0.38687  0.10281  Biso   1.000  Ne
  He147    1.0000 0.69381  0.35947  0.09150  Biso   1.000  He
  He148    1.0000 0.71880  0.35166  0.11575  Biso   1.000  He
  Ne148    1.0000 0.73420  0.32429  0.11131  Biso   1.000  Ne
  Ne149    1.0000 0.68581  0.89394  0.44228  Biso   1.000  Ne
  He149    1.0000 0.66789  0.86572  0.44061  Biso   1.000  He
  He150    1.0000 0.67879  0.84279  0.42137  Biso   1.000  He
  Ne150    1.0000 0.66086  0.81534  0.42087  Biso   1.000  Ne
  Ne151    1.0000 0.72606  0.57605  0.10504  Biso   1.000  Ne
  He151    1.0000 0.73248  0.54836  0.08826  Biso   1.000  He
  He152    1.0000 0.75931  0.54910  0.06535  Biso   1.000  He
  Ne152    1.0000 0.76871  0.52000  0.05489  Biso   1.000  Ne
  Ne153    1.0000 0.89814  0.65364  0.24321  Biso   1.000  Ne
  He153    1.0000 0.89976  0.65861  0.21146  Biso   1.000  He
  He154    1.0000 0.91815  0.68234  0.20020  Biso   1.000  He
  Ne154    1.0000 0.91598  0.68512  0.16829  Biso   1.000  Ne
  Ne155    1.0000 0.59849  0.29938  0.92804  Biso   1.000  Ne
  He155    1.0000 0.62951  0.30356  0.93655  Biso   1.000  He
  He156    1.0000 0.65023  0.30242  0.91137  Biso   1.000  He
  Ne156    1.0000 0.68153  0.31026  0.92269  Biso   1.000  Ne
  Ne157    1.0000 0.33821  0.87813  0.34269  Biso   1.000  Ne
  He157    1.0000 0.32696  0.88696  0.37505  Biso   1.000  He
  He158    1.0000 0.35208  0.89921  0.39185  Biso   1.000  He
  Ne158    1.0000 0.34637  0.90539  0.42322  Biso   1.000  Ne
  Ne159    1.0000 0.13617  0.71602  0.71558  Biso   1.000  Ne
  He159    1.0000 0.15889  0.72586  0.69331  Biso   1.000  He
  He160    1.0000 0.18954  0.73166  0.70712  Biso   1.000  He
  Ne160    1.0000 0.21427  0.73945  0.68770  Biso   1.000  Ne
  Ne161    1.0000 0.83714  0.26328  0.59292  Biso   1.000  Ne
  He161    1.0000 0.80892  0.24388  0.59828  Biso   1.000  He
  He162    1.0000 0.80649  0.23310  0.63036  Biso   1.000  He
  Ne162    1.0000 0.78318  0.20770  0.63701  Biso   1.000  Ne
  Ne163    1.0000 0.71239  0.22698  0.07479  Biso   1.000  Ne
  He163    1.0000 0.74135  0.21646  0.09163  Biso   1.000  He
  He164    1.0000 0.74693  0.23158  0.12264  Biso   1.000  He
  Ne164    1.0000 0.77226  0.22389  0.13736  Biso   1.000  Ne
  Ne165    1.0000 0.54227  0.30333  0.62835  Biso   1.000  Ne
  He165    1.0000 0.56155  0.27593  0.62652  Biso   1.000  He
  He166    1.0000 0.55671  0.25296  0.60279  Biso   1.000  He
  Ne166    1.0000 0.57773  0.22665  0.60365  Biso   1.000  Ne
  Ne167    1.0000 0.29887  0.37530  0.86018  Biso   1.000  Ne
  He167    1.0000 0.27693  0.34856  0.85476  Biso   1.000  He
  He168    1.0000 0.26904  0.34451  0.82342  Biso   1.000  He
  Ne168    1.0000 0.23974  0.33158  0.81931  Biso   1.000  Ne
  Ne169    1.0000 0.89643  0.07478  0.09882  Biso   1.000  Ne
  He169    1.0000 0.87868  0.05989  0.11988  Biso   1.000  He
  He170    1.0000 0.85275  0.07884  0.13292  Biso   1.000  He
  Ne170    1.0000 0.83358  0.06446  0.15590  Biso   1.000  Ne
  Ne171    1.0000 0.69709  0.75901  0.08706  Biso   1.000  Ne
  He171    1.0000 0.72555  0.76878  0.10237  Biso   1.000  He
  He172    1.0000 0.73166  0.75352  0.13218  Biso   1.000  He
  Ne172    1.0000 0.75963  0.76250  0.14969  Biso   1.000  Ne
  Ne173    1.0000 0.71072  0.50456  0.55536  Biso   1.000  Ne
  He173    1.0000 0.71533  0.49226  0.52564  Biso   1.000  He
  He174    1.0000 0.71178  0.45816  0.52613  Biso   1.000  He
  Ne174    1.0000 0.71776  0.44601  0.49755  Biso   1.000  Ne
  Ne175    1.0000 0.16373  0.76902  0.60494  Biso   1.000  Ne
  He175    1.0000 0.18952  0.78763  0.60409  Biso   1.000  He
  He176    1.0000 0.21220  0.77861  0.57999  Biso   1.000  He
  Ne176    1.0000 0.23676  0.80136  0.57587  Biso   1.000  Ne
  Ne177    1.0000 0.59113  0.34871  0.19270  Biso   1.000  Ne
  He177    1.0000 0.61420  0.32969  0.17985  Biso   1.000  He
  He178    1.0000 0.60352  0.29915  0.18069  Biso   1.000  He
  Ne178    1.0000 0.62608  0.27743  0.17077  Biso   1.000  Ne
  Ne179    1.0000 0.09876  0.55583  0.74732  Biso   1.000  Ne
  He179    1.0000 0.12088  0.57953  0.75842  Biso   1.000  He
  He180    1.0000 0.13253  0.57520  0.79032  Biso   1.000  He
  Ne180    1.0000 0.16084  0.59064  0.79636  Biso   1.000  Ne
  Ne181    1.0000 0.58545  0.79035  0.35551  Biso   1.000  Ne
  He181    1.0000 0.57913  0.81320  0.37864  Biso   1.000  He
  He182    1.0000 0.58306  0.80958  0.41163  Biso   1.000  He
  Ne182    1.0000 0.57305  0.83234  0.43148  Biso   1.000  Ne
  Ne183    1.0000 0.96232  0.91651  0.04809  Biso   1.000  Ne
  He183    1.0000 0.93532  0.90321  0.06458  Biso   1.000  He
  He184    1.0000 0.91679  0.92332  0.08192  Biso   1.000  He
  Ne184    1.0000 0.89008  0.90805  0.09552  Biso   1.000  Ne
  Ne185    1.0000 0.37554  0.69993  0.71341  Biso   1.000  Ne
  He185    1.0000 0.39529  0.72677  0.71896  Biso   1.000  He
  He186    1.0000 0.38197  0.75190  0.73708  Biso   1.000  He
  Ne186    1.0000 0.40172  0.78097  0.73659  Biso   1.000  Ne
  Ne187    1.0000 0.59490  0.46536  0.96927  Biso   1.000  Ne
  He187    1.0000 0.57824  0.44976  0.99317  Biso   1.000  He
  He188    1.0000 0.55289  0.46335  0.00320  Biso   1.000  He
  Ne188    1.0000 0.53617  0.44135  0.02517  Biso   1.000  Ne
  Ne189    1.0000 0.90296  0.92441  0.71279  Biso   1.000  Ne
  He189    1.0000 0.89212  0.92394  0.74308  Biso   1.000  He
  He190    1.0000 0.91699  0.91783  0.76272  Biso   1.000  He
  Ne190    1.0000 0.91136  0.91581  0.79502  Biso   1.000  Ne
  Ne191    1.0000 0.46794  0.15078  0.23522  Biso   1.000  Ne
  He191    1.0000 0.44940  0.17126  0.25456  Biso   1.000  He
  He192    1.0000 0.44683  0.19868  0.24226  Biso   1.000  He
  Ne192    1.0000 0.43077  0.21950  0.26310  Biso   1.000  Ne
  Ne193    1.0000 0.95496  0.10147  0.31046  Biso   1.000  Ne
  He193    1.0000 0.96226  0.07250  0.29429  Biso   1.000  He
  He194    1.0000 0.94198  0.04773  0.29961  Biso   1.000  He
  Ne194    1.0000 0.94814  0.01891  0.28425  Biso   1.000  Ne
  Ne195    1.0000 0.73324  0.06529  0.82067  Biso   1.000  Ne
  He195    1.0000 0.75735  0.08075  0.83952  Biso   1.000  He
  He196    1.0000 0.78928  0.06748  0.83565  Biso   1.000  He
  Ne196    1.0000 0.81307  0.08646  0.85042  Biso   1.000  Ne
  Ne197    1.0000 0.10464  0.17942  0.10100  Biso   1.000  Ne
  He197    1.0000 0.13329  0.16811  0.09666  Biso   1.000  He
  He198    1.0000 0.14907  0.15563  0.12461  Biso   1.000  He
  Ne198    1.0000 0.17922  0.14333  0.11815  Biso   1.000  Ne
  Ne199    1.0000 0.16634  0.61445  0.25651  Biso   1.000  Ne
  He199    1.0000 0.18710  0.63665  0.27465  Biso   1.000  He
  He200    1.0000 0.21944  0.62860  0.27415  Biso   1.000  He
  Ne200    1.0000 0.23719  0.64896  0.29135  Biso   1.000  Ne
  Ne201    1.0000 0.79315  0.06260  0.95573  Biso   1.000  Ne
  He201    1.0000 0.82210  0.06748  0.94048  Biso   1.000  He
  He202    1.0000 0.83938  0.09516  0.94830  Biso   1.000  He
  Ne202    1.0000 0.86163  0.10492  0.92461  Biso   1.000  Ne
  Ne203    1.0000 0.88255  0.08794  0.79809  Biso   1.000  Ne
  He203    1.0000 0.90141  0.07717  0.82014  Biso   1.000  He
  He204    1.0000 0.90280  0.09659  0.84561  Biso   1.000  He
  Ne204    1.0000 0.91733  0.08077  0.87137  Biso   1.000  Ne
  Ne205    1.0000 0.09916  0.67515  0.35953  Biso   1.000  Ne
  He205    1.0000 0.08394  0.66519  0.38693  Biso   1.000  He
  He206    1.0000 0.10341  0.67082  0.41546  Biso   1.000  He
  Ne206    1.0000 0.08560  0.66286  0.44269  Biso   1.000  Ne
  Ne207    1.0000 0.95080  0.42358  0.60540  Biso   1.000  Ne
  He207    1.0000 0.95032  0.42629  0.57256  Biso   1.000  He
  He208    1.0000 0.93183  0.40267  0.55772  Biso   1.000  He
  Ne208    1.0000 0.93391  0.40425  0.52507  Biso   1.000  Ne
  Ne209    1.0000 0.00013  0.67320  0.13089  Biso   1.000  Ne
  He209    1.0000 0.02010  0.68565  0.10592  Biso   1.000  He
  He210    1.0000 0.04134  0.70858  0.11726  Biso   1.000  He
  Ne210    1.0000 0.05622  0.72415  0.09099  Biso   1.000  Ne
  Ne211    1.0000 0.62426  0.28342  0.77418  Biso   1.000  Ne
  He211    1.0000 0.63736  0.26393  0.79741  Biso   1.000  He
  He212    1.0000 0.66242  0.27542  0.81925  Biso   1.000  He
  Ne212    1.0000 0.66975  0.25483  0.84366  Biso   1.000  Ne
  Ne213    1.0000 0.42020  0.14574  0.33197  Biso   1.000  Ne
  He213    1.0000 0.40386  0.12104  0.31492  Biso   1.000  He
  He214    1.0000 0.42747  0.10044  0.29877  Biso   1.000  He
  Ne214    1.0000 0.41428  0.08347  0.27238  Biso   1.000  Ne
  Ne215    1.0000 0.22990  0.63946  0.41311  Biso   1.000  Ne
  He215    1.0000 0.21534  0.60930  0.41710  Biso   1.000  He
  He216    1.0000 0.21117  0.60249  0.44958  Biso   1.000  He
  Ne216    1.0000 0.20197  0.57253  0.45880  Biso   1.000  Ne
  Ne217    1.0000 0.88422  0.64698  0.70930  Biso   1.000  Ne
  He217    1.0000 0.89217  0.61326  0.71027  Biso   1.000  He
  He218    1.0000 0.91997  0.60322  0.72511  Biso   1.000  He
  Ne218    1.0000 0.91969  0.57064  0.72964  Biso   1.000  Ne
  Ne219    1.0000 0.93792  0.13426  0.94352  Biso   1.000  Ne
  He219    1.0000 0.93440  0.16770  0.93275  Biso   1.000  He
  He220    1.0000 0.92010  0.17381  0.90388  Biso   1.000  He
  Ne220    1.0000 0.91175  0.20696  0.89796  Biso   1.000  Ne
  Ne221    1.0000 0.69300  0.68979  0.16881  Biso   1.000  Ne
  He221    1.0000 0.68481  0.67088  0.14082  Biso   1.000  He
  He222    1.0000 0.65614  0.68053  0.12151  Biso   1.000  He
  Ne222    1.0000 0.64941  0.65824  0.09678  Biso   1.000  Ne
  Ne223    1.0000 0.65014  0.08673  0.45140  Biso   1.000  Ne
  He223    1.0000 0.64260  0.11577  0.43827  Biso   1.000  He
  He224    1.0000 0.66288  0.14047  0.44742  Biso   1.000  He
  Ne224    1.0000 0.66139  0.16719  0.42839  Biso   1.000  Ne
  Ne225    1.0000 0.62609  0.15845  0.35488  Biso   1.000  Ne
  He225    1.0000 0.62887  0.18080  0.33040  Biso   1.000  He
  He226    1.0000 0.62015  0.21333  0.34060  Biso   1.000  He
  Ne226    1.0000 0.63025  0.23988  0.32034  Biso   1.000  Ne
  Ne227    1.0000 0.89418  0.63804  0.83181  Biso   1.000  Ne
  He227    1.0000 0.87677  0.63816  0.86128  Biso   1.000  He
  He228    1.0000 0.88836  0.66280  0.88169  Biso   1.000  He
  Ne228    1.0000 0.87363  0.66175  0.91091  Biso   1.000  Ne
  Ne229    1.0000 0.59988  0.88633  0.34772  Biso   1.000  Ne
  He229    1.0000 0.62905  0.89783  0.36081  Biso   1.000  He
  He230    1.0000 0.65274  0.90380  0.33872  Biso   1.000  He
  Ne230    1.0000 0.68463  0.91019  0.34943  Biso   1.000  Ne
  Ne231    1.0000 0.20057  0.03332  0.28610  Biso   1.000  Ne
  He231    1.0000 0.21979  0.04591  0.26289  Biso   1.000  He
  He232    1.0000 0.20690  0.04007  0.23359  Biso   1.000  He
  Ne232    1.0000 0.22728  0.04803  0.20989  Biso   1.000  Ne
  Ne233    1.0000 0.25744  0.07036  0.38417  Biso   1.000  Ne
  He233    1.0000 0.25466  0.10170  0.37645  Biso   1.000  He
  He234    1.0000 0.26371  0.12316  0.40143  Biso   1.000  He
  Ne234    1.0000 0.26276  0.15612  0.39554  Biso   1.000  Ne
  Ne235    1.0000 0.43645  0.43178  0.96953  Biso   1.000  Ne
  He235    1.0000 0.41377  0.45563  0.98348  Biso   1.000  He
  He236    1.0000 0.42413  0.48764  0.98459  Biso   1.000  He
  Ne236    1.0000 0.40169  0.50855  0.99621  Biso   1.000  Ne
  Ne237    1.0000 0.86594  0.29105  0.01539  Biso   1.000  Ne
  He237    1.0000 0.90052  0.28606  0.01124  Biso   1.000  He
  He238    1.0000 0.91294  0.27746  0.03873  Biso   1.000  He
  Ne238    1.0000 0.94645  0.27731  0.03969  Biso   1.000  Ne
  Ne239    1.0000 0.86511  0.59945  0.16388  Biso   1.000  Ne
  He239    1.0000 0.87689  0.59117  0.13440  Biso   1.000  He
  He240    1.0000 0.86185  0.60525  0.10902  Biso   1.000  He
  Ne240    1.0000 0.87301  0.59388  0.07732  Biso   1.000  Ne
  Ne241    1.0000 0.70700  0.00043  0.07650  Biso   1.000  Ne
  He241    1.0000 0.71668  0.01827  0.10065  Biso   1.000  He
  He242    1.0000 0.74283  0.03846  0.09121  Biso   1.000  He
  Ne242    1.0000 0.74957  0.06248  0.11444  Biso   1.000  Ne
  Ne243    1.0000 0.86719  0.56353  0.31281  Biso   1.000  Ne
  He243    1.0000 0.85045  0.55044  0.29016  Biso   1.000  He
  He244    1.0000 0.83986  0.57174  0.26972  Biso   1.000  He
  Ne244    1.0000 0.82413  0.55949  0.24200  Biso   1.000  Ne
  Ne245    1.0000 0.87766  0.44289  0.06475  Biso   1.000  Ne
  He245    1.0000 0.84454  0.44672  0.06355  Biso   1.000  He
  He246    1.0000 0.82743  0.42100  0.07575  Biso   1.000  He
  Ne246    1.0000 0.79568  0.42771  0.08160  Biso   1.000  Ne
  Ne247    1.0000 0.28561  0.17548  0.59605  Biso   1.000  Ne
  He247    1.0000 0.26451  0.17421  0.57256  Biso   1.000  He
  He248    1.0000 0.24622  0.14634  0.57156  Biso   1.000  He
  Ne248    1.0000 0.22469  0.14291  0.54660  Biso   1.000  Ne
  Ne249    1.0000 0.08090  0.38004  0.37499  Biso   1.000  Ne
  He249    1.0000 0.09488  0.39296  0.34839  Biso   1.000  He
  He250    1.0000 0.09875  0.37002  0.32470  Biso   1.000  He
  Ne250    1.0000 0.11550  0.38191  0.29967  Biso   1.000  Ne
  Ne251    1.0000 0.92389  0.56193  0.23232  Biso   1.000  Ne
  He251    1.0000 0.94634  0.58771  0.23424  Biso   1.000  He
  He252    1.0000 0.95474  0.59903  0.20429  Biso   1.000  He
  Ne252    1.0000 0.97880  0.62396  0.20302  Biso   1.000  Ne
  Ne253    1.0000 0.39382  0.73125  0.91633  Biso   1.000  Ne
  He253    1.0000 0.40778  0.70499  0.90191  Biso   1.000  He
  He254    1.0000 0.39143  0.67631  0.90408  Biso   1.000  He
  Ne254    1.0000 0.40043  0.65127  0.88536  Biso   1.000  Ne
  Ne255    1.0000 0.30173  0.47201  0.69213  Biso   1.000  Ne
  He255    1.0000 0.32776  0.47449  0.71287  Biso   1.000  He
  He256    1.0000 0.33807  0.44301  0.72067  Biso   1.000  He
  Ne256    1.0000 0.36027  0.43966  0.74238  Biso   1.000  Ne
  Ne257    1.0000 0.39011  0.21171  0.08756  Biso   1.000  Ne
  He257    1.0000 0.38874  0.24535  0.08378  Biso   1.000  He
  He258    1.0000 0.41456  0.26278  0.09413  Biso   1.000  He
  Ne258    1.0000 0.41153  0.29606  0.08946  Biso   1.000  Ne
  Ne259    1.0000 0.74117  0.84837  0.61743  Biso   1.000  Ne
  He259    1.0000 0.72693  0.81821  0.61197  Biso   1.000  He
  He260    1.0000 0.72779  0.80767  0.58049  Biso   1.000  He
  Ne260    1.0000 0.71164  0.77938  0.57653  Biso   1.000  Ne
  Ne261    1.0000 0.84397  0.76782  0.11635  Biso   1.000  Ne
  He261    1.0000 0.87395  0.77067  0.10113  Biso   1.000  He
  He262    1.0000 0.88545  0.74307  0.08716  Biso   1.000  He
  Ne262    1.0000 0.91326  0.74793  0.07282  Biso   1.000  Ne
  Ne263    1.0000 0.02991  0.42680  0.21270  Biso   1.000  Ne
  He263    1.0000 0.05719  0.40682  0.21962  Biso   1.000  He
  He264    1.0000 0.05523  0.37950  0.20028  Biso   1.000  He
  Ne264    1.0000 0.08097  0.35723  0.20315  Biso   1.000  Ne
  Ne265    1.0000 0.40654  0.05508  0.37909  Biso   1.000  Ne
  He265    1.0000 0.43528  0.06292  0.39625  Biso   1.000  He
  He266    1.0000 0.42825  0.07054  0.42559  Biso   1.000  He
  Ne266    1.0000 0.45360  0.08153  0.44568  Biso   1.000  Ne
  Ne267    1.0000 0.23586  0.50892  0.19165  Biso   1.000  Ne
  He267    1.0000 0.20448  0.50869  0.18545  Biso   1.000  He
  He268    1.0000 0.18962  0.50994  0.21406  Biso   1.000  He
  Ne268    1.0000 0.15646  0.51399  0.21288  Biso   1.000  Ne
  Ne269    1.0000 0.64287  0.14176  0.68825  Biso   1.000  Ne
  He269    1.0000 0.62263  0.13137  0.66562  Biso   1.000  He
  He270    1.0000 0.60628  0.15415  0.64778  Biso   1.000  He
  Ne270    1.0000 0.59220  0.14583  0.61807  Biso   1.000  Ne
  Ne271    1.0000 0.01782  0.99192  0.72279  Biso   1.000  Ne
  He271    1.0000 0.04050  0.01119  0.73472  Biso   1.000  He
  He272    1.0000 0.02923  0.02680  0.76310  Biso   1.000  He
  Ne272    1.0000 0.05093  0.04850  0.77831  Biso   1.000  Ne
  Ne273    1.0000 0.48264  0.19543  0.92874  Biso   1.000  Ne
  He273    1.0000 0.45601  0.17571  0.92825  Biso   1.000  He
  He274    1.0000 0.43455  0.18441  0.90266  Biso   1.000  He
  Ne274    1.0000 0.40626  0.16409  0.89511  Biso   1.000  Ne
  Ne275    1.0000 0.59313  0.33512  0.09385  Biso   1.000  Ne
  He275    1.0000 0.58121  0.36434  0.08480  Biso   1.000  He
  He276    1.0000 0.60546  0.39072  0.08487  Biso   1.000  He
  Ne276    1.0000 0.59440  0.42245  0.07995  Biso   1.000  Ne
  Ne277    1.0000 0.92101  0.85321  0.28676  Biso   1.000  Ne
  He277    1.0000 0.92791  0.88290  0.28313  Biso   1.000  He
  He278    1.0000 0.95204  0.89563  0.30057  Biso   1.000  He
  Ne278    1.0000 0.95967  0.92821  0.29694  Biso   1.000  Ne
  Ne279    1.0000 0.58366  0.60472  0.82753  Biso   1.000  Ne
  He279    1.0000 0.57295  0.57497  0.83715  Biso   1.000  He
  He280    1.0000 0.58697  0.56196  0.86887  Biso   1.000  He
  Ne280    1.0000 0.56621  0.56421  0.89477  Biso   1.000  Ne
  Ne281    1.0000 0.34975  0.76349  0.66219  Biso   1.000  Ne
  He281    1.0000 0.32659  0.78890  0.66318  Biso   1.000  He
  He282    1.0000 0.29552  0.78145  0.65287  Biso   1.000  He
  Ne282    1.0000 0.26935  0.80569  0.65702  Biso   1.000  Ne
  Ne283    1.0000 0.09111  0.30422  0.62993  Biso   1.000  Ne
  He283    1.0000 0.09725  0.27470  0.64162  Biso   1.000  He
  He284    1.0000 0.10931  0.25491  0.62023  Biso   1.000  He
  Ne284    1.0000 0.12253  0.22924  0.63482  Biso   1.000  Ne
  Ne285    1.0000 0.64534  0.05902  0.66041  Biso   1.000  Ne
  He285    1.0000 0.67795  0.06978  0.64994  Biso   1.000  He
  He286    1.0000 0.68328  0.05841  0.61906  Biso   1.000  He
  Ne286    1.0000 0.71257  0.07050  0.60746  Biso   1.000  Ne
  Ne287    1.0000 0.80925  0.55592  0.77543  Biso   1.000  Ne
  He287    1.0000 0.81026  0.58601  0.77280  Biso   1.000  He
  He288    1.0000 0.80152  0.59795  0.74198  Biso   1.000  He
  Ne288    1.0000 0.80393  0.63076  0.74023  Biso   1.000  Ne
  Ne289    1.0000 0.56952  0.40201  0.80565  Biso   1.000  Ne
  He289    1.0000 0.56729  0.37749  0.82665  Biso   1.000  He
  He290    1.0000 0.59399  0.36862  0.84569  Biso   1.000  He
  Ne290    1.0000 0.58746  0.34520  0.86645  Biso   1.000  Ne
  Ne291    1.0000 0.55139  0.53994  0.97677  Biso   1.000  Ne
  He291    1.0000 0.51817  0.53776  0.98152  Biso   1.000  He
  He292    1.0000 0.50142  0.54845  0.95602  Biso   1.000  He
  Ne292    1.0000 0.48333  0.52360  0.94345  Biso   1.000  Ne
  Ne293    1.0000 0.61680  0.82714  0.14490  Biso   1.000  Ne
  He293    1.0000 0.62588  0.80537  0.16862  Biso   1.000  He
  He294    1.0000 0.65584  0.79321  0.16631  Biso   1.000  He
  Ne294    1.0000 0.66642  0.76767  0.18787  Biso   1.000  Ne
  Ne295    1.0000 0.07363  0.54170  0.63309  Biso   1.000  Ne
  He295    1.0000 0.04819  0.52831  0.61852  Biso   1.000  He
  He296    1.0000 0.05696  0.52178  0.58775  Biso   1.000  He
  Ne296    1.0000 0.03315  0.51038  0.56848  Biso   1.000  Ne
  Ne297    1.0000 0.27092  0.55833  0.37346  Biso   1.000  Ne
  He297    1.0000 0.29556  0.56596  0.35454  Biso   1.000  He
  He298    1.0000 0.28500  0.57363  0.32451  Biso   1.000  He
  Ne298    1.0000 0.30927  0.57569  0.30066  Biso   1.000  Ne
  Ne299    1.0000 0.67617  0.16261  0.97468  Biso   1.000  Ne
  He299    1.0000 0.67924  0.15429  0.94380  Biso   1.000  He
  He300    1.0000 0.70280  0.16909  0.92640  Biso   1.000  He
  Ne300    1.0000 0.70496  0.15734  0.89572  Biso   1.000  Ne
  Ne301    1.0000 0.95385  0.17097  0.60977  Biso   1.000  Ne
  He301    1.0000 0.92851  0.19366  0.61250  Biso   1.000  He
  He302    1.0000 0.89881  0.17728  0.60882  Biso   1.000  He
  Ne302    1.0000 0.87547  0.20049  0.60530  Biso   1.000  Ne
  Ne303    1.0000 0.67125  0.26669  0.58820  Biso   1.000  Ne
  He303    1.0000 0.68104  0.30042  0.59402  Biso   1.000  He
  He304    1.0000 0.65836  0.30970  0.61607  Biso   1.000  He
  Ne304    1.0000 0.66218  0.33964  0.62234  Biso   1.000  Ne
  Ne305    1.0000 0.69987  0.36897  0.20129  Biso   1.000  Ne
  He305    1.0000 0.73114  0.38506  0.19158  Biso   1.000  He
  He306    1.0000 0.75087  0.39111  0.21931  Biso   1.000  He
  Ne306    1.0000 0.77909  0.40560  0.20776  Biso   1.000  Ne
  Ne307    1.0000 0.28565  0.74880  0.05341  Biso   1.000  Ne
  He307    1.0000 0.31435  0.75987  0.04057  Biso   1.000  He
  He308    1.0000 0.31232  0.77861  0.01306  Biso   1.000  He
  Ne308    1.0000 0.34004  0.79065  0.00186  Biso   1.000  Ne
  Ne309    1.0000 0.59107  0.00684  0.57785  Biso   1.000  Ne
  He309    1.0000 0.58233  0.97746  0.56481  Biso   1.000  He
  He310    1.0000 0.55556  0.96345  0.58177  Biso   1.000  He
  Ne310    1.0000 0.54337  0.93213  0.57410  Biso   1.000  Ne
  Ne311    1.0000 0.79071  0.63064  0.89487  Biso   1.000  Ne
  He311    1.0000 0.77573  0.63871  0.86599  Biso   1.000  He
  He312    1.0000 0.76481  0.61086  0.84830  Biso   1.000  He
  Ne312    1.0000 0.75709  0.61843  0.81675  Biso   1.000  Ne
  Ne313    1.0000 0.18828  0.11051  0.88526  Biso   1.000  Ne
  He313    1.0000 0.18281  0.08442  0.90423  Biso   1.000  He
  He314    1.0000 0.20597  0.06067  0.90072  Biso   1.000  He
  Ne314    1.0000 0.19919  0.03084  0.91699  Biso   1.000  Ne
  Ne315    1.0000 0.74121  0.87253  0.81938  Biso   1.000  Ne
  He315    1.0000 0.76011  0.87318  0.79200  Biso   1.000  He
  He316    1.0000 0.78066  0.89956  0.78870  Biso   1.000  He
  Ne316    1.0000 0.80227  0.89440  0.76253  Biso   1.000  Ne
  Ne317    1.0000 0.89516  0.71476  0.77676  Biso   1.000  Ne
  He317    1.0000 0.90861  0.71341  0.80603  Biso   1.000  He
  He318    1.0000 0.93840  0.71178  0.80465  Biso   1.000  He
  Ne318    1.0000 0.95232  0.70952  0.83508  Biso   1.000  Ne
  Ne319    1.0000 0.97958  0.56230  0.45765  Biso   1.000  Ne
  He319    1.0000 0.98006  0.52929  0.46897  Biso   1.000  He
  He320    1.0000 0.96591  0.52263  0.49956  Biso   1.000  He
  Ne320    1.0000 0.96023  0.48972  0.50346  Biso   1.000  Ne
  Ne321    1.0000 0.81138  0.16252  0.69915  Biso   1.000  Ne
  He321    1.0000 0.82642  0.15494  0.72955  Biso   1.000  He
  He322    1.0000 0.80382  0.14659  0.75555  Biso   1.000  He
  Ne322    1.0000 0.81927  0.14421  0.78704  Biso   1.000  Ne
  Ne323    1.0000 0.80138  0.55018  0.92233  Biso   1.000  Ne
  He323    1.0000 0.78792  0.53542  0.89387  Biso   1.000  He
  He324    1.0000 0.80798  0.51380  0.87630  Biso   1.000  He
  Ne324    1.0000 0.79102  0.50165  0.84915  Biso   1.000  Ne
  Ne325    1.0000 0.36770  0.89885  0.60343  Biso   1.000  Ne
  He325    1.0000 0.35985  0.89031  0.63380  Biso   1.000  He
  He326    1.0000 0.32705  0.88072  0.63728  Biso   1.000  He
  Ne326    1.0000 0.31738  0.87066  0.66693  Biso   1.000  Ne
  Ne327    1.0000 0.33402  0.20490  0.43916  Biso   1.000  Ne
  He327    1.0000 0.36204  0.21814  0.42695  Biso   1.000  He
  He328    1.0000 0.38316  0.19780  0.41263  Biso   1.000  He
  Ne328    1.0000 0.40951  0.20930  0.39597  Biso   1.000  Ne
  Ne329    1.0000 0.05210  0.13341  0.30681  Biso   1.000  Ne
  He329    1.0000 0.06188  0.16690  0.30924  Biso   1.000  He
  He330    1.0000 0.05970  0.18063  0.34038  Biso   1.000  He
  Ne330    1.0000 0.06703  0.21199  0.34273  Biso   1.000  Ne
  Ne331    1.0000 0.61922  0.58636  0.25567  Biso   1.000  Ne
  He331    1.0000 0.61274  0.58853  0.22083  Biso   1.000  He
  He332    1.0000 0.59029  0.61147  0.21121  Biso   1.000  He
  Ne332    1.0000 0.58230  0.61899  0.18155  Biso   1.000  Ne
  Ne333    1.0000 0.69451  0.37319  0.54034  Biso   1.000  Ne
  He333    1.0000 0.72658  0.36959  0.55163  Biso   1.000  He
  He334    1.0000 0.73252  0.38974  0.57849  Biso   1.000  He
  Ne334    1.0000 0.76477  0.38641  0.58916  Biso   1.000  Ne
  Ne335    1.0000 0.81973  0.32380  0.38177  Biso   1.000  Ne
  He335    1.0000 0.82203  0.35561  0.39416  Biso   1.000  He
  He336    1.0000 0.79368  0.36209  0.41394  Biso   1.000  He
  Ne336    1.0000 0.79368  0.39345  0.42119  Biso   1.000  Ne
  Ne337    1.0000 0.95254  0.03293  0.91549  Biso   1.000  Ne
  He337    1.0000 0.97175  0.03927  0.94113  Biso   1.000  He
  He338    1.0000 0.96502  0.06294  0.96155  Biso   1.000  He
  Ne338    1.0000 0.98891  0.06857  0.98564  Biso   1.000  Ne
  Ne339    1.0000 0.19702  0.66939  0.63679  Biso   1.000  Ne
  He339    1.0000 0.21532  0.64001  0.62910  Biso   1.000  He
  He340    1.0000 0.19682  0.61314  0.62285  Biso   1.000  He
  Ne340    1.0000 0.21348  0.58205  0.61379  Biso   1.000  Ne
  Ne341    1.0000 0.95556  0.20921  0.44428  Biso   1.000  Ne
  He341    1.0000 0.96510  0.17939  0.43273  Biso   1.000  He
  He342    1.0000 0.96156  0.17685  0.39941  Biso   1.000  He
  Ne342    1.0000 0.97206  0.14946  0.38523  Biso   1.000  Ne
  Ne343    1.0000 0.59592  0.74460  0.56767  Biso   1.000  Ne
  He343    1.0000 0.60170  0.77509  0.58194  Biso   1.000  He
  He344    1.0000 0.62832  0.77401  0.60245  Biso   1.000  He
  Ne344    1.0000 0.63381  0.80236  0.62439  Biso   1.000  Ne
  Ne345    1.0000 0.27168  0.27238  0.43978  Biso   1.000  Ne
  He345    1.0000 0.29712  0.28611  0.45486  Biso   1.000  He
  He346    1.0000 0.29046  0.31801  0.46758  Biso   1.000  He
  Ne346    1.0000 0.31428  0.33235  0.48521  Biso   1.000  Ne
  Ne347    1.0000 0.61852  0.78788  0.06403  Biso   1.000  Ne
  He347    1.0000 0.61223  0.77567  0.03263  Biso   1.000  He
  He348    1.0000 0.63491  0.77728  0.00897  Biso   1.000  He
  Ne348    1.0000 0.62733  0.76386  0.98010  Biso   1.000  Ne
  Ne349    1.0000 0.78761  0.04273  0.37923  Biso   1.000  Ne
  He349    1.0000 0.76087  0.05940  0.36656  Biso   1.000  He
  He350    1.0000 0.74003  0.07376  0.38848  Biso   1.000  He
  Ne350    1.0000 0.71138  0.08808  0.37051  Biso   1.000  Ne
  Ne351    1.0000 0.87928  0.36086  0.27607  Biso   1.000  Ne
  He351    1.0000 0.90249  0.37420  0.25654  Biso   1.000  He
  He352    1.0000 0.93366  0.37662  0.27047  Biso   1.000  He
  Ne352    1.0000 0.95891  0.38015  0.24851  Biso   1.000  Ne
  Ne353    1.0000 0.88837  0.08188  0.23721  Biso   1.000  Ne
  He353    1.0000 0.89358  0.06591  0.20793  Biso   1.000  He
  He354    1.0000 0.92186  0.04915  0.20581  Biso   1.000  He
  Ne354    1.0000 0.92730  0.03445  0.17699  Biso   1.000  Ne
  Ne355    1.0000 0.61306  0.88501  0.79283  Biso   1.000  Ne
  He355    1.0000 0.64272  0.89852  0.78738  Biso   1.000  He
  He356    1.0000 0.66126  0.88343  0.76429  Biso   1.000  He
  Ne356    1.0000 0.67881  0.85601  0.77319  Biso   1.000  Ne
  Ne357    1.0000 0.42569  0.80604  0.61120  Biso   1.000  Ne
  He357    1.0000 0.44688  0.82914  0.62204  Biso   1.000  He
  He358    1.0000 0.43657  0.85901  0.61463  Biso   1.000  He
  Ne358    1.0000 0.45512  0.88415  0.62774  Biso   1.000  Ne
  Ne359    1.0000 0.20989  0.33543  0.20155  Biso   1.000  Ne
  He359    1.0000 0.20846  0.36859  0.20423  Biso   1.000  He
  He360    1.0000 0.22083  0.38529  0.17872  Biso   1.000  He
  Ne360    1.0000 0.22320  0.41829  0.18285  Biso   1.000  Ne
  Ne361    1.0000 0.92691  0.81791  0.82875  Biso   1.000  Ne
  He361    1.0000 0.91931  0.82537  0.79825  Biso   1.000  He
  He362    1.0000 0.88672  0.83384  0.79387  Biso   1.000  He
  Ne362    1.0000 0.88083  0.84528  0.76257  Biso   1.000  Ne
  Ne363    1.0000 0.77155  0.30962  0.63258  Biso   1.000  Ne
  He363    1.0000 0.74742  0.31928  0.65291  Biso   1.000  He
  He364    1.0000 0.74789  0.30242  0.68213  Biso   1.000  He
  Ne364    1.0000 0.72156  0.30791  0.70079  Biso   1.000  Ne
  Ne365    1.0000 0.11032  0.86124  0.20436  Biso   1.000  Ne
  He365    1.0000 0.09919  0.83445  0.22430  Biso   1.000  He
  He366    1.0000 0.08486  0.81226  0.20227  Biso   1.000  He
  Ne366    1.0000 0.06897  0.78635  0.21854  Biso   1.000  Ne
  Ne367    1.0000 0.80722  0.60890  0.40235  Biso   1.000  Ne
  He367    1.0000 0.83426  0.60537  0.42388  Biso   1.000  He
  He368    1.0000 0.86083  0.62263  0.41337  Biso   1.000  He
  Ne368    1.0000 0.88881  0.62337  0.43394  Biso   1.000  Ne
  Ne369    1.0000 0.92603  0.14262  0.13663  Biso   1.000  Ne
  He369    1.0000 0.91643  0.17444  0.13443  Biso   1.000  He
  He370    1.0000 0.89970  0.18125  0.10712  Biso   1.000  He
  Ne370    1.0000 0.88418  0.20747  0.10593  Biso   1.000  Ne
  Ne371    1.0000 0.14975  0.46501  0.14746  Biso   1.000  Ne
  He371    1.0000 0.13501  0.47811  0.11944  Biso   1.000  He
  He372    1.0000 0.14895  0.50636  0.11259  Biso   1.000  He
  Ne372    1.0000 0.13867  0.52147  0.08614  Biso   1.000  Ne
  Ne373    1.0000 0.40955  0.71792  0.20701  Biso   1.000  Ne
  He373    1.0000 0.42003  0.71461  0.23884  Biso   1.000  He
  He374    1.0000 0.40534  0.73613  0.26149  Biso   1.000  He
  Ne374    1.0000 0.41744  0.73073  0.29377  Biso   1.000  Ne
  Ne375    1.0000 0.35568  0.31640  0.93809  Biso   1.000  Ne
  He375    1.0000 0.32427  0.33156  0.93144  Biso   1.000  He
  He376    1.0000 0.32062  0.35902  0.94745  Biso   1.000  He
  Ne376    1.0000 0.29114  0.37010  0.94417  Biso   1.000  Ne
  Ne377    1.0000 0.92068  0.24909  0.81759  Biso   1.000  Ne
  He377    1.0000 0.88701  0.25074  0.81238  Biso   1.000  He
  He378    1.0000 0.87972  0.23946  0.78265  Biso   1.000  He
  Ne378    1.0000 0.84679  0.23797  0.77464  Biso   1.000  Ne
  Ne379    1.0000 0.24432  0.60286  0.81139  Biso   1.000  Ne
  He379    1.0000 0.26251  0.59426  0.78660  Biso   1.000  He
  He380    1.0000 0.25109  0.56460  0.77155  Biso   1.000  He
  Ne380    1.0000 0.26852  0.55692  0.74304  Biso   1.000  Ne
  Ne381    1.0000 0.24993  0.61651  0.10581  Biso   1.000  Ne
  He381    1.0000 0.23145  0.64499  0.11803  Biso   1.000  He
  He382    1.0000 0.23259  0.64388  0.15047  Biso   1.000  He
  Ne382    1.0000 0.21859  0.67163  0.16528  Biso   1.000  Ne
  Ne383    1.0000 0.56937  0.08845  0.91427  Biso   1.000  Ne
  He383    1.0000 0.58010  0.11471  0.89466  Biso   1.000  He
  He384    1.0000 0.59132  0.14244  0.90629  Biso   1.000  He
  Ne384    1.0000 0.59725  0.16545  0.88610  Biso   1.000  Ne
  Ne385    1.0000 0.27948  0.42126  0.44157  Biso   1.000  Ne
  He385    1.0000 0.30662  0.42870  0.42301  Biso   1.000  He
  He386    1.0000 0.30264  0.45660  0.40697  Biso   1.000  He
  Ne386    1.0000 0.32663  0.46404  0.38108  Biso   1.000  Ne
  Ne387    1.0000 0.08789  0.75605  0.90810  Biso   1.000  Ne
  He387    1.0000 0.10186  0.78418  0.91545  Biso   1.000  He
  He388    1.0000 0.08102  0.80556  0.93212  Biso   1.000  He
  Ne388    1.0000 0.09391  0.83437  0.93981  Biso   1.000  Ne
  Ne389    1.0000 0.13238  0.05681  0.19119  Biso   1.000  Ne
  He389    1.0000 0.10130  0.07011  0.19376  Biso   1.000  He
  He390    1.0000 0.09845  0.09887  0.17872  Biso   1.000  He
  Ne390    1.0000 0.09583  0.12331  0.20146  Biso   1.000  Ne
  Ne391    1.0000 0.63569  0.56001  0.94333  Biso   1.000  Ne
  He391    1.0000 0.66090  0.57061  0.92892  Biso   1.000  He
  He392    1.0000 0.68693  0.57421  0.94748  Biso   1.000  He
  Ne392    1.0000 0.71169  0.59031  0.93529  Biso   1.000  Ne
  Ne393    1.0000 0.26828  0.00984  0.95508  Biso   1.000  Ne
  He393    1.0000 0.29137  0.98833  0.94774  Biso   1.000  He
  He394    1.0000 0.28585  0.95536  0.95261  Biso   1.000  He
  Ne394    1.0000 0.30959  0.93696  0.94109  Biso   1.000  Ne
  Ne395    1.0000 0.78916  0.37831  0.72759  Biso   1.000  Ne
  He395    1.0000 0.76382  0.39651  0.71683  Biso   1.000  He
  He396    1.0000 0.76934  0.41004  0.68631  Biso   1.000  He
  Ne396    1.0000 0.74190  0.42241  0.67292  Biso   1.000  Ne
  Ne397    1.0000 0.07796  0.54900  0.50464  Biso   1.000  Ne
  He397    1.0000 0.09720  0.54970  0.47907  Biso   1.000  He
  He398    1.0000 0.10157  0.58057  0.46524  Biso   1.000  He
  Ne398    1.0000 0.12875  0.57949  0.44150  Biso   1.000  Ne
  Ne399    1.0000 0.78496  0.58569  0.64248  Biso   1.000  Ne
  He399    1.0000 0.81560  0.58397  0.65467  Biso   1.000  He
  He400    1.0000 0.83168  0.55610  0.64158  Biso   1.000  He
  Ne400    1.0000 0.86303  0.55737  0.65091  Biso   1.000  Ne
  Ne401    1.0000 0.91280  0.53518  0.42243  Biso   1.000  Ne
  He401    1.0000 0.93212  0.54521  0.39607  Biso   1.000  He
  He402    1.0000 0.92004  0.57248  0.37869  Biso   1.000  He
  Ne402    1.0000 0.94221  0.58507  0.35672  Biso   1.000  Ne
  Ne403    1.0000 0.20597  0.37855  0.34845  Biso   1.000  Ne
  He403    1.0000 0.19232  0.39416  0.32625  Biso   1.000  He
  He404    1.0000 0.20347  0.38321  0.29464  Biso   1.000  He
  Ne404    1.0000 0.18893  0.39827  0.26854  Biso   1.000  Ne
  Ne405    1.0000 0.80126  0.15984  0.09172  Biso   1.000  Ne
  He405    1.0000 0.82278  0.15413  0.11646  Biso   1.000  He
  He406    1.0000 0.81087  0.15570  0.14682  Biso   1.000  He
  Ne406    1.0000 0.83350  0.14764  0.17023  Biso   1.000  Ne
  Ne407    1.0000 0.42111  0.71927  0.81578  Biso   1.000  Ne
  He407    1.0000 0.40243  0.69417  0.80531  Biso   1.000  He
  He408    1.0000 0.41756  0.67266  0.78553  Biso   1.000  He
  Ne408    1.0000 0.39748  0.64766  0.77437  Biso   1.000  Ne
  Ne409    1.0000 0.91704  0.39138  0.35066  Biso   1.000  Ne
  He409    1.0000 0.91928  0.39142  0.38356  Biso   1.000  He
  He410    1.0000 0.90457  0.36554  0.39911  Biso   1.000  He
  Ne410    1.0000 0.89867  0.36845  0.42933  Biso   1.000  Ne
  Ne411    1.0000 0.10251  0.28981  0.33451  Biso   1.000  Ne
  He411    1.0000 0.11742  0.29614  0.30495  Biso   1.000  He
  He412    1.0000 0.11324  0.26907  0.28771  Biso   1.000  He
  Ne412    1.0000 0.12575  0.27000  0.25789  Biso   1.000  Ne
  Ne413    1.0000 0.12402  0.71556  0.82104  Biso   1.000  Ne
  He413    1.0000 0.12588  0.75008  0.82228  Biso   1.000  He
  He414    1.0000 0.15231  0.76748  0.83308  Biso   1.000  He
  Ne414    1.0000 0.14488  0.79879  0.83254  Biso   1.000  Ne
  Ne415    1.0000 0.72157  0.21806  0.42646  Biso   1.000  Ne
  He415    1.0000 0.72712  0.22999  0.39673  Biso   1.000  He
  He416    1.0000 0.69984  0.23985  0.37932  Biso   1.000  He
  Ne416    1.0000 0.71080  0.25130  0.34989  Biso   1.000  Ne
  Ne417    1.0000 0.79517  0.61654  0.99325  Biso   1.000  Ne
  He417    1.0000 0.81205  0.64418  0.98537  Biso   1.000  He
  He418    1.0000 0.82740  0.65418  0.01107  Biso   1.000  He
  Ne418    1.0000 0.85259  0.67690  0.00592  Biso   1.000  Ne
  Ne419    1.0000 0.89005  0.87550  0.94614  Biso   1.000  Ne
  He419    1.0000 0.89743  0.89328  0.91950  Biso   1.000  He
  He420    1.0000 0.90918  0.87492  0.89447  Biso   1.000  He
  Ne420    1.0000 0.92047  0.89350  0.86982  Biso   1.000  Ne
  Ne421    1.0000 0.08965  0.70301  0.18059  Biso   1.000  Ne
  He421    1.0000 0.08714  0.69762  0.21351  Biso   1.000  He
  He422    1.0000 0.06253  0.67521  0.22142  Biso   1.000  He
  Ne422    1.0000 0.06151  0.67128  0.25388  Biso   1.000  Ne
  Ne423    1.0000 0.81797  0.88237  0.86650  Biso   1.000  Ne
  He423    1.0000 0.79446  0.88289  0.89113  Biso   1.000  He
  He424    1.0000 0.80468  0.89876  0.91826  Biso   1.000  He
  Ne424    1.0000 0.77997  0.90934  0.94243  Biso   1.000  Ne
  Ne425    1.0000 0.86572  0.99493  0.48224  Biso   1.000  Ne
  He425    1.0000 0.85058  0.96863  0.49367  Biso   1.000  He
  He426    1.0000 0.82427  0.95986  0.47353  Biso   1.000  He
  Ne426    1.0000 0.80928  0.93131  0.48168  Biso   1.000  Ne
  Ne427    1.0000 0.42205  0.86676  0.69584  Biso   1.000  Ne
  He427    1.0000 0.39163  0.86720  0.70865  Biso   1.000  He
  He428    1.0000 0.38181  0.89657  0.72137  Biso   1.000  He
  Ne428    1.0000 0.35319  0.89450  0.74035  Biso   1.000  Ne
  Ne429    1.0000 0.97389  0.36795  0.15941  Biso   1.000  Ne
  He429    1.0000 0.95102  0.38891  0.15214  Biso   1.000  He
  He430    1.0000 0.91962  0.38451  0.16563  Biso   1.000  He
  Ne430    1.0000 0.89654  0.40622  0.15563  Biso   1.000  Ne
  Ne431    1.0000 0.16643  0.31494  0.41824  Biso   1.000  Ne
  He431    1.0000 0.13864  0.29721  0.41299  Biso   1.000  He
  He432    1.0000 0.11381  0.30903  0.42883  Biso   1.000  He
  Ne432    1.0000 0.08669  0.28879  0.42506  Biso   1.000  Ne
  Ne433    1.0000 0.13022  0.21877  0.80014  Biso   1.000  Ne
  He433    1.0000 0.12627  0.23422  0.83062  Biso   1.000  He
  He434    1.0000 0.11186  0.21086  0.85405  Biso   1.000  He
  Ne434    1.0000 0.10808  0.22706  0.88471  Biso   1.000  Ne
  Ne435    1.0000 0.04453  0.79659  0.70984  Biso   1.000  Ne
  He435    1.0000 0.04198  0.78038  0.67961  Biso   1.000  He
  He436    1.0000 0.06931  0.78380  0.65859  Biso   1.000  He
  Ne436    1.0000 0.06274  0.77279  0.62816  Biso   1.000  Ne
  Ne437    1.0000 0.72204  0.61639  0.27584  Biso   1.000  Ne
  He437    1.0000 0.73321  0.61237  0.24450  Biso   1.000  He
  He438    1.0000 0.72840  0.58529  0.22887  Biso   1.000  He
  Ne438    1.0000 0.75017  0.58283  0.19885  Biso   1.000  Ne
  Ne439    1.0000 0.88147  0.01630  0.34817  Biso   1.000  Ne
  He439    1.0000 0.88001  0.02689  0.38023  Biso   1.000  He
  He440    1.0000 0.90210  0.04645  0.38674  Biso   1.000  He
  Ne440    1.0000 0.90199  0.06061  0.41755  Biso   1.000  Ne
  Ne441    1.0000 0.01663  0.82267  0.36643  Biso   1.000  Ne
  He441    1.0000 0.03523  0.85193  0.36570  Biso   1.000  He
  He442    1.0000 0.01196  0.87773  0.36642  Biso   1.000  He
  Ne442    1.0000 0.02414  0.90766  0.36373  Biso   1.000  Ne
  Ne443    1.0000 0.90238  0.20716  0.68035  Biso   1.000  Ne
  He443    1.0000 0.91520  0.19354  0.70769  Biso   1.000  He
  He444    1.0000 0.90869  0.16030  0.70931  Biso   1.000  He
  Ne444    1.0000 0.92234  0.14544  0.73747  Biso   1.000  Ne
  Ne445    1.0000 0.09475  0.08635  0.08374  Biso   1.000  Ne
  He445    1.0000 0.07984  0.05667  0.07967  Biso   1.000  He
  He446    1.0000 0.07770  0.04404  0.11020  Biso   1.000  He
  Ne446    1.0000 0.06525  0.01231  0.11150  Biso   1.000  Ne
  Ne447    1.0000 0.43677  0.25424  0.74718  Biso   1.000  Ne
  He447    1.0000 0.41743  0.27966  0.76103  Biso   1.000  He
  He448    1.0000 0.42468  0.31119  0.74869  Biso   1.000  He
  Ne448    1.0000 0.41167  0.33482  0.76583  Biso   1.000  Ne
  Ne449    1.0000 0.11017  0.16101  0.94265  Biso   1.000  Ne
  He449    1.0000 0.12367  0.14938  0.91282  Biso   1.000  He
  He450    1.0000 0.10392  0.14119  0.88989  Biso   1.000  He
  Ne450    1.0000 0.11774  0.13307  0.86303  Biso   1.000  Ne
  Ne451    1.0000 0.67532  0.37709  0.81362  Biso   1.000  Ne
  He451    1.0000 0.66527  0.38890  0.78250  Biso   1.000  He
  He452    1.0000 0.68662  0.38202  0.75651  Biso   1.000  He
  Ne452    1.0000 0.67817  0.39590  0.72617  Biso   1.000  Ne
  Ne453    1.0000 0.85345  0.26499  0.26218  Biso   1.000  Ne
  He453    1.0000 0.85431  0.24260  0.23569  Biso   1.000  He
  He454    1.0000 0.85013  0.25468  0.20534  Biso   1.000  He
  Ne454    1.0000 0.84985  0.23392  0.17980  Biso   1.000  Ne
  Ne455    1.0000 0.58632  0.72221  0.17246  Biso   1.000  Ne
  He455    1.0000 0.57954  0.69656  0.15074  Biso   1.000  He
  He456    1.0000 0.57727  0.70769  0.11872  Biso   1.000  He
  Ne456    1.0000 0.56491  0.68454  0.09890  Biso   1.000  Ne
  Ne457    1.0000 0.38771  0.38504  0.92721  Biso   1.000  Ne
  He457    1.0000 0.38215  0.38823  0.89560  Biso   1.000  He
  He458    1.0000 0.41436  0.38439  0.87461  Biso   1.000  He
  Ne458    1.0000 0.40561  0.39112  0.84204  Biso   1.000  Ne
  Ne459    1.0000 0.33872  0.07898  0.30364  Biso   1.000  Ne
  He459    1.0000 0.31588  0.07792  0.28199  Biso   1.000  He
  He460    1.0000 0.31412  0.09981  0.25841  Biso   1.000  He
  Ne460    1.0000 0.28930  0.09917  0.23833  Biso   1.000  Ne
  Ne461    1.0000 0.08018  0.91943  0.01165  Biso   1.000  Ne
  He461    1.0000 0.06778  0.94775  0.00118  Biso   1.000  He
  He462    1.0000 0.06347  0.97571  0.02235  Biso   1.000  He
  Ne462    1.0000 0.05007  0.99982  0.00387  Biso   1.000  Ne
  Ne463    1.0000 0.00620  0.96457  0.08295  Biso   1.000  Ne
  He463    1.0000 0.99127  0.99626  0.08356  Biso   1.000  He
  He464    1.0000 0.99275  0.01245  0.05701  Biso   1.000  He
  Ne464    1.0000 0.98321  0.04448  0.06197  Biso   1.000  Ne
  Ne465    1.0000 0.84120  0.88890  0.23997  Biso   1.000  Ne
  He465    1.0000 0.81868  0.89640  0.21422  Biso   1.000  He
  He466    1.0000 0.83343  0.89810  0.18375  Biso   1.000  He
  Ne466    1.0000 0.81059  0.90611  0.15965  Biso   1.000  Ne
  Ne467    1.0000 0.41033  0.29669  0.85083  Biso   1.000  Ne
  He467    1.0000 0.41904  0.28094  0.88120  Biso   1.000  He
  He468    1.0000 0.42789  0.30017  0.90503  Biso   1.000  He
  Ne468    1.0000 0.43450  0.28342  0.93309  Biso   1.000  Ne
  Ne469    1.0000 0.41654  0.57002  0.93808  Biso   1.000  Ne
  He469    1.0000 0.41149  0.57681  0.90394  Biso   1.000  He
  He470    1.0000 0.40209  0.55202  0.88300  Biso   1.000  He
  Ne470    1.0000 0.39974  0.56082  0.85106  Biso   1.000  Ne
  Ne471    1.0000 0.55335  0.33653  0.74427  Biso   1.000  Ne
  He471    1.0000 0.54607  0.36993  0.73966  Biso   1.000  He
  He472    1.0000 0.55273  0.37882  0.70766  Biso   1.000  He
  Ne472    1.0000 0.54249  0.41027  0.70168  Biso   1.000  Ne
  Ne473    1.0000 0.10130  0.58123  0.36436  Biso   1.000  Ne
  He473    1.0000 0.13192  0.59608  0.36268  Biso   1.000  He
  He474    1.0000 0.15603  0.56946  0.35491  Biso   1.000  He
  Ne474    1.0000 0.18443  0.58044  0.34663  Biso   1.000  Ne
  Ne475    1.0000 0.24140  0.84595  0.95164  Biso   1.000  Ne
  He475    1.0000 0.21947  0.86006  0.93165  Biso   1.000  He
  He476    1.0000 0.18726  0.84318  0.92722  Biso   1.000  He
  Ne476    1.0000 0.16059  0.86182  0.92077  Biso   1.000  Ne
  Ne477    1.0000 0.07076  0.92840  0.11883  Biso   1.000  Ne
  He477    1.0000 0.06853  0.89818  0.10280  Biso   1.000  He
  He478    1.0000 0.07121  0.87132  0.12459  Biso   1.000  He
  Ne478    1.0000 0.06598  0.83966  0.10959  Biso   1.000  Ne
  Ne479    1.0000 0.79203  0.72102  0.96014  Biso   1.000  Ne
  He479    1.0000 0.79005  0.74403  0.93631  Biso   1.000  He
  He480    1.0000 0.79481  0.77525  0.94531  Biso   1.000  He
  Ne480    1.0000 0.78951  0.80008  0.92414  Biso   1.000  Ne
  Ne481    1.0000 0.74501  0.41713  0.91467  Biso   1.000  Ne
  He481    1.0000 0.71541  0.41768  0.90160  Biso   1.000  He
  He482    1.0000 0.69072  0.39686  0.91254  Biso   1.000  He
  Ne482    1.0000 0.66178  0.40631  0.90144  Biso   1.000  Ne
  Ne483    1.0000 0.16965  0.64480  0.71772  Biso   1.000  Ne
  He483    1.0000 0.17794  0.61257  0.72543  Biso   1.000  He
  He484    1.0000 0.18971  0.59499  0.69768  Biso   1.000  He
  Ne484    1.0000 0.19944  0.56505  0.70327  Biso   1.000  Ne
  Ne485    1.0000 0.26423  0.73996  0.40652  Biso   1.000  Ne
  He485    1.0000 0.23828  0.72781  0.42206  Biso   1.000  He
  He486    1.0000 0.21092  0.74593  0.41542  Biso   1.000  He
  Ne486    1.0000 0.18251  0.73262  0.42745  Biso   1.000  Ne
  Ne487    1.0000 0.65908  0.84918  0.25141  Biso   1.000  Ne
  He487    1.0000 0.64957  0.81772  0.25755  Biso   1.000  He
  He488    1.0000 0.62171  0.80733  0.24339  Biso   1.000  He
  Ne488    1.0000 0.61453  0.77729  0.25313  Biso   1.000  Ne
  Ne489    1.0000 0.39204  0.78538  0.42623  Biso   1.000  Ne
  He489    1.0000 0.41674  0.80414  0.43441  Biso   1.000  He
  He490    1.0000 0.40732  0.82982  0.45148  Biso   1.000  He
  Ne490    1.0000 0.43195  0.84884  0.45852  Biso   1.000  Ne
  Ne491    1.0000 0.75766  0.13106  0.22042  Biso   1.000  Ne
  He491    1.0000 0.73053  0.11377  0.22840  Biso   1.000  He
  He492    1.0000 0.72940  0.09831  0.25778  Biso   1.000  He
  Ne492    1.0000 0.69935  0.08929  0.25968  Biso   1.000  Ne
  Ne493    1.0000 0.59246  0.87804  0.63078  Biso   1.000  Ne
  He493    1.0000 0.62408  0.88264  0.62453  Biso   1.000  He
  He494    1.0000 0.64308  0.87977  0.65255  Biso   1.000  He
  Ne494    1.0000 0.67564  0.88876  0.64929  Biso   1.000  Ne
  Ne495    1.0000 0.12103  0.40032  0.44998  Biso   1.000  Ne
  He495    1.0000 0.10122  0.41963  0.46801  Biso   1.000  He
  He496    1.0000 0.08694  0.44449  0.45290  Biso   1.000  He
  Ne496    1.0000 0.07024  0.46397  0.47288  Biso   1.000  Ne
  Ne497    1.0000 0.98504  0.85851  0.66204  Biso   1.000  Ne
  He497    1.0000 0.95766  0.84239  0.66541  Biso   1.000  He
  He498    1.0000 0.94885  0.83622  0.69720  Biso   1.000  He
  Ne498    1.0000 0.92199  0.82024  0.70321  Biso   1.000  Ne
  Ne499    1.0000 0.30817  0.54690  0.93953  Biso   1.000  Ne
  He499    1.0000 0.29623  0.57436  0.92516  Biso   1.000  He
  He500    1.0000 0.28187  0.59628  0.94650  Biso   1.000  He
  Ne500    1.0000 0.26584  0.62242  0.92948  Biso   1.000  Ne
