data_image0
_cell_length_a       46.9879
_cell_length_b       46.8908
_cell_length_c       46.5462
_cell_angle_alpha    90
_cell_angle_beta     90
_cell_angle_gamma    90

_symmetry_space_group_name_H-M    "P 1"
_symmetry_int_tables_number       1

loop_
  _symmetry_equiv_pos_as_xyz
  'x, y, z'

loop_
  _atom_site_label
  _atom_site_occupancy
  _atom_site_fract_x
  _atom_site_fract_y
  _atom_site_fract_z
  _atom_site_thermal_displace_type
  _atom_site_B_iso_or_equiv
  _atom_site_type_symbol
  Ne1      1.0000 0.41134  0.59484  0.85602  Biso   1.000  Ne
  He1      1.0000 0.42969  0.58935  0.82631  Biso   1.000  He
  He2      1.0000 0.42588  0.61346  0.80277  Biso   1.000  He
  Ne2      1.0000 0.44117  0.60738  0.77270  Biso   1.000  Ne
  Ne3      1.0000 0.58444  0.32596  0.83821  Biso   1.000  Ne
  He3      1.0000 0.58267  0.32781  0.87303  Biso   1.000  He
  He4      1.0000 0.61010  0.33906  0.88579  Biso   1.000  He
  Ne4      1.0000 0.61359  0.33546  0.91778  Biso   1.000  Ne
  Ne5      1.0000 0.01509  0.41912  0.53936  Biso   1.000  Ne
  He5      1.0000 0.04958  0.42218  0.54445  Biso   1.000  He
  He6      1.0000 0.05918  0.42861  0.57680  Biso   1.000  He
  Ne6      1.0000 0.09431  0.42519  0.58292  Biso   1.000  Ne
  Ne7      1.0000 0.16266  0.70225  0.86420  Biso   1.000  Ne
  He7      1.0000 0.18385  0.72185  0.87865  Biso   1.000  He
  He8      1.0000 0.20833  0.71132  0.89612  Biso   1.000  He
  Ne8      1.0000 0.23000  0.73592  0.90891  Biso   1.000  Ne
  Ne9      1.0000 0.48495  0.48685  0.92646  Biso   1.000  Ne
  He9      1.0000 0.51474  0.48691  0.94130  Biso   1.000  He
  He10     1.0000 0.51887  0.51189  0.96452  Biso   1.000  He
  Ne10     1.0000 0.54529  0.50544  0.98520  Biso   1.000  Ne
  Ne11     1.0000 0.79121  0.67123  0.99638  Biso   1.000  Ne
  He11     1.0000 0.81345  0.68436  0.97388  Biso   1.000  He
  He12     1.0000 0.82178  0.71559  0.98065  Biso   1.000  He
  Ne12     1.0000 0.85333  0.72062  0.96960  Biso   1.000  Ne
  Ne13     1.0000 0.89916  0.82044  0.85733  Biso   1.000  Ne
  He13     1.0000 0.90815  0.84695  0.87113  Biso   1.000  He
  He14     1.0000 0.91258  0.87072  0.85019  Biso   1.000  He
  Ne14     1.0000 0.92178  0.90067  0.86654  Biso   1.000  Ne
  Ne15     1.0000 0.99344  0.07623  0.04645  Biso   1.000  Ne
  He15     1.0000 0.98935  0.05792  0.02045  Biso   1.000  He
  He16     1.0000 0.98068  0.07134  0.99046  Biso   1.000  He
  Ne16     1.0000 0.97964  0.04668  0.96707  Biso   1.000  Ne
  Ne17     1.0000 0.41211  0.08007  0.69515  Biso   1.000  Ne
  He17     1.0000 0.40771  0.10930  0.70431  Biso   1.000  He
  He18     1.0000 0.42220  0.12805  0.68352  Biso   1.000  He
  Ne18     1.0000 0.41501  0.15858  0.68638  Biso   1.000  Ne
  Ne19     1.0000 0.61174  0.06468  0.60517  Biso   1.000  Ne
  He19     1.0000 0.60525  0.05908  0.57434  Biso   1.000  He
  He20     1.0000 0.59572  0.02931  0.56733  Biso   1.000  He
  Ne20     1.0000 0.58127  0.02524  0.53762  Biso   1.000  Ne
  Ne21     1.0000 0.39310  0.60247  0.17371  Biso   1.000  Ne
  He21     1.0000 0.38544  0.57155  0.18143  Biso   1.000  He
  He22     1.0000 0.40479  0.55992  0.20563  Biso   1.000  He
  Ne22     1.0000 0.39448  0.53158  0.21742  Biso   1.000  Ne
  Ne23     1.0000 0.93461  0.57629  0.24472  Biso   1.000  Ne
  He23     1.0000 0.91101  0.59088  0.26423  Biso   1.000  He
  He24     1.0000 0.91331  0.62306  0.27136  Biso   1.000  He
  Ne24     1.0000 0.88788  0.63564  0.29017  Biso   1.000  Ne
  Ne25     1.0000 0.89965  0.91212  0.13960  Biso   1.000  Ne
  He25     1.0000 0.89589  0.91557  0.17230  Biso   1.000  He
  He26     1.0000 0.92116  0.90331  0.18740  Biso   1.000  He
  Ne26     1.0000 0.92045  0.90749  0.22036  Biso   1.000  Ne
  Ne27     1.0000 0.83234  0.33825  0.01604  Biso   1.000  Ne
  He27     1.0000 0.84483  0.30764  0.02108  Biso   1.000  He
  He28     1.0000 0.87086  0.30131  0.04140  Biso   1.000  He
  Ne28     1.0000 0.87988  0.27127  0.04777  Biso   1.000  Ne
  Ne29     1.0000 0.63717  0.92352  0.58328  Biso   1.000  Ne
  He29     1.0000 0.60848  0.92267  0.59992  Biso   1.000  He
  He30     1.0000 0.58263  0.91173  0.57852  Biso   1.000  He
  Ne30     1.0000 0.55279  0.90612  0.59319  Biso   1.000  Ne
  Ne31     1.0000 0.93090  0.20149  0.17443  Biso   1.000  Ne
  He31     1.0000 0.92978  0.22232  0.14794  Biso   1.000  He
  He32     1.0000 0.90837  0.24849  0.15142  Biso   1.000  He
  Ne32     1.0000 0.91050  0.27024  0.12798  Biso   1.000  Ne
  Ne33     1.0000 0.05807  0.02495  0.92245  Biso   1.000  Ne
  He33     1.0000 0.07158  0.02260  0.95034  Biso   1.000  He
  He34     1.0000 0.06812  0.04845  0.96786  Biso   1.000  He
  Ne34     1.0000 0.08926  0.05035  0.99465  Biso   1.000  Ne
  Ne35     1.0000 0.32744  0.38038  0.16941  Biso   1.000  Ne
  He35     1.0000 0.30962  0.38395  0.13868  Biso   1.000  He
  He36     1.0000 0.29318  0.35472  0.12990  Biso   1.000  He
  Ne36     1.0000 0.28203  0.35359  0.10073  Biso   1.000  Ne
  Ne37     1.0000 0.41220  0.55444  0.93768  Biso   1.000  Ne
  He37     1.0000 0.44314  0.55615  0.94999  Biso   1.000  He
  He38     1.0000 0.44186  0.57541  0.97715  Biso   1.000  He
  Ne38     1.0000 0.46988  0.57816  0.99228  Biso   1.000  Ne
  Ne39     1.0000 0.85467  0.71948  0.32804  Biso   1.000  Ne
  He39     1.0000 0.88685  0.71857  0.31517  Biso   1.000  He
  He40     1.0000 0.90299  0.74272  0.32533  Biso   1.000  He
  Ne40     1.0000 0.93610  0.74184  0.32046  Biso   1.000  Ne
  Ne41     1.0000 0.16936  0.55201  0.33185  Biso   1.000  Ne
  He41     1.0000 0.17579  0.56039  0.36509  Biso   1.000  He
  He42     1.0000 0.15114  0.57830  0.38057  Biso   1.000  He
  Ne42     1.0000 0.15501  0.57657  0.41443  Biso   1.000  Ne
  Ne43     1.0000 0.57731  0.25380  0.07897  Biso   1.000  Ne
  He43     1.0000 0.57971  0.28608  0.08633  Biso   1.000  He
  He44     1.0000 0.60954  0.29686  0.09901  Biso   1.000  He
  Ne44     1.0000 0.61044  0.32946  0.10328  Biso   1.000  Ne
  Ne45     1.0000 0.37244  0.64042  0.09889  Biso   1.000  Ne
  He45     1.0000 0.34243  0.65239  0.09436  Biso   1.000  He
  He46     1.0000 0.31843  0.63079  0.10129  Biso   1.000  He
  Ne46     1.0000 0.28934  0.64030  0.10153  Biso   1.000  Ne
  Ne47     1.0000 0.08965  0.33407  0.61306  Biso   1.000  Ne
  He47     1.0000 0.12267  0.33651  0.61383  Biso   1.000  He
  He48     1.0000 0.13920  0.31651  0.59408  Biso   1.000  He
  Ne48     1.0000 0.16923  0.31556  0.59711  Biso   1.000  Ne
  Ne49     1.0000 0.56173  0.04493  0.41885  Biso   1.000  Ne
  He49     1.0000 0.56002  0.05502  0.44994  Biso   1.000  He
  He50     1.0000 0.53322  0.06425  0.46211  Biso   1.000  He
  Ne50     1.0000 0.51733  0.04350  0.48088  Biso   1.000  Ne
  Ne51     1.0000 0.89594  0.29746  0.66898  Biso   1.000  Ne
  He51     1.0000 0.91304  0.28987  0.64037  Biso   1.000  He
  He52     1.0000 0.92295  0.31528  0.62302  Biso   1.000  He
  Ne52     1.0000 0.93913  0.30760  0.59558  Biso   1.000  Ne
  Ne53     1.0000 0.54513  0.39505  0.95526  Biso   1.000  Ne
  He53     1.0000 0.56207  0.40056  0.92795  Biso   1.000  He
  He54     1.0000 0.58742  0.42251  0.93456  Biso   1.000  He
  Ne54     1.0000 0.60499  0.42673  0.90560  Biso   1.000  Ne
  Ne55     1.0000 0.25614  0.54084  0.34236  Biso   1.000  Ne
  He55     1.0000 0.27718  0.52077  0.35951  Biso   1.000  He
  He56     1.0000 0.30534  0.51315  0.34328  Biso   1.000  He
  Ne56     1.0000 0.32510  0.49259  0.36105  Biso   1.000  Ne
  Ne57     1.0000 0.47634  0.93155  0.46400  Biso   1.000  Ne
  He57     1.0000 0.44636  0.94007  0.46518  Biso   1.000  He
  He58     1.0000 0.42953  0.93153  0.43567  Biso   1.000  He
  Ne58     1.0000 0.39830  0.93939  0.43809  Biso   1.000  Ne
  Ne59     1.0000 0.60497  0.57458  0.80329  Biso   1.000  Ne
  He59     1.0000 0.63148  0.58927  0.78663  Biso   1.000  He
  He60     1.0000 0.63121  0.57937  0.75510  Biso   1.000  He
  Ne60     1.0000 0.65934  0.59072  0.73784  Biso   1.000  Ne
  Ne61     1.0000 0.06951  0.90206  0.90854  Biso   1.000  Ne
  He61     1.0000 0.08650  0.91871  0.92971  Biso   1.000  He
  He62     1.0000 0.07005  0.93335  0.95306  Biso   1.000  He
  Ne62     1.0000 0.08764  0.95097  0.97548  Biso   1.000  Ne
  Ne63     1.0000 0.91560  0.25421  0.45719  Biso   1.000  Ne
  He63     1.0000 0.90701  0.28156  0.43911  Biso   1.000  He
  He64     1.0000 0.91005  0.27571  0.40664  Biso   1.000  He
  Ne64     1.0000 0.89715  0.29884  0.38597  Biso   1.000  Ne
  Ne65     1.0000 0.08010  0.55813  0.48150  Biso   1.000  Ne
  He65     1.0000 0.06424  0.55372  0.45311  Biso   1.000  He
  He66     1.0000 0.08455  0.55181  0.42875  Biso   1.000  He
  Ne66     1.0000 0.06936  0.55174  0.39923  Biso   1.000  Ne
  Ne67     1.0000 0.54282  0.19197  0.81392  Biso   1.000  Ne
  He67     1.0000 0.55470  0.21955  0.80136  Biso   1.000  He
  He68     1.0000 0.56779  0.24235  0.82167  Biso   1.000  He
  Ne68     1.0000 0.60040  0.24200  0.82941  Biso   1.000  Ne
  Ne69     1.0000 0.02239  0.79346  0.38332  Biso   1.000  Ne
  He69     1.0000 0.00409  0.79752  0.35584  Biso   1.000  He
  He70     1.0000 0.98705  0.82610  0.35508  Biso   1.000  He
  Ne70     1.0000 0.96471  0.82768  0.32836  Biso   1.000  Ne
  Ne71     1.0000 0.24304  0.74213  0.10716  Biso   1.000  Ne
  He71     1.0000 0.27347  0.73622  0.09230  Biso   1.000  He
  He72     1.0000 0.28206  0.75436  0.06215  Biso   1.000  He
  Ne72     1.0000 0.31462  0.75054  0.05252  Biso   1.000  Ne
  Ne73     1.0000 0.72823  0.75968  0.83139  Biso   1.000  Ne
  He73     1.0000 0.75491  0.74797  0.84865  Biso   1.000  He
  He74     1.0000 0.78502  0.76005  0.84181  Biso   1.000  He
  Ne74     1.0000 0.80831  0.74586  0.86274  Biso   1.000  Ne
  Ne75     1.0000 0.15732  0.22111  0.62418  Biso   1.000  Ne
  He75     1.0000 0.13629  0.23405  0.64848  Biso   1.000  He
  He76     1.0000 0.10509  0.22518  0.64747  Biso   1.000  He
  Ne76     1.0000 0.08857  0.23291  0.67508  Biso   1.000  Ne
  Ne77     1.0000 0.34892  0.23962  0.71895  Biso   1.000  Ne
  He77     1.0000 0.37764  0.25000  0.70902  Biso   1.000  He
  He78     1.0000 0.39841  0.24644  0.72974  Biso   1.000  He
  Ne78     1.0000 0.42852  0.25898  0.71982  Biso   1.000  Ne
  Ne79     1.0000 0.04121  0.15657  0.38275  Biso   1.000  Ne
  He79     1.0000 0.05787  0.18286  0.39718  Biso   1.000  He
  He80     1.0000 0.06951  0.20150  0.37465  Biso   1.000  He
  Ne80     1.0000 0.09143  0.22355  0.38333  Biso   1.000  Ne
  Ne81     1.0000 0.05740  0.72556  0.89878  Biso   1.000  Ne
  He81     1.0000 0.06977  0.75560  0.89274  Biso   1.000  He
  He82     1.0000 0.05738  0.77964  0.91197  Biso   1.000  He
  Ne82     1.0000 0.06814  0.81286  0.90396  Biso   1.000  Ne
  Ne83     1.0000 0.97486  0.48582  0.58195  Biso   1.000  Ne
  He83     1.0000 0.00291  0.49107  0.60077  Biso   1.000  He
  He84     1.0000 0.02817  0.50560  0.58610  Biso   1.000  He
  Ne84     1.0000 0.05538  0.51790  0.60459  Biso   1.000  Ne
  Ne85     1.0000 0.97935  0.01315  0.09824  Biso   1.000  Ne
  He85     1.0000 0.95011  0.00478  0.08601  Biso   1.000  He
  He86     1.0000 0.94968  0.98785  0.05716  Biso   1.000  He
  Ne86     1.0000 0.91905  0.97962  0.04741  Biso   1.000  Ne
  Ne87     1.0000 0.31661  0.06693  0.68502  Biso   1.000  Ne
  He87     1.0000 0.29737  0.06891  0.65819  Biso   1.000  He
  He88     1.0000 0.31069  0.06549  0.62937  Biso   1.000  He
  Ne88     1.0000 0.28827  0.06967  0.60181  Biso   1.000  Ne
  Ne89     1.0000 0.08115  0.08984  0.28402  Biso   1.000  Ne
  He89     1.0000 0.09102  0.09945  0.25125  Biso   1.000  He
  He90     1.0000 0.08888  0.07586  0.23052  Biso   1.000  He
  Ne90     1.0000 0.09707  0.08041  0.19774  Biso   1.000  Ne
  Ne91     1.0000 0.93240  0.07228  0.15113  Biso   1.000  Ne
  He91     1.0000 0.91372  0.09359  0.17349  Biso   1.000  He
  He92     1.0000 0.88102  0.08307  0.17696  Biso   1.000  He
  Ne92     1.0000 0.86235  0.09857  0.19809  Biso   1.000  Ne
  Ne93     1.0000 0.94926  0.40118  0.47434  Biso   1.000  Ne
  He93     1.0000 0.92705  0.42833  0.48040  Biso   1.000  He
  He94     1.0000 0.94124  0.45471  0.48810  Biso   1.000  He
  Ne94     1.0000 0.92164  0.47816  0.49877  Biso   1.000  Ne
  Ne95     1.0000 0.16060  0.29151  0.12311  Biso   1.000  Ne
  He95     1.0000 0.18581  0.26921  0.11930  Biso   1.000  He
  He96     1.0000 0.17802  0.24355  0.09972  Biso   1.000  He
  Ne96     1.0000 0.20217  0.22118  0.10119  Biso   1.000  Ne
  Ne97     1.0000 0.38696  0.06764  0.58850  Biso   1.000  Ne
  He97     1.0000 0.41479  0.06623  0.60782  Biso   1.000  He
  He98     1.0000 0.43451  0.09269  0.60596  Biso   1.000  He
  Ne98     1.0000 0.46122  0.08901  0.59167  Biso   1.000  Ne
  Ne99     1.0000 0.58010  0.77081  0.43782  Biso   1.000  Ne
  He99     1.0000 0.61460  0.77372  0.43550  Biso   1.000  He
  He100    1.0000 0.62591  0.80372  0.42397  Biso   1.000  He
  Ne100    1.0000 0.63087  0.80492  0.39198  Biso   1.000  Ne
  Ne101    1.0000 0.01702  0.44808  0.43994  Biso   1.000  Ne
  He101    1.0000 0.02504  0.45661  0.47158  Biso   1.000  He
  He102    1.0000 0.04189  0.48387  0.47413  Biso   1.000  He
  Ne102    1.0000 0.05221  0.49232  0.50156  Biso   1.000  Ne
  Ne103    1.0000 0.59237  0.90261  0.36676  Biso   1.000  Ne
  He103    1.0000 0.57822  0.88826  0.39239  Biso   1.000  He
  He104    1.0000 0.57121  0.90773  0.41700  Biso   1.000  He
  Ne104    1.0000 0.55551  0.89301  0.44568  Biso   1.000  Ne
  Ne105    1.0000 0.04658  0.75744  0.45859  Biso   1.000  Ne
  He105    1.0000 0.07595  0.76734  0.44610  Biso   1.000  He
  He106    1.0000 0.10812  0.75165  0.45364  Biso   1.000  He
  Ne106    1.0000 0.13242  0.76818  0.43668  Biso   1.000  Ne
  Ne107    1.0000 0.93688  0.06041  0.24114  Biso   1.000  Ne
  He107    1.0000 0.90959  0.07302  0.25622  Biso   1.000  He
  He108    1.0000 0.90158  0.05469  0.28251  Biso   1.000  He
  Ne108    1.0000 0.87667  0.06919  0.30122  Biso   1.000  Ne
  Ne109    1.0000 0.43140  0.74477  0.06404  Biso   1.000  Ne
  He109    1.0000 0.40926  0.72565  0.08195  Biso   1.000  He
  He110    1.0000 0.39902  0.73823  0.11193  Biso   1.000  He
  Ne110    1.0000 0.38300  0.71624  0.13076  Biso   1.000  Ne
  Ne111    1.0000 0.67695  0.62393  0.94286  Biso   1.000  Ne
  He111    1.0000 0.64547  0.63237  0.94649  Biso   1.000  He
  He112    1.0000 0.64078  0.66531  0.94702  Biso   1.000  He
  Ne112    1.0000 0.60718  0.67127  0.94753  Biso   1.000  Ne
  Ne113    1.0000 0.80688  0.12337  0.91543  Biso   1.000  Ne
  He113    1.0000 0.82099  0.09796  0.89692  Biso   1.000  He
  He114    1.0000 0.79783  0.08215  0.88295  Biso   1.000  He
  Ne114    1.0000 0.80613  0.06282  0.85883  Biso   1.000  Ne
  Ne115    1.0000 0.12875  0.82588  0.79790  Biso   1.000  Ne
  He115    1.0000 0.09901  0.84211  0.80335  Biso   1.000  He
  He116    1.0000 0.10164  0.87134  0.81928  Biso   1.000  He
  Ne116    1.0000 0.07493  0.88908  0.82820  Biso   1.000  Ne
  Ne117    1.0000 0.65110  0.40652  0.83476  Biso   1.000  Ne
  He117    1.0000 0.62290  0.42244  0.82725  Biso   1.000  He
  He118    1.0000 0.60546  0.40811  0.80329  Biso   1.000  He
  Ne118    1.0000 0.57824  0.42471  0.79463  Biso   1.000  Ne
  Ne119    1.0000 0.82944  0.58847  0.33069  Biso   1.000  Ne
  He119    1.0000 0.81577  0.58822  0.30234  Biso   1.000  He
  He120    1.0000 0.78353  0.58159  0.30014  Biso   1.000  He
  Ne120    1.0000 0.76861  0.58808  0.27078  Biso   1.000  Ne
  Ne121    1.0000 0.17199  0.68352  0.59000  Biso   1.000  Ne
  He121    1.0000 0.18402  0.65480  0.59908  Biso   1.000  He
  He122    1.0000 0.20206  0.64044  0.57695  Biso   1.000  He
  Ne122    1.0000 0.20893  0.60824  0.58533  Biso   1.000  Ne
  Ne123    1.0000 0.14281  0.57216  0.59225  Biso   1.000  Ne
  He123    1.0000 0.11466  0.57913  0.57733  Biso   1.000  He
  He124    1.0000 0.09516  0.60046  0.59820  Biso   1.000  He
  Ne124    1.0000 0.06731  0.61323  0.58388  Biso   1.000  Ne
  Ne125    1.0000 0.85077  0.59182  0.43104  Biso   1.000  Ne
  He125    1.0000 0.82353  0.57257  0.42498  Biso   1.000  He
  He126    1.0000 0.80071  0.57679  0.44871  Biso   1.000  He
  Ne126    1.0000 0.77219  0.56132  0.44506  Biso   1.000  Ne
  Ne127    1.0000 0.74088  0.08020  0.42690  Biso   1.000  Ne
  He127    1.0000 0.71722  0.06980  0.40724  Biso   1.000  He
  He128    1.0000 0.71161  0.08717  0.38232  Biso   1.000  He
  Ne128    1.0000 0.69956  0.07252  0.35529  Biso   1.000  Ne
  Ne129    1.0000 0.81398  0.36882  0.35224  Biso   1.000  Ne
  He129    1.0000 0.80167  0.35540  0.32290  Biso   1.000  He
  He130    1.0000 0.81953  0.33844  0.30271  Biso   1.000  He
  Ne130    1.0000 0.80648  0.32809  0.27459  Biso   1.000  Ne
  Ne131    1.0000 0.62766  0.90911  0.67451  Biso   1.000  Ne
  He131    1.0000 0.65584  0.89746  0.65946  Biso   1.000  He
  He132    1.0000 0.68017  0.88441  0.68116  Biso   1.000  He
  Ne132    1.0000 0.70729  0.87275  0.66671  Biso   1.000  Ne
  Ne133    1.0000 0.75064  0.24878  0.09881  Biso   1.000  Ne
  He133    1.0000 0.75403  0.28107  0.10453  Biso   1.000  He
  He134    1.0000 0.78012  0.29131  0.09151  Biso   1.000  He
  Ne134    1.0000 0.78308  0.32424  0.09745  Biso   1.000  Ne
  Ne135    1.0000 0.85057  0.90863  0.79281  Biso   1.000  Ne
  He135    1.0000 0.86652  0.88361  0.78171  Biso   1.000  He
  He136    1.0000 0.89487  0.89450  0.76604  Biso   1.000  He
  Ne136    1.0000 0.91520  0.87184  0.75142  Biso   1.000  Ne
  Ne137    1.0000 0.40435  0.64377  0.93192  Biso   1.000  Ne
  He137    1.0000 0.39663  0.67204  0.91693  Biso   1.000  He
  He138    1.0000 0.37566  0.68989  0.93427  Biso   1.000  He
  Ne138    1.0000 0.37011  0.71866  0.92088  Biso   1.000  Ne
  Ne139    1.0000 0.80393  0.86554  0.12603  Biso   1.000  Ne
  He139    1.0000 0.82886  0.85124  0.10960  Biso   1.000  He
  He140    1.0000 0.83994  0.82362  0.12306  Biso   1.000  He
  Ne140    1.0000 0.86626  0.80610  0.10967  Biso   1.000  Ne
  Ne141    1.0000 0.91055  0.58839  0.70861  Biso   1.000  Ne
  He141    1.0000 0.91080  0.56737  0.68177  Biso   1.000  He
  He142    1.0000 0.91482  0.58424  0.65563  Biso   1.000  He
  Ne142    1.0000 0.91336  0.56579  0.62865  Biso   1.000  Ne
  Ne143    1.0000 0.42797  0.39849  0.12064  Biso   1.000  Ne
  He143    1.0000 0.42093  0.36766  0.12997  Biso   1.000  He
  He144    1.0000 0.41785  0.36126  0.16199  Biso   1.000  He
  Ne144    1.0000 0.40835  0.33098  0.16795  Biso   1.000  Ne
  Ne145    1.0000 0.08331  0.55646  0.31034  Biso   1.000  Ne
  He145    1.0000 0.07979  0.58794  0.30398  Biso   1.000  He
  He146    1.0000 0.08528  0.60527  0.33015  Biso   1.000  He
  Ne146    1.0000 0.08905  0.64068  0.32542  Biso   1.000  Ne
  Ne147    1.0000 0.62496  0.51095  0.49767  Biso   1.000  Ne
  He147    1.0000 0.65781  0.52140  0.49457  Biso   1.000  He
  He148    1.0000 0.67979  0.51184  0.51638  Biso   1.000  He
  Ne148    1.0000 0.71059  0.52265  0.50859  Biso   1.000  Ne
  Ne149    1.0000 0.13921  0.85973  0.08172  Biso   1.000  Ne
  He149    1.0000 0.10616  0.85716  0.08069  Biso   1.000  He
  He150    1.0000 0.09053  0.88721  0.06969  Biso   1.000  He
  Ne150    1.0000 0.05727  0.88352  0.06288  Biso   1.000  Ne
  Ne151    1.0000 0.53385  0.40561  0.06642  Biso   1.000  Ne
  He151    1.0000 0.54654  0.42614  0.04315  Biso   1.000  He
  He152    1.0000 0.57747  0.43397  0.05095  Biso   1.000  He
  Ne152    1.0000 0.58931  0.45048  0.02520  Biso   1.000  Ne
  Ne153    1.0000 0.65754  0.24896  0.42435  Biso   1.000  Ne
  He153    1.0000 0.63429  0.25261  0.40065  Biso   1.000  He
  He154    1.0000 0.60471  0.24608  0.41009  Biso   1.000  He
  Ne154    1.0000 0.57773  0.24484  0.38961  Biso   1.000  Ne
  Ne155    1.0000 0.08534  0.83205  0.18699  Biso   1.000  Ne
  He155    1.0000 0.07884  0.82045  0.15943  Biso   1.000  He
  He156    1.0000 0.09848  0.79513  0.15217  Biso   1.000  He
  Ne156    1.0000 0.09122  0.78463  0.12225  Biso   1.000  Ne
  Ne157    1.0000 0.55564  0.72440  0.65269  Biso   1.000  Ne
  He157    1.0000 0.55557  0.70472  0.62255  Biso   1.000  He
  He158    1.0000 0.56410  0.71993  0.59512  Biso   1.000  He
  Ne158    1.0000 0.56158  0.69924  0.56981  Biso   1.000  Ne
  Ne159    1.0000 0.09737  0.04262  0.76595  Biso   1.000  Ne
  He159    1.0000 0.10955  0.06997  0.78234  Biso   1.000  He
  He160    1.0000 0.10447  0.06897  0.81497  Biso   1.000  He
  Ne160    1.0000 0.12245  0.09047  0.82875  Biso   1.000  Ne
  Ne161    1.0000 0.05897  0.17355  0.26796  Biso   1.000  Ne
  He161    1.0000 0.07709  0.20177  0.26403  Biso   1.000  He
  He162    1.0000 0.07881  0.21798  0.29486  Biso   1.000  He
  Ne162    1.0000 0.09592  0.24653  0.29424  Biso   1.000  Ne
  Ne163    1.0000 0.66448  0.08065  0.74978  Biso   1.000  Ne
  He163    1.0000 0.63094  0.08690  0.74564  Biso   1.000  He
  He164    1.0000 0.61877  0.08561  0.71375  Biso   1.000  He
  Ne164    1.0000 0.58528  0.08401  0.71245  Biso   1.000  Ne
  Ne165    1.0000 0.10495  0.17965  0.08791  Biso   1.000  Ne
  He165    1.0000 0.11613  0.19317  0.11599  Biso   1.000  He
  He166    1.0000 0.12374  0.17153  0.13987  Biso   1.000  He
  Ne166    1.0000 0.12401  0.18365  0.17108  Biso   1.000  Ne
  Ne167    1.0000 0.35101  0.16509  0.42104  Biso   1.000  Ne
  He167    1.0000 0.36928  0.13820  0.41964  Biso   1.000  He
  He168    1.0000 0.34912  0.11440  0.42637  Biso   1.000  He
  Ne168    1.0000 0.36201  0.08324  0.43102  Biso   1.000  Ne
  Ne169    1.0000 0.94876  0.55122  0.43912  Biso   1.000  Ne
  He169    1.0000 0.95009  0.56881  0.46670  Biso   1.000  He
  He170    1.0000 0.94547  0.55160  0.49388  Biso   1.000  He
  Ne170    1.0000 0.95544  0.56591  0.52230  Biso   1.000  Ne
  Ne171    1.0000 0.71628  0.09345  0.59128  Biso   1.000  Ne
  He171    1.0000 0.72863  0.07724  0.61507  Biso   1.000  He
  He172    1.0000 0.73457  0.09715  0.64295  Biso   1.000  He
  Ne172    1.0000 0.74990  0.08092  0.66916  Biso   1.000  Ne
  Ne173    1.0000 0.58169  0.58297  0.88028  Biso   1.000  Ne
  He173    1.0000 0.58121  0.57258  0.91192  Biso   1.000  He
  He174    1.0000 0.57317  0.59494  0.93344  Biso   1.000  He
  Ne174    1.0000 0.57388  0.58316  0.96347  Biso   1.000  Ne
  Ne175    1.0000 0.58171  0.81240  0.68965  Biso   1.000  Ne
  He175    1.0000 0.58822  0.82160  0.65868  Biso   1.000  He
  He176    1.0000 0.58788  0.79746  0.63570  Biso   1.000  He
  Ne176    1.0000 0.59188  0.80860  0.60594  Biso   1.000  Ne
  Ne177    1.0000 0.91809  0.69623  0.61825  Biso   1.000  Ne
  He177    1.0000 0.88435  0.69440  0.61137  Biso   1.000  He
  He178    1.0000 0.87319  0.72064  0.59566  Biso   1.000  He
  Ne178    1.0000 0.84135  0.71983  0.58946  Biso   1.000  Ne
  Ne179    1.0000 0.17023  0.88006  0.92320  Biso   1.000  Ne
  He179    1.0000 0.16615  0.84461  0.92404  Biso   1.000  He
  He180    1.0000 0.14986  0.83205  0.90046  Biso   1.000  He
  Ne180    1.0000 0.14905  0.79852  0.90088  Biso   1.000  Ne
  Ne181    1.0000 0.08639  0.41074  0.34312  Biso   1.000  Ne
  He181    1.0000 0.08638  0.38126  0.32926  Biso   1.000  He
  He182    1.0000 0.07695  0.37859  0.29755  Biso   1.000  He
  Ne182    1.0000 0.08193  0.35024  0.28318  Biso   1.000  Ne
  Ne183    1.0000 0.08649  0.90690  0.14423  Biso   1.000  Ne
  He183    1.0000 0.11875  0.91093  0.14625  Biso   1.000  He
  He184    1.0000 0.13339  0.89451  0.17103  Biso   1.000  He
  Ne184    1.0000 0.16679  0.89708  0.17294  Biso   1.000  Ne
  Ne185    1.0000 0.35121  0.14653  0.60742  Biso   1.000  Ne
  He185    1.0000 0.34363  0.17285  0.62433  Biso   1.000  He
  He186    1.0000 0.31171  0.17141  0.63404  Biso   1.000  He
  Ne186    1.0000 0.30242  0.20101  0.64777  Biso   1.000  Ne
  Ne187    1.0000 0.20880  0.68117  0.67330  Biso   1.000  Ne
  He187    1.0000 0.21751  0.64973  0.67082  Biso   1.000  He
  He188    1.0000 0.19967  0.62698  0.68537  Biso   1.000  He
  Ne188    1.0000 0.21263  0.59775  0.68237  Biso   1.000  Ne
  Ne189    1.0000 0.50863  0.01109  0.55603  Biso   1.000  Ne
  He189    1.0000 0.49448  0.98725  0.57674  Biso   1.000  He
  He190    1.0000 0.46403  0.99634  0.58447  Biso   1.000  He
  Ne190    1.0000 0.45045  0.97067  0.60152  Biso   1.000  Ne
  Ne191    1.0000 0.27672  0.67233  0.91287  Biso   1.000  Ne
  He191    1.0000 0.30262  0.65906  0.89344  Biso   1.000  He
  He192    1.0000 0.30701  0.62787  0.89538  Biso   1.000  He
  Ne192    1.0000 0.33602  0.61814  0.87996  Biso   1.000  Ne
  Ne193    1.0000 0.61753  0.07272  0.34303  Biso   1.000  Ne
  He193    1.0000 0.60508  0.10663  0.34286  Biso   1.000  He
  He194    1.0000 0.61008  0.12292  0.37084  Biso   1.000  He
  Ne194    1.0000 0.59330  0.15177  0.36998  Biso   1.000  Ne
  Ne195    1.0000 0.89173  0.91891  0.95601  Biso   1.000  Ne
  He195    1.0000 0.92612  0.92875  0.95711  Biso   1.000  He
  He196    1.0000 0.93411  0.95521  0.93596  Biso   1.000  He
  Ne196    1.0000 0.96557  0.95013  0.92552  Biso   1.000  Ne
  Ne197    1.0000 0.25211  0.05261  0.18815  Biso   1.000  Ne
  He197    1.0000 0.23760  0.07535  0.16942  Biso   1.000  He
  He198    1.0000 0.21367  0.06659  0.15118  Biso   1.000  He
  Ne198    1.0000 0.22159  0.06127  0.11765  Biso   1.000  Ne
  Ne199    1.0000 0.65814  0.88635  0.43647  Biso   1.000  Ne
  He199    1.0000 0.66069  0.90430  0.40709  Biso   1.000  He
  He200    1.0000 0.68076  0.88860  0.38385  Biso   1.000  He
  Ne200    1.0000 0.68229  0.90328  0.35349  Biso   1.000  Ne
  Ne201    1.0000 0.34170  0.82426  0.43206  Biso   1.000  Ne
  He201    1.0000 0.36761  0.81063  0.43791  Biso   1.000  He
  He202    1.0000 0.39101  0.81781  0.41720  Biso   1.000  He
  Ne202    1.0000 0.42185  0.80766  0.43239  Biso   1.000  Ne
  Ne203    1.0000 0.95586  0.39413  0.59190  Biso   1.000  Ne
  He203    1.0000 0.92842  0.41377  0.59340  Biso   1.000  He
  He204    1.0000 0.90720  0.41474  0.56608  Biso   1.000  He
  Ne204    1.0000 0.87777  0.43131  0.57361  Biso   1.000  Ne
  Ne205    1.0000 0.69548  0.75713  0.09484  Biso   1.000  Ne
  He205    1.0000 0.67294  0.73261  0.09758  Biso   1.000  He
  He206    1.0000 0.68294  0.70940  0.11487  Biso   1.000  He
  Ne206    1.0000 0.66182  0.68425  0.11745  Biso   1.000  Ne
  Ne207    1.0000 0.59825  0.42161  0.14994  Biso   1.000  Ne
  He207    1.0000 0.59585  0.41311  0.18255  Biso   1.000  He
  He208    1.0000 0.62196  0.42251  0.20267  Biso   1.000  He
  Ne208    1.0000 0.61373  0.41134  0.23124  Biso   1.000  Ne
  Ne209    1.0000 0.41294  0.29353  0.07831  Biso   1.000  Ne
  He209    1.0000 0.38805  0.27264  0.07709  Biso   1.000  He
  He210    1.0000 0.39287  0.24783  0.05740  Biso   1.000  He
  Ne210    1.0000 0.36663  0.22673  0.05863  Biso   1.000  Ne
  Ne211    1.0000 0.80376  0.41735  0.41662  Biso   1.000  Ne
  He211    1.0000 0.83635  0.41267  0.42244  Biso   1.000  He
  He212    1.0000 0.84217  0.38240  0.44015  Biso   1.000  He
  Ne212    1.0000 0.87689  0.37049  0.44805  Biso   1.000  Ne
  Ne213    1.0000 0.91522  0.66242  0.38955  Biso   1.000  Ne
  He213    1.0000 0.90445  0.63045  0.38453  Biso   1.000  He
  He214    1.0000 0.92279  0.61454  0.36094  Biso   1.000  He
  Ne214    1.0000 0.91678  0.58087  0.36041  Biso   1.000  Ne
  Ne215    1.0000 0.65918  0.22215  0.15285  Biso   1.000  Ne
  He215    1.0000 0.63419  0.24184  0.15933  Biso   1.000  He
  He216    1.0000 0.63867  0.26029  0.18354  Biso   1.000  He
  Ne216    1.0000 0.61464  0.28124  0.19279  Biso   1.000  Ne
  Ne217    1.0000 0.60038  0.26025  0.31187  Biso   1.000  Ne
  He217    1.0000 0.61835  0.24554  0.28802  Biso   1.000  He
  He218    1.0000 0.60056  0.21938  0.27669  Biso   1.000  He
  Ne218    1.0000 0.61538  0.20346  0.24957  Biso   1.000  Ne
  Ne219    1.0000 0.65828  0.32330  0.80532  Biso   1.000  Ne
  He219    1.0000 0.67004  0.29354  0.80287  Biso   1.000  He
  He220    1.0000 0.70154  0.29066  0.79439  Biso   1.000  He
  Ne220    1.0000 0.71400  0.25745  0.80104  Biso   1.000  Ne
  Ne221    1.0000 0.70204  0.69444  0.61498  Biso   1.000  Ne
  He221    1.0000 0.69587  0.72582  0.60449  Biso   1.000  He
  He222    1.0000 0.66766  0.74071  0.61234  Biso   1.000  He
  Ne222    1.0000 0.66120  0.76926  0.59666  Biso   1.000  Ne
  Ne223    1.0000 0.22368  0.91128  0.08870  Biso   1.000  Ne
  He223    1.0000 0.22855  0.88072  0.10273  Biso   1.000  He
  He224    1.0000 0.23927  0.88272  0.13423  Biso   1.000  He
  Ne224    1.0000 0.24864  0.85351  0.15001  Biso   1.000  Ne
  Ne225    1.0000 0.28883  0.25872  0.87543  Biso   1.000  Ne
  He225    1.0000 0.29279  0.27105  0.90716  Biso   1.000  He
  He226    1.0000 0.32336  0.27751  0.91639  Biso   1.000  He
  Ne226    1.0000 0.33013  0.30999  0.91121  Biso   1.000  Ne
  Ne227    1.0000 0.11816  0.70995  0.77907  Biso   1.000  Ne
  He227    1.0000 0.13644  0.68415  0.76580  Biso   1.000  He
  He228    1.0000 0.16097  0.67411  0.78606  Biso   1.000  He
  Ne228    1.0000 0.18276  0.65622  0.77110  Biso   1.000  Ne
  Ne229    1.0000 0.31496  0.73178  0.40475  Biso   1.000  Ne
  He229    1.0000 0.32837  0.71919  0.43109  Biso   1.000  He
  He230    1.0000 0.31486  0.72423  0.46048  Biso   1.000  He
  Ne230    1.0000 0.33175  0.71139  0.48584  Biso   1.000  Ne
  Ne231    1.0000 0.30874  0.08509  0.31215  Biso   1.000  Ne
  He231    1.0000 0.27747  0.07132  0.31578  Biso   1.000  He
  He232    1.0000 0.26457  0.07019  0.34654  Biso   1.000  He
  Ne232    1.0000 0.23136  0.06180  0.34514  Biso   1.000  Ne
  Ne233    1.0000 0.21818  0.08803  0.90691  Biso   1.000  Ne
  He233    1.0000 0.19279  0.06831  0.91002  Biso   1.000  He
  He234    1.0000 0.16280  0.07995  0.91930  Biso   1.000  He
  Ne234    1.0000 0.14017  0.05546  0.92102  Biso   1.000  Ne
  Ne235    1.0000 0.82577  0.81487  0.94151  Biso   1.000  Ne
  He235    1.0000 0.84831  0.79720  0.94998  Biso   1.000  He
  He236    1.0000 0.87965  0.80678  0.94229  Biso   1.000  He
  Ne236    1.0000 0.90419  0.78392  0.95182  Biso   1.000  Ne
  Ne237    1.0000 0.75202  0.57725  0.89312  Biso   1.000  Ne
  He237    1.0000 0.72605  0.58332  0.87036  Biso   1.000  He
  He238    1.0000 0.69832  0.56729  0.87507  Biso   1.000  He
  Ne238    1.0000 0.67426  0.57505  0.85608  Biso   1.000  Ne
  Ne239    1.0000 0.98383  0.90082  0.39878  Biso   1.000  Ne
  He239    1.0000 0.99388  0.89168  0.43023  Biso   1.000  He
  He240    1.0000 0.99321  0.85971  0.43754  Biso   1.000  He
  Ne240    1.0000 0.00544  0.85302  0.46627  Biso   1.000  Ne
  Ne241    1.0000 0.40868  0.25872  0.56880  Biso   1.000  Ne
  He241    1.0000 0.40297  0.22595  0.57366  Biso   1.000  He
  He242    1.0000 0.43317  0.21078  0.57294  Biso   1.000  He
  Ne242    1.0000 0.43005  0.17799  0.57955  Biso   1.000  Ne
  Ne243    1.0000 0.93509  0.23955  0.92474  Biso   1.000  Ne
  He243    1.0000 0.90133  0.23923  0.91890  Biso   1.000  He
  He244    1.0000 0.88185  0.25759  0.93862  Biso   1.000  He
  Ne244    1.0000 0.84808  0.25478  0.93271  Biso   1.000  Ne
  Ne245    1.0000 0.11475  0.19180  0.88423  Biso   1.000  Ne
  He245    1.0000 0.09883  0.16577  0.89570  Biso   1.000  He
  He246    1.0000 0.11550  0.15394  0.92373  Biso   1.000  He
  Ne246    1.0000 0.09668  0.13250  0.93874  Biso   1.000  Ne
  Ne247    1.0000 0.85894  0.41745  0.65722  Biso   1.000  Ne
  He247    1.0000 0.87131  0.40986  0.68785  Biso   1.000  He
  He248    1.0000 0.90429  0.41864  0.69180  Biso   1.000  He
  Ne248    1.0000 0.91472  0.41774  0.72152  Biso   1.000  Ne
  Ne249    1.0000 0.68131  0.40490  0.10919  Biso   1.000  Ne
  He249    1.0000 0.70516  0.40110  0.08504  Biso   1.000  He
  He250    1.0000 0.73436  0.41528  0.08895  Biso   1.000  He
  Ne250    1.0000 0.75568  0.41046  0.06442  Biso   1.000  Ne
  Ne251    1.0000 0.80005  0.84184  0.84333  Biso   1.000  Ne
  He251    1.0000 0.80076  0.86316  0.86833  Biso   1.000  He
  He252    1.0000 0.83065  0.87655  0.87306  Biso   1.000  He
  Ne252    1.0000 0.82836  0.89935  0.89570  Biso   1.000  Ne
  Ne253    1.0000 0.91722  0.40865  0.37575  Biso   1.000  Ne
  He253    1.0000 0.88913  0.41150  0.35885  Biso   1.000  He
  He254    1.0000 0.89291  0.40921  0.32558  Biso   1.000  He
  Ne254    1.0000 0.86642  0.41668  0.30634  Biso   1.000  Ne
  Ne255    1.0000 0.42334  0.06206  0.48310  Biso   1.000  Ne
  He255    1.0000 0.44206  0.06931  0.45759  Biso   1.000  He
  He256    1.0000 0.44556  0.04406  0.43674  Biso   1.000  He
  Ne256    1.0000 0.46031  0.04875  0.40649  Biso   1.000  Ne
  Ne257    1.0000 0.23228  0.94042  0.38202  Biso   1.000  Ne
  He257    1.0000 0.21433  0.92192  0.36060  Biso   1.000  He
  He258    1.0000 0.22712  0.89099  0.35957  Biso   1.000  He
  Ne258    1.0000 0.21341  0.87323  0.33507  Biso   1.000  Ne
  Ne259    1.0000 0.13672  0.09871  0.09571  Biso   1.000  Ne
  He259    1.0000 0.10459  0.08809  0.10452  Biso   1.000  He
  He260    1.0000 0.09765  0.05725  0.09320  Biso   1.000  He
  Ne260    1.0000 0.06650  0.04381  0.09631  Biso   1.000  Ne
  Ne261    1.0000 0.25953  0.60551  0.39992  Biso   1.000  Ne
  He261    1.0000 0.27840  0.61243  0.42436  Biso   1.000  He
  He262    1.0000 0.30005  0.63755  0.42128  Biso   1.000  He
  Ne262    1.0000 0.31860  0.64348  0.44699  Biso   1.000  Ne
  Ne263    1.0000 0.43326  0.28606  0.90836  Biso   1.000  Ne
  He263    1.0000 0.42480  0.26034  0.88995  Biso   1.000  He
  He264    1.0000 0.39636  0.24656  0.90250  Biso   1.000  He
  Ne264    1.0000 0.38784  0.21920  0.88275  Biso   1.000  Ne
  Ne265    1.0000 0.17034  0.72411  0.34742  Biso   1.000  Ne
  He265    1.0000 0.19188  0.70259  0.36079  Biso   1.000  He
  He266    1.0000 0.18015  0.67390  0.36064  Biso   1.000  He
  Ne266    1.0000 0.20071  0.64775  0.36354  Biso   1.000  Ne
  Ne267    1.0000 0.21849  0.34218  0.28245  Biso   1.000  Ne
  He267    1.0000 0.21004  0.35723  0.31039  Biso   1.000  He
  He268    1.0000 0.18912  0.38333  0.30888  Biso   1.000  He
  Ne268    1.0000 0.17669  0.39362  0.33829  Biso   1.000  Ne
  Ne269    1.0000 0.76089  0.66092  0.46198  Biso   1.000  Ne
  He269    1.0000 0.77669  0.67823  0.43712  Biso   1.000  He
  He270    1.0000 0.81046  0.67067  0.43543  Biso   1.000  He
  Ne270    1.0000 0.82177  0.68296  0.40775  Biso   1.000  Ne
  Ne271    1.0000 0.09899  0.72049  0.25083  Biso   1.000  Ne
  He271    1.0000 0.08098  0.69165  0.25438  Biso   1.000  He
  He272    1.0000 0.09844  0.66652  0.23817  Biso   1.000  He
  Ne272    1.0000 0.07953  0.63769  0.23990  Biso   1.000  Ne
  Ne273    1.0000 0.07145  0.63742  0.43550  Biso   1.000  Ne
  He273    1.0000 0.09354  0.65873  0.42690  Biso   1.000  He
  He274    1.0000 0.12289  0.65454  0.43714  Biso   1.000  He
  Ne274    1.0000 0.14461  0.68058  0.42948  Biso   1.000  Ne
  Ne275    1.0000 0.59063  0.53042  0.06046  Biso   1.000  Ne
  He275    1.0000 0.58067  0.55060  0.08419  Biso   1.000  He
  He276    1.0000 0.55453  0.53663  0.09714  Biso   1.000  He
  Ne276    1.0000 0.53858  0.55229  0.12220  Biso   1.000  Ne
  Ne277    1.0000 0.34147  0.91703  0.36153  Biso   1.000  Ne
  He277    1.0000 0.36714  0.90609  0.34477  Biso   1.000  He
  He278    1.0000 0.39514  0.90609  0.36421  Biso   1.000  He
  Ne278    1.0000 0.42141  0.89094  0.34892  Biso   1.000  Ne
  Ne279    1.0000 0.51242  0.66966  0.69844  Biso   1.000  Ne
  He279    1.0000 0.51892  0.67926  0.72983  Biso   1.000  He
  He280    1.0000 0.54838  0.69343  0.73374  Biso   1.000  He
  Ne280    1.0000 0.55198  0.70674  0.76450  Biso   1.000  Ne
  Ne281    1.0000 0.87625  0.04103  0.93918  Biso   1.000  Ne
  He281    1.0000 0.90156  0.02998  0.92525  Biso   1.000  He
  He282    1.0000 0.91683  0.05270  0.90688  Biso   1.000  He
  Ne282    1.0000 0.94222  0.04241  0.88978  Biso   1.000  Ne
  Ne283    1.0000 0.67318  0.62738  0.51599  Biso   1.000  Ne
  He283    1.0000 0.67739  0.64542  0.54343  Biso   1.000  He
  He284    1.0000 0.65394  0.66897  0.55257  Biso   1.000  He
  Ne284    1.0000 0.65841  0.69976  0.54293  Biso   1.000  Ne
  Ne285    1.0000 0.88658  0.17445  0.07987  Biso   1.000  Ne
  He285    1.0000 0.85854  0.18375  0.09290  Biso   1.000  He
  He286    1.0000 0.83512  0.16179  0.09045  Biso   1.000  He
  Ne286    1.0000 0.80477  0.17021  0.10119  Biso   1.000  Ne
  Ne287    1.0000 0.72452  0.65858  0.82564  Biso   1.000  Ne
  He287    1.0000 0.75762  0.66353  0.82141  Biso   1.000  He
  He288    1.0000 0.77848  0.64639  0.84211  Biso   1.000  He
  Ne288    1.0000 0.81139  0.64830  0.83206  Biso   1.000  Ne
  Ne289    1.0000 0.82584  0.06161  0.09466  Biso   1.000  Ne
  He289    1.0000 0.85483  0.07693  0.08472  Biso   1.000  He
  He290    1.0000 0.87647  0.05615  0.07103  Biso   1.000  He
  Ne290    1.0000 0.90780  0.07004  0.06530  Biso   1.000  Ne
  Ne291    1.0000 0.83539  0.60475  0.61641  Biso   1.000  Ne
  He291    1.0000 0.80769  0.58908  0.61349  Biso   1.000  He
  He292    1.0000 0.79360  0.58127  0.64230  Biso   1.000  He
  Ne292    1.0000 0.76158  0.57164  0.64415  Biso   1.000  Ne
  Ne293    1.0000 0.75074  0.76480  0.93856  Biso   1.000  Ne
  He293    1.0000 0.73486  0.73568  0.93266  Biso   1.000  He
  He294    1.0000 0.75452  0.70903  0.93217  Biso   1.000  He
  Ne294    1.0000 0.74093  0.68003  0.92753  Biso   1.000  Ne
  Ne295    1.0000 0.35066  0.89587  0.70265  Biso   1.000  Ne
  He295    1.0000 0.34131  0.90237  0.67108  Biso   1.000  He
  He296    1.0000 0.34059  0.87848  0.64788  Biso   1.000  He
  Ne296    1.0000 0.32908  0.88968  0.61892  Biso   1.000  Ne
  Ne297    1.0000 0.83724  0.23043  0.27907  Biso   1.000  Ne
  He297    1.0000 0.86348  0.23025  0.29782  Biso   1.000  He
  He298    1.0000 0.88575  0.25601  0.29367  Biso   1.000  He
  Ne298    1.0000 0.90925  0.25660  0.31964  Biso   1.000  Ne
  Ne299    1.0000 0.18480  0.34977  0.44110  Biso   1.000  Ne
  He299    1.0000 0.17020  0.33457  0.41660  Biso   1.000  He
  He300    1.0000 0.14884  0.31363  0.42917  Biso   1.000  He
  Ne300    1.0000 0.12712  0.30024  0.40878  Biso   1.000  Ne
  Ne301    1.0000 0.62950  0.56444  0.14532  Biso   1.000  Ne
  He301    1.0000 0.65572  0.58438  0.15134  Biso   1.000  He
  He302    1.0000 0.68402  0.56715  0.15509  Biso   1.000  He
  Ne302    1.0000 0.70083  0.56088  0.12639  Biso   1.000  Ne
  Ne303    1.0000 0.13190  0.56728  0.79368  Biso   1.000  Ne
  He303    1.0000 0.10916  0.58090  0.77627  Biso   1.000  He
  He304    1.0000 0.11516  0.57558  0.74436  Biso   1.000  He
  Ne304    1.0000 0.08995  0.58396  0.72207  Biso   1.000  Ne
  Ne305    1.0000 0.43279  0.12507  0.36240  Biso   1.000  Ne
  He305    1.0000 0.40702  0.11317  0.34559  Biso   1.000  He
  He306    1.0000 0.39823  0.08155  0.35292  Biso   1.000  He
  Ne306    1.0000 0.37863  0.06798  0.32932  Biso   1.000  Ne
  Ne307    1.0000 0.42941  0.90130  0.77144  Biso   1.000  Ne
  He307    1.0000 0.40119  0.91862  0.77743  Biso   1.000  He
  He308    1.0000 0.38534  0.91272  0.80559  Biso   1.000  He
  Ne308    1.0000 0.35467  0.92564  0.80892  Biso   1.000  Ne
  Ne309    1.0000 0.06163  0.35730  0.43392  Biso   1.000  Ne
  He309    1.0000 0.07818  0.38365  0.42399  Biso   1.000  He
  He310    1.0000 0.11111  0.38243  0.42991  Biso   1.000  He
  Ne310    1.0000 0.12598  0.40792  0.41980  Biso   1.000  Ne
  Ne311    1.0000 0.62088  0.69657  0.80555  Biso   1.000  Ne
  He311    1.0000 0.59796  0.68649  0.82761  Biso   1.000  He
  He312    1.0000 0.61052  0.66499  0.84928  Biso   1.000  He
  Ne312    1.0000 0.58965  0.65790  0.87584  Biso   1.000  Ne
  Ne313    1.0000 0.81172  0.27172  0.41189  Biso   1.000  Ne
  He313    1.0000 0.79023  0.28805  0.42854  Biso   1.000  He
  He314    1.0000 0.79178  0.32072  0.42174  Biso   1.000  He
  Ne314    1.0000 0.76985  0.33808  0.43855  Biso   1.000  Ne
  Ne315    1.0000 0.42773  0.19297  0.42326  Biso   1.000  Ne
  He315    1.0000 0.41737  0.21481  0.40161  Biso   1.000  He
  He316    1.0000 0.43812  0.23641  0.38884  Biso   1.000  He
  Ne316    1.0000 0.42934  0.24998  0.36012  Biso   1.000  Ne
  Ne317    1.0000 0.56422  0.67595  0.11156  Biso   1.000  Ne
  He317    1.0000 0.58337  0.66004  0.13428  Biso   1.000  He
  He318    1.0000 0.56653  0.64261  0.15422  Biso   1.000  He
  Ne318    1.0000 0.58673  0.62715  0.17715  Biso   1.000  Ne
  Ne319    1.0000 0.04145  0.99520  0.03787  Biso   1.000  Ne
  He319    1.0000 0.01923  0.98016  0.01954  Biso   1.000  He
  He320    1.0000 0.01531  0.94849  0.02695  Biso   1.000  He
  Ne320    1.0000 0.99257  0.93049  0.00891  Biso   1.000  Ne
  Ne321    1.0000 0.14466  0.21591  0.45943  Biso   1.000  Ne
  He321    1.0000 0.17261  0.20191  0.46172  Biso   1.000  He
  He322    1.0000 0.18850  0.19512  0.43277  Biso   1.000  He
  Ne322    1.0000 0.21124  0.17511  0.44013  Biso   1.000  Ne
  Ne323    1.0000 0.61466  0.81543  0.78042  Biso   1.000  Ne
  He323    1.0000 0.59522  0.84161  0.77908  Biso   1.000  He
  He324    1.0000 0.60560  0.86848  0.75876  Biso   1.000  He
  Ne324    1.0000 0.58304  0.88996  0.75528  Biso   1.000  Ne
  Ne325    1.0000 0.88180  0.06709  0.76937  Biso   1.000  Ne
  He325    1.0000 0.90869  0.06120  0.79021  Biso   1.000  He
  He326    1.0000 0.92818  0.08706  0.79407  Biso   1.000  He
  Ne326    1.0000 0.95072  0.08250  0.81907  Biso   1.000  Ne
  Ne327    1.0000 0.41313  0.84403  0.60001  Biso   1.000  Ne
  He327    1.0000 0.39667  0.82780  0.62528  Biso   1.000  He
  He328    1.0000 0.41443  0.80181  0.63851  Biso   1.000  He
  Ne328    1.0000 0.39820  0.78625  0.66424  Biso   1.000  Ne
  Ne329    1.0000 0.45224  0.55921  0.06888  Biso   1.000  Ne
  He329    1.0000 0.42493  0.55861  0.09066  Biso   1.000  He
  He330    1.0000 0.39699  0.54727  0.07322  Biso   1.000  He
  Ne330    1.0000 0.36816  0.54689  0.08691  Biso   1.000  Ne
  Ne331    1.0000 0.45155  0.42915  0.00535  Biso   1.000  Ne
  He331    1.0000 0.45326  0.40698  0.98008  Biso   1.000  He
  He332    1.0000 0.43470  0.41503  0.95246  Biso   1.000  He
  Ne332    1.0000 0.43897  0.39777  0.92534  Biso   1.000  Ne
  Ne333    1.0000 0.57227  0.88776  0.27175  Biso   1.000  Ne
  He333    1.0000 0.60337  0.88561  0.28519  Biso   1.000  He
  He334    1.0000 0.62493  0.86648  0.26952  Biso   1.000  He
  Ne334    1.0000 0.65509  0.86254  0.28121  Biso   1.000  Ne
  Ne335    1.0000 0.94106  0.12545  0.92563  Biso   1.000  Ne
  He335    1.0000 0.92383  0.14210  0.90293  Biso   1.000  He
  He336    1.0000 0.93866  0.13756  0.87102  Biso   1.000  He
  Ne336    1.0000 0.92126  0.14761  0.84516  Biso   1.000  Ne
  Ne337    1.0000 0.83208  0.32368  0.61415  Biso   1.000  Ne
  He337    1.0000 0.80529  0.34377  0.60325  Biso   1.000  He
  He338    1.0000 0.80955  0.37630  0.60976  Biso   1.000  He
  Ne338    1.0000 0.78298  0.39436  0.60425  Biso   1.000  Ne
  Ne339    1.0000 0.74176  0.42267  0.22030  Biso   1.000  Ne
  He339    1.0000 0.71418  0.41226  0.20395  Biso   1.000  He
  He340    1.0000 0.71518  0.38010  0.19376  Biso   1.000  He
  Ne340    1.0000 0.69058  0.36917  0.17353  Biso   1.000  Ne
