data_image0
_cell_length_a       46.6899
_cell_length_b       46.6238
_cell_length_c       46.5419
_cell_angle_alpha    90
_cell_angle_beta     90
_cell_angle_gamma    90

_symmetry_space_group_name_H-M    "P 1"
_symmetry_int_tables_number       1

loop_
  _symmetry_equiv_pos_as_xyz
  'x, y, z'

loop_
  _atom_site_label
  _atom_site_occupancy
  _atom_site_fract_x
  _atom_site_fract_y
  _atom_site_fract_z
  _atom_site_thermal_displace_type
  _atom_site_B_iso_or_equiv
  _atom_site_type_symbol
  Ne1      1.0000 0.44668  0.07147  0.57935  Biso   1.000  Ne
  He1      1.0000 0.43416  0.07317  0.61006  Biso   1.000  He
  He2      1.0000 0.40130  0.06361  0.61289  Biso   1.000  He
  Ne2      1.0000 0.38483  0.07656  0.64137  Biso   1.000  Ne
  Ne3      1.0000 0.71142  0.17358  0.62480  Biso   1.000  Ne
  He3      1.0000 0.74276  0.17711  0.62986  Biso   1.000  He
  He4      1.0000 0.75546  0.20644  0.62161  Biso   1.000  He
  Ne4      1.0000 0.78820  0.20577  0.62845  Biso   1.000  Ne
  Ne5      1.0000 0.48460  0.44392  0.93927  Biso   1.000  Ne
  He5      1.0000 0.45964  0.42383  0.94677  Biso   1.000  He
  He6      1.0000 0.43018  0.44012  0.94964  Biso   1.000  He
  Ne6      1.0000 0.40546  0.41977  0.95912  Biso   1.000  Ne
  Ne7      1.0000 0.39594  0.37561  0.19464  Biso   1.000  Ne
  He7      1.0000 0.40883  0.38910  0.16699  Biso   1.000  He
  He8      1.0000 0.44249  0.38018  0.16093  Biso   1.000  He
  Ne8      1.0000 0.45144  0.39387  0.13112  Biso   1.000  Ne
  Ne9      1.0000 0.14675  0.74784  0.69523  Biso   1.000  Ne
  He9      1.0000 0.12682  0.72145  0.69616  Biso   1.000  He
  He10     1.0000 0.13320  0.69612  0.67801  Biso   1.000  He
  Ne10     1.0000 0.11258  0.67136  0.68151  Biso   1.000  Ne
  Ne11     1.0000 0.32986  0.39618  0.93941  Biso   1.000  Ne
  He11     1.0000 0.29557  0.40179  0.94252  Biso   1.000  He
  He12     1.0000 0.28015  0.37156  0.94849  Biso   1.000  He
  Ne12     1.0000 0.24892  0.37309  0.94566  Biso   1.000  Ne
  Ne13     1.0000 0.72970  0.25922  0.89027  Biso   1.000  Ne
  He13     1.0000 0.73744  0.27953  0.91330  Biso   1.000  He
  He14     1.0000 0.72555  0.31021  0.90996  Biso   1.000  He
  Ne14     1.0000 0.69622  0.31266  0.92638  Biso   1.000  Ne
  Ne15     1.0000 0.73309  0.74596  0.09089  Biso   1.000  Ne
  He15     1.0000 0.76771  0.74889  0.09554  Biso   1.000  He
  He16     1.0000 0.78249  0.77840  0.09758  Biso   1.000  He
  Ne16     1.0000 0.81607  0.77582  0.10409  Biso   1.000  Ne
  Ne17     1.0000 0.86396  0.80192  0.94684  Biso   1.000  Ne
  He17     1.0000 0.89857  0.79914  0.94112  Biso   1.000  He
  He18     1.0000 0.91324  0.77012  0.94703  Biso   1.000  He
  Ne18     1.0000 0.94444  0.77326  0.93725  Biso   1.000  Ne
  Ne19     1.0000 0.81741  0.83321  0.28373  Biso   1.000  Ne
  He19     1.0000 0.83536  0.85718  0.26499  Biso   1.000  He
  He20     1.0000 0.86670  0.85302  0.26268  Biso   1.000  He
  Ne20     1.0000 0.88259  0.87464  0.24156  Biso   1.000  Ne
  Ne21     1.0000 0.18964  0.57212  0.42164  Biso   1.000  Ne
  He21     1.0000 0.17146  0.55394  0.44135  Biso   1.000  He
  He22     1.0000 0.14901  0.57078  0.46022  Biso   1.000  He
  Ne22     1.0000 0.13134  0.54927  0.47495  Biso   1.000  Ne
  Ne23     1.0000 0.28582  0.88763  0.41889  Biso   1.000  Ne
  He23     1.0000 0.31798  0.88050  0.41620  Biso   1.000  He
  He24     1.0000 0.32709  0.85227  0.42950  Biso   1.000  He
  Ne24     1.0000 0.35988  0.84757  0.42981  Biso   1.000  Ne
  Ne25     1.0000 0.58980  0.35270  0.93596  Biso   1.000  Ne
  He25     1.0000 0.61956  0.36194  0.94871  Biso   1.000  He
  He26     1.0000 0.63745  0.37760  0.92569  Biso   1.000  He
  Ne26     1.0000 0.66649  0.38799  0.93682  Biso   1.000  Ne
  Ne27     1.0000 0.63946  0.90754  0.22617  Biso   1.000  Ne
  He27     1.0000 0.61757  0.89089  0.20654  Biso   1.000  He
  He28     1.0000 0.59478  0.91053  0.19294  Biso   1.000  He
  Ne28     1.0000 0.56833  0.91549  0.21271  Biso   1.000  Ne
  Ne29     1.0000 0.60393  0.14316  0.63029  Biso   1.000  Ne
  He29     1.0000 0.58942  0.11459  0.63177  Biso   1.000  He
  He30     1.0000 0.61171  0.09308  0.64003  Biso   1.000  He
  Ne30     1.0000 0.60424  0.06084  0.64541  Biso   1.000  Ne
  Ne31     1.0000 0.47376  0.54887  0.29492  Biso   1.000  Ne
  He31     1.0000 0.47069  0.56931  0.31994  Biso   1.000  He
  He32     1.0000 0.45198  0.59715  0.31035  Biso   1.000  He
  Ne32     1.0000 0.44355  0.61990  0.33341  Biso   1.000  Ne
  Ne33     1.0000 0.42768  0.41614  0.83079  Biso   1.000  Ne
  He33     1.0000 0.40941  0.39383  0.83706  Biso   1.000  He
  He34     1.0000 0.38146  0.40502  0.84917  Biso   1.000  He
  Ne34     1.0000 0.35869  0.38164  0.85757  Biso   1.000  Ne
  Ne35     1.0000 0.00706  0.98777  0.07740  Biso   1.000  Ne
  He35     1.0000 0.97361  0.98008  0.07219  Biso   1.000  He
  He36     1.0000 0.96441  0.96876  0.04357  Biso   1.000  He
  Ne36     1.0000 0.93001  0.96159  0.04057  Biso   1.000  Ne
  Ne37     1.0000 0.18668  0.12766  0.11933  Biso   1.000  Ne
  He37     1.0000 0.18792  0.09642  0.13090  Biso   1.000  He
  He38     1.0000 0.15834  0.08131  0.12586  Biso   1.000  He
  Ne38     1.0000 0.16048  0.05085  0.13999  Biso   1.000  Ne
  Ne39     1.0000 0.63144  0.61928  0.93723  Biso   1.000  Ne
  He39     1.0000 0.60513  0.60891  0.94953  Biso   1.000  He
  He40     1.0000 0.60713  0.57735  0.95641  Biso   1.000  He
  Ne40     1.0000 0.57693  0.56339  0.97091  Biso   1.000  Ne
  Ne41     1.0000 0.74767  0.60451  0.92258  Biso   1.000  Ne
  He41     1.0000 0.73435  0.57376  0.92463  Biso   1.000  He
  He42     1.0000 0.70249  0.57883  0.92151  Biso   1.000  He
  Ne42     1.0000 0.68344  0.55183  0.92305  Biso   1.000  Ne
  Ne43     1.0000 0.10909  0.65135  0.44472  Biso   1.000  Ne
  He43     1.0000 0.09818  0.63843  0.41811  Biso   1.000  He
  He44     1.0000 0.11142  0.65232  0.39253  Biso   1.000  He
  Ne44     1.0000 0.10000  0.64085  0.36216  Biso   1.000  Ne
  Ne45     1.0000 0.71307  0.82823  0.33906  Biso   1.000  Ne
  He45     1.0000 0.72197  0.84582  0.31184  Biso   1.000  He
  He46     1.0000 0.69569  0.85823  0.29334  Biso   1.000  He
  Ne46     1.0000 0.69739  0.84400  0.26302  Biso   1.000  Ne
  Ne47     1.0000 0.37955  0.21635  0.92102  Biso   1.000  Ne
  He47     1.0000 0.36466  0.24747  0.91668  Biso   1.000  He
  He48     1.0000 0.33339  0.25038  0.92695  Biso   1.000  He
  Ne48     1.0000 0.31667  0.28024  0.92287  Biso   1.000  Ne
  Ne49     1.0000 0.40315  0.11765  0.70899  Biso   1.000  Ne
  He49     1.0000 0.40736  0.10476  0.73524  Biso   1.000  He
  He50     1.0000 0.43291  0.11771  0.75440  Biso   1.000  He
  Ne50     1.0000 0.44289  0.09911  0.78212  Biso   1.000  Ne
  Ne51     1.0000 0.15945  0.87702  0.10066  Biso   1.000  Ne
  He51     1.0000 0.15131  0.89239  0.12831  Biso   1.000  He
  He52     1.0000 0.16758  0.88079  0.15456  Biso   1.000  He
  Ne52     1.0000 0.15982  0.89212  0.18443  Biso   1.000  Ne
  Ne53     1.0000 0.12496  0.30180  0.42309  Biso   1.000  Ne
  He53     1.0000 0.10007  0.29134  0.40157  Biso   1.000  He
  He54     1.0000 0.11223  0.29076  0.37179  Biso   1.000  He
  Ne54     1.0000 0.08951  0.28307  0.34758  Biso   1.000  Ne
  Ne55     1.0000 0.55260  0.80903  0.85181  Biso   1.000  Ne
  He55     1.0000 0.57487  0.79884  0.83111  Biso   1.000  He
  He56     1.0000 0.59103  0.77171  0.84437  Biso   1.000  He
  Ne56     1.0000 0.61153  0.75965  0.82240  Biso   1.000  Ne
  Ne57     1.0000 0.43717  0.66730  0.94944  Biso   1.000  Ne
  He57     1.0000 0.44049  0.69441  0.93198  Biso   1.000  He
  He58     1.0000 0.41325  0.69826  0.91227  Biso   1.000  He
  Ne58     1.0000 0.41760  0.72271  0.89165  Biso   1.000  Ne
  Ne59     1.0000 0.76986  0.00189  0.33815  Biso   1.000  Ne
  He59     1.0000 0.80261  0.01149  0.34396  Biso   1.000  He
  He60     1.0000 0.82287  0.98650  0.34605  Biso   1.000  He
  Ne60     1.0000 0.85475  0.99474  0.35455  Biso   1.000  Ne
  Ne61     1.0000 0.62543  0.97048  0.83220  Biso   1.000  Ne
  He61     1.0000 0.65204  0.95232  0.83344  Biso   1.000  He
  He62     1.0000 0.67141  0.94796  0.80664  Biso   1.000  He
  Ne62     1.0000 0.69744  0.93194  0.81020  Biso   1.000  Ne
  Ne63     1.0000 0.40897  0.53546  0.20912  Biso   1.000  Ne
  He63     1.0000 0.42862  0.56360  0.21342  Biso   1.000  He
  He64     1.0000 0.41710  0.59106  0.19789  Biso   1.000  He
  Ne64     1.0000 0.44011  0.61544  0.19651  Biso   1.000  Ne
  Ne65     1.0000 0.92562  0.36367  0.57477  Biso   1.000  Ne
  He65     1.0000 0.90223  0.35494  0.59200  Biso   1.000  He
  He66     1.0000 0.87285  0.36040  0.57704  Biso   1.000  He
  Ne66     1.0000 0.84703  0.35356  0.59314  Biso   1.000  Ne
  Ne67     1.0000 0.93566  0.72894  0.12858  Biso   1.000  Ne
  He67     1.0000 0.94834  0.76051  0.13522  Biso   1.000  He
  He68     1.0000 0.93209  0.77398  0.15825  Biso   1.000  He
  Ne68     1.0000 0.94067  0.80341  0.16664  Biso   1.000  Ne
  Ne69     1.0000 0.95441  0.33015  0.23808  Biso   1.000  Ne
  He69     1.0000 0.92281  0.33003  0.22639  Biso   1.000  He
  He70     1.0000 0.89835  0.32416  0.25205  Biso   1.000  He
  Ne70     1.0000 0.86610  0.32224  0.24167  Biso   1.000  Ne
  Ne71     1.0000 0.75511  0.86369  0.13001  Biso   1.000  Ne
  He71     1.0000 0.78857  0.86303  0.13961  Biso   1.000  He
  He72     1.0000 0.79880  0.84476  0.16311  Biso   1.000  He
  Ne72     1.0000 0.83105  0.84731  0.16603  Biso   1.000  Ne
  Ne73     1.0000 0.79396  0.63173  0.44315  Biso   1.000  Ne
  He73     1.0000 0.76536  0.63885  0.45550  Biso   1.000  He
  He74     1.0000 0.74236  0.63372  0.43359  Biso   1.000  He
  Ne74     1.0000 0.71380  0.64291  0.44191  Biso   1.000  Ne
  Ne75     1.0000 0.31471  0.04091  0.35427  Biso   1.000  Ne
  He75     1.0000 0.32103  0.05247  0.38459  Biso   1.000  He
  He76     1.0000 0.29616  0.06860  0.40157  Biso   1.000  He
  Ne76     1.0000 0.29944  0.07315  0.43667  Biso   1.000  Ne
  Ne77     1.0000 0.66407  0.58184  0.82730  Biso   1.000  Ne
  He77     1.0000 0.63568  0.58849  0.84195  Biso   1.000  He
  He78     1.0000 0.63223  0.61818  0.85535  Biso   1.000  He
  Ne78     1.0000 0.60154  0.62277  0.86979  Biso   1.000  Ne
  Ne79     1.0000 0.39998  0.75733  0.70581  Biso   1.000  Ne
  He79     1.0000 0.42939  0.75344  0.72381  Biso   1.000  He
  He80     1.0000 0.44318  0.72434  0.71587  Biso   1.000  He
  Ne80     1.0000 0.47471  0.71810  0.72685  Biso   1.000  Ne
  Ne81     1.0000 0.90944  0.24310  0.23795  Biso   1.000  Ne
  He81     1.0000 0.89653  0.21187  0.23672  Biso   1.000  He
  He82     1.0000 0.87260  0.20761  0.20948  Biso   1.000  He
  Ne82     1.0000 0.86042  0.17806  0.21052  Biso   1.000  Ne
  Ne83     1.0000 0.93939  0.23212  0.37702  Biso   1.000  Ne
  He83     1.0000 0.93950  0.25040  0.40316  Biso   1.000  He
  He84     1.0000 0.92372  0.27955  0.40330  Biso   1.000  He
  Ne84     1.0000 0.92769  0.29569  0.43074  Biso   1.000  Ne
  Ne85     1.0000 0.55528  0.18405  0.80209  Biso   1.000  Ne
  He85     1.0000 0.57361  0.16766  0.77613  Biso   1.000  He
  He86     1.0000 0.58220  0.18848  0.75279  Biso   1.000  He
  Ne86     1.0000 0.59851  0.17172  0.72916  Biso   1.000  Ne
  Ne87     1.0000 0.82209  0.03534  0.20012  Biso   1.000  Ne
  He87     1.0000 0.85057  0.03386  0.21385  Biso   1.000  He
  He88     1.0000 0.84986  0.03400  0.24732  Biso   1.000  He
  Ne88     1.0000 0.87910  0.03179  0.25967  Biso   1.000  Ne
  Ne89     1.0000 0.95490  0.14606  0.33995  Biso   1.000  Ne
  He89     1.0000 0.92839  0.13828  0.31954  Biso   1.000  He
  He90     1.0000 0.93384  0.14107  0.28545  Biso   1.000  He
  Ne90     1.0000 0.90625  0.12820  0.26575  Biso   1.000  Ne
  Ne91     1.0000 0.33448  0.66820  0.93201  Biso   1.000  Ne
  He91     1.0000 0.34925  0.63794  0.93261  Biso   1.000  He
  He92     1.0000 0.33244  0.61696  0.95338  Biso   1.000  He
  Ne92     1.0000 0.34770  0.58875  0.95361  Biso   1.000  Ne
  Ne93     1.0000 0.71268  0.05756  0.68378  Biso   1.000  Ne
  He93     1.0000 0.69608  0.06161  0.65605  Biso   1.000  He
  He94     1.0000 0.71149  0.06196  0.62585  Biso   1.000  He
  Ne94     1.0000 0.69131  0.06933  0.60053  Biso   1.000  Ne
  Ne95     1.0000 0.44354  0.64245  0.75291  Biso   1.000  Ne
  He95     1.0000 0.43839  0.66318  0.77857  Biso   1.000  He
  He96     1.0000 0.42608  0.64779  0.80550  Biso   1.000  He
  Ne96     1.0000 0.42039  0.67382  0.82787  Biso   1.000  Ne
  Ne97     1.0000 0.43605  0.93947  0.44679  Biso   1.000  Ne
  He97     1.0000 0.45752  0.91864  0.46044  Biso   1.000  He
  He98     1.0000 0.44400  0.90506  0.48825  Biso   1.000  He
  Ne98     1.0000 0.46824  0.88639  0.50464  Biso   1.000  Ne
  Ne99     1.0000 0.15734  0.29015  0.60839  Biso   1.000  Ne
  He99     1.0000 0.12774  0.30523  0.59871  Biso   1.000  He
  He100    1.0000 0.12041  0.32904  0.61550  Biso   1.000  He
  Ne100    1.0000 0.09238  0.34216  0.60453  Biso   1.000  Ne
  Ne101    1.0000 0.73079  0.87743  0.43215  Biso   1.000  Ne
  He101    1.0000 0.70051  0.86443  0.43762  Biso   1.000  He
  He102    1.0000 0.70091  0.83424  0.45152  Biso   1.000  He
  Ne102    1.0000 0.70183  0.80718  0.43098  Biso   1.000  Ne
  Ne103    1.0000 0.84193  0.27942  0.43745  Biso   1.000  Ne
  He103    1.0000 0.83636  0.31132  0.43891  Biso   1.000  He
  He104    1.0000 0.82788  0.32222  0.40763  Biso   1.000  He
  Ne104    1.0000 0.81330  0.35403  0.40219  Biso   1.000  Ne
  Ne105    1.0000 0.61142  0.27392  0.17946  Biso   1.000  Ne
  He105    1.0000 0.60642  0.30090  0.19636  Biso   1.000  He
  He106    1.0000 0.60929  0.33061  0.17628  Biso   1.000  He
  Ne106    1.0000 0.60315  0.35689  0.18977  Biso   1.000  Ne
  Ne107    1.0000 0.68194  0.12363  0.41876  Biso   1.000  Ne
  He107    1.0000 0.65812  0.12908  0.44070  Biso   1.000  He
  He108    1.0000 0.63551  0.14780  0.42692  Biso   1.000  He
  Ne108    1.0000 0.60624  0.15436  0.44032  Biso   1.000  Ne
  Ne109    1.0000 0.42734  0.77386  0.43652  Biso   1.000  Ne
  He109    1.0000 0.43371  0.79611  0.41299  Biso   1.000  He
  He110    1.0000 0.42545  0.78923  0.38023  Biso   1.000  He
  Ne110    1.0000 0.44084  0.80845  0.36012  Biso   1.000  Ne
  Ne111    1.0000 0.08073  0.54863  0.62848  Biso   1.000  Ne
  He111    1.0000 0.08814  0.54302  0.66114  Biso   1.000  He
  He112    1.0000 0.10477  0.56707  0.67721  Biso   1.000  He
  Ne112    1.0000 0.10894  0.56057  0.70890  Biso   1.000  Ne
  Ne113    1.0000 0.74791  0.36955  0.81652  Biso   1.000  Ne
  He113    1.0000 0.71993  0.38387  0.80754  Biso   1.000  He
  He114    1.0000 0.69081  0.36774  0.82186  Biso   1.000  He
  Ne114    1.0000 0.68327  0.38277  0.85224  Biso   1.000  Ne
  Ne115    1.0000 0.77646  0.54576  0.85504  Biso   1.000  Ne
  He115    1.0000 0.77247  0.56701  0.83346  Biso   1.000  He
  He116    1.0000 0.76451  0.55357  0.80503  Biso   1.000  He
  Ne116    1.0000 0.76222  0.57821  0.77860  Biso   1.000  Ne
  Ne117    1.0000 0.58136  0.90658  0.62424  Biso   1.000  Ne
  He117    1.0000 0.55778  0.90928  0.60123  Biso   1.000  He
  He118    1.0000 0.57117  0.90990  0.57219  Biso   1.000  He
  Ne118    1.0000 0.55150  0.90975  0.54495  Biso   1.000  Ne
  Ne119    1.0000 0.31080  0.93983  0.18143  Biso   1.000  Ne
  He119    1.0000 0.30880  0.93505  0.14684  Biso   1.000  He
  He120    1.0000 0.32054  0.90784  0.13678  Biso   1.000  He
  Ne120    1.0000 0.31808  0.90712  0.10251  Biso   1.000  Ne
  Ne121    1.0000 0.69559  0.17753  0.06345  Biso   1.000  Ne
  He121    1.0000 0.69579  0.20047  0.08616  Biso   1.000  He
  He122    1.0000 0.69190  0.23063  0.07779  Biso   1.000  He
  Ne122    1.0000 0.69235  0.25101  0.10561  Biso   1.000  Ne
  Ne123    1.0000 0.23376  0.57427  0.76498  Biso   1.000  Ne
  He123    1.0000 0.21191  0.57701  0.78917  Biso   1.000  He
  He124    1.0000 0.22727  0.56818  0.81820  Biso   1.000  He
  Ne124    1.0000 0.20958  0.57995  0.84692  Biso   1.000  Ne
  Ne125    1.0000 0.94238  0.56909  0.30276  Biso   1.000  Ne
  He125    1.0000 0.93541  0.56944  0.27027  Biso   1.000  He
  He126    1.0000 0.90223  0.57686  0.26546  Biso   1.000  He
  Ne126    1.0000 0.89019  0.57709  0.23550  Biso   1.000  Ne
  Ne127    1.0000 0.96374  0.85474  0.96919  Biso   1.000  Ne
  He127    1.0000 0.94812  0.88217  0.96269  Biso   1.000  He
  He128    1.0000 0.96965  0.90147  0.94911  Biso   1.000  He
  Ne128    1.0000 0.95816  0.93364  0.94322  Biso   1.000  Ne
  Ne129    1.0000 0.62119  0.03162  0.33666  Biso   1.000  Ne
  He129    1.0000 0.62179  0.06320  0.32617  Biso   1.000  He
  He130    1.0000 0.59630  0.08413  0.32973  Biso   1.000  He
  Ne130    1.0000 0.60423  0.11457  0.32202  Biso   1.000  Ne
  Ne131    1.0000 0.80897  0.59209  0.60132  Biso   1.000  Ne
  He131    1.0000 0.79297  0.56399  0.60559  Biso   1.000  He
  He132    1.0000 0.81093  0.53683  0.60583  Biso   1.000  He
  Ne132    1.0000 0.80446  0.51776  0.63208  Biso   1.000  Ne
  Ne133    1.0000 0.88769  0.88814  0.91337  Biso   1.000  Ne
  He133    1.0000 0.85665  0.89792  0.92366  Biso   1.000  He
  He134    1.0000 0.83146  0.87554  0.92180  Biso   1.000  He
  Ne134    1.0000 0.80395  0.89051  0.92866  Biso   1.000  Ne
  Ne135    1.0000 0.18551  0.38851  0.44458  Biso   1.000  Ne
  He135    1.0000 0.21379  0.38693  0.42822  Biso   1.000  He
  He136    1.0000 0.23754  0.37320  0.44880  Biso   1.000  He
  Ne136    1.0000 0.25168  0.34819  0.43573  Biso   1.000  Ne
  Ne137    1.0000 0.43999  0.27629  0.90037  Biso   1.000  Ne
  He137    1.0000 0.42665  0.29695  0.92366  Biso   1.000  He
  He138    1.0000 0.40223  0.31539  0.91065  Biso   1.000  He
  Ne138    1.0000 0.38799  0.33579  0.93496  Biso   1.000  Ne
  Ne139    1.0000 0.07735  0.56978  0.38778  Biso   1.000  Ne
  He139    1.0000 0.10684  0.55829  0.38427  Biso   1.000  He
  He140    1.0000 0.12084  0.55667  0.35170  Biso   1.000  He
  Ne140    1.0000 0.15461  0.55710  0.35565  Biso   1.000  Ne
  Ne141    1.0000 0.29425  0.54354  0.28592  Biso   1.000  Ne
  He141    1.0000 0.27668  0.56355  0.26342  Biso   1.000  He
  He142    1.0000 0.29570  0.58066  0.24534  Biso   1.000  He
  Ne142    1.0000 0.28086  0.60353  0.22625  Biso   1.000  Ne
  Ne143    1.0000 0.22781  0.02683  0.65308  Biso   1.000  Ne
  He143    1.0000 0.22543  0.00892  0.62341  Biso   1.000  He
  He144    1.0000 0.22455  0.97837  0.63106  Biso   1.000  He
  Ne144    1.0000 0.22737  0.95895  0.60560  Biso   1.000  Ne
  Ne145    1.0000 0.74040  0.31968  0.45682  Biso   1.000  Ne
  He145    1.0000 0.71066  0.33308  0.45191  Biso   1.000  He
  He146    1.0000 0.71150  0.35319  0.42837  Biso   1.000  He
  Ne146    1.0000 0.68248  0.36766  0.41903  Biso   1.000  Ne
  Ne147    1.0000 0.59632  0.91677  0.76895  Biso   1.000  Ne
  He147    1.0000 0.59961  0.88408  0.76907  Biso   1.000  He
  He148    1.0000 0.60186  0.86863  0.73823  Biso   1.000  He
  Ne148    1.0000 0.59615  0.83500  0.73997  Biso   1.000  Ne
  Ne149    1.0000 0.37617  0.22579  0.08874  Biso   1.000  Ne
  He149    1.0000 0.40474  0.24157  0.08778  Biso   1.000  He
  He150    1.0000 0.39919  0.27272  0.09930  Biso   1.000  He
  Ne150    1.0000 0.42456  0.29202  0.10435  Biso   1.000  Ne
  Ne151    1.0000 0.82685  0.06376  0.90782  Biso   1.000  Ne
  He151    1.0000 0.84351  0.07304  0.93520  Biso   1.000  He
  He152    1.0000 0.87180  0.05786  0.93354  Biso   1.000  He
  Ne152    1.0000 0.89117  0.06663  0.95781  Biso   1.000  Ne
  Ne153    1.0000 0.17442  0.86499  0.93347  Biso   1.000  Ne
  He153    1.0000 0.15195  0.84575  0.92121  Biso   1.000  He
  He154    1.0000 0.13251  0.83310  0.94641  Biso   1.000  He
  Ne154    1.0000 0.10313  0.82325  0.93049  Biso   1.000  Ne
  Ne155    1.0000 0.05039  0.96259  0.97645  Biso   1.000  Ne
  He155    1.0000 0.04987  0.94434  0.94830  Biso   1.000  He
  He156    1.0000 0.06848  0.91703  0.95249  Biso   1.000  He
  Ne156    1.0000 0.06762  0.89549  0.92818  Biso   1.000  Ne
  Ne157    1.0000 0.17858  0.56566  0.62750  Biso   1.000  Ne
  He157    1.0000 0.16544  0.59627  0.63378  Biso   1.000  He
  He158    1.0000 0.18628  0.62052  0.62599  Biso   1.000  He
  Ne158    1.0000 0.17593  0.64790  0.63795  Biso   1.000  Ne
  Ne159    1.0000 0.54676  0.98328  0.50765  Biso   1.000  Ne
  He159    1.0000 0.57644  0.99236  0.52183  Biso   1.000  He
  He160    1.0000 0.57362  0.99890  0.55353  Biso   1.000  He
  Ne160    1.0000 0.60095  0.01094  0.56562  Biso   1.000  Ne
  Ne161    1.0000 0.69629  0.14094  0.31977  Biso   1.000  Ne
  He161    1.0000 0.68415  0.17213  0.32676  Biso   1.000  He
  He162    1.0000 0.65561  0.18062  0.30950  Biso   1.000  He
  Ne162    1.0000 0.64776  0.21305  0.31609  Biso   1.000  Ne
  Ne163    1.0000 0.28975  0.80793  0.07843  Biso   1.000  Ne
  He163    1.0000 0.30073  0.78003  0.09265  Biso   1.000  He
  He164    1.0000 0.32056  0.78491  0.12009  Biso   1.000  He
  Ne164    1.0000 0.33205  0.75402  0.12925  Biso   1.000  Ne
  Ne165    1.0000 0.86144  0.56781  0.44798  Biso   1.000  Ne
  He165    1.0000 0.88579  0.58590  0.43539  Biso   1.000  He
  He166    1.0000 0.91822  0.57383  0.44802  Biso   1.000  He
  Ne166    1.0000 0.94288  0.59059  0.43621  Biso   1.000  Ne
  Ne167    1.0000 0.59076  0.88253  0.39265  Biso   1.000  Ne
  He167    1.0000 0.57969  0.87971  0.42322  Biso   1.000  He
  He168    1.0000 0.60380  0.89111  0.44294  Biso   1.000  He
  Ne168    1.0000 0.59233  0.89248  0.47434  Biso   1.000  Ne
  Ne169    1.0000 0.91878  0.37526  0.40603  Biso   1.000  Ne
  He169    1.0000 0.93369  0.35920  0.38249  Biso   1.000  He
  He170    1.0000 0.91207  0.35298  0.35756  Biso   1.000  He
  Ne170    1.0000 0.92824  0.33860  0.33053  Biso   1.000  Ne
  Ne171    1.0000 0.07870  0.05818  0.18747  Biso   1.000  Ne
  He171    1.0000 0.10968  0.05493  0.19873  Biso   1.000  He
  He172    1.0000 0.11649  0.07174  0.22548  Biso   1.000  He
  Ne172    1.0000 0.14834  0.07410  0.22875  Biso   1.000  Ne
  Ne173    1.0000 0.97944  0.05288  0.02674  Biso   1.000  Ne
  He173    1.0000 0.98989  0.04282  0.99806  Biso   1.000  He
  He174    1.0000 0.97961  0.06171  0.97341  Biso   1.000  He
  Ne174    1.0000 0.98849  0.05357  0.94388  Biso   1.000  Ne
  Ne175    1.0000 0.41129  0.04530  0.39642  Biso   1.000  Ne
  He175    1.0000 0.41126  0.07681  0.40075  Biso   1.000  He
  He176    1.0000 0.43992  0.09103  0.40962  Biso   1.000  He
  Ne176    1.0000 0.43722  0.12374  0.41600  Biso   1.000  Ne
  Ne177    1.0000 0.57023  0.24732  0.32385  Biso   1.000  Ne
  He177    1.0000 0.56233  0.27679  0.31002  Biso   1.000  He
  He178    1.0000 0.57716  0.30662  0.31992  Biso   1.000  He
  Ne178    1.0000 0.57527  0.32789  0.29606  Biso   1.000  Ne
  Ne179    1.0000 0.58649  0.08893  0.72075  Biso   1.000  Ne
  He179    1.0000 0.60777  0.07180  0.74189  Biso   1.000  He
  He180    1.0000 0.63017  0.09093  0.75427  Biso   1.000  He
  Ne180    1.0000 0.65053  0.07521  0.77420  Biso   1.000  Ne
  Ne181    1.0000 0.87080  0.86264  0.76953  Biso   1.000  Ne
  He181    1.0000 0.84423  0.87819  0.78070  Biso   1.000  He
  He182    1.0000 0.82833  0.86856  0.80953  Biso   1.000  He
  Ne182    1.0000 0.80255  0.88769  0.81764  Biso   1.000  Ne
  Ne183    1.0000 0.57362  0.38191  0.06441  Biso   1.000  Ne
  He183    1.0000 0.60246  0.39097  0.05552  Biso   1.000  He
  He184    1.0000 0.60084  0.42280  0.04709  Biso   1.000  He
  Ne184    1.0000 0.60104  0.43188  0.01429  Biso   1.000  Ne
  Ne185    1.0000 0.31836  0.23065  0.15801  Biso   1.000  Ne
  He185    1.0000 0.31883  0.26208  0.14378  Biso   1.000  He
  He186    1.0000 0.30362  0.26681  0.11449  Biso   1.000  He
  Ne186    1.0000 0.30529  0.29973  0.10762  Biso   1.000  Ne
  Ne187    1.0000 0.42783  0.58154  0.85446  Biso   1.000  Ne
  He187    1.0000 0.39516  0.57791  0.84967  Biso   1.000  He
  He188    1.0000 0.38667  0.57168  0.81787  Biso   1.000  He
  Ne188    1.0000 0.35414  0.57564  0.80804  Biso   1.000  Ne
  Ne189    1.0000 0.92586  0.16351  0.85283  Biso   1.000  Ne
  He189    1.0000 0.93364  0.13184  0.85046  Biso   1.000  He
  He190    1.0000 0.93390  0.11280  0.88048  Biso   1.000  He
  Ne190    1.0000 0.94401  0.08123  0.87883  Biso   1.000  Ne
  Ne191    1.0000 0.86774  0.35441  0.75187  Biso   1.000  Ne
  He191    1.0000 0.89027  0.36454  0.72678  Biso   1.000  He
  He192    1.0000 0.88011  0.38512  0.70097  Biso   1.000  He
  Ne192    1.0000 0.90407  0.39025  0.67763  Biso   1.000  Ne
  Ne193    1.0000 0.77279  0.16159  0.17456  Biso   1.000  Ne
  He193    1.0000 0.78666  0.16159  0.14558  Biso   1.000  He
  He194    1.0000 0.77080  0.14431  0.12249  Biso   1.000  He
  Ne194    1.0000 0.78058  0.15474  0.09191  Biso   1.000  Ne
  Ne195    1.0000 0.45706  0.76475  0.27223  Biso   1.000  Ne
  He195    1.0000 0.47568  0.76194  0.24405  Biso   1.000  He
  He196    1.0000 0.49866  0.78404  0.23949  Biso   1.000  He
  Ne196    1.0000 0.51285  0.78208  0.21040  Biso   1.000  Ne
  Ne197    1.0000 0.60392  0.77097  0.61043  Biso   1.000  Ne
  He197    1.0000 0.60135  0.79482  0.63211  Biso   1.000  He
  He198    1.0000 0.60383  0.82240  0.61797  Biso   1.000  He
  Ne198    1.0000 0.63346  0.83769  0.62191  Biso   1.000  Ne
  Ne199    1.0000 0.61779  0.80667  0.45230  Biso   1.000  Ne
  He199    1.0000 0.61274  0.77507  0.45942  Biso   1.000  He
  He200    1.0000 0.63467  0.75502  0.44335  Biso   1.000  He
  Ne200    1.0000 0.62949  0.72325  0.44594  Biso   1.000  Ne
  Ne201    1.0000 0.59655  0.29545  0.85061  Biso   1.000  Ne
  He201    1.0000 0.58723  0.27248  0.87589  Biso   1.000  He
  He202    1.0000 0.59945  0.28107  0.90356  Biso   1.000  He
  Ne202    1.0000 0.58865  0.26302  0.92905  Biso   1.000  Ne
  Ne203    1.0000 0.42165  0.85711  0.60627  Biso   1.000  Ne
  He203    1.0000 0.43471  0.82734  0.61009  Biso   1.000  He
  He204    1.0000 0.41518  0.80842  0.62378  Biso   1.000  He
  Ne204    1.0000 0.42890  0.77784  0.62615  Biso   1.000  Ne
  Ne205    1.0000 0.30078  0.52766  0.50746  Biso   1.000  Ne
  He205    1.0000 0.31949  0.55502  0.51136  Biso   1.000  He
  He206    1.0000 0.30823  0.58025  0.49677  Biso   1.000  He
  Ne206    1.0000 0.32367  0.60461  0.50767  Biso   1.000  Ne
  Ne207    1.0000 0.84464  0.03130  0.11851  Biso   1.000  Ne
  He207    1.0000 0.87463  0.02498  0.11102  Biso   1.000  He
  He208    1.0000 0.89567  0.01963  0.13486  Biso   1.000  He
  Ne208    1.0000 0.92708  0.02161  0.12514  Biso   1.000  Ne
  Ne209    1.0000 0.11277  0.39141  0.36789  Biso   1.000  Ne
  He209    1.0000 0.09618  0.38285  0.39451  Biso   1.000  He
  He210    1.0000 0.10203  0.39827  0.42327  Biso   1.000  He
  Ne210    1.0000 0.08158  0.38451  0.44293  Biso   1.000  Ne
  Ne211    1.0000 0.42810  0.92893  0.56481  Biso   1.000  Ne
  He211    1.0000 0.45691  0.94320  0.57147  Biso   1.000  He
  He212    1.0000 0.46085  0.97633  0.56815  Biso   1.000  He
  Ne212    1.0000 0.49233  0.98760  0.57909  Biso   1.000  Ne
  Ne213    1.0000 0.31185  0.06770  0.73429  Biso   1.000  Ne
  He213    1.0000 0.30228  0.07063  0.76776  Biso   1.000  He
  He214    1.0000 0.30927  0.10168  0.78175  Biso   1.000  He
  Ne214    1.0000 0.30221  0.10495  0.81335  Biso   1.000  Ne
  Ne215    1.0000 0.69635  0.35081  0.14405  Biso   1.000  Ne
  He215    1.0000 0.68072  0.35185  0.11518  Biso   1.000  He
  He216    1.0000 0.65794  0.33235  0.11068  Biso   1.000  He
  Ne216    1.0000 0.64964  0.33423  0.07954  Biso   1.000  Ne
  Ne217    1.0000 0.98217  0.55073  0.53490  Biso   1.000  Ne
  He217    1.0000 0.96653  0.53912  0.51146  Biso   1.000  He
  He218    1.0000 0.97633  0.50920  0.50590  Biso   1.000  He
  Ne218    1.0000 0.95473  0.49355  0.48828  Biso   1.000  Ne
  Ne219    1.0000 0.23079  0.86574  0.27395  Biso   1.000  Ne
  He219    1.0000 0.23205  0.86110  0.24219  Biso   1.000  He
  He220    1.0000 0.25647  0.87480  0.22854  Biso   1.000  He
  Ne220    1.0000 0.25160  0.87219  0.19526  Biso   1.000  Ne
  Ne221    1.0000 0.10665  0.02295  0.96208  Biso   1.000  Ne
  He221    1.0000 0.10630  0.03002  0.92998  Biso   1.000  He
  He222    1.0000 0.13395  0.04313  0.91790  Biso   1.000  He
  Ne222    1.0000 0.12996  0.05563  0.88836  Biso   1.000  Ne
  Ne223    1.0000 0.32487  0.62223  0.15109  Biso   1.000  Ne
  He223    1.0000 0.32453  0.59515  0.12728  Biso   1.000  He
  He224    1.0000 0.35470  0.58077  0.12623  Biso   1.000  He
  Ne224    1.0000 0.35541  0.55419  0.10679  Biso   1.000  Ne
  Ne225    1.0000 0.70111  0.65583  0.13327  Biso   1.000  Ne
  He225    1.0000 0.71081  0.62363  0.13154  Biso   1.000  He
  He226    1.0000 0.70071  0.60970  0.10383  Biso   1.000  He
  Ne226    1.0000 0.70274  0.57460  0.10201  Biso   1.000  Ne
  Ne227    1.0000 0.94814  0.60447  0.67947  Biso   1.000  Ne
  He227    1.0000 0.92997  0.58322  0.69739  Biso   1.000  He
  He228    1.0000 0.94210  0.58294  0.72948  Biso   1.000  He
  Ne228    1.0000 0.92815  0.56003  0.74910  Biso   1.000  Ne
  Ne229    1.0000 0.44966  0.54059  0.04338  Biso   1.000  Ne
  He229    1.0000 0.45406  0.54278  0.01043  Biso   1.000  He
  He230    1.0000 0.47922  0.56143  0.00224  Biso   1.000  He
  Ne230    1.0000 0.48495  0.56528  0.96996  Biso   1.000  Ne
  Ne231    1.0000 0.05977  0.56302  0.46780  Biso   1.000  Ne
  He231    1.0000 0.05540  0.53982  0.49472  Biso   1.000  He
  He232    1.0000 0.07750  0.55132  0.51841  Biso   1.000  He
  Ne232    1.0000 0.07690  0.53502  0.54681  Biso   1.000  Ne
  Ne233    1.0000 0.81740  0.47889  0.04275  Biso   1.000  Ne
  He233    1.0000 0.81326  0.49807  0.06961  Biso   1.000  He
  He234    1.0000 0.79190  0.52329  0.06720  Biso   1.000  He
  Ne234    1.0000 0.78663  0.53677  0.09651  Biso   1.000  Ne
  Ne235    1.0000 0.73845  0.82560  0.60958  Biso   1.000  Ne
  He235    1.0000 0.71195  0.84533  0.62202  Biso   1.000  He
  He236    1.0000 0.72037  0.86683  0.64594  Biso   1.000  He
  Ne236    1.0000 0.69362  0.88221  0.66371  Biso   1.000  Ne
  Ne237    1.0000 0.58801  0.87423  0.28387  Biso   1.000  Ne
  He237    1.0000 0.59352  0.85635  0.31455  Biso   1.000  He
  He238    1.0000 0.61255  0.83057  0.31058  Biso   1.000  He
  Ne238    1.0000 0.62022  0.81417  0.33956  Biso   1.000  Ne
  Ne239    1.0000 0.02723  0.88741  0.08562  Biso   1.000  Ne
  He239    1.0000 0.04721  0.89432  0.06125  Biso   1.000  He
  He240    1.0000 0.06779  0.91929  0.06799  Biso   1.000  He
  Ne240    1.0000 0.09444  0.91929  0.04567  Biso   1.000  Ne
  Ne241    1.0000 0.10619  0.21907  0.22478  Biso   1.000  Ne
  He241    1.0000 0.08859  0.19647  0.20599  Biso   1.000  He
  He242    1.0000 0.10708  0.16943  0.20084  Biso   1.000  He
  Ne242    1.0000 0.09156  0.14397  0.18316  Biso   1.000  Ne
  Ne243    1.0000 0.77335  0.36312  0.07300  Biso   1.000  Ne
  He243    1.0000 0.78833  0.35313  0.04581  Biso   1.000  He
  He244    1.0000 0.80799  0.32741  0.04967  Biso   1.000  He
  Ne244    1.0000 0.82261  0.31646  0.02156  Biso   1.000  Ne
  Ne245    1.0000 0.43723  0.60409  0.10995  Biso   1.000  Ne
  He245    1.0000 0.45075  0.57809  0.12375  Biso   1.000  He
  He246    1.0000 0.43414  0.54994  0.11791  Biso   1.000  He
  Ne246    1.0000 0.44326  0.52251  0.13300  Biso   1.000  Ne
  Ne247    1.0000 0.86662  0.08413  0.84394  Biso   1.000  Ne
  He247    1.0000 0.87379  0.08062  0.81131  Biso   1.000  He
  He248    1.0000 0.89693  0.05710  0.80277  Biso   1.000  He
  Ne248    1.0000 0.91189  0.06326  0.77124  Biso   1.000  Ne
  Ne249    1.0000 0.22019  0.24182  0.09473  Biso   1.000  Ne
  He249    1.0000 0.22371  0.27059  0.07545  Biso   1.000  He
  He250    1.0000 0.20064  0.27756  0.05114  Biso   1.000  He
  Ne250    1.0000 0.20170  0.30780  0.03471  Biso   1.000  Ne
  Ne251    1.0000 0.08940  0.19204  0.94060  Biso   1.000  Ne
  He251    1.0000 0.11136  0.16976  0.92584  Biso   1.000  He
  He252    1.0000 0.09738  0.14255  0.91204  Biso   1.000  He
  Ne252    1.0000 0.09527  0.11668  0.93602  Biso   1.000  Ne
  Ne253    1.0000 0.08363  0.08759  0.09915  Biso   1.000  Ne
  He253    1.0000 0.07895  0.05381  0.09870  Biso   1.000  He
  He254    1.0000 0.08938  0.03855  0.06871  Biso   1.000  He
  Ne254    1.0000 0.08940  0.00412  0.07174  Biso   1.000  Ne
  Ne255    1.0000 0.94113  0.30814  0.65892  Biso   1.000  Ne
  He255    1.0000 0.92785  0.28274  0.64264  Biso   1.000  He
  He256    1.0000 0.94715  0.26495  0.62480  Biso   1.000  He
  Ne256    1.0000 0.93718  0.23308  0.61650  Biso   1.000  Ne
  Ne257    1.0000 0.07232  0.39434  0.66841  Biso   1.000  Ne
  He257    1.0000 0.09384  0.37786  0.68769  Biso   1.000  He
  He258    1.0000 0.09988  0.39308  0.71832  Biso   1.000  He
  Ne258    1.0000 0.11673  0.37581  0.73951  Biso   1.000  Ne
  Ne259    1.0000 0.69445  0.61061  0.23196  Biso   1.000  Ne
  He259    1.0000 0.67410  0.58714  0.22665  Biso   1.000  He
  He260    1.0000 0.68631  0.55896  0.21778  Biso   1.000  He
  Ne260    1.0000 0.66292  0.53662  0.20505  Biso   1.000  Ne
  Ne261    1.0000 0.60095  0.53662  0.15693  Biso   1.000  Ne
  He261    1.0000 0.60057  0.56793  0.14915  Biso   1.000  He
  He262    1.0000 0.60572  0.57464  0.11593  Biso   1.000  He
  Ne262    1.0000 0.61007  0.60453  0.11135  Biso   1.000  Ne
  Ne263    1.0000 0.60885  0.18323  0.13902  Biso   1.000  Ne
  He263    1.0000 0.61123  0.21273  0.12517  Biso   1.000  He
  He264    1.0000 0.58269  0.22331  0.11346  Biso   1.000  He
  Ne264    1.0000 0.58276  0.25301  0.09914  Biso   1.000  Ne
  Ne265    1.0000 0.87059  0.62145  0.15858  Biso   1.000  Ne
  He265    1.0000 0.90066  0.63217  0.15462  Biso   1.000  He
  He266    1.0000 0.92247  0.61772  0.17396  Biso   1.000  He
  Ne266    1.0000 0.95381  0.63305  0.17535  Biso   1.000  Ne
  Ne267    1.0000 0.44609  0.73172  0.11792  Biso   1.000  Ne
  He267    1.0000 0.41706  0.71859  0.10626  Biso   1.000  He
  He268    1.0000 0.40124  0.69847  0.12594  Biso   1.000  He
  Ne268    1.0000 0.38557  0.67583  0.10783  Biso   1.000  Ne
  Ne269    1.0000 0.33077  0.77720  0.62190  Biso   1.000  Ne
  He269    1.0000 0.33489  0.74578  0.61075  Biso   1.000  He
  He270    1.0000 0.36024  0.72832  0.61998  Biso   1.000  He
  Ne270    1.0000 0.36077  0.69829  0.60545  Biso   1.000  Ne
  Ne271    1.0000 0.66534  0.03741  0.44836  Biso   1.000  Ne
  He271    1.0000 0.63447  0.03389  0.43577  Biso   1.000  He
  He272    1.0000 0.61995  0.06232  0.42465  Biso   1.000  He
  Ne272    1.0000 0.59136  0.05992  0.40992  Biso   1.000  Ne
  Ne273    1.0000 0.61884  0.40561  0.77979  Biso   1.000  Ne
  He273    1.0000 0.61306  0.40847  0.81132  Biso   1.000  He
  He274    1.0000 0.59853  0.38175  0.82562  Biso   1.000  He
  Ne274    1.0000 0.58936  0.39001  0.85683  Biso   1.000  Ne
  Ne275    1.0000 0.53529  0.49631  0.05063  Biso   1.000  Ne
  He275    1.0000 0.53682  0.46809  0.06550  Biso   1.000  He
  He276    1.0000 0.53546  0.46913  0.09865  Biso   1.000  He
  Ne276    1.0000 0.54056  0.43829  0.10825  Biso   1.000  Ne
  Ne277    1.0000 0.02329  0.47094  0.57605  Biso   1.000  Ne
  He277    1.0000 0.99002  0.46106  0.57838  Biso   1.000  He
  He278    1.0000 0.97994  0.44591  0.55086  Biso   1.000  He
  Ne278    1.0000 0.94917  0.43459  0.54929  Biso   1.000  Ne
  Ne279    1.0000 0.78801  0.35899  0.18086  Biso   1.000  Ne
  He279    1.0000 0.76980  0.35555  0.20834  Biso   1.000  He
  He280    1.0000 0.75389  0.32579  0.20774  Biso   1.000  He
  Ne280    1.0000 0.73582  0.32521  0.23496  Biso   1.000  Ne
  Ne281    1.0000 0.46042  0.18690  0.18591  Biso   1.000  Ne
  He281    1.0000 0.44045  0.21031  0.18781  Biso   1.000  He
  He282    1.0000 0.41497  0.21086  0.16633  Biso   1.000  He
  Ne282    1.0000 0.39695  0.24096  0.17199  Biso   1.000  Ne
  Ne283    1.0000 0.98206  0.41094  0.43217  Biso   1.000  Ne
  He283    1.0000 0.97560  0.40430  0.46385  Biso   1.000  He
  He284    1.0000 0.99602  0.38187  0.47412  Biso   1.000  He
  Ne284    1.0000 0.98913  0.37355  0.50481  Biso   1.000  Ne
  Ne285    1.0000 0.37751  0.14643  0.59037  Biso   1.000  Ne
  He285    1.0000 0.40710  0.16156  0.58040  Biso   1.000  He
  He286    1.0000 0.40571  0.19375  0.57222  Biso   1.000  He
  Ne286    1.0000 0.43224  0.20903  0.57013  Biso   1.000  Ne
  Ne287    1.0000 0.24040  0.06849  0.91510  Biso   1.000  Ne
  He287    1.0000 0.21204  0.08222  0.92770  Biso   1.000  He
  He288    1.0000 0.21092  0.11445  0.92830  Biso   1.000  He
  Ne288    1.0000 0.17912  0.11994  0.93131  Biso   1.000  Ne
  Ne289    1.0000 0.28414  0.86352  0.60385  Biso   1.000  Ne
  He289    1.0000 0.30687  0.87775  0.58523  Biso   1.000  He
  He290    1.0000 0.33377  0.88297  0.60485  Biso   1.000  He
  Ne290    1.0000 0.35791  0.89785  0.59080  Biso   1.000  Ne
  Ne291    1.0000 0.92313  0.83792  0.85855  Biso   1.000  Ne
  He291    1.0000 0.91917  0.85754  0.83004  Biso   1.000  He
  He292    1.0000 0.92740  0.88677  0.83427  Biso   1.000  He
  Ne292    1.0000 0.92576  0.90513  0.80751  Biso   1.000  Ne
  Ne293    1.0000 0.11835  0.79313  0.10802  Biso   1.000  Ne
  He293    1.0000 0.10363  0.81346  0.12697  Biso   1.000  He
  He294    1.0000 0.11467  0.81296  0.15547  Biso   1.000  He
  Ne294    1.0000 0.09900  0.83046  0.18154  Biso   1.000  Ne
  Ne295    1.0000 0.43473  0.01972  0.49113  Biso   1.000  Ne
  He295    1.0000 0.45550  0.02463  0.46615  Biso   1.000  He
  He296    1.0000 0.47541  0.99788  0.45702  Biso   1.000  He
  Ne296    1.0000 0.50153  0.00337  0.43602  Biso   1.000  Ne
  Ne297    1.0000 0.13720  0.81541  0.27517  Biso   1.000  Ne
  He297    1.0000 0.13153  0.84705  0.26376  Biso   1.000  He
  He298    1.0000 0.12271  0.87179  0.28656  Biso   1.000  He
  Ne298    1.0000 0.11501  0.90146  0.27519  Biso   1.000  Ne
  Ne299    1.0000 0.42770  0.91262  0.66887  Biso   1.000  Ne
  He299    1.0000 0.40238  0.91340  0.68864  Biso   1.000  He
  He300    1.0000 0.40610  0.90703  0.72011  Biso   1.000  He
  Ne300    1.0000 0.37728  0.90963  0.73916  Biso   1.000  Ne
  Ne301    1.0000 0.10492  0.87969  0.84265  Biso   1.000  Ne
  He301    1.0000 0.10337  0.84918  0.83751  Biso   1.000  He
  He302    1.0000 0.09743  0.83889  0.80643  Biso   1.000  He
  Ne302    1.0000 0.10168  0.80632  0.80223  Biso   1.000  Ne
  Ne303    1.0000 0.15620  0.29786  0.72729  Biso   1.000  Ne
  He303    1.0000 0.15433  0.27833  0.70213  Biso   1.000  He
  He304    1.0000 0.15700  0.24456  0.70886  Biso   1.000  He
  Ne304    1.0000 0.15571  0.22934  0.68136  Biso   1.000  Ne
  Ne305    1.0000 0.88490  0.57143  0.62674  Biso   1.000  Ne
  He305    1.0000 0.89785  0.53983  0.62289  Biso   1.000  He
  He306    1.0000 0.92419  0.53791  0.60530  Biso   1.000  He
  Ne306    1.0000 0.95169  0.53664  0.62671  Biso   1.000  Ne
  Ne307    1.0000 0.32666  0.39231  0.11118  Biso   1.000  Ne
  He307    1.0000 0.35829  0.39091  0.10071  Biso   1.000  He
  He308    1.0000 0.37380  0.36353  0.10226  Biso   1.000  He
  Ne308    1.0000 0.39850  0.35968  0.08225  Biso   1.000  Ne
  Ne309    1.0000 0.29951  0.12561  0.59500  Biso   1.000  Ne
  He309    1.0000 0.28632  0.09522  0.59056  Biso   1.000  He
  He310    1.0000 0.30896  0.07389  0.59788  Biso   1.000  He
  Ne310    1.0000 0.29355  0.04347  0.59894  Biso   1.000  Ne
  Ne311    1.0000 0.61637  0.69785  0.92232  Biso   1.000  Ne
  He311    1.0000 0.61369  0.72128  0.94763  Biso   1.000  He
  He312    1.0000 0.62281  0.71078  0.97855  Biso   1.000  He
  Ne312    1.0000 0.62218  0.73544  0.00204  Biso   1.000  Ne
  Ne313    1.0000 0.72540  0.48462  0.41608  Biso   1.000  Ne
  He313    1.0000 0.73595  0.50038  0.44261  Biso   1.000  He
  He314    1.0000 0.75489  0.52784  0.43323  Biso   1.000  He
  Ne314    1.0000 0.74639  0.55630  0.44721  Biso   1.000  Ne
  Ne315    1.0000 0.86255  0.12960  0.10293  Biso   1.000  Ne
  He315    1.0000 0.88403  0.12660  0.12474  Biso   1.000  He
  He316    1.0000 0.91299  0.12183  0.11331  Biso   1.000  He
  Ne316    1.0000 0.93583  0.12139  0.13421  Biso   1.000  Ne
  Ne317    1.0000 0.18517  0.37778  0.68755  Biso   1.000  Ne
  He317    1.0000 0.19145  0.35858  0.66154  Biso   1.000  He
  He318    1.0000 0.20118  0.37533  0.63762  Biso   1.000  He
  Ne318    1.0000 0.20093  0.35809  0.60614  Biso   1.000  Ne
  Ne319    1.0000 0.91621  0.87967  0.13867  Biso   1.000  Ne
  He319    1.0000 0.93794  0.88118  0.11296  Biso   1.000  He
  He320    1.0000 0.91903  0.87800  0.08523  Biso   1.000  He
  Ne320    1.0000 0.93536  0.88299  0.05708  Biso   1.000  Ne
