data_image0
_cell_length_a       47.0712
_cell_length_b       46.407
_cell_length_c       46.4784
_cell_angle_alpha    90
_cell_angle_beta     90
_cell_angle_gamma    90

_symmetry_space_group_name_H-M    "P 1"
_symmetry_int_tables_number       1

loop_
  _symmetry_equiv_pos_as_xyz
  'x, y, z'

loop_
  _atom_site_label
  _atom_site_occupancy
  _atom_site_fract_x
  _atom_site_fract_y
  _atom_site_fract_z
  _atom_site_thermal_displace_type
  _atom_site_B_iso_or_equiv
  _atom_site_type_symbol
  Ne1      1.0000 0.83574  0.55518  0.61377  Biso   1.000  Ne
  He1      1.0000 0.84711  0.55477  0.64564  Biso   1.000  He
  He2      1.0000 0.82141  0.55296  0.66683  Biso   1.000  He
  Ne2      1.0000 0.83107  0.55000  0.69997  Biso   1.000  Ne
  Ne3      1.0000 0.11935  0.84636  0.49137  Biso   1.000  Ne
  He3      1.0000 0.10877  0.81451  0.48690  Biso   1.000  He
  He4      1.0000 0.12324  0.78983  0.50348  Biso   1.000  He
  Ne4      1.0000 0.11164  0.75880  0.49775  Biso   1.000  Ne
  Ne5      1.0000 0.36766  0.32820  0.93709  Biso   1.000  Ne
  He5      1.0000 0.34507  0.30364  0.94988  Biso   1.000  He
  He6      1.0000 0.33457  0.28561  0.92621  Biso   1.000  He
  Ne6      1.0000 0.31378  0.26076  0.93511  Biso   1.000  Ne
  Ne7      1.0000 0.90223  0.87031  0.44536  Biso   1.000  Ne
  He7      1.0000 0.90499  0.87229  0.41314  Biso   1.000  He
  He8      1.0000 0.90544  0.84469  0.39670  Biso   1.000  He
  Ne8      1.0000 0.89958  0.85010  0.36499  Biso   1.000  Ne
  Ne9      1.0000 0.36213  0.49769  0.65247  Biso   1.000  Ne
  He9      1.0000 0.37657  0.52485  0.64380  Biso   1.000  He
  He10     1.0000 0.36236  0.55173  0.65811  Biso   1.000  He
  Ne10     1.0000 0.37787  0.58209  0.65361  Biso   1.000  Ne
  Ne11     1.0000 0.32554  0.03495  0.87872  Biso   1.000  Ne
  He11     1.0000 0.35286  0.02386  0.89092  Biso   1.000  He
  He12     1.0000 0.37066  0.04406  0.90733  Biso   1.000  He
  Ne12     1.0000 0.39731  0.02799  0.92315  Biso   1.000  Ne
  Ne13     1.0000 0.76453  0.07714  0.77267  Biso   1.000  Ne
  He13     1.0000 0.74430  0.06492  0.79403  Biso   1.000  He
  He14     1.0000 0.75329  0.05950  0.82036  Biso   1.000  He
  Ne14     1.0000 0.73097  0.04721  0.84169  Biso   1.000  Ne
  Ne15     1.0000 0.21962  0.79497  0.12843  Biso   1.000  Ne
  He15     1.0000 0.20688  0.82521  0.11708  Biso   1.000  He
  He16     1.0000 0.17411  0.83022  0.12448  Biso   1.000  He
  Ne16     1.0000 0.16246  0.86005  0.12016  Biso   1.000  Ne
  Ne17     1.0000 0.42474  0.65596  0.33054  Biso   1.000  Ne
  He17     1.0000 0.41154  0.68605  0.33857  Biso   1.000  He
  He18     1.0000 0.37636  0.68863  0.33331  Biso   1.000  He
  Ne18     1.0000 0.35837  0.67932  0.36176  Biso   1.000  Ne
  Ne19     1.0000 0.68053  0.24488  0.49727  Biso   1.000  Ne
  He19     1.0000 0.69000  0.27192  0.48223  Biso   1.000  He
  He20     1.0000 0.69099  0.26890  0.44678  Biso   1.000  He
  Ne20     1.0000 0.69060  0.29684  0.42925  Biso   1.000  Ne
  Ne21     1.0000 0.50783  0.29566  0.55644  Biso   1.000  Ne
  He21     1.0000 0.48574  0.28893  0.53212  Biso   1.000  He
  He22     1.0000 0.45157  0.28596  0.54380  Biso   1.000  He
  Ne22     1.0000 0.43145  0.26793  0.52317  Biso   1.000  Ne
  Ne23     1.0000 0.20811  0.35578  0.82032  Biso   1.000  Ne
  He23     1.0000 0.23509  0.36737  0.80194  Biso   1.000  He
  He24     1.0000 0.25351  0.34735  0.78252  Biso   1.000  He
  Ne24     1.0000 0.25461  0.35356  0.74960  Biso   1.000  Ne
  Ne25     1.0000 0.68211  0.30054  0.11867  Biso   1.000  Ne
  He25     1.0000 0.69499  0.32492  0.09911  Biso   1.000  He
  He26     1.0000 0.68271  0.35099  0.10916  Biso   1.000  He
  Ne26     1.0000 0.69427  0.37691  0.09147  Biso   1.000  Ne
  Ne27     1.0000 0.59544  0.57646  0.73523  Biso   1.000  Ne
  He27     1.0000 0.56980  0.59159  0.74295  Biso   1.000  He
  He28     1.0000 0.54598  0.58718  0.72092  Biso   1.000  He
  Ne28     1.0000 0.51943  0.60260  0.72947  Biso   1.000  Ne
  Ne29     1.0000 0.71646  0.38973  0.52146  Biso   1.000  Ne
  He29     1.0000 0.73080  0.41547  0.50645  Biso   1.000  He
  He30     1.0000 0.71554  0.44558  0.51040  Biso   1.000  He
  Ne30     1.0000 0.73124  0.47029  0.53040  Biso   1.000  Ne
  Ne31     1.0000 0.88111  0.96653  0.61553  Biso   1.000  Ne
  He31     1.0000 0.91045  0.95895  0.62872  Biso   1.000  He
  He32     1.0000 0.93361  0.94026  0.60893  Biso   1.000  He
  Ne32     1.0000 0.95869  0.92767  0.62662  Biso   1.000  Ne
  Ne33     1.0000 0.17386  0.54316  0.66736  Biso   1.000  Ne
  He33     1.0000 0.15009  0.53803  0.69073  Biso   1.000  He
  He34     1.0000 0.12180  0.55612  0.68920  Biso   1.000  He
  Ne34     1.0000 0.09897  0.55370  0.71396  Biso   1.000  Ne
  Ne35     1.0000 0.32857  0.80981  0.74236  Biso   1.000  Ne
  He35     1.0000 0.32692  0.84183  0.73481  Biso   1.000  He
  He36     1.0000 0.34242  0.85762  0.75939  Biso   1.000  He
  Ne36     1.0000 0.34731  0.88793  0.75625  Biso   1.000  Ne
  Ne37     1.0000 0.32192  0.67266  0.71481  Biso   1.000  Ne
  He37     1.0000 0.31716  0.69886  0.69283  Biso   1.000  He
  He38     1.0000 0.28755  0.71619  0.69607  Biso   1.000  He
  Ne38     1.0000 0.28751  0.74817  0.68841  Biso   1.000  Ne
  Ne39     1.0000 0.65616  0.27283  0.24594  Biso   1.000  Ne
  He39     1.0000 0.62705  0.26486  0.25475  Biso   1.000  He
  He40     1.0000 0.62376  0.25940  0.28769  Biso   1.000  He
  Ne40     1.0000 0.59311  0.24823  0.29833  Biso   1.000  Ne
  Ne41     1.0000 0.25867  0.65736  0.79340  Biso   1.000  Ne
  He41     1.0000 0.23790  0.66659  0.82051  Biso   1.000  He
  He42     1.0000 0.22055  0.64060  0.83406  Biso   1.000  He
  Ne42     1.0000 0.19133  0.63460  0.82318  Biso   1.000  Ne
  Ne43     1.0000 0.71031  0.63631  0.40455  Biso   1.000  Ne
  He43     1.0000 0.69728  0.66585  0.39351  Biso   1.000  He
  He44     1.0000 0.66375  0.66561  0.38439  Biso   1.000  He
  Ne44     1.0000 0.65268  0.69456  0.37491  Biso   1.000  Ne
  Ne45     1.0000 0.99891  0.01370  0.59981  Biso   1.000  Ne
  He45     1.0000 0.99783  0.03823  0.62454  Biso   1.000  He
  He46     1.0000 0.98990  0.06811  0.61256  Biso   1.000  He
  Ne46     1.0000 0.98940  0.09289  0.63749  Biso   1.000  Ne
  Ne47     1.0000 0.45722  0.12520  0.20447  Biso   1.000  Ne
  He47     1.0000 0.46021  0.15546  0.19330  Biso   1.000  He
  He48     1.0000 0.44479  0.16097  0.16539  Biso   1.000  He
  Ne48     1.0000 0.44951  0.19258  0.15310  Biso   1.000  Ne
  Ne49     1.0000 0.64836  0.55038  0.65302  Biso   1.000  Ne
  He49     1.0000 0.62534  0.57175  0.64640  Biso   1.000  He
  He50     1.0000 0.59651  0.55500  0.64254  Biso   1.000  He
  Ne50     1.0000 0.57186  0.57394  0.62846  Biso   1.000  Ne
  Ne51     1.0000 0.74968  0.62849  0.63189  Biso   1.000  Ne
  He51     1.0000 0.75135  0.59784  0.64748  Biso   1.000  He
  He52     1.0000 0.72169  0.58765  0.66347  Biso   1.000  He
  Ne52     1.0000 0.72478  0.55747  0.68026  Biso   1.000  Ne
  Ne53     1.0000 0.30280  0.88201  0.39913  Biso   1.000  Ne
  He53     1.0000 0.32980  0.88594  0.38223  Biso   1.000  He
  He54     1.0000 0.32702  0.88167  0.35149  Biso   1.000  He
  Ne54     1.0000 0.35630  0.88700  0.33823  Biso   1.000  Ne
  Ne55     1.0000 0.12396  0.66890  0.46677  Biso   1.000  Ne
  He55     1.0000 0.14741  0.66122  0.44564  Biso   1.000  He
  He56     1.0000 0.17724  0.65169  0.46175  Biso   1.000  He
  Ne56     1.0000 0.20206  0.64424  0.43945  Biso   1.000  Ne
  Ne57     1.0000 0.03555  0.70934  0.74504  Biso   1.000  Ne
  He57     1.0000 0.06364  0.69532  0.74763  Biso   1.000  He
  He58     1.0000 0.07983  0.70655  0.77103  Biso   1.000  He
  Ne58     1.0000 0.10653  0.69013  0.77328  Biso   1.000  Ne
  Ne59     1.0000 0.78784  0.11705  0.90849  Biso   1.000  Ne
  He59     1.0000 0.81596  0.11343  0.92345  Biso   1.000  He
  He60     1.0000 0.83926  0.13415  0.91806  Biso   1.000  He
  Ne60     1.0000 0.86777  0.12467  0.93199  Biso   1.000  Ne
  Ne61     1.0000 0.85444  0.06409  0.48617  Biso   1.000  Ne
  He61     1.0000 0.87560  0.04226  0.47952  Biso   1.000  He
  He62     1.0000 0.90228  0.05022  0.46357  Biso   1.000  He
  Ne62     1.0000 0.92231  0.02478  0.45710  Biso   1.000  Ne
  Ne63     1.0000 0.11342  0.74824  0.18230  Biso   1.000  Ne
  He63     1.0000 0.09260  0.76037  0.15908  Biso   1.000  He
  He64     1.0000 0.08897  0.79294  0.15949  Biso   1.000  He
  Ne64     1.0000 0.07767  0.80351  0.13292  Biso   1.000  Ne
  Ne65     1.0000 0.92274  0.64106  0.13133  Biso   1.000  Ne
  He65     1.0000 0.95201  0.63787  0.11605  Biso   1.000  He
  He66     1.0000 0.96218  0.60510  0.11407  Biso   1.000  He
  Ne66     1.0000 0.98960  0.59696  0.09491  Biso   1.000  Ne
  Ne67     1.0000 0.83788  0.05898  0.38548  Biso   1.000  Ne
  He67     1.0000 0.81773  0.04110  0.40582  Biso   1.000  He
  He68     1.0000 0.79464  0.02338  0.38979  Biso   1.000  He
  Ne68     1.0000 0.77943  0.00037  0.41001  Biso   1.000  Ne
  Ne69     1.0000 0.95027  0.16600  0.38101  Biso   1.000  Ne
  He69     1.0000 0.96974  0.14828  0.35780  Biso   1.000  He
  He70     1.0000 0.95502  0.14424  0.32798  Biso   1.000  He
  Ne70     1.0000 0.97232  0.12931  0.30492  Biso   1.000  Ne
  Ne71     1.0000 0.64334  0.38843  0.70168  Biso   1.000  Ne
  He71     1.0000 0.65553  0.38095  0.73293  Biso   1.000  He
  He72     1.0000 0.66243  0.40909  0.75026  Biso   1.000  He
  Ne72     1.0000 0.67616  0.40479  0.77909  Biso   1.000  Ne
  Ne73     1.0000 0.02254  0.98558  0.49391  Biso   1.000  Ne
  He73     1.0000 0.05359  0.97205  0.49372  Biso   1.000  He
  He74     1.0000 0.06887  0.97786  0.46418  Biso   1.000  He
  Ne74     1.0000 0.09291  0.95704  0.46043  Biso   1.000  Ne
  Ne75     1.0000 0.30344  0.38229  0.49725  Biso   1.000  Ne
  He75     1.0000 0.32762  0.36121  0.50746  Biso   1.000  He
  He76     1.0000 0.31928  0.33071  0.52286  Biso   1.000  He
  Ne76     1.0000 0.34403  0.30808  0.53075  Biso   1.000  Ne
  Ne77     1.0000 0.04607  0.47020  0.96514  Biso   1.000  Ne
  He77     1.0000 0.07367  0.46502  0.94948  Biso   1.000  He
  He78     1.0000 0.10000  0.45560  0.97000  Biso   1.000  He
  Ne78     1.0000 0.12735  0.44186  0.95093  Biso   1.000  Ne
  Ne79     1.0000 0.94478  0.11423  0.90418  Biso   1.000  Ne
  He79     1.0000 0.93204  0.12093  0.87373  Biso   1.000  He
  He80     1.0000 0.90819  0.10047  0.86490  Biso   1.000  He
  Ne80     1.0000 0.92241  0.07398  0.84883  Biso   1.000  Ne
  Ne81     1.0000 0.63371  0.64033  0.51403  Biso   1.000  Ne
  He81     1.0000 0.63971  0.62798  0.54512  Biso   1.000  He
  He82     1.0000 0.65010  0.64470  0.57201  Biso   1.000  He
  Ne82     1.0000 0.64866  0.62637  0.60007  Biso   1.000  Ne
  Ne83     1.0000 0.82435  0.63869  0.64715  Biso   1.000  Ne
  He83     1.0000 0.82985  0.64085  0.68073  Biso   1.000  He
  He84     1.0000 0.81468  0.66621  0.69860  Biso   1.000  He
  Ne84     1.0000 0.81387  0.66112  0.73161  Biso   1.000  Ne
  Ne85     1.0000 0.84470  0.86551  0.84988  Biso   1.000  Ne
  He85     1.0000 0.87193  0.85571  0.83374  Biso   1.000  He
  He86     1.0000 0.87653  0.86663  0.80185  Biso   1.000  He
  Ne86     1.0000 0.90481  0.85409  0.78790  Biso   1.000  Ne
  Ne87     1.0000 0.13420  0.33113  0.95512  Biso   1.000  Ne
  He87     1.0000 0.15980  0.33855  0.97708  Biso   1.000  He
  He88     1.0000 0.16652  0.31294  0.99203  Biso   1.000  He
  Ne88     1.0000 0.18961  0.31606  0.01589  Biso   1.000  Ne
  Ne89     1.0000 0.61840  0.53214  0.97883  Biso   1.000  Ne
  He89     1.0000 0.61691  0.55368  0.95461  Biso   1.000  He
  He90     1.0000 0.61715  0.58222  0.96487  Biso   1.000  He
  Ne90     1.0000 0.60420  0.60554  0.94436  Biso   1.000  Ne
  Ne91     1.0000 0.82510  0.03385  0.86057  Biso   1.000  Ne
  He91     1.0000 0.81549  0.02746  0.89248  Biso   1.000  He
  He92     1.0000 0.78482  0.03628  0.89995  Biso   1.000  He
  Ne92     1.0000 0.77553  0.02514  0.93227  Biso   1.000  Ne
  Ne93     1.0000 0.82913  0.51256  0.81572  Biso   1.000  Ne
  He93     1.0000 0.84494  0.48228  0.81158  Biso   1.000  He
  He94     1.0000 0.84364  0.46265  0.83764  Biso   1.000  He
  Ne94     1.0000 0.86028  0.43421  0.83573  Biso   1.000  Ne
  Ne95     1.0000 0.06052  0.42368  0.86082  Biso   1.000  Ne
  He95     1.0000 0.06515  0.39521  0.87879  Biso   1.000  He
  He96     1.0000 0.03662  0.38613  0.89679  Biso   1.000  He
  Ne96     1.0000 0.04135  0.35599  0.91257  Biso   1.000  Ne
  Ne97     1.0000 0.20882  0.44509  0.88929  Biso   1.000  Ne
  He97     1.0000 0.18677  0.42490  0.86962  Biso   1.000  He
  He98     1.0000 0.16192  0.44196  0.85444  Biso   1.000  He
  Ne98     1.0000 0.14900  0.42267  0.83275  Biso   1.000  Ne
  Ne99     1.0000 0.09283  0.00122  0.96248  Biso   1.000  Ne
  He99     1.0000 0.08588  0.00630  0.93190  Biso   1.000  He
  He100    1.0000 0.11098  0.01748  0.91250  Biso   1.000  He
  Ne100    1.0000 0.10548  0.01230  0.88021  Biso   1.000  Ne
  Ne101    1.0000 0.09844  0.89870  0.00906  Biso   1.000  Ne
  He101    1.0000 0.09163  0.91530  0.98119  Biso   1.000  He
  He102    1.0000 0.06935  0.89728  0.96226  Biso   1.000  He
  Ne102    1.0000 0.06153  0.91084  0.93077  Biso   1.000  Ne
  Ne103    1.0000 0.10062  0.90145  0.58670  Biso   1.000  Ne
  He103    1.0000 0.07014  0.91256  0.58128  Biso   1.000  He
  He104    1.0000 0.04669  0.89057  0.57243  Biso   1.000  He
  Ne104    1.0000 0.03653  0.89364  0.53838  Biso   1.000  Ne
  Ne105    1.0000 0.43482  0.74723  0.70484  Biso   1.000  Ne
  He105    1.0000 0.41722  0.72109  0.70381  Biso   1.000  He
  He106    1.0000 0.43276  0.69432  0.71483  Biso   1.000  He
  Ne106    1.0000 0.41635  0.66687  0.71814  Biso   1.000  Ne
  Ne107    1.0000 0.57737  0.56685  0.10000  Biso   1.000  Ne
  He107    1.0000 0.58218  0.53737  0.08008  Biso   1.000  He
  He108    1.0000 0.60987  0.52217  0.08571  Biso   1.000  He
  Ne108    1.0000 0.61229  0.49592  0.06974  Biso   1.000  Ne
  Ne109    1.0000 0.04562  0.47064  0.06427  Biso   1.000  Ne
  He109    1.0000 0.04131  0.45528  0.09420  Biso   1.000  He
  He110    1.0000 0.02457  0.42658  0.08868  Biso   1.000  He
  Ne110    1.0000 0.01778  0.41073  0.11658  Biso   1.000  Ne
  Ne111    1.0000 0.35938  0.30394  0.66972  Biso   1.000  Ne
  He111    1.0000 0.37105  0.32336  0.64557  Biso   1.000  He
  He112    1.0000 0.39082  0.30647  0.62257  Biso   1.000  He
  Ne112    1.0000 0.39926  0.32391  0.59686  Biso   1.000  Ne
  Ne113    1.0000 0.84127  0.55970  0.34946  Biso   1.000  Ne
  He113    1.0000 0.82720  0.58287  0.36955  Biso   1.000  He
  He114    1.0000 0.83451  0.61400  0.36104  Biso   1.000  He
  Ne114    1.0000 0.82166  0.63976  0.37676  Biso   1.000  Ne
  Ne115    1.0000 0.10352  0.84157  0.71888  Biso   1.000  Ne
  He115    1.0000 0.07951  0.83328  0.74116  Biso   1.000  He
  He116    1.0000 0.09257  0.81723  0.76799  Biso   1.000  He
  Ne116    1.0000 0.07175  0.81126  0.79209  Biso   1.000  Ne
  Ne117    1.0000 0.34968  0.05403  0.44578  Biso   1.000  Ne
  He117    1.0000 0.37562  0.04234  0.46449  Biso   1.000  He
  He118    1.0000 0.40104  0.03342  0.44558  Biso   1.000  He
  Ne118    1.0000 0.42607  0.01694  0.46130  Biso   1.000  Ne
  Ne119    1.0000 0.00732  0.05019  0.31048  Biso   1.000  Ne
  He119    1.0000 0.03597  0.06327  0.29766  Biso   1.000  He
  He120    1.0000 0.04995  0.04722  0.27366  Biso   1.000  He
  Ne120    1.0000 0.07762  0.06155  0.25937  Biso   1.000  Ne
  Ne121    1.0000 0.96143  0.55457  0.27496  Biso   1.000  Ne
  He121    1.0000 0.95410  0.58342  0.26240  Biso   1.000  He
  He122    1.0000 0.92193  0.58813  0.26093  Biso   1.000  He
  Ne122    1.0000 0.91567  0.61706  0.24861  Biso   1.000  Ne
  Ne123    1.0000 0.79599  0.79290  0.51908  Biso   1.000  Ne
  He123    1.0000 0.81351  0.79070  0.54982  Biso   1.000  He
  He124    1.0000 0.81260  0.81704  0.57204  Biso   1.000  He
  Ne124    1.0000 0.83228  0.81543  0.59981  Biso   1.000  Ne
  Ne125    1.0000 0.47277  0.57410  0.33263  Biso   1.000  Ne
  He125    1.0000 0.44698  0.55651  0.32804  Biso   1.000  He
  He126    1.0000 0.43129  0.56661  0.30162  Biso   1.000  He
  Ne126    1.0000 0.40081  0.55207  0.29202  Biso   1.000  Ne
  Ne127    1.0000 0.70043  0.88135  0.30435  Biso   1.000  Ne
  He127    1.0000 0.71768  0.87324  0.33092  Biso   1.000  He
  He128    1.0000 0.74739  0.88889  0.32913  Biso   1.000  He
  Ne128    1.0000 0.77085  0.86583  0.32215  Biso   1.000  Ne
  Ne129    1.0000 0.41009  0.05850  0.30101  Biso   1.000  Ne
  He129    1.0000 0.40747  0.05664  0.33398  Biso   1.000  He
  He130    1.0000 0.42843  0.07835  0.35031  Biso   1.000  He
  Ne130    1.0000 0.43211  0.07241  0.38013  Biso   1.000  Ne
  Ne131    1.0000 0.78335  0.53683  0.89730  Biso   1.000  Ne
  He131    1.0000 0.77468  0.53777  0.86608  Biso   1.000  He
  He132    1.0000 0.77045  0.56795  0.85380  Biso   1.000  He
  Ne132    1.0000 0.76133  0.56929  0.82210  Biso   1.000  Ne
  Ne133    1.0000 0.36891  0.15071  0.96164  Biso   1.000  Ne
  He133    1.0000 0.39467  0.13808  0.94642  Biso   1.000  He
  He134    1.0000 0.40483  0.15239  0.91841  Biso   1.000  He
  Ne134    1.0000 0.42335  0.13029  0.90184  Biso   1.000  Ne
  Ne135    1.0000 0.83241  0.85045  0.72823  Biso   1.000  Ne
  He135    1.0000 0.85231  0.87774  0.72065  Biso   1.000  He
  He136    1.0000 0.83734  0.90814  0.73092  Biso   1.000  He
  Ne136    1.0000 0.84865  0.93746  0.71512  Biso   1.000  Ne
  Ne137    1.0000 0.20352  0.54001  0.43569  Biso   1.000  Ne
  He137    1.0000 0.20833  0.56722  0.41682  Biso   1.000  He
  He138    1.0000 0.19610  0.56029  0.38990  Biso   1.000  He
  Ne138    1.0000 0.19575  0.58503  0.36839  Biso   1.000  Ne
  Ne139    1.0000 0.47282  0.53015  0.05724  Biso   1.000  Ne
  He139    1.0000 0.49791  0.54036  0.03543  Biso   1.000  He
  He140    1.0000 0.48876  0.54495  0.00451  Biso   1.000  He
  Ne140    1.0000 0.51398  0.54962  0.98430  Biso   1.000  Ne
  Ne141    1.0000 0.09659  0.21182  0.88666  Biso   1.000  Ne
  He141    1.0000 0.10872  0.24327  0.88401  Biso   1.000  He
  He142    1.0000 0.13273  0.24313  0.86051  Biso   1.000  He
  Ne142    1.0000 0.15167  0.27049  0.85873  Biso   1.000  Ne
  Ne143    1.0000 0.52172  0.82409  0.81907  Biso   1.000  Ne
  He143    1.0000 0.53606  0.80924  0.84483  Biso   1.000  He
  He144    1.0000 0.55435  0.78199  0.83678  Biso   1.000  He
  Ne144    1.0000 0.57271  0.77017  0.86276  Biso   1.000  Ne
  Ne145    1.0000 0.25298  0.77603  0.96742  Biso   1.000  Ne
  He145    1.0000 0.24513  0.76380  0.93745  Biso   1.000  He
  He146    1.0000 0.23716  0.78626  0.91498  Biso   1.000  He
  Ne146    1.0000 0.21815  0.77490  0.89070  Biso   1.000  Ne
  Ne147    1.0000 0.55798  0.65699  0.66504  Biso   1.000  Ne
  He147    1.0000 0.54454  0.65821  0.63426  Biso   1.000  He
  He148    1.0000 0.56475  0.67119  0.61446  Biso   1.000  He
  Ne148    1.0000 0.55385  0.67674  0.58139  Biso   1.000  Ne
  Ne149    1.0000 0.92066  0.81717  0.12307  Biso   1.000  Ne
  He149    1.0000 0.91943  0.85057  0.11594  Biso   1.000  He
  He150    1.0000 0.94073  0.85615  0.09310  Biso   1.000  He
  Ne150    1.0000 0.94100  0.88971  0.08439  Biso   1.000  Ne
  Ne151    1.0000 0.11379  0.08955  0.84907  Biso   1.000  Ne
  He151    1.0000 0.12673  0.09769  0.87842  Biso   1.000  He
  He152    1.0000 0.11206  0.12248  0.89616  Biso   1.000  He
  Ne152    1.0000 0.12924  0.13036  0.92056  Biso   1.000  Ne
  Ne153    1.0000 0.67490  0.29850  0.62284  Biso   1.000  Ne
  He153    1.0000 0.68295  0.28585  0.59388  Biso   1.000  He
  He154    1.0000 0.69834  0.30995  0.57524  Biso   1.000  He
  Ne154    1.0000 0.71395  0.29831  0.54733  Biso   1.000  Ne
  Ne155    1.0000 0.30013  0.60207  0.34569  Biso   1.000  Ne
  He155    1.0000 0.31813  0.58217  0.32600  Biso   1.000  He
  He156    1.0000 0.30709  0.57761  0.29670  Biso   1.000  He
  Ne156    1.0000 0.32307  0.55483  0.27922  Biso   1.000  Ne
  Ne157    1.0000 0.10740  0.43525  0.50857  Biso   1.000  Ne
  He157    1.0000 0.09117  0.41433  0.53130  Biso   1.000  He
  He158    1.0000 0.05684  0.41573  0.52851  Biso   1.000  He
  Ne158    1.0000 0.04192  0.39294  0.54772  Biso   1.000  Ne
  Ne159    1.0000 0.10608  0.50435  0.86176  Biso   1.000  Ne
  He159    1.0000 0.11405  0.52510  0.88870  Biso   1.000  He
  He160    1.0000 0.14269  0.54040  0.88695  Biso   1.000  He
  Ne160    1.0000 0.15025  0.56337  0.91059  Biso   1.000  Ne
  Ne161    1.0000 0.42854  0.20550  0.73198  Biso   1.000  Ne
  He161    1.0000 0.43018  0.20500  0.76644  Biso   1.000  He
  He162    1.0000 0.44634  0.23210  0.77823  Biso   1.000  He
  Ne162    1.0000 0.44676  0.23581  0.81076  Biso   1.000  Ne
  Ne163    1.0000 0.90929  0.07051  0.30855  Biso   1.000  Ne
  He163    1.0000 0.90963  0.04558  0.32694  Biso   1.000  He
  He164    1.0000 0.91712  0.05202  0.35578  Biso   1.000  He
  Ne164    1.0000 0.92222  0.02332  0.37322  Biso   1.000  Ne
  Ne165    1.0000 0.92136  0.78923  0.73328  Biso   1.000  Ne
  He165    1.0000 0.89606  0.77023  0.74774  Biso   1.000  He
  He166    1.0000 0.87246  0.76199  0.72505  Biso   1.000  He
  Ne166    1.0000 0.84330  0.75190  0.73921  Biso   1.000  Ne
  Ne167    1.0000 0.36076  0.49544  0.36803  Biso   1.000  Ne
  He167    1.0000 0.32774  0.49125  0.37330  Biso   1.000  He
  He168    1.0000 0.31096  0.51627  0.37561  Biso   1.000  He
  Ne168    1.0000 0.30466  0.52616  0.40671  Biso   1.000  Ne
  Ne169    1.0000 0.29153  0.38553  0.66861  Biso   1.000  Ne
  He169    1.0000 0.26951  0.39748  0.64501  Biso   1.000  He
  He170    1.0000 0.26967  0.37897  0.61666  Biso   1.000  He
  Ne170    1.0000 0.25780  0.39249  0.59097  Biso   1.000  Ne
  Ne171    1.0000 0.13311  0.24678  0.15007  Biso   1.000  Ne
  He171    1.0000 0.10186  0.24823  0.16317  Biso   1.000  He
  He172    1.0000 0.09346  0.22406  0.18637  Biso   1.000  He
  Ne172    1.0000 0.06392  0.22802  0.19733  Biso   1.000  Ne
  Ne173    1.0000 0.46082  0.14682  0.68904  Biso   1.000  Ne
  He173    1.0000 0.45256  0.14428  0.65574  Biso   1.000  He
  He174    1.0000 0.43693  0.16838  0.64240  Biso   1.000  He
  Ne174    1.0000 0.41743  0.16104  0.61589  Biso   1.000  Ne
  Ne175    1.0000 0.37802  0.18293  0.11233  Biso   1.000  Ne
  He175    1.0000 0.39416  0.17011  0.08710  Biso   1.000  He
  He176    1.0000 0.37443  0.15461  0.06734  Biso   1.000  He
  Ne176    1.0000 0.38238  0.15752  0.03576  Biso   1.000  Ne
  Ne177    1.0000 0.32438  0.65916  0.60221  Biso   1.000  Ne
  He177    1.0000 0.34099  0.63361  0.58778  Biso   1.000  He
  He178    1.0000 0.35650  0.64247  0.56002  Biso   1.000  He
  Ne178    1.0000 0.37836  0.61957  0.55200  Biso   1.000  Ne
  Ne179    1.0000 0.23114  0.34667  0.92630  Biso   1.000  Ne
  He179    1.0000 0.25397  0.34430  0.94799  Biso   1.000  He
  He180    1.0000 0.27052  0.37311  0.95245  Biso   1.000  He
  Ne180    1.0000 0.26405  0.38908  0.97808  Biso   1.000  Ne
  Ne181    1.0000 0.75866  0.03892  0.69398  Biso   1.000  Ne
  He181    1.0000 0.77861  0.01723  0.67748  Biso   1.000  He
  He182    1.0000 0.79280  0.03212  0.65172  Biso   1.000  He
  Ne182    1.0000 0.81651  0.01203  0.63812  Biso   1.000  Ne
  Ne183    1.0000 0.18802  0.41864  0.29002  Biso   1.000  Ne
  He183    1.0000 0.20824  0.39142  0.29674  Biso   1.000  He
  He184    1.0000 0.22681  0.38312  0.26869  Biso   1.000  He
  Ne184    1.0000 0.25257  0.36354  0.27544  Biso   1.000  Ne
  Ne185    1.0000 0.22394  0.63309  0.71369  Biso   1.000  Ne
  He185    1.0000 0.19564  0.62311  0.72640  Biso   1.000  He
  He186    1.0000 0.17070  0.63811  0.71155  Biso   1.000  He
  Ne186    1.0000 0.13992  0.63258  0.72481  Biso   1.000  Ne
  Ne187    1.0000 0.13475  0.57128  0.80584  Biso   1.000  Ne
  He187    1.0000 0.11039  0.58261  0.79012  Biso   1.000  He
  He188    1.0000 0.09308  0.60879  0.80519  Biso   1.000  He
  Ne188    1.0000 0.06575  0.61603  0.78957  Biso   1.000  Ne
  Ne189    1.0000 0.68133  0.86686  0.69937  Biso   1.000  Ne
  He189    1.0000 0.68517  0.87054  0.73042  Biso   1.000  He
  He190    1.0000 0.71587  0.86520  0.74517  Biso   1.000  He
  Ne190    1.0000 0.71804  0.86983  0.77806  Biso   1.000  Ne
  Ne191    1.0000 0.44644  0.84310  0.42530  Biso   1.000  Ne
  He191    1.0000 0.42934  0.87024  0.42918  Biso   1.000  He
  He192    1.0000 0.43714  0.88623  0.45772  Biso   1.000  He
  Ne192    1.0000 0.41532  0.90914  0.46499  Biso   1.000  Ne
  Ne193    1.0000 0.48316  0.05711  0.84886  Biso   1.000  Ne
  He193    1.0000 0.49770  0.02842  0.85700  Biso   1.000  He
  He194    1.0000 0.52222  0.01903  0.83452  Biso   1.000  He
  Ne194    1.0000 0.52993  0.98758  0.83689  Biso   1.000  Ne
  Ne195    1.0000 0.08742  0.40882  0.61353  Biso   1.000  Ne
  He195    1.0000 0.09736  0.38121  0.62764  Biso   1.000  He
  He196    1.0000 0.08012  0.35600  0.61518  Biso   1.000  He
  Ne196    1.0000 0.09290  0.32851  0.62781  Biso   1.000  Ne
  Ne197    1.0000 0.22813  0.28822  0.24722  Biso   1.000  Ne
  He197    1.0000 0.21116  0.26239  0.25740  Biso   1.000  He
  He198    1.0000 0.21196  0.25439  0.29070  Biso   1.000  He
  Ne198    1.0000 0.18888  0.23236  0.30245  Biso   1.000  Ne
  Ne199    1.0000 0.20742  0.77172  0.78731  Biso   1.000  Ne
  He199    1.0000 0.19774  0.75343  0.76276  Biso   1.000  He
  He200    1.0000 0.16884  0.76076  0.74792  Biso   1.000  He
  Ne200    1.0000 0.15956  0.74362  0.72188  Biso   1.000  Ne
  Ne201    1.0000 0.96813  0.24834  0.12668  Biso   1.000  Ne
  He201    1.0000 0.95617  0.22658  0.10512  Biso   1.000  He
  He202    1.0000 0.93095  0.24119  0.09075  Biso   1.000  He
  Ne202    1.0000 0.91676  0.22584  0.06448  Biso   1.000  Ne
  Ne203    1.0000 0.88715  0.60417  0.47254  Biso   1.000  Ne
  He203    1.0000 0.91128  0.57971  0.46749  Biso   1.000  He
  He204    1.0000 0.89845  0.54920  0.46063  Biso   1.000  He
  Ne204    1.0000 0.92067  0.52485  0.45916  Biso   1.000  Ne
  Ne205    1.0000 0.56511  0.48562  0.58108  Biso   1.000  Ne
  He205    1.0000 0.59341  0.49602  0.59006  Biso   1.000  He
  He206    1.0000 0.62067  0.47840  0.57755  Biso   1.000  He
  Ne206    1.0000 0.64827  0.49837  0.57543  Biso   1.000  Ne
  Ne207    1.0000 0.57732  0.53757  0.80110  Biso   1.000  Ne
  He207    1.0000 0.57569  0.56097  0.82511  Biso   1.000  He
  He208    1.0000 0.57716  0.54980  0.85396  Biso   1.000  He
  Ne208    1.0000 0.58122  0.57235  0.87674  Biso   1.000  Ne
  Ne209    1.0000 0.83757  0.24372  0.60118  Biso   1.000  Ne
  He209    1.0000 0.84412  0.21227  0.59696  Biso   1.000  He
  He210    1.0000 0.87420  0.20329  0.60001  Biso   1.000  He
  Ne210    1.0000 0.87970  0.17113  0.59009  Biso   1.000  Ne
  Ne211    1.0000 0.84657  0.04762  0.18679  Biso   1.000  Ne
  He211    1.0000 0.86924  0.03504  0.16753  Biso   1.000  He
  He212    1.0000 0.89996  0.04214  0.18172  Biso   1.000  He
  Ne212    1.0000 0.92698  0.03307  0.16345  Biso   1.000  Ne
  Ne213    1.0000 0.94050  0.27401  0.66676  Biso   1.000  Ne
  He213    1.0000 0.92755  0.28642  0.63998  Biso   1.000  He
  He214    1.0000 0.93867  0.27418  0.61090  Biso   1.000  He
  Ne214    1.0000 0.92141  0.28511  0.58286  Biso   1.000  Ne
  Ne215    1.0000 0.60752  0.78920  0.68485  Biso   1.000  Ne
  He215    1.0000 0.60024  0.79089  0.65284  Biso   1.000  He
  He216    1.0000 0.58455  0.76231  0.64244  Biso   1.000  He
  Ne216    1.0000 0.57653  0.75748  0.60964  Biso   1.000  Ne
  Ne217    1.0000 0.61171  0.75791  0.77239  Biso   1.000  Ne
  He217    1.0000 0.59791  0.74291  0.74466  Biso   1.000  He
  He218    1.0000 0.60782  0.71381  0.73451  Biso   1.000  He
  Ne218    1.0000 0.59739  0.70783  0.70511  Biso   1.000  Ne
  Ne219    1.0000 0.78845  0.03373  0.10105  Biso   1.000  Ne
  He219    1.0000 0.76697  0.02322  0.07740  Biso   1.000  He
  He220    1.0000 0.74418  0.00165  0.09103  Biso   1.000  He
  Ne220    1.0000 0.71896  0.99004  0.07063  Biso   1.000  Ne
  Ne221    1.0000 0.35436  0.84133  0.44451  Biso   1.000  Ne
  He221    1.0000 0.33208  0.81613  0.43658  Biso   1.000  He
  He222    1.0000 0.32973  0.79167  0.45982  Biso   1.000  He
  Ne222    1.0000 0.31233  0.76551  0.44894  Biso   1.000  Ne
  Ne223    1.0000 0.50120  0.18302  0.96128  Biso   1.000  Ne
  He223    1.0000 0.52773  0.16523  0.95149  Biso   1.000  He
  He224    1.0000 0.55117  0.16599  0.97220  Biso   1.000  He
  Ne224    1.0000 0.57818  0.14676  0.96527  Biso   1.000  Ne
  Ne225    1.0000 0.23637  0.13253  0.77642  Biso   1.000  Ne
  He225    1.0000 0.24261  0.14944  0.74995  Biso   1.000  He
  He226    1.0000 0.22762  0.14066  0.72152  Biso   1.000  He
  Ne226    1.0000 0.23148  0.15929  0.69354  Biso   1.000  Ne
  Ne227    1.0000 0.71483  0.85420  0.43092  Biso   1.000  Ne
  He227    1.0000 0.74013  0.85375  0.45223  Biso   1.000  He
  He228    1.0000 0.76299  0.87732  0.44805  Biso   1.000  He
  Ne228    1.0000 0.78962  0.87022  0.46416  Biso   1.000  Ne
  Ne229    1.0000 0.06735  0.15275  0.32778  Biso   1.000  Ne
  He229    1.0000 0.08564  0.18019  0.33903  Biso   1.000  He
  He230    1.0000 0.09186  0.20593  0.31762  Biso   1.000  He
  Ne230    1.0000 0.06563  0.23036  0.31874  Biso   1.000  Ne
  Ne231    1.0000 0.40890  0.52195  0.92909  Biso   1.000  Ne
  He231    1.0000 0.38317  0.54185  0.93592  Biso   1.000  He
  He232    1.0000 0.36045  0.52909  0.95417  Biso   1.000  He
  Ne232    1.0000 0.33331  0.54793  0.95149  Biso   1.000  Ne
  Ne233    1.0000 0.41606  0.26568  0.28495  Biso   1.000  Ne
  He233    1.0000 0.42194  0.28587  0.25733  Biso   1.000  He
  He234    1.0000 0.40453  0.28240  0.23005  Biso   1.000  He
  Ne234    1.0000 0.40925  0.30574  0.20678  Biso   1.000  Ne
  Ne235    1.0000 0.97870  0.95601  0.39767  Biso   1.000  Ne
  He235    1.0000 0.98470  0.96768  0.36599  Biso   1.000  He
  He236    1.0000 0.96299  0.95505  0.34197  Biso   1.000  He
  Ne236    1.0000 0.97301  0.92495  0.32708  Biso   1.000  Ne
  Ne237    1.0000 0.22456  0.92107  0.39893  Biso   1.000  Ne
  He237    1.0000 0.23599  0.92626  0.42887  Biso   1.000  He
  He238    1.0000 0.21897  0.94330  0.45200  Biso   1.000  He
  Ne238    1.0000 0.23348  0.94144  0.48247  Biso   1.000  Ne
  Ne239    1.0000 0.89052  0.37737  0.57496  Biso   1.000  Ne
  He239    1.0000 0.92145  0.38073  0.56805  Biso   1.000  He
  He240    1.0000 0.93834  0.39714  0.59223  Biso   1.000  He
  Ne240    1.0000 0.97054  0.40512  0.58522  Biso   1.000  Ne
  Ne241    1.0000 0.99587  0.06594  0.39260  Biso   1.000  Ne
  He241    1.0000 0.99902  0.06254  0.42479  Biso   1.000  He
  He242    1.0000 0.98758  0.08922  0.44128  Biso   1.000  He
  Ne242    1.0000 0.99645  0.09175  0.47356  Biso   1.000  Ne
  Ne243    1.0000 0.59798  0.78914  0.29079  Biso   1.000  Ne
  He243    1.0000 0.62318  0.78536  0.31388  Biso   1.000  He
  He244    1.0000 0.61396  0.79004  0.34385  Biso   1.000  He
  Ne244    1.0000 0.63607  0.77844  0.36356  Biso   1.000  Ne
  Ne245    1.0000 0.06992  0.42030  0.27510  Biso   1.000  Ne
  He245    1.0000 0.09077  0.39385  0.28372  Biso   1.000  He
  He246    1.0000 0.08437  0.38371  0.31272  Biso   1.000  He
  Ne246    1.0000 0.10096  0.35599  0.32526  Biso   1.000  Ne
  Ne247    1.0000 0.33643  0.78695  0.85554  Biso   1.000  Ne
  He247    1.0000 0.31739  0.76039  0.86638  Biso   1.000  He
  He248    1.0000 0.29926  0.74794  0.84613  Biso   1.000  He
  Ne248    1.0000 0.27688  0.72747  0.85927  Biso   1.000  Ne
  Ne249    1.0000 0.20280  0.75172  0.45563  Biso   1.000  Ne
  He249    1.0000 0.18930  0.74776  0.42548  Biso   1.000  He
  He250    1.0000 0.19615  0.72015  0.41156  Biso   1.000  He
  Ne250    1.0000 0.18144  0.71601  0.38050  Biso   1.000  Ne
  Ne251    1.0000 0.09544  0.70663  0.96361  Biso   1.000  Ne
  He251    1.0000 0.11928  0.73074  0.95307  Biso   1.000  He
  He252    1.0000 0.11405  0.75948  0.96899  Biso   1.000  He
  Ne252    1.0000 0.13401  0.78240  0.96204  Biso   1.000  Ne
  Ne253    1.0000 0.69178  0.02858  0.93353  Biso   1.000  Ne
  He253    1.0000 0.68536  0.03590  0.96729  Biso   1.000  He
  He254    1.0000 0.69515  0.06742  0.97760  Biso   1.000  He
  Ne254    1.0000 0.72572  0.06652  0.99423  Biso   1.000  Ne
  Ne255    1.0000 0.11963  0.57844  0.46451  Biso   1.000  Ne
  He255    1.0000 0.11085  0.58407  0.43356  Biso   1.000  He
  He256    1.0000 0.11196  0.55944  0.41087  Biso   1.000  He
  Ne256    1.0000 0.10115  0.57068  0.38249  Biso   1.000  Ne
  Ne257    1.0000 0.09084  0.83321  0.90536  Biso   1.000  Ne
  He257    1.0000 0.10254  0.83120  0.87270  Biso   1.000  He
  He258    1.0000 0.13362  0.81953  0.87211  Biso   1.000  He
  Ne258    1.0000 0.14896  0.81923  0.84215  Biso   1.000  Ne
  Ne259    1.0000 0.41690  0.01991  0.76977  Biso   1.000  Ne
  He259    1.0000 0.42420  0.05036  0.78063  Biso   1.000  He
  He260    1.0000 0.43745  0.07217  0.75640  Biso   1.000  He
  Ne260    1.0000 0.44166  0.10251  0.76419  Biso   1.000  Ne
  Ne261    1.0000 0.28830  0.18315  0.30831  Biso   1.000  Ne
  He261    1.0000 0.31934  0.17967  0.32491  Biso   1.000  He
  He262    1.0000 0.32137  0.19064  0.35597  Biso   1.000  He
  Ne262    1.0000 0.31201  0.16892  0.38192  Biso   1.000  Ne
  Ne263    1.0000 0.30233  0.96047  0.09995  Biso   1.000  Ne
  He263    1.0000 0.30569  0.94949  0.06821  Biso   1.000  He
  He264    1.0000 0.29101  0.96872  0.04610  Biso   1.000  He
  Ne264    1.0000 0.29563  0.95848  0.01717  Biso   1.000  Ne
  Ne265    1.0000 0.61952  0.52635  0.16874  Biso   1.000  Ne
  He265    1.0000 0.61599  0.54016  0.19776  Biso   1.000  He
  He266    1.0000 0.64143  0.53366  0.21592  Biso   1.000  He
  Ne266    1.0000 0.64377  0.55425  0.24169  Biso   1.000  Ne
  Ne267    1.0000 0.07444  0.18406  0.51348  Biso   1.000  Ne
  He267    1.0000 0.06654  0.16492  0.48844  Biso   1.000  He
  He268    1.0000 0.03850  0.17251  0.47131  Biso   1.000  He
  Ne268    1.0000 0.03677  0.15689  0.44059  Biso   1.000  Ne
  Ne269    1.0000 0.33057  0.56003  0.55631  Biso   1.000  Ne
  He269    1.0000 0.30944  0.53580  0.56347  Biso   1.000  He
  He270    1.0000 0.28998  0.54348  0.58862  Biso   1.000  He
  Ne270    1.0000 0.27114  0.51791  0.60230  Biso   1.000  Ne
  Ne271    1.0000 0.69359  0.04321  0.35012  Biso   1.000  Ne
  He271    1.0000 0.67140  0.03586  0.37362  Biso   1.000  He
  He272    1.0000 0.68214  0.02426  0.40324  Biso   1.000  He
  Ne272    1.0000 0.65714  0.01978  0.42425  Biso   1.000  Ne
  Ne273    1.0000 0.73135  0.68658  0.68114  Biso   1.000  Ne
  He273    1.0000 0.70637  0.70342  0.66687  Biso   1.000  He
  He274    1.0000 0.70556  0.69955  0.63400  Biso   1.000  He
  Ne274    1.0000 0.68296  0.71988  0.62067  Biso   1.000  Ne
  Ne275    1.0000 0.36637  0.81442  0.93604  Biso   1.000  Ne
  He275    1.0000 0.36297  0.79224  0.96159  Biso   1.000  He
  He276    1.0000 0.33282  0.79039  0.97496  Biso   1.000  He
  Ne276    1.0000 0.33249  0.76857  0.99916  Biso   1.000  Ne
  Ne277    1.0000 0.88254  0.41191  0.94417  Biso   1.000  Ne
  He277    1.0000 0.90944  0.42645  0.92997  Biso   1.000  He
  He278    1.0000 0.90479  0.45765  0.92013  Biso   1.000  He
  Ne278    1.0000 0.93578  0.47186  0.91290  Biso   1.000  Ne
  Ne279    1.0000 0.67180  0.04412  0.68615  Biso   1.000  Ne
  He279    1.0000 0.68058  0.07041  0.70362  Biso   1.000  He
  He280    1.0000 0.66328  0.07245  0.73019  Biso   1.000  He
  Ne280    1.0000 0.66608  0.10222  0.74542  Biso   1.000  Ne
  Ne281    1.0000 0.27768  0.41553  0.20772  Biso   1.000  Ne
  He281    1.0000 0.25728  0.41504  0.18061  Biso   1.000  He
  He282    1.0000 0.23498  0.43715  0.17999  Biso   1.000  He
  Ne282    1.0000 0.21545  0.43293  0.15237  Biso   1.000  Ne
  Ne283    1.0000 0.75105  0.60417  0.31723  Biso   1.000  Ne
  He283    1.0000 0.73148  0.58819  0.33984  Biso   1.000  He
  He284    1.0000 0.74602  0.56614  0.35643  Biso   1.000  He
  Ne284    1.0000 0.72697  0.55056  0.37603  Biso   1.000  Ne
  Ne285    1.0000 0.38155  0.44411  0.43205  Biso   1.000  Ne
  He285    1.0000 0.40939  0.43649  0.41323  Biso   1.000  He
  He286    1.0000 0.42828  0.41120  0.42273  Biso   1.000  He
  Ne286    1.0000 0.45821  0.40823  0.40486  Biso   1.000  Ne
  Ne287    1.0000 0.36851  0.61656  0.21524  Biso   1.000  Ne
  He287    1.0000 0.39740  0.63104  0.20460  Biso   1.000  He
  He288    1.0000 0.41652  0.65010  0.22482  Biso   1.000  He
  Ne288    1.0000 0.44493  0.65763  0.21225  Biso   1.000  Ne
  Ne289    1.0000 0.14899  0.17680  0.75975  Biso   1.000  Ne
  He289    1.0000 0.14322  0.19198  0.73107  Biso   1.000  He
  He290    1.0000 0.11273  0.20327  0.72982  Biso   1.000  He
  Ne290    1.0000 0.10834  0.22306  0.70321  Biso   1.000  Ne
  Ne291    1.0000 0.27793  0.69586  0.24286  Biso   1.000  Ne
  He291    1.0000 0.26358  0.68083  0.26772  Biso   1.000  He
  He292    1.0000 0.23348  0.69306  0.27451  Biso   1.000  He
  Ne292    1.0000 0.20495  0.67797  0.26560  Biso   1.000  Ne
  Ne293    1.0000 0.64677  0.92016  0.23559  Biso   1.000  Ne
  He293    1.0000 0.64360  0.88789  0.22969  Biso   1.000  He
  He294    1.0000 0.62181  0.87158  0.25127  Biso   1.000  He
  Ne294    1.0000 0.61496  0.84247  0.24157  Biso   1.000  Ne
  Ne295    1.0000 0.83551  0.15687  0.31528  Biso   1.000  Ne
  He295    1.0000 0.84876  0.15572  0.34708  Biso   1.000  He
  He296    1.0000 0.82489  0.14351  0.36625  Biso   1.000  He
  Ne296    1.0000 0.83367  0.13729  0.39853  Biso   1.000  Ne
  Ne297    1.0000 0.64266  0.19408  0.79756  Biso   1.000  Ne
  He297    1.0000 0.63282  0.22537  0.78929  Biso   1.000  He
  He298    1.0000 0.64492  0.25178  0.80824  Biso   1.000  He
  Ne298    1.0000 0.63463  0.28084  0.79614  Biso   1.000  Ne
  Ne299    1.0000 0.07918  0.06248  0.18105  Biso   1.000  Ne
  He299    1.0000 0.08757  0.09225  0.17014  Biso   1.000  He
  He300    1.0000 0.08149  0.11968  0.19123  Biso   1.000  He
  Ne300    1.0000 0.09044  0.14973  0.17676  Biso   1.000  Ne
  Ne301    1.0000 0.99191  0.38383  0.02015  Biso   1.000  Ne
  He301    1.0000 0.96967  0.36777  0.03920  Biso   1.000  He
  He302    1.0000 0.98177  0.34027  0.05186  Biso   1.000  He
  Ne302    1.0000 0.95864  0.31758  0.06536  Biso   1.000  Ne
  Ne303    1.0000 0.03291  0.67232  0.86379  Biso   1.000  Ne
  He303    1.0000 0.04974  0.69945  0.85527  Biso   1.000  He
  He304    1.0000 0.06411  0.71894  0.88056  Biso   1.000  He
  Ne304    1.0000 0.08761  0.74213  0.86892  Biso   1.000  Ne
  Ne305    1.0000 0.72264  0.33137  0.67288  Biso   1.000  Ne
  He305    1.0000 0.72585  0.34675  0.70080  Biso   1.000  He
  He306    1.0000 0.75458  0.36321  0.69937  Biso   1.000  He
  Ne306    1.0000 0.75903  0.38329  0.72511  Biso   1.000  Ne
  Ne307    1.0000 0.45549  0.04269  0.54854  Biso   1.000  Ne
  He307    1.0000 0.45372  0.05120  0.58187  Biso   1.000  He
  He308    1.0000 0.42879  0.03210  0.59798  Biso   1.000  He
  Ne308    1.0000 0.42866  0.03781  0.62935  Biso   1.000  Ne
  Ne309    1.0000 0.33558  0.61200  0.90849  Biso   1.000  Ne
  He309    1.0000 0.33440  0.64024  0.88995  Biso   1.000  He
  He310    1.0000 0.30484  0.65490  0.89750  Biso   1.000  He
  Ne310    1.0000 0.30580  0.67703  0.92500  Biso   1.000  Ne
  Ne311    1.0000 0.34686  0.22027  0.60426  Biso   1.000  Ne
  He311    1.0000 0.32237  0.19718  0.60667  Biso   1.000  He
  He312    1.0000 0.32822  0.16800  0.59646  Biso   1.000  He
  Ne312    1.0000 0.30234  0.14655  0.60123  Biso   1.000  Ne
  Ne313    1.0000 0.44313  0.95597  0.94108  Biso   1.000  Ne
  He313    1.0000 0.43797  0.97357  0.96961  Biso   1.000  He
  He314    1.0000 0.42184  0.95703  0.99052  Biso   1.000  He
  Ne314    1.0000 0.41657  0.97010  0.02264  Biso   1.000  Ne
  Ne315    1.0000 0.85009  0.97385  0.32746  Biso   1.000  Ne
  He315    1.0000 0.86785  0.94803  0.33800  Biso   1.000  He
  He316    1.0000 0.86497  0.93731  0.37137  Biso   1.000  He
  Ne316    1.0000 0.88461  0.94980  0.39294  Biso   1.000  Ne
  Ne317    1.0000 0.45190  0.27598  0.42760  Biso   1.000  Ne
  He317    1.0000 0.45157  0.27976  0.39282  Biso   1.000  He
  He318    1.0000 0.48280  0.28623  0.37922  Biso   1.000  He
  Ne318    1.0000 0.48192  0.30187  0.34931  Biso   1.000  Ne
  Ne319    1.0000 0.18308  0.07736  0.94088  Biso   1.000  Ne
  He319    1.0000 0.20450  0.05133  0.93952  Biso   1.000  He
  He320    1.0000 0.22355  0.04823  0.91319  Biso   1.000  He
  Ne320    1.0000 0.24727  0.02773  0.91392  Biso   1.000  Ne
  Ne321    1.0000 0.94646  0.22781  0.73959  Biso   1.000  Ne
  He321    1.0000 0.93988  0.24765  0.76643  Biso   1.000  He
  He322    1.0000 0.95560  0.27678  0.77006  Biso   1.000  He
  Ne322    1.0000 0.94526  0.29530  0.79548  Biso   1.000  Ne
  Ne323    1.0000 0.67369  0.81276  0.61768  Biso   1.000  Ne
  He323    1.0000 0.70224  0.82695  0.60740  Biso   1.000  He
  He324    1.0000 0.71964  0.83382  0.63158  Biso   1.000  He
  Ne324    1.0000 0.74476  0.84933  0.62310  Biso   1.000  Ne
  Ne325    1.0000 0.18784  0.85904  0.52570  Biso   1.000  Ne
  He325    1.0000 0.17271  0.87320  0.55264  Biso   1.000  He
  He326    1.0000 0.18719  0.86546  0.58187  Biso   1.000  He
  Ne326    1.0000 0.17620  0.87890  0.61199  Biso   1.000  Ne
  Ne327    1.0000 0.26534  0.54092  0.68580  Biso   1.000  Ne
  He327    1.0000 0.28163  0.53212  0.71247  Biso   1.000  He
  He328    1.0000 0.30285  0.50403  0.70769  Biso   1.000  He
  Ne328    1.0000 0.31922  0.49489  0.73453  Biso   1.000  Ne
  Ne329    1.0000 0.07935  0.50578  0.54733  Biso   1.000  Ne
  He329    1.0000 0.07596  0.51736  0.57757  Biso   1.000  He
  He330    1.0000 0.09762  0.50902  0.59649  Biso   1.000  He
  Ne330    1.0000 0.09136  0.52153  0.62701  Biso   1.000  Ne
  Ne331    1.0000 0.60594  0.78980  0.14506  Biso   1.000  Ne
  He331    1.0000 0.61792  0.77243  0.17111  Biso   1.000  He
  He332    1.0000 0.59438  0.75492  0.18344  Biso   1.000  He
  Ne332    1.0000 0.60246  0.73122  0.20114  Biso   1.000  Ne
  Ne333    1.0000 0.93313  0.38615  0.11374  Biso   1.000  Ne
  He333    1.0000 0.91095  0.36618  0.12555  Biso   1.000  He
  He334    1.0000 0.90214  0.37511  0.15630  Biso   1.000  He
  Ne334    1.0000 0.88494  0.35119  0.17199  Biso   1.000  Ne
  Ne335    1.0000 0.28443  0.08717  0.39276  Biso   1.000  Ne
  He335    1.0000 0.28069  0.06448  0.36689  Biso   1.000  He
  He336    1.0000 0.25019  0.05983  0.36072  Biso   1.000  He
  Ne336    1.0000 0.24419  0.03746  0.33661  Biso   1.000  Ne
  Ne337    1.0000 0.94017  0.01962  0.78152  Biso   1.000  Ne
  He337    1.0000 0.91570  0.01080  0.75755  Biso   1.000  He
  He338    1.0000 0.88882  0.02901  0.75600  Biso   1.000  He
  Ne338    1.0000 0.86367  0.02030  0.73738  Biso   1.000  Ne
  Ne339    1.0000 0.15182  0.86082  0.95674  Biso   1.000  Ne
  He339    1.0000 0.18303  0.85126  0.94859  Biso   1.000  He
  He340    1.0000 0.20566  0.87828  0.94945  Biso   1.000  He
  Ne340    1.0000 0.23721  0.86740  0.94835  Biso   1.000  Ne
  Ne341    1.0000 0.70209  0.53216  0.14032  Biso   1.000  Ne
  He341    1.0000 0.72642  0.54909  0.15351  Biso   1.000  He
  He342    1.0000 0.74134  0.57323  0.13453  Biso   1.000  He
  Ne342    1.0000 0.76611  0.59031  0.14894  Biso   1.000  Ne
  Ne343    1.0000 0.37968  0.28611  0.46109  Biso   1.000  Ne
  He343    1.0000 0.36019  0.26275  0.45081  Biso   1.000  He
  He344    1.0000 0.33566  0.27125  0.43274  Biso   1.000  He
  Ne344    1.0000 0.32217  0.24921  0.41505  Biso   1.000  Ne
  Ne345    1.0000 0.88601  0.04433  0.93330  Biso   1.000  Ne
  He345    1.0000 0.91053  0.04492  0.95180  Biso   1.000  He
  He346    1.0000 0.93971  0.03503  0.93714  Biso   1.000  He
  Ne346    1.0000 0.96887  0.03510  0.95541  Biso   1.000  Ne
  Ne347    1.0000 0.08329  0.28660  0.36813  Biso   1.000  Ne
  He347    1.0000 0.08183  0.27337  0.39877  Biso   1.000  He
  He348    1.0000 0.08916  0.24153  0.39807  Biso   1.000  He
  Ne348    1.0000 0.07762  0.22649  0.42595  Biso   1.000  Ne
  Ne349    1.0000 0.84436  0.58195  0.77720  Biso   1.000  Ne
  He349    1.0000 0.87027  0.59825  0.76329  Biso   1.000  He
  He350    1.0000 0.87631  0.62747  0.77844  Biso   1.000  He
  Ne350    1.0000 0.90233  0.64438  0.76402  Biso   1.000  Ne
  Ne351    1.0000 0.60522  0.40274  0.07614  Biso   1.000  Ne
  He351    1.0000 0.58570  0.38187  0.09482  Biso   1.000  He
  He352    1.0000 0.58939  0.38889  0.12689  Biso   1.000  He
  Ne352    1.0000 0.61132  0.37222  0.14384  Biso   1.000  Ne
  Ne353    1.0000 0.70216  0.46519  0.34192  Biso   1.000  Ne
  He353    1.0000 0.70703  0.45783  0.37225  Biso   1.000  He
  He354    1.0000 0.70848  0.48345  0.39585  Biso   1.000  He
  Ne354    1.0000 0.72044  0.47172  0.42613  Biso   1.000  Ne
  Ne355    1.0000 0.49082  0.38203  0.02482  Biso   1.000  Ne
  He355    1.0000 0.52410  0.38865  0.02348  Biso   1.000  He
  He356    1.0000 0.53913  0.37151  0.99736  Biso   1.000  He
  Ne356    1.0000 0.57133  0.37423  0.00058  Biso   1.000  Ne
  Ne357    1.0000 0.90449  0.73940  0.37659  Biso   1.000  Ne
  He357    1.0000 0.91971  0.74261  0.40659  Biso   1.000  He
  He358    1.0000 0.94600  0.76186  0.40721  Biso   1.000  He
  Ne358    1.0000 0.94525  0.78761  0.43115  Biso   1.000  Ne
  Ne359    1.0000 0.53770  0.46246  0.10464  Biso   1.000  Ne
  He359    1.0000 0.50617  0.45773  0.11253  Biso   1.000  He
  He360    1.0000 0.48556  0.45735  0.08452  Biso   1.000  He
  Ne360    1.0000 0.45447  0.45522  0.09375  Biso   1.000  Ne
  Ne361    1.0000 0.81938  0.32149  0.58377  Biso   1.000  Ne
  He361    1.0000 0.79151  0.33787  0.59324  Biso   1.000  He
  He362    1.0000 0.78955  0.36745  0.58076  Biso   1.000  He
  Ne362    1.0000 0.76339  0.38388  0.59371  Biso   1.000  Ne
  Ne363    1.0000 0.61285  0.10667  0.42695  Biso   1.000  Ne
  He363    1.0000 0.62159  0.13254  0.44499  Biso   1.000  He
  He364    1.0000 0.60283  0.15850  0.43495  Biso   1.000  He
  Ne364    1.0000 0.60132  0.18403  0.45551  Biso   1.000  Ne
  Ne365    1.0000 0.01771  0.55066  0.50075  Biso   1.000  Ne
  He365    1.0000 0.00435  0.52067  0.49922  Biso   1.000  He
  He366    1.0000 0.02622  0.50108  0.48940  Biso   1.000  He
  Ne366    1.0000 0.01464  0.47011  0.48302  Biso   1.000  Ne
  Ne367    1.0000 0.43526  0.12695  0.43737  Biso   1.000  Ne
  He367    1.0000 0.43233  0.14918  0.41452  Biso   1.000  He
  He368    1.0000 0.42120  0.17716  0.42351  Biso   1.000  He
  Ne368    1.0000 0.42096  0.20259  0.40027  Biso   1.000  Ne
  Ne369    1.0000 0.31023  0.54532  0.87849  Biso   1.000  Ne
  He369    1.0000 0.30805  0.54222  0.84639  Biso   1.000  He
  He370    1.0000 0.28306  0.55925  0.83229  Biso   1.000  He
  Ne370    1.0000 0.28015  0.55603  0.79878  Biso   1.000  Ne
  Ne371    1.0000 0.30475  0.22213  0.13419  Biso   1.000  Ne
  He371    1.0000 0.29139  0.22269  0.16459  Biso   1.000  He
  He372    1.0000 0.31050  0.24139  0.18340  Biso   1.000  He
  Ne372    1.0000 0.29902  0.24373  0.21378  Biso   1.000  Ne
  Ne373    1.0000 0.77768  0.11208  0.11865  Biso   1.000  Ne
  He373    1.0000 0.77142  0.14184  0.11050  Biso   1.000  He
  He374    1.0000 0.74514  0.15599  0.12676  Biso   1.000  He
  Ne374    1.0000 0.73963  0.18796  0.11691  Biso   1.000  Ne
  Ne375    1.0000 0.22277  0.59720  0.26589  Biso   1.000  Ne
  He375    1.0000 0.24305  0.59496  0.23812  Biso   1.000  He
  He376    1.0000 0.23000  0.57509  0.21492  Biso   1.000  He
  Ne376    1.0000 0.24980  0.57263  0.18434  Biso   1.000  Ne
  Ne377    1.0000 0.33597  0.45617  0.49708  Biso   1.000  Ne
  He377    1.0000 0.31938  0.48458  0.49010  Biso   1.000  He
  He378    1.0000 0.28902  0.48587  0.49973  Biso   1.000  He
  Ne378    1.0000 0.27556  0.51744  0.49747  Biso   1.000  Ne
  Ne379    1.0000 0.75048  0.37510  0.19341  Biso   1.000  Ne
  He379    1.0000 0.72263  0.36000  0.18241  Biso   1.000  He
  He380    1.0000 0.69719  0.35944  0.20234  Biso   1.000  He
  Ne380    1.0000 0.67191  0.34281  0.18910  Biso   1.000  Ne
  Ne381    1.0000 0.84279  0.78510  0.13562  Biso   1.000  Ne
  He381    1.0000 0.81742  0.80722  0.14359  Biso   1.000  He
  He382    1.0000 0.82229  0.83500  0.12886  Biso   1.000  He
  Ne382    1.0000 0.80108  0.86117  0.13250  Biso   1.000  Ne
  Ne383    1.0000 0.85361  0.33564  0.83771  Biso   1.000  Ne
  He383    1.0000 0.87912  0.32954  0.85798  Biso   1.000  He
  He384    1.0000 0.87470  0.33991  0.89087  Biso   1.000  He
  Ne384    1.0000 0.90019  0.33551  0.90951  Biso   1.000  Ne
  Ne385    1.0000 0.28362  0.10543  0.24355  Biso   1.000  Ne
  He385    1.0000 0.28219  0.10782  0.21088  Biso   1.000  He
  He386    1.0000 0.25350  0.11714  0.19660  Biso   1.000  He
  Ne386    1.0000 0.25513  0.11859  0.16437  Biso   1.000  Ne
  Ne387    1.0000 0.64638  0.50928  0.73644  Biso   1.000  Ne
  He387    1.0000 0.66954  0.49669  0.71628  Biso   1.000  He
  He388    1.0000 0.66046  0.47404  0.69018  Biso   1.000  He
  Ne388    1.0000 0.68391  0.45726  0.67354  Biso   1.000  Ne
  Ne389    1.0000 0.49921  0.52757  0.65133  Biso   1.000  Ne
  He389    1.0000 0.49003  0.53680  0.68168  Biso   1.000  He
  He390    1.0000 0.47609  0.51463  0.70013  Biso   1.000  He
  Ne390    1.0000 0.47296  0.52560  0.73382  Biso   1.000  Ne
  Ne391    1.0000 0.91930  0.50780  0.82124  Biso   1.000  Ne
  He391    1.0000 0.91354  0.54065  0.82102  Biso   1.000  He
  He392    1.0000 0.94193  0.55727  0.82539  Biso   1.000  He
  Ne392    1.0000 0.93560  0.59233  0.82649  Biso   1.000  Ne
  Ne393    1.0000 0.40235  0.80377  0.78896  Biso   1.000  Ne
  He393    1.0000 0.42961  0.80061  0.80976  Biso   1.000  He
  He394    1.0000 0.42003  0.80586  0.84280  Biso   1.000  He
  Ne394    1.0000 0.44201  0.79578  0.86401  Biso   1.000  Ne
  Ne395    1.0000 0.11524  0.64269  0.30668  Biso   1.000  Ne
  He395    1.0000 0.11805  0.61154  0.31670  Biso   1.000  He
  He396    1.0000 0.12978  0.59179  0.29339  Biso   1.000  He
  Ne396    1.0000 0.13822  0.56005  0.30050  Biso   1.000  Ne
  Ne397    1.0000 0.92569  0.72694  0.15715  Biso   1.000  Ne
  He397    1.0000 0.90095  0.73872  0.17541  Biso   1.000  He
  He398    1.0000 0.90247  0.73474  0.20739  Biso   1.000  He
  Ne398    1.0000 0.91720  0.76068  0.22055  Biso   1.000  Ne
  Ne399    1.0000 0.09447  0.30603  0.09846  Biso   1.000  Ne
  He399    1.0000 0.06489  0.28871  0.09578  Biso   1.000  He
  He400    1.0000 0.05786  0.27555  0.06836  Biso   1.000  He
  Ne400    1.0000 0.02890  0.26014  0.07177  Biso   1.000  Ne
  Ne401    1.0000 0.07496  0.13447  0.60210  Biso   1.000  Ne
  He401    1.0000 0.06905  0.13617  0.63502  Biso   1.000  He
  He402    1.0000 0.09400  0.12134  0.65317  Biso   1.000  He
  Ne402    1.0000 0.08676  0.12077  0.68308  Biso   1.000  Ne
  Ne403    1.0000 0.81163  0.59761  0.26914  Biso   1.000  Ne
  He403    1.0000 0.81212  0.62708  0.25502  Biso   1.000  He
  He404    1.0000 0.83390  0.63102  0.22983  Biso   1.000  He
  Ne404    1.0000 0.82839  0.65863  0.21260  Biso   1.000  Ne
  Ne405    1.0000 0.23861  0.05621  0.44760  Biso   1.000  Ne
  He405    1.0000 0.23061  0.07388  0.47439  Biso   1.000  He
  He406    1.0000 0.24507  0.10299  0.48057  Biso   1.000  He
  Ne406    1.0000 0.22998  0.11822  0.50410  Biso   1.000  Ne
  Ne407    1.0000 0.17070  0.06891  0.57991  Biso   1.000  Ne
  He407    1.0000 0.20041  0.06134  0.57022  Biso   1.000  He
  He408    1.0000 0.20160  0.02794  0.56342  Biso   1.000  He
  Ne408    1.0000 0.22844  0.01754  0.54911  Biso   1.000  Ne
  Ne409    1.0000 0.25550  0.83013  0.76436  Biso   1.000  Ne
  He409    1.0000 0.22715  0.84583  0.77113  Biso   1.000  He
  He410    1.0000 0.21247  0.85168  0.74386  Biso   1.000  He
  Ne410    1.0000 0.18221  0.87044  0.74952  Biso   1.000  Ne
  Ne411    1.0000 0.16286  0.64261  0.03926  Biso   1.000  Ne
  He411    1.0000 0.19532  0.63706  0.03843  Biso   1.000  He
  He412    1.0000 0.20748  0.63614  0.06828  Biso   1.000  He
  Ne412    1.0000 0.23873  0.64181  0.06826  Biso   1.000  Ne
  Ne413    1.0000 0.34132  0.13111  0.68320  Biso   1.000  Ne
  He413    1.0000 0.34782  0.09786  0.68167  Biso   1.000  He
  He414    1.0000 0.34117  0.07863  0.65347  Biso   1.000  He
  Ne414    1.0000 0.35248  0.04715  0.65519  Biso   1.000  Ne
  Ne415    1.0000 0.99641  0.79375  0.72587  Biso   1.000  Ne
  He415    1.0000 0.00109  0.81180  0.69386  Biso   1.000  He
  He416    1.0000 0.01583  0.79215  0.67331  Biso   1.000  He
  Ne416    1.0000 0.99805  0.77084  0.65396  Biso   1.000  Ne
  Ne417    1.0000 0.84430  0.28711  0.22857  Biso   1.000  Ne
  He417    1.0000 0.87802  0.28242  0.21713  Biso   1.000  He
  He418    1.0000 0.90055  0.28157  0.23943  Biso   1.000  He
  Ne418    1.0000 0.93152  0.27484  0.22496  Biso   1.000  Ne
  Ne419    1.0000 0.50117  0.92525  0.48354  Biso   1.000  Ne
  He419    1.0000 0.52276  0.90576  0.49511  Biso   1.000  He
  He420    1.0000 0.52820  0.87627  0.48078  Biso   1.000  He
  Ne420    1.0000 0.55594  0.86432  0.49259  Biso   1.000  Ne
  Ne421    1.0000 0.81116  0.06892  0.57026  Biso   1.000  Ne
  He421    1.0000 0.81461  0.10143  0.56632  Biso   1.000  He
  He422    1.0000 0.79656  0.12203  0.58317  Biso   1.000  He
  Ne422    1.0000 0.79799  0.15457  0.57946  Biso   1.000  Ne
  Ne423    1.0000 0.68584  0.23579  0.72113  Biso   1.000  Ne
  He423    1.0000 0.66939  0.26190  0.70861  Biso   1.000  He
  He424    1.0000 0.63708  0.25911  0.70761  Biso   1.000  He
  Ne424    1.0000 0.61953  0.28354  0.69573  Biso   1.000  Ne
  Ne425    1.0000 0.09137  0.67785  0.38544  Biso   1.000  Ne
  He425    1.0000 0.07801  0.69746  0.41131  Biso   1.000  He
  He426    1.0000 0.06378  0.72673  0.40130  Biso   1.000  He
  Ne426    1.0000 0.05263  0.74386  0.42712  Biso   1.000  Ne
  Ne427    1.0000 0.29738  0.05657  0.08461  Biso   1.000  Ne
  He427    1.0000 0.28992  0.08656  0.09771  Biso   1.000  He
  He428    1.0000 0.30137  0.11076  0.07520  Biso   1.000  He
  Ne428    1.0000 0.29285  0.14262  0.07900  Biso   1.000  Ne
  Ne429    1.0000 0.46531  0.21277  0.88989  Biso   1.000  Ne
  He429    1.0000 0.45562  0.24335  0.90005  Biso   1.000  He
  He430    1.0000 0.44511  0.24624  0.93146  Biso   1.000  He
  Ne430    1.0000 0.43438  0.27689  0.93928  Biso   1.000  Ne
  Ne431    1.0000 0.56919  0.59772  0.31316  Biso   1.000  Ne
  He431    1.0000 0.59172  0.57583  0.32646  Biso   1.000  He
  He432    1.0000 0.61729  0.59327  0.33880  Biso   1.000  He
  Ne432    1.0000 0.64481  0.57921  0.34732  Biso   1.000  Ne
  Ne433    1.0000 0.13091  0.47754  0.21703  Biso   1.000  Ne
  He433    1.0000 0.12425  0.46419  0.18495  Biso   1.000  He
  He434    1.0000 0.09572  0.44645  0.18798  Biso   1.000  He
  Ne434    1.0000 0.08594  0.43143  0.16109  Biso   1.000  Ne
  Ne435    1.0000 0.36674  0.27015  0.10363  Biso   1.000  Ne
  He435    1.0000 0.38264  0.29943  0.10214  Biso   1.000  He
  He436    1.0000 0.41452  0.29390  0.09474  Biso   1.000  He
  Ne436    1.0000 0.43176  0.32104  0.09274  Biso   1.000  Ne
  Ne437    1.0000 0.18947  0.64164  0.94186  Biso   1.000  Ne
  He437    1.0000 0.19044  0.65753  0.91033  Biso   1.000  He
  He438    1.0000 0.16418  0.67737  0.90133  Biso   1.000  He
  Ne438    1.0000 0.16783  0.69722  0.87420  Biso   1.000  Ne
  Ne439    1.0000 0.37251  0.66996  0.48236  Biso   1.000  Ne
  He439    1.0000 0.40447  0.66919  0.47028  Biso   1.000  He
  He440    1.0000 0.42798  0.67054  0.49083  Biso   1.000  He
  Ne440    1.0000 0.45910  0.66755  0.47677  Biso   1.000  Ne
  Ne441    1.0000 0.86282  0.23095  0.67886  Biso   1.000  Ne
  He441    1.0000 0.86018  0.20206  0.69492  Biso   1.000  He
  He442    1.0000 0.88638  0.18184  0.69530  Biso   1.000  He
  Ne442    1.0000 0.88208  0.15700  0.71603  Biso   1.000  Ne
  Ne443    1.0000 0.91967  0.55122  0.95326  Biso   1.000  Ne
  He443    1.0000 0.92742  0.55356  0.98440  Biso   1.000  He
  He444    1.0000 0.92558  0.58510  0.99949  Biso   1.000  He
  Ne444    1.0000 0.93889  0.58981  0.02978  Biso   1.000  Ne
  Ne445    1.0000 0.35017  0.39695  0.17885  Biso   1.000  Ne
  He445    1.0000 0.37821  0.39768  0.19580  Biso   1.000  He
  He446    1.0000 0.40481  0.38607  0.17568  Biso   1.000  He
  Ne446    1.0000 0.43331  0.39004  0.18921  Biso   1.000  Ne
  Ne447    1.0000 0.61642  0.47868  0.39544  Biso   1.000  Ne
  He447    1.0000 0.61783  0.46772  0.36368  Biso   1.000  He
  He448    1.0000 0.60140  0.48365  0.34242  Biso   1.000  He
  Ne448    1.0000 0.60659  0.47508  0.30994  Biso   1.000  Ne
  Ne449    1.0000 0.81206  0.71252  0.49421  Biso   1.000  Ne
  He449    1.0000 0.79856  0.72322  0.46562  Biso   1.000  He
  He450    1.0000 0.76614  0.71892  0.46333  Biso   1.000  He
  Ne450    1.0000 0.75246  0.72917  0.43607  Biso   1.000  Ne
  Ne451    1.0000 0.66388  0.69188  0.17293  Biso   1.000  Ne
  He451    1.0000 0.68936  0.71174  0.16879  Biso   1.000  He
  He452    1.0000 0.70656  0.72059  0.19783  Biso   1.000  He
  Ne452    1.0000 0.73058  0.73871  0.19616  Biso   1.000  Ne
  Ne453    1.0000 0.18462  0.04296  0.25075  Biso   1.000  Ne
  He453    1.0000 0.17790  0.04443  0.21695  Biso   1.000  He
  He454    1.0000 0.20329  0.04699  0.19374  Biso   1.000  He
  Ne454    1.0000 0.19425  0.04503  0.15909  Biso   1.000  Ne
  Ne455    1.0000 0.41290  0.76592  0.10541  Biso   1.000  Ne
  He455    1.0000 0.43141  0.76880  0.07765  Biso   1.000  He
  He456    1.0000 0.44629  0.74264  0.07055  Biso   1.000  He
  Ne456    1.0000 0.45865  0.73886  0.04007  Biso   1.000  Ne
  Ne457    1.0000 0.40742  0.77774  0.36362  Biso   1.000  Ne
  He457    1.0000 0.40129  0.76978  0.39584  Biso   1.000  He
  He458    1.0000 0.42823  0.76226  0.41220  Biso   1.000  He
  Ne458    1.0000 0.42375  0.74952  0.44371  Biso   1.000  Ne
  Ne459    1.0000 0.42514  0.36321  0.85131  Biso   1.000  Ne
  He459    1.0000 0.43261  0.35326  0.88235  Biso   1.000  He
  He460    1.0000 0.43443  0.37782  0.90252  Biso   1.000  He
  Ne460    1.0000 0.43317  0.36981  0.93532  Biso   1.000  Ne
  Ne461    1.0000 0.68046  0.10859  0.60069  Biso   1.000  Ne
  He461    1.0000 0.70525  0.09024  0.58532  Biso   1.000  He
  He462    1.0000 0.69821  0.05818  0.57864  Biso   1.000  He
  Ne462    1.0000 0.71652  0.03410  0.59275  Biso   1.000  Ne
  Ne463    1.0000 0.11655  0.79817  0.61413  Biso   1.000  Ne
  He463    1.0000 0.14707  0.79526  0.62613  Biso   1.000  He
  He464    1.0000 0.15168  0.81531  0.65390  Biso   1.000  He
  Ne464    1.0000 0.18182  0.81509  0.66634  Biso   1.000  Ne
  Ne465    1.0000 0.16220  0.15066  0.57192  Biso   1.000  Ne
  He465    1.0000 0.18432  0.16955  0.59130  Biso   1.000  He
  He466    1.0000 0.21530  0.17306  0.57912  Biso   1.000  He
  Ne466    1.0000 0.23227  0.18977  0.60167  Biso   1.000  Ne
  Ne467    1.0000 0.10627  0.71181  0.26842  Biso   1.000  Ne
  He467    1.0000 0.08918  0.74276  0.27827  Biso   1.000  He
  He468    1.0000 0.10957  0.76785  0.28625  Biso   1.000  He
  Ne468    1.0000 0.09265  0.79549  0.28868  Biso   1.000  Ne
  Ne469    1.0000 0.25311  0.10574  0.85744  Biso   1.000  Ne
  He469    1.0000 0.26252  0.13407  0.86614  Biso   1.000  He
  He470    1.0000 0.28069  0.13030  0.89482  Biso   1.000  He
  Ne470    1.0000 0.28642  0.16176  0.90668  Biso   1.000  Ne
  Ne471    1.0000 0.79265  0.15152  0.71164  Biso   1.000  Ne
  He471    1.0000 0.77514  0.12348  0.70172  Biso   1.000  He
  He472    1.0000 0.74897  0.12990  0.68244  Biso   1.000  He
  Ne472    1.0000 0.75528  0.12642  0.65148  Biso   1.000  Ne
  Ne473    1.0000 0.31760  0.18860  0.73623  Biso   1.000  Ne
  He473    1.0000 0.33552  0.21246  0.75224  Biso   1.000  He
  He474    1.0000 0.32942  0.21676  0.78288  Biso   1.000  He
  Ne474    1.0000 0.35087  0.23644  0.79911  Biso   1.000  Ne
  Ne475    1.0000 0.71885  0.17170  0.96477  Biso   1.000  Ne
  He475    1.0000 0.72606  0.17991  0.93152  Biso   1.000  He
  He476    1.0000 0.75124  0.20447  0.92795  Biso   1.000  He
  Ne476    1.0000 0.76036  0.21352  0.89705  Biso   1.000  Ne
  Ne477    1.0000 0.55301  0.46347  0.01147  Biso   1.000  Ne
  He477    1.0000 0.57618  0.46843  0.98926  Biso   1.000  He
  He478    1.0000 0.56635  0.46401  0.95675  Biso   1.000  He
  Ne478    1.0000 0.55521  0.49356  0.94160  Biso   1.000  Ne
  Ne479    1.0000 0.98896  0.87135  0.40125  Biso   1.000  Ne
  He479    1.0000 0.99496  0.86963  0.43506  Biso   1.000  He
  He480    1.0000 0.01217  0.84235  0.44500  Biso   1.000  He
  Ne480    1.0000 0.01524  0.84306  0.47752  Biso   1.000  Ne
  Ne481    1.0000 0.72420  0.66058  0.79470  Biso   1.000  Ne
  He481    1.0000 0.71230  0.63832  0.77392  Biso   1.000  He
  He482    1.0000 0.70308  0.60908  0.79179  Biso   1.000  He
  Ne482    1.0000 0.68824  0.58328  0.77569  Biso   1.000  Ne
  Ne483    1.0000 0.91330  0.29076  0.42328  Biso   1.000  Ne
  He483    1.0000 0.91585  0.25707  0.42129  Biso   1.000  He
  He484    1.0000 0.88539  0.24196  0.42227  Biso   1.000  He
  Ne484    1.0000 0.88618  0.21046  0.41557  Biso   1.000  Ne
  Ne485    1.0000 0.43673  0.46204  0.01986  Biso   1.000  Ne
  He485    1.0000 0.44933  0.44781  0.99152  Biso   1.000  He
  He486    1.0000 0.45822  0.47016  0.96964  Biso   1.000  He
  Ne486    1.0000 0.47062  0.45728  0.94115  Biso   1.000  Ne
  Ne487    1.0000 0.57950  0.17744  0.11157  Biso   1.000  Ne
  He487    1.0000 0.57652  0.18802  0.08045  Biso   1.000  He
  He488    1.0000 0.58047  0.16586  0.05660  Biso   1.000  He
  Ne488    1.0000 0.61188  0.16719  0.04516  Biso   1.000  Ne
  Ne489    1.0000 0.51699  0.25212  0.64982  Biso   1.000  Ne
  He489    1.0000 0.48667  0.26418  0.65549  Biso   1.000  He
  He490    1.0000 0.47584  0.26425  0.68944  Biso   1.000  He
  Ne490    1.0000 0.44623  0.27710  0.69260  Biso   1.000  Ne
  Ne491    1.0000 0.92991  0.39519  0.34598  Biso   1.000  Ne
  He491    1.0000 0.91336  0.36536  0.35057  Biso   1.000  He
  He492    1.0000 0.92888  0.33878  0.33613  Biso   1.000  He
  Ne492    1.0000 0.90992  0.31076  0.33919  Biso   1.000  Ne
  Ne493    1.0000 0.12067  0.97806  0.65488  Biso   1.000  Ne
  He493    1.0000 0.12122  0.96983  0.62413  Biso   1.000  He
  He494    1.0000 0.14401  0.98263  0.60547  Biso   1.000  He
  Ne494    1.0000 0.14669  0.96732  0.57466  Biso   1.000  Ne
  Ne495    1.0000 0.96091  0.18784  0.63079  Biso   1.000  Ne
  He495    1.0000 0.97830  0.16615  0.60975  Biso   1.000  He
  He496    1.0000 0.96748  0.16848  0.57898  Biso   1.000  He
  Ne496    1.0000 0.98593  0.15295  0.55568  Biso   1.000  Ne
  Ne497    1.0000 0.85250  0.47488  0.17109  Biso   1.000  Ne
  He497    1.0000 0.85818  0.50419  0.15565  Biso   1.000  He
  He498    1.0000 0.82807  0.51801  0.14001  Biso   1.000  He
  Ne498    1.0000 0.83159  0.54982  0.12608  Biso   1.000  Ne
  Ne499    1.0000 0.00634  0.31489  0.15637  Biso   1.000  Ne
  He499    1.0000 0.01423  0.34351  0.16635  Biso   1.000  He
  He500    1.0000 0.02801  0.34310  0.19512  Biso   1.000  He
  Ne500    1.0000 0.04026  0.37179  0.20644  Biso   1.000  Ne
  Ne501    1.0000 0.58404  0.30291  0.18917  Biso   1.000  Ne
  He501    1.0000 0.58155  0.29153  0.15630  Biso   1.000  He
  He502    1.0000 0.60498  0.26848  0.14732  Biso   1.000  He
  Ne502    1.0000 0.60617  0.25688  0.11461  Biso   1.000  Ne
  Ne503    1.0000 0.18959  0.02870  0.83535  Biso   1.000  Ne
  He503    1.0000 0.18766  0.01520  0.80301  Biso   1.000  He
  He504    1.0000 0.18389  0.03745  0.77580  Biso   1.000  He
  Ne504    1.0000 0.18239  0.02213  0.74681  Biso   1.000  Ne
  Ne505    1.0000 0.07220  0.94428  0.30291  Biso   1.000  Ne
  He505    1.0000 0.06245  0.95353  0.33475  Biso   1.000  He
  He506    1.0000 0.06076  0.92770  0.35747  Biso   1.000  He
  Ne506    1.0000 0.05798  0.93896  0.38858  Biso   1.000  Ne
  Ne507    1.0000 0.65866  0.15954  0.32136  Biso   1.000  Ne
  He507    1.0000 0.66940  0.17231  0.29287  Biso   1.000  He
  He508    1.0000 0.67752  0.15138  0.26787  Biso   1.000  He
  Ne508    1.0000 0.69070  0.16721  0.24213  Biso   1.000  Ne
  Ne509    1.0000 0.29556  0.09552  0.96586  Biso   1.000  Ne
  He509    1.0000 0.30989  0.06643  0.97517  Biso   1.000  He
  He510    1.0000 0.33724  0.07041  0.99138  Biso   1.000  He
  Ne510    1.0000 0.35210  0.04229  0.00158  Biso   1.000  Ne
  Ne511    1.0000 0.91036  0.62427  0.66651  Biso   1.000  Ne
  He511    1.0000 0.90345  0.59464  0.68262  Biso   1.000  He
  He512    1.0000 0.92581  0.57238  0.67479  Biso   1.000  He
  Ne512    1.0000 0.92162  0.53980  0.68534  Biso   1.000  Ne
  Ne513    1.0000 0.05605  0.27611  0.97312  Biso   1.000  Ne
  He513    1.0000 0.08734  0.26680  0.96466  Biso   1.000  He
  He514    1.0000 0.09677  0.23809  0.97685  Biso   1.000  He
  Ne514    1.0000 0.12823  0.23369  0.97306  Biso   1.000  Ne
  Ne515    1.0000 0.77417  0.07355  0.31409  Biso   1.000  Ne
  He515    1.0000 0.80421  0.07711  0.30441  Biso   1.000  He
  He516    1.0000 0.81422  0.05405  0.28205  Biso   1.000  He
  Ne516    1.0000 0.84301  0.06136  0.26780  Biso   1.000  Ne
  Ne517    1.0000 0.21192  0.19592  0.20816  Biso   1.000  Ne
  He517    1.0000 0.17794  0.18721  0.21546  Biso   1.000  He
  He518    1.0000 0.17146  0.16877  0.24255  Biso   1.000  He
  Ne518    1.0000 0.13976  0.16590  0.25178  Biso   1.000  Ne
  Ne519    1.0000 0.81816  0.85609  0.22143  Biso   1.000  Ne
  He519    1.0000 0.79466  0.87912  0.23226  Biso   1.000  He
  He520    1.0000 0.76033  0.87643  0.22304  Biso   1.000  He
  Ne520    1.0000 0.75131  0.89456  0.19814  Biso   1.000  Ne
  Ne521    1.0000 0.14648  0.93542  0.34357  Biso   1.000  Ne
  He521    1.0000 0.14885  0.96900  0.34034  Biso   1.000  He
  He522    1.0000 0.15819  0.98486  0.36759  Biso   1.000  He
  Ne522    1.0000 0.15819  0.01885  0.36742  Biso   1.000  Ne
  Ne523    1.0000 0.51767  0.77532  0.15290  Biso   1.000  Ne
  He523    1.0000 0.50564  0.77339  0.18282  Biso   1.000  He
  He524    1.0000 0.50750  0.80300  0.19552  Biso   1.000  He
  Ne524    1.0000 0.51606  0.80756  0.22810  Biso   1.000  Ne
  Ne525    1.0000 0.66579  0.33984  0.28677  Biso   1.000  Ne
  He525    1.0000 0.65485  0.34772  0.31684  Biso   1.000  He
  He526    1.0000 0.66273  0.37843  0.32844  Biso   1.000  He
  Ne526    1.0000 0.64878  0.38441  0.35701  Biso   1.000  Ne
  Ne527    1.0000 0.64577  0.08513  0.83152  Biso   1.000  Ne
  He527    1.0000 0.62435  0.10339  0.81203  Biso   1.000  He
  He528    1.0000 0.59236  0.10247  0.82589  Biso   1.000  He
  Ne528    1.0000 0.57492  0.12370  0.80704  Biso   1.000  Ne
  Ne529    1.0000 0.97925  0.76739  0.50544  Biso   1.000  Ne
  He529    1.0000 0.98683  0.75606  0.53266  Biso   1.000  He
  He530    1.0000 0.01792  0.76442  0.54510  Biso   1.000  He
  Ne530    1.0000 0.02488  0.75114  0.57353  Biso   1.000  Ne
  Ne531    1.0000 0.10446  0.56105  0.08922  Biso   1.000  Ne
  He531    1.0000 0.10505  0.56445  0.05672  Biso   1.000  He
  He532    1.0000 0.09849  0.53588  0.03779  Biso   1.000  He
  Ne532    1.0000 0.09374  0.54319  0.00213  Biso   1.000  Ne
  Ne533    1.0000 0.78146  0.64970  0.86413  Biso   1.000  Ne
  He533    1.0000 0.78555  0.68355  0.85966  Biso   1.000  He
  He534    1.0000 0.78783  0.69828  0.89002  Biso   1.000  He
  Ne534    1.0000 0.79161  0.73199  0.88967  Biso   1.000  Ne
  Ne535    1.0000 0.52104  0.96278  0.59766  Biso   1.000  Ne
  He535    1.0000 0.55423  0.95423  0.59730  Biso   1.000  He
  He536    1.0000 0.57327  0.97852  0.58601  Biso   1.000  He
  Ne536    1.0000 0.58310  0.97726  0.55457  Biso   1.000  Ne
  Ne537    1.0000 0.20712  0.20068  0.12506  Biso   1.000  Ne
  He537    1.0000 0.19787  0.16718  0.12115  Biso   1.000  He
  He538    1.0000 0.21501  0.14971  0.10240  Biso   1.000  He
  Ne538    1.0000 0.20644  0.11768  0.09488  Biso   1.000  Ne
  Ne539    1.0000 0.32077  0.38220  0.41629  Biso   1.000  Ne
  He539    1.0000 0.30447  0.40307  0.39326  Biso   1.000  He
  He540    1.0000 0.29033  0.39263  0.36156  Biso   1.000  He
  Ne540    1.0000 0.31358  0.39100  0.33709  Biso   1.000  Ne
  Ne541    1.0000 0.34582  0.69214  0.82605  Biso   1.000  Ne
  He541    1.0000 0.37006  0.70069  0.80483  Biso   1.000  He
  He542    1.0000 0.39491  0.71684  0.81925  Biso   1.000  He
  Ne542    1.0000 0.42076  0.72054  0.79887  Biso   1.000  Ne
  Ne543    1.0000 0.90576  0.18579  0.26544  Biso   1.000  Ne
  He543    1.0000 0.89858  0.16213  0.24115  Biso   1.000  He
  He544    1.0000 0.91159  0.13372  0.24918  Biso   1.000  He
  Ne544    1.0000 0.90390  0.10979  0.22716  Biso   1.000  Ne
  Ne545    1.0000 0.23932  0.86594  0.86149  Biso   1.000  Ne
  He545    1.0000 0.27088  0.86115  0.85507  Biso   1.000  He
  He546    1.0000 0.28679  0.88756  0.84383  Biso   1.000  He
  Ne546    1.0000 0.31887  0.88335  0.83539  Biso   1.000  Ne
  Ne547    1.0000 0.42788  0.89757  0.58704  Biso   1.000  Ne
  He547    1.0000 0.40750  0.90532  0.61000  Biso   1.000  He
  He548    1.0000 0.37451  0.89435  0.60885  Biso   1.000  He
  Ne548    1.0000 0.37221  0.86521  0.62626  Biso   1.000  Ne
  Ne549    1.0000 0.21598  0.13731  0.32735  Biso   1.000  Ne
  He549    1.0000 0.18715  0.12324  0.32826  Biso   1.000  He
  He550    1.0000 0.18469  0.09978  0.30508  Biso   1.000  He
  Ne550    1.0000 0.15371  0.08983  0.30564  Biso   1.000  Ne
  Ne551    1.0000 0.58910  0.06199  0.66815  Biso   1.000  Ne
  He551    1.0000 0.58898  0.04237  0.64122  Biso   1.000  He
  He552    1.0000 0.61055  0.05020  0.61632  Biso   1.000  He
  Ne552    1.0000 0.59842  0.07068  0.59087  Biso   1.000  Ne
  Ne553    1.0000 0.90079  0.08295  0.57603  Biso   1.000  Ne
  He553    1.0000 0.92202  0.06965  0.55712  Biso   1.000  He
  He554    1.0000 0.92685  0.03799  0.55774  Biso   1.000  He
  Ne554    1.0000 0.94801  0.02690  0.53479  Biso   1.000  Ne
  Ne555    1.0000 0.71609  0.25142  0.17797  Biso   1.000  Ne
  He555    1.0000 0.74821  0.25222  0.18645  Biso   1.000  He
  He556    1.0000 0.76145  0.28325  0.19089  Biso   1.000  He
  Ne556    1.0000 0.75958  0.29686  0.22177  Biso   1.000  Ne
  Ne557    1.0000 0.16772  0.39404  0.37392  Biso   1.000  Ne
  He557    1.0000 0.19019  0.37853  0.39266  Biso   1.000  He
  He558    1.0000 0.18345  0.37980  0.42399  Biso   1.000  He
  Ne558    1.0000 0.20902  0.36959  0.44414  Biso   1.000  Ne
  Ne559    1.0000 0.59412  0.24375  0.50533  Biso   1.000  Ne
  He559    1.0000 0.60174  0.27502  0.50997  Biso   1.000  He
  He560    1.0000 0.60560  0.28485  0.54109  Biso   1.000  He
  Ne560    1.0000 0.61363  0.31752  0.54326  Biso   1.000  Ne
  Ne561    1.0000 0.79195  0.39758  0.87040  Biso   1.000  Ne
  He561    1.0000 0.79751  0.41361  0.90099  Biso   1.000  He
  He562    1.0000 0.80127  0.44661  0.89947  Biso   1.000  He
  Ne562    1.0000 0.80371  0.45813  0.92952  Biso   1.000  Ne
  Ne563    1.0000 0.87359  0.62116  0.87420  Biso   1.000  Ne
  He563    1.0000 0.87465  0.59007  0.89025  Biso   1.000  He
  He564    1.0000 0.85614  0.56596  0.87500  Biso   1.000  He
  Ne564    1.0000 0.86084  0.53783  0.89088  Biso   1.000  Ne
  Ne565    1.0000 0.05876  0.51039  0.78663  Biso   1.000  Ne
  He565    1.0000 0.04084  0.52183  0.81284  Biso   1.000  He
  He566    1.0000 0.02487  0.49660  0.83081  Biso   1.000  He
  Ne566    1.0000 0.00280  0.50896  0.85162  Biso   1.000  Ne
  Ne567    1.0000 0.60890  0.32978  0.93580  Biso   1.000  Ne
  He567    1.0000 0.62146  0.29977  0.92926  Biso   1.000  He
  He568    1.0000 0.63981  0.28563  0.95159  Biso   1.000  He
  Ne568    1.0000 0.64075  0.25289  0.94901  Biso   1.000  Ne
  Ne569    1.0000 0.18993  0.74527  0.23759  Biso   1.000  Ne
  He569    1.0000 0.17952  0.77806  0.23515  Biso   1.000  He
  He570    1.0000 0.19172  0.79593  0.20853  Biso   1.000  He
  Ne570    1.0000 0.18133  0.82609  0.20518  Biso   1.000  Ne
  Ne571    1.0000 0.04127  0.35091  0.82325  Biso   1.000  Ne
  He571    1.0000 0.03488  0.31860  0.81675  Biso   1.000  He
  He572    1.0000 0.02297  0.30009  0.84082  Biso   1.000  He
  Ne572    1.0000 0.01922  0.26759  0.83355  Biso   1.000  Ne
  Ne573    1.0000 0.23850  0.50096  0.12565  Biso   1.000  Ne
  He573    1.0000 0.24299  0.51424  0.09766  Biso   1.000  He
  He574    1.0000 0.22120  0.53569  0.08896  Biso   1.000  He
  Ne574    1.0000 0.22603  0.54838  0.05746  Biso   1.000  Ne
  Ne575    1.0000 0.81169  0.53389  0.44119  Biso   1.000  Ne
  He575    1.0000 0.80582  0.56441  0.45365  Biso   1.000  He
  He576    1.0000 0.77867  0.58127  0.44120  Biso   1.000  He
  Ne576    1.0000 0.77777  0.61252  0.45116  Biso   1.000  Ne
  Ne577    1.0000 0.02060  0.48816  0.22195  Biso   1.000  Ne
  He577    1.0000 0.04019  0.51195  0.22124  Biso   1.000  He
  He578    1.0000 0.04536  0.52948  0.25083  Biso   1.000  He
  Ne578    1.0000 0.06709  0.55592  0.24983  Biso   1.000  Ne
  Ne579    1.0000 0.59070  0.05138  0.37275  Biso   1.000  Ne
  He579    1.0000 0.58750  0.06078  0.34343  Biso   1.000  He
  He580    1.0000 0.58735  0.09363  0.34280  Biso   1.000  He
  Ne580    1.0000 0.58977  0.10862  0.31255  Biso   1.000  Ne
  Ne581    1.0000 0.10249  0.90424  0.08784  Biso   1.000  Ne
  He581    1.0000 0.08003  0.91870  0.10819  Biso   1.000  He
  He582    1.0000 0.04851  0.91050  0.09856  Biso   1.000  He
  Ne582    1.0000 0.02468  0.92183  0.11931  Biso   1.000  Ne
  Ne583    1.0000 0.28397  0.38647  0.86654  Biso   1.000  Ne
  He583    1.0000 0.30544  0.36708  0.85182  Biso   1.000  He
  He584    1.0000 0.33172  0.36093  0.86864  Biso   1.000  He
  Ne584    1.0000 0.35394  0.33881  0.85784  Biso   1.000  Ne
  Ne585    1.0000 0.51151  0.39047  0.32050  Biso   1.000  Ne
  He585    1.0000 0.49917  0.41930  0.32942  Biso   1.000  He
  He586    1.0000 0.50384  0.44409  0.30735  Biso   1.000  He
  Ne586    1.0000 0.49195  0.47373  0.31672  Biso   1.000  Ne
  Ne587    1.0000 0.56797  0.22708  0.21338  Biso   1.000  Ne
  He587    1.0000 0.57930  0.19953  0.22835  Biso   1.000  He
  He588    1.0000 0.56025  0.17256  0.22289  Biso   1.000  He
  Ne588    1.0000 0.56719  0.14663  0.23912  Biso   1.000  Ne
  Ne589    1.0000 0.42379  0.78279  0.18716  Biso   1.000  Ne
  He589    1.0000 0.41364  0.75952  0.20593  Biso   1.000  He
  He590    1.0000 0.40670  0.77336  0.23868  Biso   1.000  He
  Ne590    1.0000 0.39363  0.74950  0.26086  Biso   1.000  Ne
  Ne591    1.0000 0.37092  0.53255  0.10136  Biso   1.000  Ne
  He591    1.0000 0.35025  0.55128  0.12036  Biso   1.000  He
  He592    1.0000 0.33838  0.57901  0.10371  Biso   1.000  He
  Ne592    1.0000 0.31643  0.59320  0.12428  Biso   1.000  Ne
  Ne593    1.0000 0.22018  0.87511  0.32483  Biso   1.000  Ne
  He593    1.0000 0.23217  0.84832  0.33809  Biso   1.000  He
  He594    1.0000 0.24484  0.82879  0.31686  Biso   1.000  He
  Ne594    1.0000 0.26365  0.80402  0.33116  Biso   1.000  Ne
  Ne595    1.0000 0.22134  0.27872  0.72902  Biso   1.000  Ne
  He595    1.0000 0.21162  0.25158  0.74658  Biso   1.000  He
  He596    1.0000 0.21445  0.26137  0.78129  Biso   1.000  He
  Ne596    1.0000 0.20548  0.23660  0.80344  Biso   1.000  Ne
  Ne597    1.0000 0.93334  0.72352  0.65232  Biso   1.000  Ne
  He597    1.0000 0.90854  0.72389  0.63017  Biso   1.000  He
  He598    1.0000 0.91559  0.73943  0.60209  Biso   1.000  He
  Ne598    1.0000 0.89078  0.73976  0.57961  Biso   1.000  Ne
  Ne599    1.0000 0.39249  0.53513  0.84353  Biso   1.000  Ne
  He599    1.0000 0.38794  0.55409  0.81757  Biso   1.000  He
  He600    1.0000 0.40482  0.58451  0.81726  Biso   1.000  He
  Ne600    1.0000 0.39723  0.60229  0.78872  Biso   1.000  Ne
  Ne601    1.0000 0.57456  0.92817  0.79475  Biso   1.000  Ne
  He601    1.0000 0.58136  0.89692  0.78577  Biso   1.000  He
  He602    1.0000 0.60493  0.89541  0.76216  Biso   1.000  He
  Ne602    1.0000 0.60575  0.86462  0.74906  Biso   1.000  Ne
  Ne603    1.0000 0.90818  0.78630  0.90006  Biso   1.000  Ne
  He603    1.0000 0.92220  0.79807  0.92970  Biso   1.000  He
  He604    1.0000 0.94077  0.82403  0.92521  Biso   1.000  He
  Ne604    1.0000 0.95136  0.83629  0.95467  Biso   1.000  Ne
  Ne605    1.0000 0.60817  0.38017  0.83726  Biso   1.000  Ne
  He605    1.0000 0.59099  0.38915  0.81359  Biso   1.000  He
  He606    1.0000 0.58645  0.36252  0.79181  Biso   1.000  He
  Ne606    1.0000 0.56954  0.36729  0.76540  Biso   1.000  Ne
  Ne607    1.0000 0.79654  0.30585  0.94357  Biso   1.000  Ne
  He607    1.0000 0.82090  0.29001  0.95597  Biso   1.000  He
  He608    1.0000 0.82928  0.26561  0.93654  Biso   1.000  He
  Ne608    1.0000 0.85867  0.25179  0.94492  Biso   1.000  Ne
  Ne609    1.0000 0.97873  0.99657  0.09725  Biso   1.000  Ne
  He609    1.0000 0.97227  0.01583  0.07007  Biso   1.000  He
  He610    1.0000 0.94257  0.00604  0.05736  Biso   1.000  He
  Ne610    1.0000 0.93581  0.01357  0.02433  Biso   1.000  Ne
  Ne611    1.0000 0.44716  0.40634  0.26320  Biso   1.000  Ne
  He611    1.0000 0.42780  0.42647  0.28270  Biso   1.000  He
  He612    1.0000 0.40148  0.41332  0.29974  Biso   1.000  He
  Ne612    1.0000 0.38965  0.43606  0.31892  Biso   1.000  Ne
  Ne613    1.0000 0.95873  0.22541  0.92863  Biso   1.000  Ne
  He613    1.0000 0.95904  0.23890  0.96110  Biso   1.000  He
  He614    1.0000 0.98521  0.22943  0.97808  Biso   1.000  He
  Ne614    1.0000 0.98386  0.24032  0.01040  Biso   1.000  Ne
  Ne615    1.0000 0.96467  0.65870  0.96322  Biso   1.000  Ne
  He615    1.0000 0.94056  0.67162  0.94820  Biso   1.000  He
  He616    1.0000 0.92602  0.69547  0.96817  Biso   1.000  He
  Ne616    1.0000 0.89663  0.70434  0.95438  Biso   1.000  Ne
  Ne617    1.0000 0.91627  0.36366  0.68882  Biso   1.000  Ne
  He617    1.0000 0.89242  0.36005  0.71142  Biso   1.000  He
  He618    1.0000 0.89993  0.35123  0.74397  Biso   1.000  He
  Ne618    1.0000 0.87578  0.34529  0.76311  Biso   1.000  Ne
  Ne619    1.0000 0.06675  0.58861  0.93483  Biso   1.000  Ne
  He619    1.0000 0.03332  0.57837  0.93241  Biso   1.000  He
  He620    1.0000 0.01624  0.59608  0.91021  Biso   1.000  He
  Ne620    1.0000 0.98570  0.58558  0.90928  Biso   1.000  Ne
  Ne621    1.0000 0.65142  0.67000  0.92391  Biso   1.000  Ne
  He621    1.0000 0.62402  0.67604  0.94475  Biso   1.000  He
  He622    1.0000 0.62714  0.69614  0.96817  Biso   1.000  He
  Ne622    1.0000 0.59934  0.69947  0.98972  Biso   1.000  Ne
  Ne623    1.0000 0.39560  0.71989  0.62260  Biso   1.000  Ne
  He623    1.0000 0.39947  0.74408  0.60012  Biso   1.000  He
  He624    1.0000 0.41160  0.77113  0.61479  Biso   1.000  He
  Ne624    1.0000 0.41932  0.79687  0.59563  Biso   1.000  Ne
  Ne625    1.0000 0.61516  0.97737  0.84416  Biso   1.000  Ne
  He625    1.0000 0.64508  0.97408  0.85631  Biso   1.000  He
  He626    1.0000 0.66587  0.96993  0.83028  Biso   1.000  He
  Ne626    1.0000 0.69546  0.96022  0.84007  Biso   1.000  Ne
  Ne627    1.0000 0.10527  0.20254  0.07971  Biso   1.000  Ne
  He627    1.0000 0.09871  0.17052  0.09114  Biso   1.000  He
  He628    1.0000 0.12438  0.15091  0.08653  Biso   1.000  He
  Ne628    1.0000 0.11857  0.11824  0.09935  Biso   1.000  Ne
  Ne629    1.0000 0.84793  0.11614  0.65464  Biso   1.000  Ne
  He629    1.0000 0.86651  0.08958  0.65020  Biso   1.000  He
  He630    1.0000 0.88805  0.08513  0.67324  Biso   1.000  He
  Ne630    1.0000 0.90328  0.05428  0.67307  Biso   1.000  Ne
  Ne631    1.0000 0.35033  0.08039  0.79717  Biso   1.000  Ne
  He631    1.0000 0.32001  0.07984  0.78121  Biso   1.000  He
  He632    1.0000 0.29763  0.06145  0.79555  Biso   1.000  He
  Ne632    1.0000 0.27049  0.05620  0.77725  Biso   1.000  Ne
  Ne633    1.0000 0.87958  0.95942  0.48240  Biso   1.000  Ne
  He633    1.0000 0.89979  0.93631  0.49590  Biso   1.000  He
  He634    1.0000 0.92095  0.95248  0.51879  Biso   1.000  He
  Ne634    1.0000 0.94077  0.93219  0.53023  Biso   1.000  Ne
  Ne635    1.0000 0.35126  0.32036  0.35931  Biso   1.000  Ne
  He635    1.0000 0.33434  0.31111  0.33323  Biso   1.000  He
  He636    1.0000 0.34853  0.32341  0.30498  Biso   1.000  He
  Ne636    1.0000 0.33150  0.31048  0.27758  Biso   1.000  Ne
  Ne637    1.0000 0.61810  0.20442  0.59391  Biso   1.000  Ne
  He637    1.0000 0.61193  0.19405  0.62790  Biso   1.000  He
  He638    1.0000 0.62480  0.16314  0.63093  Biso   1.000  He
  Ne638    1.0000 0.61972  0.14478  0.66255  Biso   1.000  Ne
  Ne639    1.0000 0.20481  0.16702  0.91729  Biso   1.000  Ne
  He639    1.0000 0.20305  0.19964  0.92371  Biso   1.000  He
  He640    1.0000 0.22696  0.21517  0.94104  Biso   1.000  He
  Ne640    1.0000 0.22041  0.24500  0.95153  Biso   1.000  Ne
  Ne641    1.0000 0.34917  0.69258  0.14593  Biso   1.000  Ne
  He641    1.0000 0.37474  0.68673  0.12670  Biso   1.000  He
  He642    1.0000 0.37449  0.65910  0.10924  Biso   1.000  He
  Ne642    1.0000 0.40550  0.65596  0.09334  Biso   1.000  Ne
  Ne643    1.0000 0.93829  0.21587  0.83974  Biso   1.000  Ne
  He643    1.0000 0.90758  0.22300  0.83455  Biso   1.000  He
  He644    1.0000 0.88968  0.19381  0.84134  Biso   1.000  He
  Ne644    1.0000 0.85691  0.19461  0.83323  Biso   1.000  Ne
  Ne645    1.0000 0.78467  0.53100  0.22690  Biso   1.000  Ne
  He645    1.0000 0.76543  0.53405  0.25393  Biso   1.000  He
  He646    1.0000 0.73606  0.51981  0.24932  Biso   1.000  He
  Ne646    1.0000 0.71699  0.52488  0.27909  Biso   1.000  Ne
  Ne647    1.0000 0.54417  0.34184  0.49532  Biso   1.000  Ne
  He647    1.0000 0.53922  0.35245  0.46487  Biso   1.000  He
  He648    1.0000 0.55595  0.33071  0.44194  Biso   1.000  He
  Ne648    1.0000 0.54713  0.33197  0.41157  Biso   1.000  Ne
  Ne649    1.0000 0.64789  0.23719  0.39280  Biso   1.000  Ne
  He649    1.0000 0.61873  0.24581  0.38106  Biso   1.000  He
  He650    1.0000 0.59595  0.25622  0.40361  Biso   1.000  He
  Ne650    1.0000 0.56710  0.26178  0.39076  Biso   1.000  Ne
  Ne651    1.0000 0.11665  0.65359  0.16675  Biso   1.000  Ne
  He651    1.0000 0.09179  0.65641  0.18876  Biso   1.000  He
  He652    1.0000 0.06382  0.66017  0.17255  Biso   1.000  He
  Ne652    1.0000 0.03570  0.66143  0.19263  Biso   1.000  Ne
  Ne653    1.0000 0.53077  0.59590  0.52119  Biso   1.000  Ne
  He653    1.0000 0.52289  0.60284  0.55288  Biso   1.000  He
  He654    1.0000 0.49018  0.60667  0.55974  Biso   1.000  He
  Ne654    1.0000 0.48436  0.61403  0.58978  Biso   1.000  Ne
  Ne655    1.0000 0.80554  0.18342  0.17638  Biso   1.000  Ne
  He655    1.0000 0.83758  0.19246  0.17899  Biso   1.000  He
  He656    1.0000 0.85537  0.19828  0.15083  Biso   1.000  He
  Ne656    1.0000 0.88582  0.20962  0.15561  Biso   1.000  Ne
  Ne657    1.0000 0.69888  0.37890  0.85549  Biso   1.000  Ne
  He657    1.0000 0.69951  0.38195  0.88577  Biso   1.000  He
  He658    1.0000 0.67522  0.39767  0.90006  Biso   1.000  He
  Ne658    1.0000 0.67912  0.39981  0.93340  Biso   1.000  Ne
  Ne659    1.0000 0.74923  0.09954  0.41689  Biso   1.000  Ne
  He659    1.0000 0.73781  0.12871  0.40207  Biso   1.000  He
  He660    1.0000 0.70678  0.14030  0.41235  Biso   1.000  He
  Ne660    1.0000 0.69773  0.16655  0.39513  Biso   1.000  Ne
  Ne661    1.0000 0.87184  0.67823  0.44969  Biso   1.000  Ne
  He661    1.0000 0.88207  0.68782  0.48245  Biso   1.000  He
  He662    1.0000 0.90283  0.71346  0.48269  Biso   1.000  He
  Ne662    1.0000 0.89007  0.74085  0.49340  Biso   1.000  Ne
  Ne663    1.0000 0.21922  0.58728  0.60933  Biso   1.000  Ne
  He663    1.0000 0.22810  0.62009  0.62170  Biso   1.000  He
  He664    1.0000 0.20565  0.64575  0.62367  Biso   1.000  He
  Ne664    1.0000 0.22016  0.67423  0.62263  Biso   1.000  Ne
  Ne665    1.0000 0.28583  0.89866  0.62894  Biso   1.000  Ne
  He665    1.0000 0.29912  0.86850  0.62340  Biso   1.000  He
  He666    1.0000 0.27625  0.84548  0.61340  Biso   1.000  He
  Ne666    1.0000 0.29087  0.81573  0.60692  Biso   1.000  Ne
  Ne667    1.0000 0.23541  0.94980  0.66051  Biso   1.000  Ne
  He667    1.0000 0.21330  0.96310  0.68382  Biso   1.000  He
  He668    1.0000 0.18973  0.93840  0.68961  Biso   1.000  He
  Ne668    1.0000 0.16511  0.94641  0.71203  Biso   1.000  Ne
  Ne669    1.0000 0.72267  0.70770  0.29480  Biso   1.000  Ne
  He669    1.0000 0.70396  0.68326  0.28896  Biso   1.000  He
  He670    1.0000 0.67297  0.69454  0.28610  Biso   1.000  He
  Ne670    1.0000 0.64881  0.67224  0.28382  Biso   1.000  Ne
  Ne671    1.0000 0.11524  0.11239  0.40071  Biso   1.000  Ne
  He671    1.0000 0.10206  0.09060  0.37872  Biso   1.000  He
  He672    1.0000 0.09665  0.06069  0.39188  Biso   1.000  He
  Ne672    1.0000 0.07811  0.03704  0.37361  Biso   1.000  Ne
  Ne673    1.0000 0.78527  0.66278  0.95997  Biso   1.000  Ne
  He673    1.0000 0.76574  0.63935  0.97351  Biso   1.000  He
  He674    1.0000 0.74032  0.62896  0.95591  Biso   1.000  He
  Ne674    1.0000 0.72153  0.60538  0.96982  Biso   1.000  Ne
  Ne675    1.0000 0.06436  0.41779  0.42697  Biso   1.000  Ne
  He675    1.0000 0.08213  0.38919  0.42401  Biso   1.000  He
  He676    1.0000 0.08097  0.37161  0.45230  Biso   1.000  He
  Ne676    1.0000 0.09549  0.34190  0.44552  Biso   1.000  Ne
  Ne677    1.0000 0.10804  0.88720  0.19667  Biso   1.000  Ne
  He677    1.0000 0.12487  0.87844  0.22387  Biso   1.000  He
  He678    1.0000 0.11133  0.89157  0.24971  Biso   1.000  He
  Ne678    1.0000 0.13247  0.88447  0.27758  Biso   1.000  Ne
  Ne679    1.0000 0.83756  0.78307  0.42672  Biso   1.000  Ne
  He679    1.0000 0.81276  0.79383  0.41072  Biso   1.000  He
  He680    1.0000 0.81278  0.78891  0.37953  Biso   1.000  He
  Ne680    1.0000 0.78823  0.80479  0.36415  Biso   1.000  Ne
  Ne681    1.0000 0.77250  0.24580  0.79708  Biso   1.000  Ne
  He681    1.0000 0.75312  0.21844  0.79416  Biso   1.000  He
  He682    1.0000 0.74147  0.20379  0.82249  Biso   1.000  He
  Ne682    1.0000 0.71761  0.18004  0.81279  Biso   1.000  Ne
  Ne683    1.0000 0.35993  0.14834  0.25712  Biso   1.000  Ne
  He683    1.0000 0.38927  0.16187  0.26820  Biso   1.000  He
  He684    1.0000 0.39546  0.15373  0.30208  Biso   1.000  He
  Ne684    1.0000 0.42260  0.16260  0.31392  Biso   1.000  Ne
  Ne685    1.0000 0.93731  0.10676  0.10419  Biso   1.000  Ne
  He685    1.0000 0.90940  0.09240  0.11284  Biso   1.000  He
  He686    1.0000 0.88563  0.08567  0.08900  Biso   1.000  He
  Ne686    1.0000 0.85607  0.08436  0.09891  Biso   1.000  Ne
  Ne687    1.0000 0.60512  0.87402  0.59174  Biso   1.000  Ne
  He687    1.0000 0.61391  0.87128  0.62384  Biso   1.000  He
  He688    1.0000 0.59720  0.89128  0.64293  Biso   1.000  He
  Ne688    1.0000 0.60816  0.89115  0.67337  Biso   1.000  Ne
  Ne689    1.0000 0.04409  0.93050  0.66686  Biso   1.000  Ne
  He689    1.0000 0.03848  0.93382  0.69880  Biso   1.000  He
  He690    1.0000 0.06334  0.91941  0.71500  Biso   1.000  He
  Ne690    1.0000 0.06197  0.92193  0.74689  Biso   1.000  Ne
  Ne691    1.0000 0.71140  0.84359  0.98730  Biso   1.000  Ne
  He691    1.0000 0.72033  0.81176  0.97525  Biso   1.000  He
  He692    1.0000 0.74045  0.79334  0.99654  Biso   1.000  He
  Ne692    1.0000 0.74865  0.76181  0.98776  Biso   1.000  Ne
  Ne693    1.0000 0.52488  0.10231  0.11841  Biso   1.000  Ne
  He693    1.0000 0.50142  0.09235  0.09746  Biso   1.000  He
  He694    1.0000 0.48302  0.11859  0.08181  Biso   1.000  He
  Ne694    1.0000 0.46126  0.10589  0.05854  Biso   1.000  Ne
  Ne695    1.0000 0.68529  0.76974  0.44910  Biso   1.000  Ne
  He695    1.0000 0.65498  0.78122  0.44167  Biso   1.000  He
  He696    1.0000 0.63135  0.76346  0.45642  Biso   1.000  He
  Ne696    1.0000 0.60093  0.76974  0.44495  Biso   1.000  Ne
  Ne697    1.0000 0.90771  0.64555  0.37406  Biso   1.000  Ne
  He697    1.0000 0.92185  0.61763  0.38754  Biso   1.000  He
  He698    1.0000 0.94293  0.59884  0.36392  Biso   1.000  He
  Ne698    1.0000 0.94327  0.56810  0.37261  Biso   1.000  Ne
  Ne699    1.0000 0.09964  0.68456  0.67507  Biso   1.000  Ne
  He699    1.0000 0.08121  0.65867  0.66303  Biso   1.000  He
  He700    1.0000 0.09852  0.63763  0.64223  Biso   1.000  He
  Ne700    1.0000 0.08008  0.61361  0.62880  Biso   1.000  Ne
  Ne701    1.0000 0.43199  0.61832  0.92282  Biso   1.000  Ne
  He701    1.0000 0.41015  0.64289  0.92138  Biso   1.000  He
  He702    1.0000 0.41580  0.66457  0.89746  Biso   1.000  He
  Ne702    1.0000 0.39345  0.68728  0.89490  Biso   1.000  Ne
  Ne703    1.0000 0.77928  0.31690  0.31298  Biso   1.000  Ne
  He703    1.0000 0.80059  0.29201  0.31063  Biso   1.000  He
  He704    1.0000 0.82618  0.29555  0.33189  Biso   1.000  He
  Ne704    1.0000 0.84936  0.27090  0.33141  Biso   1.000  Ne
  Ne705    1.0000 0.79940  0.86468  0.93626  Biso   1.000  Ne
  He705    1.0000 0.82301  0.83981  0.93777  Biso   1.000  He
  He706    1.0000 0.81667  0.81866  0.96258  Biso   1.000  He
  Ne706    1.0000 0.84410  0.80185  0.97140  Biso   1.000  Ne
  Ne707    1.0000 0.11593  0.83013  0.35662  Biso   1.000  Ne
  He707    1.0000 0.14478  0.82533  0.37278  Biso   1.000  He
  He708    1.0000 0.14742  0.84682  0.39871  Biso   1.000  He
  Ne708    1.0000 0.17193  0.84170  0.41952  Biso   1.000  Ne
  Ne709    1.0000 0.37796  0.53457  0.44392  Biso   1.000  Ne
  He709    1.0000 0.37842  0.56802  0.44844  Biso   1.000  He
  He710    1.0000 0.36489  0.58561  0.42351  Biso   1.000  He
  Ne710    1.0000 0.38592  0.59523  0.39835  Biso   1.000  Ne
  Ne711    1.0000 0.09647  0.98197  0.06316  Biso   1.000  Ne
  He711    1.0000 0.07781  0.00015  0.08454  Biso   1.000  He
  He712    1.0000 0.06549  0.02626  0.07026  Biso   1.000  He
  Ne712    1.0000 0.04901  0.04439  0.09261  Biso   1.000  Ne
  Ne713    1.0000 0.94523  0.87994  0.19987  Biso   1.000  Ne
  He713    1.0000 0.92436  0.87707  0.22567  Biso   1.000  He
  He714    1.0000 0.93856  0.87695  0.25635  Biso   1.000  He
  Ne714    1.0000 0.91497  0.87044  0.28166  Biso   1.000  Ne
  Ne715    1.0000 0.56400  0.06106  0.46687  Biso   1.000  Ne
  He715    1.0000 0.55620  0.02814  0.47106  Biso   1.000  He
  He716    1.0000 0.57579  0.00677  0.45330  Biso   1.000  He
  Ne716    1.0000 0.56729  0.97484  0.45907  Biso   1.000  Ne
  Ne717    1.0000 0.11918  0.29735  0.78232  Biso   1.000  Ne
  He717    1.0000 0.10836  0.32531  0.76680  Biso   1.000  He
  He718    1.0000 0.11418  0.32450  0.73560  Biso   1.000  He
  Ne718    1.0000 0.10564  0.35203  0.72058  Biso   1.000  Ne
  Ne719    1.0000 0.92865  0.49320  0.54791  Biso   1.000  Ne
  He719    1.0000 0.94469  0.51697  0.56296  Biso   1.000  He
  He720    1.0000 0.97202  0.50347  0.57435  Biso   1.000  He
  Ne720    1.0000 0.98926  0.52666  0.59214  Biso   1.000  Ne
  Ne721    1.0000 0.73638  0.80000  0.27984  Biso   1.000  Ne
  He721    1.0000 0.71291  0.79728  0.25557  Biso   1.000  He
  He722    1.0000 0.72070  0.80991  0.22496  Biso   1.000  He
  Ne722    1.0000 0.69155  0.81512  0.20764  Biso   1.000  Ne
  Ne723    1.0000 0.60231  0.38538  0.60955  Biso   1.000  Ne
  He723    1.0000 0.63390  0.38684  0.61445  Biso   1.000  He
  He724    1.0000 0.65036  0.39358  0.58566  Biso   1.000  He
  Ne724    1.0000 0.68237  0.39719  0.59481  Biso   1.000  Ne
  Ne725    1.0000 0.66925  0.40614  0.43816  Biso   1.000  Ne
  He725    1.0000 0.70218  0.39895  0.43956  Biso   1.000  He
  He726    1.0000 0.70955  0.37141  0.41940  Biso   1.000  He
  Ne726    1.0000 0.74437  0.36942  0.41567  Biso   1.000  Ne
  Ne727    1.0000 0.56666  0.33069  0.30926  Biso   1.000  Ne
  He727    1.0000 0.57506  0.33869  0.28070  Biso   1.000  He
  He728    1.0000 0.57371  0.37096  0.27177  Biso   1.000  He
  Ne728    1.0000 0.58821  0.37420  0.24058  Biso   1.000  Ne
  Ne729    1.0000 0.88913  0.42862  0.24164  Biso   1.000  Ne
  He729    1.0000 0.90950  0.42064  0.21820  Biso   1.000  He
  He730    1.0000 0.94053  0.41756  0.22902  Biso   1.000  He
  Ne730    1.0000 0.96021  0.40327  0.20642  Biso   1.000  Ne
  Ne731    1.0000 0.31314  0.91200  0.21166  Biso   1.000  Ne
  He731    1.0000 0.27948  0.90563  0.21391  Biso   1.000  He
  He732    1.0000 0.26884  0.89553  0.24178  Biso   1.000  He
  Ne732    1.0000 0.23689  0.88581  0.24144  Biso   1.000  Ne
  Ne733    1.0000 0.18918  0.37103  0.62856  Biso   1.000  Ne
  He733    1.0000 0.19213  0.38431  0.65895  Biso   1.000  He
  He734    1.0000 0.18232  0.36340  0.68411  Biso   1.000  He
  Ne734    1.0000 0.18204  0.37380  0.71411  Biso   1.000  Ne
  Ne735    1.0000 0.64078  0.60116  0.44305  Biso   1.000  Ne
  He735    1.0000 0.65771  0.57579  0.45110  Biso   1.000  He
  He736    1.0000 0.64286  0.55149  0.47093  Biso   1.000  He
  Ne736    1.0000 0.66446  0.52587  0.46943  Biso   1.000  Ne
  Ne737    1.0000 0.19965  0.49511  0.95856  Biso   1.000  Ne
  He737    1.0000 0.21188  0.52636  0.96563  Biso   1.000  He
  He738    1.0000 0.23003  0.54055  0.94031  Biso   1.000  He
  Ne738    1.0000 0.24058  0.56961  0.94838  Biso   1.000  Ne
  Ne739    1.0000 0.13742  0.24520  0.62319  Biso   1.000  Ne
  He739    1.0000 0.16079  0.25554  0.60462  Biso   1.000  He
  He740    1.0000 0.18706  0.27327  0.61967  Biso   1.000  He
  Ne740    1.0000 0.20609  0.28436  0.59798  Biso   1.000  Ne
  Ne741    1.0000 0.22268  0.32029  0.15293  Biso   1.000  Ne
  He741    1.0000 0.19466  0.31282  0.13195  Biso   1.000  He
  He742    1.0000 0.17971  0.34147  0.12210  Biso   1.000  He
  Ne742    1.0000 0.18868  0.35581  0.09198  Biso   1.000  Ne
  Ne743    1.0000 0.41727  0.83312  0.67281  Biso   1.000  Ne
  He743    1.0000 0.43494  0.84594  0.69701  Biso   1.000  He
  He744    1.0000 0.41730  0.85964  0.72136  Biso   1.000  He
  Ne744    1.0000 0.43246  0.87545  0.74768  Biso   1.000  Ne
  Ne745    1.0000 0.87860  0.67457  0.30208  Biso   1.000  Ne
  He745    1.0000 0.86147  0.70173  0.32007  Biso   1.000  He
  He746    1.0000 0.82937  0.69438  0.32209  Biso   1.000  He
  Ne746    1.0000 0.81323  0.71933  0.33720  Biso   1.000  Ne
  Ne747    1.0000 0.83291  0.34664  0.42749  Biso   1.000  Ne
  He747    1.0000 0.83842  0.36759  0.40290  Biso   1.000  He
  He748    1.0000 0.81649  0.36092  0.37719  Biso   1.000  He
  Ne748    1.0000 0.82371  0.37486  0.34897  Biso   1.000  Ne
  Ne749    1.0000 0.00379  0.90435  0.03214  Biso   1.000  Ne
  He749    1.0000 0.99671  0.91650  0.00344  Biso   1.000  He
  He750    1.0000 0.97215  0.94155  0.00305  Biso   1.000  He
  Ne750    1.0000 0.96562  0.95066  0.97218  Biso   1.000  Ne
  Ne751    1.0000 0.19329  0.70340  0.11475  Biso   1.000  Ne
  He751    1.0000 0.22023  0.68667  0.12781  Biso   1.000  He
  He752    1.0000 0.21226  0.66855  0.15471  Biso   1.000  He
  Ne752    1.0000 0.23856  0.65562  0.17108  Biso   1.000  Ne
  Ne753    1.0000 0.82684  0.32800  0.05608  Biso   1.000  Ne
  He753    1.0000 0.81570  0.30355  0.07084  Biso   1.000  He
  He754    1.0000 0.82577  0.27296  0.06071  Biso   1.000  He
  Ne754    1.0000 0.81006  0.24960  0.07739  Biso   1.000  Ne
  Ne755    1.0000 0.72931  0.19428  0.56728  Biso   1.000  Ne
  He755    1.0000 0.71054  0.20665  0.59054  Biso   1.000  He
  He756    1.0000 0.72733  0.21046  0.61907  Biso   1.000  He
  Ne756    1.0000 0.70784  0.21538  0.64494  Biso   1.000  Ne
  Ne757    1.0000 0.93509  0.85029  0.53609  Biso   1.000  Ne
  He757    1.0000 0.90190  0.84909  0.52446  Biso   1.000  He
  He758    1.0000 0.89613  0.81876  0.50977  Biso   1.000  He
  Ne758    1.0000 0.86524  0.81523  0.49946  Biso   1.000  Ne
  Ne759    1.0000 0.80658  0.89876  0.56452  Biso   1.000  Ne
  He759    1.0000 0.79680  0.92480  0.54290  Biso   1.000  He
  He760    1.0000 0.79319  0.95449  0.56071  Biso   1.000  He
  Ne760    1.0000 0.79058  0.98301  0.54398  Biso   1.000  Ne
  Ne761    1.0000 0.53252  0.67269  0.49196  Biso   1.000  Ne
  He761    1.0000 0.56647  0.68078  0.48901  Biso   1.000  He
  He762    1.0000 0.57724  0.67638  0.45810  Biso   1.000  He
  Ne762    1.0000 0.60902  0.68560  0.45583  Biso   1.000  Ne
  Ne763    1.0000 0.19886  0.22340  0.39355  Biso   1.000  Ne
  He763    1.0000 0.19135  0.18985  0.39742  Biso   1.000  He
  He764    1.0000 0.19323  0.17779  0.42823  Biso   1.000  He
  Ne764    1.0000 0.18680  0.14450  0.42765  Biso   1.000  Ne
  Ne765    1.0000 0.78732  0.28608  0.43172  Biso   1.000  Ne
  He765    1.0000 0.78184  0.26627  0.40556  Biso   1.000  He
  He766    1.0000 0.76317  0.23856  0.41309  Biso   1.000  He
  Ne766    1.0000 0.76231  0.21937  0.39135  Biso   1.000  Ne
  Ne767    1.0000 0.30636  0.33326  0.11474  Biso   1.000  Ne
  He767    1.0000 0.30603  0.31783  0.14337  Biso   1.000  He
  He768    1.0000 0.30561  0.33694  0.17036  Biso   1.000  He
  Ne768    1.0000 0.30455  0.32346  0.19994  Biso   1.000  Ne
  Ne769    1.0000 0.45400  0.57082  0.22215  Biso   1.000  Ne
  He769    1.0000 0.45875  0.56029  0.19079  Biso   1.000  He
  He770    1.0000 0.42888  0.54900  0.17510  Biso   1.000  He
  Ne770    1.0000 0.43299  0.54583  0.14089  Biso   1.000  Ne
  Ne771    1.0000 0.66444  0.80563  0.09328  Biso   1.000  Ne
  He771    1.0000 0.69203  0.81473  0.10760  Biso   1.000  He
  He772    1.0000 0.71001  0.78855  0.12119  Biso   1.000  He
  Ne772    1.0000 0.73909  0.79480  0.13526  Biso   1.000  Ne
  Ne773    1.0000 0.64402  0.87456  0.36698  Biso   1.000  Ne
  He773    1.0000 0.61512  0.86731  0.35451  Biso   1.000  He
  He774    1.0000 0.60727  0.88572  0.32966  Biso   1.000  He
  Ne774    1.0000 0.57952  0.87821  0.31219  Biso   1.000  Ne
  Ne775    1.0000 0.20845  0.04246  0.67567  Biso   1.000  Ne
  He775    1.0000 0.22454  0.06938  0.66438  Biso   1.000  He
  He776    1.0000 0.24485  0.06230  0.64060  Biso   1.000  He
  Ne776    1.0000 0.26016  0.08965  0.63021  Biso   1.000  Ne
  Ne777    1.0000 0.96463  0.40629  0.86913  Biso   1.000  Ne
  He777    1.0000 0.96862  0.42932  0.84491  Biso   1.000  He
  He778    1.0000 0.97134  0.41661  0.81356  Biso   1.000  He
  Ne778    1.0000 0.97325  0.43602  0.78904  Biso   1.000  Ne
  Ne779    1.0000 0.95948  0.13432  0.72132  Biso   1.000  Ne
  He779    1.0000 0.97922  0.10919  0.72893  Biso   1.000  He
  He780    1.0000 0.96624  0.08073  0.72122  Biso   1.000  He
  Ne780    1.0000 0.98676  0.05355  0.71992  Biso   1.000  Ne
  Ne781    1.0000 0.29878  0.88906  0.13293  Biso   1.000  Ne
  He781    1.0000 0.29656  0.85725  0.12725  Biso   1.000  He
  He782    1.0000 0.28938  0.84684  0.09456  Biso   1.000  He
  Ne782    1.0000 0.29390  0.81567  0.08798  Biso   1.000  Ne
  Ne783    1.0000 0.54310  0.55373  0.42934  Biso   1.000  Ne
  He783    1.0000 0.54013  0.58929  0.43051  Biso   1.000  He
  He784    1.0000 0.54727  0.60245  0.40223  Biso   1.000  He
  Ne784    1.0000 0.54705  0.63420  0.40124  Biso   1.000  Ne
  Ne785    1.0000 0.60649  0.17323  0.88193  Biso   1.000  Ne
  He785    1.0000 0.62564  0.15329  0.90443  Biso   1.000  He
  He786    1.0000 0.65501  0.14460  0.88908  Biso   1.000  He
  Ne786    1.0000 0.67366  0.12321  0.90787  Biso   1.000  Ne
  Ne787    1.0000 0.34744  0.85911  0.04705  Biso   1.000  Ne
  He787    1.0000 0.35953  0.86557  0.01600  Biso   1.000  He
  He788    1.0000 0.34049  0.88997  0.00247  Biso   1.000  He
  Ne788    1.0000 0.34937  0.89834  0.97221  Biso   1.000  Ne
  Ne789    1.0000 0.12019  0.36522  0.20427  Biso   1.000  Ne
  He789    1.0000 0.11598  0.33320  0.21025  Biso   1.000  He
  He790    1.0000 0.14509  0.31889  0.20871  Biso   1.000  He
  Ne790    1.0000 0.14665  0.28714  0.21832  Biso   1.000  Ne
  Ne791    1.0000 0.10527  1.00000  0.76357  Biso   1.000  Ne
  He791    1.0000 0.09501  0.02980  0.77390  Biso   1.000  He
  He792    1.0000 0.10371  0.05489  0.75675  Biso   1.000  He
  Ne792    1.0000 0.10241  0.08581  0.76909  Biso   1.000  Ne
  Ne793    1.0000 0.69497  0.25124  0.89161  Biso   1.000  Ne
  He793    1.0000 0.70740  0.28142  0.88454  Biso   1.000  He
  He794    1.0000 0.74128  0.28344  0.88841  Biso   1.000  He
  Ne794    1.0000 0.75355  0.31165  0.87421  Biso   1.000  Ne
  Ne795    1.0000 0.66628  0.60622  0.16432  Biso   1.000  Ne
  He795    1.0000 0.63592  0.62095  0.15191  Biso   1.000  He
  He796    1.0000 0.60958  0.62809  0.17238  Biso   1.000  He
  Ne796    1.0000 0.58503  0.63853  0.15532  Biso   1.000  Ne
  Ne797    1.0000 0.04564  0.61659  0.02610  Biso   1.000  Ne
  He797    1.0000 0.06077  0.64199  0.03927  Biso   1.000  He
  He798    1.0000 0.05331  0.64870  0.07179  Biso   1.000  He
  Ne798    1.0000 0.06696  0.67480  0.08562  Biso   1.000  Ne
  Ne799    1.0000 0.92517  0.14335  0.44946  Biso   1.000  Ne
  He799    1.0000 0.89762  0.13474  0.46349  Biso   1.000  He
  He800    1.0000 0.88880  0.15747  0.48819  Biso   1.000  He
  Ne800    1.0000 0.86078  0.14976  0.50280  Biso   1.000  Ne
