data_image0
_cell_length_a       47.1604
_cell_length_b       46.7819
_cell_length_c       46.437
_cell_angle_alpha    90
_cell_angle_beta     90
_cell_angle_gamma    90

_symmetry_space_group_name_H-M    "P 1"
_symmetry_int_tables_number       1

loop_
  _symmetry_equiv_pos_as_xyz
  'x, y, z'

loop_
  _atom_site_label
  _atom_site_occupancy
  _atom_site_fract_x
  _atom_site_fract_y
  _atom_site_fract_z
  _atom_site_thermal_displace_type
  _atom_site_B_iso_or_equiv
  _atom_site_type_symbol
  Ne1      1.0000 0.55444  0.07358  0.47349  Biso   1.000  Ne
  He1      1.0000 0.56942  0.04545  0.48329  Biso   1.000  He
  He2      1.0000 0.55442  0.03443  0.51011  Biso   1.000  He
  Ne2      1.0000 0.56852  0.00765  0.52640  Biso   1.000  Ne
  Ne3      1.0000 0.18921  0.85492  0.10079  Biso   1.000  Ne
  He3      1.0000 0.15589  0.84884  0.09263  Biso   1.000  He
  He4      1.0000 0.14237  0.82097  0.10746  Biso   1.000  He
  Ne4      1.0000 0.11113  0.81485  0.09629  Biso   1.000  Ne
  Ne5      1.0000 0.73733  0.39216  0.57015  Biso   1.000  Ne
  He5      1.0000 0.76800  0.40312  0.57347  Biso   1.000  He
  He6      1.0000 0.78913  0.38081  0.58670  Biso   1.000  He
  Ne6      1.0000 0.81817  0.39022  0.59177  Biso   1.000  Ne
  Ne7      1.0000 0.30190  0.62183  0.57374  Biso   1.000  Ne
  He7      1.0000 0.30671  0.61902  0.54121  Biso   1.000  He
  He8      1.0000 0.33154  0.63879  0.52832  Biso   1.000  He
  Ne8      1.0000 0.33204  0.64227  0.49494  Biso   1.000  Ne
  Ne9      1.0000 0.38261  0.58622  0.94341  Biso   1.000  Ne
  He9      1.0000 0.39725  0.61043  0.92284  Biso   1.000  He
  He10     1.0000 0.40260  0.63995  0.93949  Biso   1.000  He
  Ne10     1.0000 0.41909  0.66622  0.92274  Biso   1.000  Ne
  Ne11     1.0000 0.74323  0.68699  0.46599  Biso   1.000  Ne
  He11     1.0000 0.76127  0.69377  0.43919  Biso   1.000  He
  He12     1.0000 0.77172  0.72408  0.43228  Biso   1.000  He
  Ne12     1.0000 0.78212  0.72754  0.40053  Biso   1.000  Ne
  Ne13     1.0000 0.24567  0.93436  0.83615  Biso   1.000  Ne
  He13     1.0000 0.23064  0.92356  0.86266  Biso   1.000  He
  He14     1.0000 0.24772  0.91968  0.89050  Biso   1.000  He
  Ne14     1.0000 0.23046  0.91244  0.91976  Biso   1.000  Ne
  Ne15     1.0000 0.94727  0.82884  0.11821  Biso   1.000  Ne
  He15     1.0000 0.93085  0.80194  0.11753  Biso   1.000  He
  He16     1.0000 0.89783  0.80577  0.11403  Biso   1.000  He
  Ne16     1.0000 0.87901  0.77657  0.10848  Biso   1.000  Ne
  Ne17     1.0000 0.89679  0.79281  0.95622  Biso   1.000  Ne
  He17     1.0000 0.87360  0.76960  0.94855  Biso   1.000  He
  He18     1.0000 0.88191  0.73905  0.94340  Biso   1.000  He
  Ne18     1.0000 0.85367  0.72169  0.93777  Biso   1.000  Ne
  Ne19     1.0000 0.18582  0.32281  0.44091  Biso   1.000  Ne
  He19     1.0000 0.15378  0.33169  0.45161  Biso   1.000  He
  He20     1.0000 0.12844  0.32213  0.43488  Biso   1.000  He
  Ne20     1.0000 0.09855  0.32392  0.45326  Biso   1.000  Ne
  Ne21     1.0000 0.80689  0.56620  0.60072  Biso   1.000  Ne
  He21     1.0000 0.77680  0.56465  0.61619  Biso   1.000  He
  He22     1.0000 0.75516  0.58477  0.60556  Biso   1.000  He
  Ne22     1.0000 0.73246  0.57010  0.58559  Biso   1.000  Ne
  Ne23     1.0000 0.94028  0.04755  0.99438  Biso   1.000  Ne
  He23     1.0000 0.94955  0.04113  0.02544  Biso   1.000  He
  He24     1.0000 0.91965  0.03565  0.04534  Biso   1.000  He
  Ne24     1.0000 0.92604  0.03423  0.07921  Biso   1.000  Ne
  Ne25     1.0000 0.76410  0.04336  0.82417  Biso   1.000  Ne
  He25     1.0000 0.78564  0.06586  0.81817  Biso   1.000  He
  He26     1.0000 0.78269  0.07840  0.78611  Biso   1.000  He
  Ne26     1.0000 0.80104  0.10394  0.77944  Biso   1.000  Ne
  Ne27     1.0000 0.64978  0.80056  0.08966  Biso   1.000  Ne
  He27     1.0000 0.62301  0.78072  0.09569  Biso   1.000  He
  He28     1.0000 0.60301  0.78569  0.07288  Biso   1.000  He
  Ne28     1.0000 0.57174  0.76916  0.07641  Biso   1.000  Ne
  Ne29     1.0000 0.34506  0.82540  0.44287  Biso   1.000  Ne
  He29     1.0000 0.34102  0.85867  0.44481  Biso   1.000  He
  He30     1.0000 0.30655  0.86688  0.44911  Biso   1.000  He
  Ne30     1.0000 0.29901  0.89968  0.44982  Biso   1.000  Ne
  Ne31     1.0000 0.19185  0.26108  0.09693  Biso   1.000  Ne
  He31     1.0000 0.16365  0.24281  0.08666  Biso   1.000  He
  He32     1.0000 0.16122  0.21112  0.09518  Biso   1.000  He
  Ne32     1.0000 0.13544  0.19352  0.08141  Biso   1.000  Ne
  Ne33     1.0000 0.00771  0.95283  0.93129  Biso   1.000  Ne
  He33     1.0000 0.99077  0.98175  0.93143  Biso   1.000  He
  He34     1.0000 0.01044  0.00733  0.93669  Biso   1.000  He
  Ne34     1.0000 0.99618  0.03683  0.93952  Biso   1.000  Ne
  Ne35     1.0000 0.10289  0.30476  0.21404  Biso   1.000  Ne
  He35     1.0000 0.09137  0.27391  0.21707  Biso   1.000  He
  He36     1.0000 0.11896  0.25168  0.22173  Biso   1.000  He
  Ne36     1.0000 0.10948  0.21947  0.22996  Biso   1.000  Ne
  Ne37     1.0000 0.65880  0.26441  0.09739  Biso   1.000  Ne
  He37     1.0000 0.63651  0.24059  0.10197  Biso   1.000  He
  He38     1.0000 0.63624  0.21741  0.08159  Biso   1.000  He
  Ne38     1.0000 0.61100  0.19345  0.08435  Biso   1.000  Ne
  Ne39     1.0000 0.33281  0.33108  0.41127  Biso   1.000  Ne
  He39     1.0000 0.33482  0.30367  0.42846  Biso   1.000  He
  He40     1.0000 0.31000  0.29256  0.44839  Biso   1.000  He
  Ne40     1.0000 0.31703  0.26471  0.46349  Biso   1.000  Ne
  Ne41     1.0000 0.45912  0.92223  0.46770  Biso   1.000  Ne
  He41     1.0000 0.48891  0.93023  0.45356  Biso   1.000  He
  He42     1.0000 0.50012  0.96226  0.46005  Biso   1.000  He
  Ne42     1.0000 0.52265  0.97533  0.44429  Biso   1.000  Ne
  Ne43     1.0000 0.93121  0.91811  0.86020  Biso   1.000  Ne
  He43     1.0000 0.94659  0.90981  0.83068  Biso   1.000  He
  He44     1.0000 0.92389  0.89240  0.81216  Biso   1.000  He
  Ne44     1.0000 0.93449  0.88005  0.78249  Biso   1.000  Ne
  Ne45     1.0000 0.79104  0.38961  0.01091  Biso   1.000  Ne
  He45     1.0000 0.78526  0.39990  0.04368  Biso   1.000  He
  He46     1.0000 0.76610  0.37684  0.06091  Biso   1.000  He
  Ne46     1.0000 0.75487  0.38633  0.09156  Biso   1.000  Ne
  Ne47     1.0000 0.70921  0.72205  0.86673  Biso   1.000  Ne
  He47     1.0000 0.74132  0.72142  0.85445  Biso   1.000  He
  He48     1.0000 0.76016  0.74530  0.86789  Biso   1.000  He
  Ne48     1.0000 0.79221  0.75051  0.85977  Biso   1.000  Ne
  Ne49     1.0000 0.57085  0.24338  0.83888  Biso   1.000  Ne
  He49     1.0000 0.58121  0.23205  0.80659  Biso   1.000  He
  He50     1.0000 0.61409  0.24202  0.79835  Biso   1.000  He
  Ne50     1.0000 0.62562  0.22226  0.77333  Biso   1.000  Ne
  Ne51     1.0000 0.01600  0.46876  0.56013  Biso   1.000  Ne
  He51     1.0000 0.02556  0.44289  0.58167  Biso   1.000  He
  He52     1.0000 0.05706  0.44096  0.59098  Biso   1.000  He
  Ne52     1.0000 0.06568  0.41590  0.61066  Biso   1.000  Ne
  Ne53     1.0000 0.89300  0.34298  0.58573  Biso   1.000  Ne
  He53     1.0000 0.89522  0.31511  0.60568  Biso   1.000  He
  He54     1.0000 0.88489  0.31412  0.63696  Biso   1.000  He
  Ne54     1.0000 0.89520  0.28937  0.65565  Biso   1.000  Ne
  Ne55     1.0000 0.84889  0.86351  0.66737  Biso   1.000  Ne
  He55     1.0000 0.87050  0.84406  0.65049  Biso   1.000  He
  He56     1.0000 0.87786  0.85574  0.62035  Biso   1.000  He
  Ne56     1.0000 0.89894  0.83362  0.60532  Biso   1.000  Ne
  Ne57     1.0000 0.61832  0.70254  0.10191  Biso   1.000  Ne
  He57     1.0000 0.64568  0.68660  0.08961  Biso   1.000  He
  He58     1.0000 0.65281  0.65830  0.10661  Biso   1.000  He
  Ne58     1.0000 0.68202  0.64301  0.09761  Biso   1.000  Ne
  Ne59     1.0000 0.60743  0.34737  0.19488  Biso   1.000  Ne
  He59     1.0000 0.59761  0.32109  0.17701  Biso   1.000  He
  He60     1.0000 0.59312  0.32747  0.14653  Biso   1.000  He
  Ne60     1.0000 0.58563  0.30564  0.12521  Biso   1.000  Ne
  Ne61     1.0000 0.11920  0.63319  0.35570  Biso   1.000  Ne
  He61     1.0000 0.10859  0.63617  0.38704  Biso   1.000  He
  He62     1.0000 0.09933  0.66692  0.39189  Biso   1.000  He
  Ne62     1.0000 0.08656  0.67622  0.42183  Biso   1.000  Ne
  Ne63     1.0000 0.59294  0.11170  0.41645  Biso   1.000  Ne
  He63     1.0000 0.57752  0.13513  0.43213  Biso   1.000  He
  He64     1.0000 0.59215  0.16311  0.42072  Biso   1.000  He
  Ne64     1.0000 0.58456  0.19157  0.43612  Biso   1.000  Ne
  Ne65     1.0000 0.67136  0.38502  0.93366  Biso   1.000  Ne
  He65     1.0000 0.70171  0.38750  0.92236  Biso   1.000  He
  He66     1.0000 0.70760  0.40970  0.89780  Biso   1.000  He
  Ne66     1.0000 0.73769  0.40873  0.88393  Biso   1.000  Ne
  Ne67     1.0000 0.10461  0.34836  0.63555  Biso   1.000  Ne
  He67     1.0000 0.10632  0.36218  0.66620  Biso   1.000  He
  He68     1.0000 0.08318  0.35155  0.68786  Biso   1.000  He
  Ne68     1.0000 0.07975  0.36840  0.71782  Biso   1.000  Ne
  Ne69     1.0000 0.86000  0.29103  0.10223  Biso   1.000  Ne
  He69     1.0000 0.83955  0.30805  0.08139  Biso   1.000  He
  He70     1.0000 0.83707  0.29725  0.04946  Biso   1.000  He
  Ne70     1.0000 0.81603  0.31436  0.03144  Biso   1.000  Ne
  Ne71     1.0000 0.19382  0.64402  0.42336  Biso   1.000  Ne
  He71     1.0000 0.22228  0.65229  0.43899  Biso   1.000  He
  He72     1.0000 0.24025  0.62424  0.44192  Biso   1.000  He
  Ne72     1.0000 0.26991  0.63187  0.44854  Biso   1.000  Ne
  Ne73     1.0000 0.92499  0.58392  0.44241  Biso   1.000  Ne
  He73     1.0000 0.91408  0.59461  0.41351  Biso   1.000  He
  He74     1.0000 0.93165  0.58300  0.38660  Biso   1.000  He
  Ne74     1.0000 0.94823  0.60682  0.36923  Biso   1.000  Ne
  Ne75     1.0000 0.62777  0.05126  0.77477  Biso   1.000  Ne
  He75     1.0000 0.62275  0.06891  0.74959  Biso   1.000  He
  He76     1.0000 0.61135  0.09762  0.75724  Biso   1.000  He
  Ne76     1.0000 0.60632  0.12006  0.73164  Biso   1.000  Ne
  Ne77     1.0000 0.58473  0.27239  0.26727  Biso   1.000  Ne
  He77     1.0000 0.58096  0.26029  0.29754  Biso   1.000  He
  He78     1.0000 0.60956  0.25832  0.31602  Biso   1.000  He
  Ne78     1.0000 0.60675  0.23807  0.34212  Biso   1.000  Ne
  Ne79     1.0000 0.09306  0.47221  0.51255  Biso   1.000  Ne
  He79     1.0000 0.08781  0.49513  0.48922  Biso   1.000  He
  He80     1.0000 0.06950  0.48526  0.46201  Biso   1.000  He
  Ne80     1.0000 0.06256  0.51037  0.44095  Biso   1.000  Ne
  Ne81     1.0000 0.45703  0.92762  0.55607  Biso   1.000  Ne
  He81     1.0000 0.44330  0.92682  0.58526  Biso   1.000  He
  He82     1.0000 0.42981  0.95615  0.59077  Biso   1.000  He
  Ne82     1.0000 0.41749  0.96108  0.62339  Biso   1.000  Ne
  Ne83     1.0000 0.42153  0.38125  0.81622  Biso   1.000  Ne
  He83     1.0000 0.42969  0.39456  0.78551  Biso   1.000  He
  He84     1.0000 0.43015  0.37386  0.75954  Biso   1.000  He
  Ne84     1.0000 0.43918  0.38877  0.73145  Biso   1.000  Ne
  Ne85     1.0000 0.07799  0.94927  0.98167  Biso   1.000  Ne
  He85     1.0000 0.08870  0.94336  0.95052  Biso   1.000  He
  He86     1.0000 0.12306  0.94077  0.95181  Biso   1.000  He
  Ne86     1.0000 0.13731  0.93690  0.92146  Biso   1.000  Ne
  Ne87     1.0000 0.43700  0.57932  0.07822  Biso   1.000  Ne
  He87     1.0000 0.46044  0.57666  0.05554  Biso   1.000  He
  He88     1.0000 0.48540  0.55772  0.06467  Biso   1.000  He
  Ne88     1.0000 0.50931  0.55020  0.04310  Biso   1.000  Ne
  Ne89     1.0000 0.40481  0.93145  0.39949  Biso   1.000  Ne
  He89     1.0000 0.39584  0.89981  0.40417  Biso   1.000  He
  He90     1.0000 0.42204  0.87904  0.40336  Biso   1.000  He
  Ne90     1.0000 0.42877  0.86430  0.37267  Biso   1.000  Ne
  Ne91     1.0000 0.97625  0.90564  0.01531  Biso   1.000  Ne
  He91     1.0000 0.98119  0.93205  0.03107  Biso   1.000  He
  He92     1.0000 0.96837  0.93484  0.06369  Biso   1.000  He
  Ne92     1.0000 0.97616  0.96167  0.07720  Biso   1.000  Ne
  Ne93     1.0000 0.69274  0.84599  0.74565  Biso   1.000  Ne
  He93     1.0000 0.72114  0.83872  0.73346  Biso   1.000  He
  He94     1.0000 0.74555  0.86176  0.73671  Biso   1.000  He
  Ne94     1.0000 0.77547  0.84952  0.72881  Biso   1.000  Ne
  Ne95     1.0000 0.60469  0.39841  0.89267  Biso   1.000  Ne
  He95     1.0000 0.58192  0.42183  0.90058  Biso   1.000  He
  He96     1.0000 0.58160  0.43006  0.93212  Biso   1.000  He
  Ne96     1.0000 0.56268  0.45516  0.93899  Biso   1.000  Ne
  Ne97     1.0000 0.09397  0.17418  0.16396  Biso   1.000  Ne
  He97     1.0000 0.08400  0.14562  0.15195  Biso   1.000  He
  He98     1.0000 0.09080  0.12194  0.17254  Biso   1.000  He
  Ne98     1.0000 0.07830  0.09162  0.16382  Biso   1.000  Ne
  Ne99     1.0000 0.86293  0.18555  0.11184  Biso   1.000  Ne
  He99     1.0000 0.87473  0.20772  0.13371  Biso   1.000  He
  He100    1.0000 0.90132  0.19854  0.15243  Biso   1.000  He
  Ne100    1.0000 0.90864  0.22290  0.17584  Biso   1.000  Ne
  Ne101    1.0000 0.32092  0.29814  0.09462  Biso   1.000  Ne
  He101    1.0000 0.33104  0.33059  0.09325  Biso   1.000  He
  He102    1.0000 0.36340  0.33062  0.09662  Biso   1.000  He
  Ne102    1.0000 0.37604  0.36211  0.09315  Biso   1.000  Ne
  Ne103    1.0000 0.42226  0.15455  0.60829  Biso   1.000  Ne
  He103    1.0000 0.42769  0.12433  0.60159  Biso   1.000  He
  He104    1.0000 0.40156  0.10238  0.60660  Biso   1.000  He
  Ne104    1.0000 0.41174  0.07191  0.59900  Biso   1.000  Ne
  Ne105    1.0000 0.51145  0.33214  0.33943  Biso   1.000  Ne
  He105    1.0000 0.52375  0.35736  0.31971  Biso   1.000  He
  He106    1.0000 0.50507  0.38306  0.32023  Biso   1.000  He
  Ne106    1.0000 0.51410  0.41129  0.30320  Biso   1.000  Ne
  Ne107    1.0000 0.91507  0.12139  0.18959  Biso   1.000  Ne
  He107    1.0000 0.90763  0.11760  0.22371  Biso   1.000  He
  He108    1.0000 0.87662  0.11880  0.22972  Biso   1.000  He
  Ne108    1.0000 0.86655  0.11584  0.26207  Biso   1.000  Ne
  Ne109    1.0000 0.38183  0.88451  0.75342  Biso   1.000  Ne
  He109    1.0000 0.41032  0.89780  0.74085  Biso   1.000  He
  He110    1.0000 0.40416  0.91529  0.71163  Biso   1.000  He
  Ne110    1.0000 0.41307  0.89870  0.68322  Biso   1.000  Ne
  Ne111    1.0000 0.41403  0.28278  0.33626  Biso   1.000  Ne
  He111    1.0000 0.41945  0.31480  0.32621  Biso   1.000  He
  He112    1.0000 0.38990  0.33006  0.32157  Biso   1.000  He
  Ne112    1.0000 0.39420  0.35936  0.30658  Biso   1.000  Ne
  Ne113    1.0000 0.93834  0.72456  0.63426  Biso   1.000  Ne
  He113    1.0000 0.93567  0.69929  0.61070  Biso   1.000  He
  He114    1.0000 0.92325  0.66990  0.62110  Biso   1.000  He
  Ne114    1.0000 0.92455  0.64316  0.59926  Biso   1.000  Ne
  Ne115    1.0000 0.92906  0.60365  0.66714  Biso   1.000  Ne
  He115    1.0000 0.90330  0.58138  0.66861  Biso   1.000  He
  He116    1.0000 0.87500  0.59663  0.68107  Biso   1.000  He
  Ne116    1.0000 0.84528  0.57860  0.67795  Biso   1.000  Ne
  Ne117    1.0000 0.67965  0.06684  0.68546  Biso   1.000  Ne
  He117    1.0000 0.65911  0.08920  0.67391  Biso   1.000  He
  He118    1.0000 0.67380  0.11702  0.65578  Biso   1.000  He
  Ne118    1.0000 0.65230  0.13474  0.63915  Biso   1.000  Ne
  Ne119    1.0000 0.77109  0.27194  0.91988  Biso   1.000  Ne
  He119    1.0000 0.78204  0.30191  0.90490  Biso   1.000  He
  He120    1.0000 0.76752  0.30927  0.87845  Biso   1.000  He
  Ne120    1.0000 0.77334  0.34029  0.86572  Biso   1.000  Ne
  Ne121    1.0000 0.10813  0.95007  0.80227  Biso   1.000  Ne
  He121    1.0000 0.11814  0.92613  0.82442  Biso   1.000  He
  He122    1.0000 0.09512  0.90547  0.83612  Biso   1.000  He
  Ne122    1.0000 0.10626  0.88002  0.84949  Biso   1.000  Ne
  Ne123    1.0000 0.91452  0.87890  0.25880  Biso   1.000  Ne
  He123    1.0000 0.90533  0.88183  0.22614  Biso   1.000  He
  He124    1.0000 0.87206  0.87415  0.22133  Biso   1.000  He
  Ne124    1.0000 0.86396  0.87020  0.18857  Biso   1.000  Ne
  Ne125    1.0000 0.82578  0.90589  0.87083  Biso   1.000  Ne
  He125    1.0000 0.83810  0.91421  0.89903  Biso   1.000  He
  He126    1.0000 0.86682  0.90378  0.90805  Biso   1.000  He
  Ne126    1.0000 0.87627  0.91413  0.93731  Biso   1.000  Ne
  Ne127    1.0000 0.69026  0.11224  0.87867  Biso   1.000  Ne
  He127    1.0000 0.66302  0.12477  0.86881  Biso   1.000  He
  He128    1.0000 0.66408  0.15803  0.85889  Biso   1.000  He
  Ne128    1.0000 0.65625  0.18127  0.88409  Biso   1.000  Ne
  Ne129    1.0000 0.46526  0.58413  0.95807  Biso   1.000  Ne
  He129    1.0000 0.49824  0.57605  0.96146  Biso   1.000  He
  He130    1.0000 0.50296  0.54754  0.94661  Biso   1.000  He
  Ne130    1.0000 0.53493  0.53659  0.94895  Biso   1.000  Ne
  Ne131    1.0000 0.55499  0.10908  0.83760  Biso   1.000  Ne
  He131    1.0000 0.57833  0.10769  0.86322  Biso   1.000  He
  He132    1.0000 0.58642  0.07855  0.87383  Biso   1.000  He
  Ne132    1.0000 0.59889  0.08134  0.90531  Biso   1.000  Ne
  Ne133    1.0000 0.80433  0.60717  0.07618  Biso   1.000  Ne
  He133    1.0000 0.78063  0.58871  0.09528  Biso   1.000  He
  He134    1.0000 0.75197  0.58282  0.07967  Biso   1.000  He
  Ne134    1.0000 0.73174  0.55693  0.09438  Biso   1.000  Ne
  Ne135    1.0000 0.58070  0.08047  0.32066  Biso   1.000  Ne
  He135    1.0000 0.59461  0.10395  0.30220  Biso   1.000  He
  He136    1.0000 0.58414  0.13572  0.31178  Biso   1.000  He
  Ne136    1.0000 0.59988  0.16014  0.29808  Biso   1.000  Ne
  Ne137    1.0000 0.42687  0.01438  0.48841  Biso   1.000  Ne
  He137    1.0000 0.45064  0.03319  0.47624  Biso   1.000  He
  He138    1.0000 0.44396  0.04369  0.44540  Biso   1.000  He
  Ne138    1.0000 0.46145  0.07042  0.43656  Biso   1.000  Ne
  Ne139    1.0000 0.24627  0.11513  0.62077  Biso   1.000  Ne
  He139    1.0000 0.27158  0.09661  0.62474  Biso   1.000  He
  He140    1.0000 0.30110  0.11102  0.63076  Biso   1.000  He
  Ne140    1.0000 0.32451  0.08875  0.63649  Biso   1.000  Ne
  Ne141    1.0000 0.33905  0.65173  0.10866  Biso   1.000  Ne
  He141    1.0000 0.36835  0.66781  0.11440  Biso   1.000  He
  He142    1.0000 0.39373  0.64726  0.11740  Biso   1.000  He
  Ne142    1.0000 0.42359  0.66258  0.11923  Biso   1.000  Ne
  Ne143    1.0000 0.82938  0.00216  0.63194  Biso   1.000  Ne
  He143    1.0000 0.82820  0.01031  0.66524  Biso   1.000  He
  He144    1.0000 0.85908  0.02439  0.67603  Biso   1.000  He
  Ne144    1.0000 0.86065  0.03200  0.70852  Biso   1.000  Ne
  Ne145    1.0000 0.17281  0.73833  0.16036  Biso   1.000  Ne
  He145    1.0000 0.16681  0.76237  0.18243  Biso   1.000  He
  He146    1.0000 0.13189  0.76682  0.18901  Biso   1.000  He
  Ne146    1.0000 0.12348  0.78778  0.21017  Biso   1.000  Ne
  Ne147    1.0000 0.10568  0.90346  0.15118  Biso   1.000  Ne
  He147    1.0000 0.10171  0.90685  0.18493  Biso   1.000  He
  He148    1.0000 0.11915  0.93356  0.19598  Biso   1.000  He
  Ne148    1.0000 0.11238  0.93738  0.22921  Biso   1.000  Ne
  Ne149    1.0000 0.66978  0.40753  0.17546  Biso   1.000  Ne
  He149    1.0000 0.69587  0.40928  0.19474  Biso   1.000  He
  He150    1.0000 0.72246  0.41063  0.17249  Biso   1.000  He
  Ne150    1.0000 0.75048  0.41538  0.18961  Biso   1.000  Ne
  Ne151    1.0000 0.55692  0.41812  0.01878  Biso   1.000  Ne
  He151    1.0000 0.56426  0.45075  0.01505  Biso   1.000  He
  He152    1.0000 0.57302  0.46933  0.04016  Biso   1.000  He
  Ne152    1.0000 0.57744  0.50328  0.03443  Biso   1.000  Ne
  Ne153    1.0000 0.76839  0.25093  0.81617  Biso   1.000  Ne
  He153    1.0000 0.75652  0.22202  0.83021  Biso   1.000  He
  He154    1.0000 0.76579  0.21919  0.86147  Biso   1.000  He
  Ne154    1.0000 0.75324  0.19346  0.87612  Biso   1.000  Ne
  Ne155    1.0000 0.18008  0.25563  0.61542  Biso   1.000  Ne
  He155    1.0000 0.18337  0.28042  0.63691  Biso   1.000  He
  He156    1.0000 0.21432  0.28900  0.64419  Biso   1.000  He
  Ne156    1.0000 0.21628  0.31413  0.66858  Biso   1.000  Ne
  Ne157    1.0000 0.30783  0.67650  0.94166  Biso   1.000  Ne
  He157    1.0000 0.27940  0.69066  0.95400  Biso   1.000  He
  He158    1.0000 0.26454  0.71334  0.93305  Biso   1.000  He
  Ne158    1.0000 0.23982  0.73002  0.94658  Biso   1.000  Ne
  Ne159    1.0000 0.65988  0.59338  0.82203  Biso   1.000  Ne
  He159    1.0000 0.65453  0.59747  0.78777  Biso   1.000  He
  He160    1.0000 0.67755  0.60342  0.76881  Biso   1.000  He
  Ne160    1.0000 0.67136  0.60853  0.73561  Biso   1.000  Ne
  Ne161    1.0000 0.47225  0.62990  0.64697  Biso   1.000  Ne
  He161    1.0000 0.49824  0.60843  0.63833  Biso   1.000  He
  He162    1.0000 0.50452  0.58681  0.66351  Biso   1.000  He
  Ne162    1.0000 0.52908  0.56655  0.65687  Biso   1.000  Ne
  Ne163    1.0000 0.19701  0.08514  0.76494  Biso   1.000  Ne
  He163    1.0000 0.19760  0.09451  0.79635  Biso   1.000  He
  He164    1.0000 0.17206  0.08093  0.81524  Biso   1.000  He
  Ne164    1.0000 0.16861  0.08733  0.84713  Biso   1.000  Ne
  Ne165    1.0000 0.84771  0.85315  0.49882  Biso   1.000  Ne
  He165    1.0000 0.87948  0.84889  0.50883  Biso   1.000  He
  He166    1.0000 0.88567  0.81675  0.51261  Biso   1.000  He
  Ne166    1.0000 0.91622  0.80927  0.52275  Biso   1.000  Ne
  Ne167    1.0000 0.69673  0.18121  0.72632  Biso   1.000  Ne
  He167    1.0000 0.68982  0.15026  0.72991  Biso   1.000  He
  He168    1.0000 0.69246  0.13686  0.75892  Biso   1.000  He
  Ne168    1.0000 0.69455  0.10277  0.75938  Biso   1.000  Ne
  Ne169    1.0000 0.26369  0.94122  0.71205  Biso   1.000  Ne
  He169    1.0000 0.27559  0.91846  0.73442  Biso   1.000  He
  He170    1.0000 0.28627  0.88811  0.72267  Biso   1.000  He
  Ne170    1.0000 0.29542  0.86822  0.74876  Biso   1.000  Ne
  Ne171    1.0000 0.59955  0.83168  0.44603  Biso   1.000  Ne
  He171    1.0000 0.59217  0.80089  0.43580  Biso   1.000  He
  He172    1.0000 0.59848  0.79173  0.40490  Biso   1.000  He
  Ne172    1.0000 0.59440  0.76064  0.39542  Biso   1.000  Ne
  Ne173    1.0000 0.17975  0.10150  0.19775  Biso   1.000  Ne
  He173    1.0000 0.19014  0.10079  0.16752  Biso   1.000  He
  He174    1.0000 0.16723  0.09899  0.14501  Biso   1.000  He
  Ne174    1.0000 0.17753  0.10450  0.11249  Biso   1.000  Ne
  Ne175    1.0000 0.43567  0.52308  0.99347  Biso   1.000  Ne
  He175    1.0000 0.43227  0.49197  0.98591  Biso   1.000  He
  He176    1.0000 0.45652  0.47325  0.99519  Biso   1.000  He
  Ne176    1.0000 0.46067  0.44405  0.98166  Biso   1.000  Ne
  Ne177    1.0000 0.90197  0.07370  0.77773  Biso   1.000  Ne
  He177    1.0000 0.89992  0.08151  0.80930  Biso   1.000  He
  He178    1.0000 0.92480  0.07214  0.82731  Biso   1.000  He
  Ne178    1.0000 0.92007  0.07500  0.85968  Biso   1.000  Ne
  Ne179    1.0000 0.80928  0.82911  0.80168  Biso   1.000  Ne
  He179    1.0000 0.82397  0.81686  0.82844  Biso   1.000  He
  He180    1.0000 0.85859  0.82376  0.82389  Biso   1.000  He
  Ne180    1.0000 0.87717  0.81101  0.84903  Biso   1.000  Ne
  Ne181    1.0000 0.76881  0.88092  0.93817  Biso   1.000  Ne
  He181    1.0000 0.75456  0.85405  0.92139  Biso   1.000  He
  He182    1.0000 0.75579  0.83110  0.93939  Biso   1.000  He
  Ne182    1.0000 0.74668  0.80167  0.92515  Biso   1.000  Ne
  Ne183    1.0000 0.36314  0.58410  0.83347  Biso   1.000  Ne
  He183    1.0000 0.36716  0.60790  0.81272  Biso   1.000  He
  He184    1.0000 0.37506  0.63484  0.82969  Biso   1.000  He
  Ne184    1.0000 0.38616  0.66010  0.81233  Biso   1.000  Ne
  Ne185    1.0000 0.16189  0.76028  0.92429  Biso   1.000  Ne
  He185    1.0000 0.16851  0.78852  0.90803  Biso   1.000  He
  He186    1.0000 0.15197  0.81284  0.92017  Biso   1.000  He
  Ne186    1.0000 0.16200  0.84071  0.90682  Biso   1.000  Ne
  Ne187    1.0000 0.71538  0.81800  0.44451  Biso   1.000  Ne
  He187    1.0000 0.73042  0.84504  0.43352  Biso   1.000  He
  He188    1.0000 0.76299  0.84572  0.44210  Biso   1.000  He
  Ne188    1.0000 0.77911  0.87454  0.43672  Biso   1.000  Ne
  Ne189    1.0000 0.07641  0.53533  0.57636  Biso   1.000  Ne
  He189    1.0000 0.09374  0.56069  0.58755  Biso   1.000  He
  He190    1.0000 0.07177  0.58279  0.60150  Biso   1.000  He
  Ne190    1.0000 0.08510  0.60886  0.61410  Biso   1.000  Ne
  Ne191    1.0000 0.60237  0.66164  0.17727  Biso   1.000  Ne
  He191    1.0000 0.60218  0.64609  0.20580  Biso   1.000  He
  He192    1.0000 0.58298  0.62177  0.21457  Biso   1.000  He
  Ne192    1.0000 0.58356  0.61721  0.24803  Biso   1.000  Ne
  Ne193    1.0000 0.26906  0.12862  0.17069  Biso   1.000  Ne
  He193    1.0000 0.26880  0.13103  0.13803  Biso   1.000  He
  He194    1.0000 0.25493  0.15672  0.12579  Biso   1.000  He
  Ne194    1.0000 0.26009  0.15456  0.09215  Biso   1.000  Ne
  Ne195    1.0000 0.89187  0.33523  0.94838  Biso   1.000  Ne
  He195    1.0000 0.88872  0.30562  0.93620  Biso   1.000  He
  He196    1.0000 0.89402  0.28247  0.95873  Biso   1.000  He
  Ne196    1.0000 0.86760  0.26577  0.97341  Biso   1.000  Ne
  Ne197    1.0000 0.34880  0.91697  0.62797  Biso   1.000  Ne
  He197    1.0000 0.33818  0.88758  0.61172  Biso   1.000  He
  He198    1.0000 0.32317  0.86335  0.63245  Biso   1.000  He
  Ne198    1.0000 0.31601  0.83632  0.61652  Biso   1.000  Ne
  Ne199    1.0000 0.29886  0.40091  0.34458  Biso   1.000  Ne
  He199    1.0000 0.26858  0.40459  0.35108  Biso   1.000  He
  He200    1.0000 0.26389  0.39741  0.38236  Biso   1.000  He
  Ne200    1.0000 0.23045  0.40136  0.39400  Biso   1.000  Ne
  Ne201    1.0000 0.28238  0.29138  0.89421  Biso   1.000  Ne
  He201    1.0000 0.24949  0.28629  0.89594  Biso   1.000  He
  He202    1.0000 0.23996  0.25496  0.89911  Biso   1.000  He
  Ne202    1.0000 0.20785  0.24588  0.89996  Biso   1.000  Ne
  Ne203    1.0000 0.08609  0.58910  0.68459  Biso   1.000  Ne
  He203    1.0000 0.08556  0.59958  0.71729  Biso   1.000  He
  He204    1.0000 0.09573  0.57733  0.73994  Biso   1.000  He
  Ne204    1.0000 0.08478  0.58224  0.77237  Biso   1.000  Ne
  Ne205    1.0000 0.73167  0.74313  0.67777  Biso   1.000  Ne
  He205    1.0000 0.72292  0.76434  0.65413  Biso   1.000  He
  He206    1.0000 0.72879  0.79700  0.65860  Biso   1.000  He
  Ne206    1.0000 0.72145  0.81698  0.63189  Biso   1.000  Ne
  Ne207    1.0000 0.62858  0.41976  0.27022  Biso   1.000  Ne
  He207    1.0000 0.61110  0.43101  0.29973  Biso   1.000  He
  He208    1.0000 0.59209  0.45636  0.29359  Biso   1.000  He
  Ne208    1.0000 0.57986  0.47151  0.32193  Biso   1.000  Ne
  Ne209    1.0000 0.00258  0.30304  0.20240  Biso   1.000  Ne
  He209    1.0000 0.97605  0.28771  0.21643  Biso   1.000  He
  He210    1.0000 0.96619  0.30378  0.24517  Biso   1.000  He
  Ne210    1.0000 0.94894  0.28425  0.26326  Biso   1.000  Ne
  Ne211    1.0000 0.43908  0.78221  0.44007  Biso   1.000  Ne
  He211    1.0000 0.44532  0.76512  0.41463  Biso   1.000  He
  He212    1.0000 0.43818  0.78029  0.38898  Biso   1.000  He
  Ne212    1.0000 0.44040  0.76439  0.36044  Biso   1.000  Ne
  Ne213    1.0000 0.89338  0.66473  0.36796  Biso   1.000  Ne
  He213    1.0000 0.91269  0.68600  0.34633  Biso   1.000  He
  He214    1.0000 0.91968  0.71498  0.35883  Biso   1.000  He
  Ne214    1.0000 0.94006  0.73586  0.33934  Biso   1.000  Ne
  Ne215    1.0000 0.27919  0.81759  0.87348  Biso   1.000  Ne
  He215    1.0000 0.30076  0.83084  0.89398  Biso   1.000  He
  He216    1.0000 0.29131  0.82750  0.92425  Biso   1.000  He
  Ne216    1.0000 0.31167  0.84162  0.94871  Biso   1.000  Ne
  Ne217    1.0000 0.71207  0.40405  0.79237  Biso   1.000  Ne
  He217    1.0000 0.70122  0.37201  0.78920  Biso   1.000  He
  He218    1.0000 0.67373  0.36495  0.80388  Biso   1.000  He
  Ne218    1.0000 0.66952  0.32893  0.80300  Biso   1.000  Ne
  Ne219    1.0000 0.33089  0.42638  0.09889  Biso   1.000  Ne
  He219    1.0000 0.30445  0.41764  0.11887  Biso   1.000  He
  He220    1.0000 0.27720  0.42890  0.10470  Biso   1.000  He
  Ne220    1.0000 0.24857  0.42080  0.11883  Biso   1.000  Ne
  Ne221    1.0000 0.60544  0.82531  0.32849  Biso   1.000  Ne
  He221    1.0000 0.61807  0.85575  0.32476  Biso   1.000  He
  He222    1.0000 0.60350  0.87526  0.34575  Biso   1.000  He
  Ne222    1.0000 0.61192  0.91006  0.34340  Biso   1.000  Ne
  Ne223    1.0000 0.60765  0.23894  0.94340  Biso   1.000  Ne
  He223    1.0000 0.60105  0.26195  0.92109  Biso   1.000  He
  He224    1.0000 0.61289  0.29026  0.92876  Biso   1.000  He
  Ne224    1.0000 0.60761  0.31526  0.90902  Biso   1.000  Ne
  Ne225    1.0000 0.29127  0.42312  0.94080  Biso   1.000  Ne
  He225    1.0000 0.27699  0.41476  0.91236  Biso   1.000  He
  He226    1.0000 0.24639  0.40258  0.91444  Biso   1.000  He
  Ne226    1.0000 0.22092  0.42496  0.91292  Biso   1.000  Ne
  Ne227    1.0000 0.50816  0.08681  0.56431  Biso   1.000  Ne
  He227    1.0000 0.49258  0.06459  0.58530  Biso   1.000  He
  He228    1.0000 0.49813  0.03093  0.58230  Biso   1.000  He
  Ne228    1.0000 0.48358  0.01404  0.60982  Biso   1.000  Ne
  Ne229    1.0000 0.62536  0.40941  0.09596  Biso   1.000  Ne
  He229    1.0000 0.63395  0.38019  0.08838  Biso   1.000  He
  He230    1.0000 0.66812  0.37602  0.08541  Biso   1.000  He
  Ne230    1.0000 0.67805  0.34527  0.08518  Biso   1.000  Ne
  Ne231    1.0000 0.77838  0.13599  0.09326  Biso   1.000  Ne
  He231    1.0000 0.76854  0.15710  0.11485  Biso   1.000  He
  He232    1.0000 0.77379  0.14763  0.14833  Biso   1.000  He
  Ne232    1.0000 0.76095  0.16587  0.17044  Biso   1.000  Ne
  Ne233    1.0000 0.68450  0.07347  0.40225  Biso   1.000  Ne
  He233    1.0000 0.68361  0.10584  0.38834  Biso   1.000  He
  He234    1.0000 0.68875  0.13355  0.40832  Biso   1.000  He
  Ne234    1.0000 0.67172  0.15899  0.40084  Biso   1.000  Ne
  Ne235    1.0000 0.62295  0.79028  0.68299  Biso   1.000  Ne
  He235    1.0000 0.61742  0.79731  0.65233  Biso   1.000  He
  He236    1.0000 0.59417  0.82113  0.64930  Biso   1.000  He
  Ne236    1.0000 0.58664  0.82934  0.61901  Biso   1.000  Ne
  Ne237    1.0000 0.66166  0.59004  0.24763  Biso   1.000  Ne
  He237    1.0000 0.66104  0.59362  0.21386  Biso   1.000  He
  He238    1.0000 0.68571  0.57821  0.19465  Biso   1.000  He
  Ne238    1.0000 0.68363  0.57907  0.16016  Biso   1.000  Ne
  Ne239    1.0000 0.64102  0.89685  0.67677  Biso   1.000  Ne
  He239    1.0000 0.65266  0.90223  0.64572  Biso   1.000  He
  He240    1.0000 0.63019  0.91086  0.62363  Biso   1.000  He
  Ne240    1.0000 0.64401  0.91402  0.59193  Biso   1.000  Ne
  Ne241    1.0000 0.17610  0.41656  0.46572  Biso   1.000  Ne
  He241    1.0000 0.14775  0.42134  0.45014  Biso   1.000  He
  He242    1.0000 0.14768  0.41496  0.41698  Biso   1.000  He
  Ne242    1.0000 0.11834  0.41533  0.40354  Biso   1.000  Ne
  Ne243    1.0000 0.56969  0.05446  0.62280  Biso   1.000  Ne
  He243    1.0000 0.60122  0.05278  0.61054  Biso   1.000  He
  He244    1.0000 0.60779  0.07452  0.58590  Biso   1.000  He
  Ne244    1.0000 0.63764  0.07933  0.57730  Biso   1.000  Ne
  Ne245    1.0000 0.10143  0.75139  0.63420  Biso   1.000  Ne
  He245    1.0000 0.09677  0.71646  0.62817  Biso   1.000  He
  He246    1.0000 0.09149  0.70727  0.59764  Biso   1.000  He
  Ne246    1.0000 0.08583  0.67745  0.59200  Biso   1.000  Ne
  Ne247    1.0000 0.43914  0.09932  0.69669  Biso   1.000  Ne
  He247    1.0000 0.42146  0.12805  0.69767  Biso   1.000  He
  He248    1.0000 0.43535  0.15167  0.71292  Biso   1.000  He
  Ne248    1.0000 0.41932  0.17930  0.71705  Biso   1.000  Ne
  Ne249    1.0000 0.83483  0.05051  0.09646  Biso   1.000  Ne
  He249    1.0000 0.84503  0.06833  0.12518  Biso   1.000  He
  He250    1.0000 0.85776  0.04959  0.14677  Biso   1.000  He
  Ne250    1.0000 0.86577  0.06694  0.17206  Biso   1.000  Ne
  Ne251    1.0000 0.81500  0.87744  0.10993  Biso   1.000  Ne
  He251    1.0000 0.84127  0.89856  0.11587  Biso   1.000  He
  He252    1.0000 0.87205  0.88930  0.10418  Biso   1.000  He
  Ne252    1.0000 0.89698  0.91341  0.10453  Biso   1.000  Ne
  Ne253    1.0000 0.28336  0.60578  0.95974  Biso   1.000  Ne
  He253    1.0000 0.25434  0.58618  0.96587  Biso   1.000  He
  He254    1.0000 0.23006  0.58780  0.94672  Biso   1.000  He
  Ne254    1.0000 0.20529  0.56972  0.95647  Biso   1.000  Ne
  Ne255    1.0000 0.41901  0.07040  0.34733  Biso   1.000  Ne
  He255    1.0000 0.40287  0.09842  0.36044  Biso   1.000  He
  He256    1.0000 0.39985  0.12385  0.33986  Biso   1.000  He
  Ne256    1.0000 0.38256  0.14842  0.35463  Biso   1.000  Ne
  Ne257    1.0000 0.13999  0.70583  0.02222  Biso   1.000  Ne
  He257    1.0000 0.17165  0.69832  0.01458  Biso   1.000  He
  He258    1.0000 0.17564  0.67305  0.99446  Biso   1.000  He
  Ne258    1.0000 0.20516  0.66269  0.98784  Biso   1.000  Ne
  Ne259    1.0000 0.40225  0.30069  0.57507  Biso   1.000  Ne
  He259    1.0000 0.39052  0.27521  0.59230  Biso   1.000  He
  He260    1.0000 0.36269  0.28544  0.60698  Biso   1.000  He
  Ne260    1.0000 0.34354  0.26077  0.62348  Biso   1.000  Ne
  Ne261    1.0000 0.01320  0.27488  0.90850  Biso   1.000  Ne
  He261    1.0000 0.02979  0.24459  0.91320  Biso   1.000  He
  He262    1.0000 0.06138  0.24718  0.92270  Biso   1.000  He
  Ne262    1.0000 0.07254  0.21800  0.93283  Biso   1.000  Ne
  Ne263    1.0000 0.85197  0.68807  0.44596  Biso   1.000  Ne
  He263    1.0000 0.88025  0.69970  0.46346  Biso   1.000  He
  He264    1.0000 0.90085  0.71824  0.44599  Biso   1.000  He
  Ne264    1.0000 0.92322  0.73679  0.46602  Biso   1.000  Ne
  Ne265    1.0000 0.14072  0.57293  0.46719  Biso   1.000  Ne
  He265    1.0000 0.11155  0.58461  0.47536  Biso   1.000  He
  He266    1.0000 0.09077  0.59154  0.45053  Biso   1.000  He
  Ne266    1.0000 0.06232  0.60680  0.46092  Biso   1.000  Ne
  Ne267    1.0000 0.78124  0.38675  0.33207  Biso   1.000  Ne
  He267    1.0000 0.75763  0.40479  0.34700  Biso   1.000  He
  He268    1.0000 0.76970  0.41994  0.37376  Biso   1.000  He
  Ne268    1.0000 0.75962  0.40968  0.40286  Biso   1.000  Ne
  Ne269    1.0000 0.56064  0.91950  0.54197  Biso   1.000  Ne
  He269    1.0000 0.54335  0.92524  0.57082  Biso   1.000  He
  He270    1.0000 0.56219  0.94254  0.59097  Biso   1.000  He
  Ne270    1.0000 0.54709  0.95591  0.61738  Biso   1.000  Ne
  Ne271    1.0000 0.17271  0.60789  0.71358  Biso   1.000  Ne
  He271    1.0000 0.19277  0.59775  0.68735  Biso   1.000  He
  He272    1.0000 0.17311  0.60089  0.65754  Biso   1.000  He
  Ne272    1.0000 0.18855  0.59783  0.62828  Biso   1.000  Ne
  Ne273    1.0000 0.58189  0.29713  0.49639  Biso   1.000  Ne
  He273    1.0000 0.60696  0.29496  0.47362  Biso   1.000  He
  He274    1.0000 0.59830  0.28842  0.44216  Biso   1.000  He
  Ne274    1.0000 0.62355  0.28141  0.42039  Biso   1.000  Ne
  Ne275    1.0000 0.37208  0.44038  0.96071  Biso   1.000  Ne
  He275    1.0000 0.40122  0.42838  0.94509  Biso   1.000  He
  He276    1.0000 0.40133  0.42337  0.91327  Biso   1.000  He
  Ne276    1.0000 0.43043  0.41870  0.89732  Biso   1.000  Ne
  Ne277    1.0000 0.57065  0.67666  0.82080  Biso   1.000  Ne
  He277    1.0000 0.58566  0.64984  0.80834  Biso   1.000  He
  He278    1.0000 0.56189  0.63302  0.78897  Biso   1.000  He
  Ne278    1.0000 0.57291  0.60383  0.77703  Biso   1.000  Ne
  Ne279    1.0000 0.90687  0.36723  0.71518  Biso   1.000  Ne
  He279    1.0000 0.90305  0.33652  0.73070  Biso   1.000  He
  He280    1.0000 0.88517  0.33739  0.76070  Biso   1.000  He
  Ne280    1.0000 0.87625  0.30734  0.77096  Biso   1.000  Ne
  Ne281    1.0000 0.89631  0.43510  0.45053  Biso   1.000  Ne
  He281    1.0000 0.91372  0.41830  0.42795  Biso   1.000  He
  He282    1.0000 0.91642  0.42822  0.39840  Biso   1.000  He
  Ne282    1.0000 0.93474  0.40970  0.37805  Biso   1.000  Ne
  Ne283    1.0000 0.42102  0.85551  0.61202  Biso   1.000  Ne
  He283    1.0000 0.40452  0.83316  0.62644  Biso   1.000  He
  He284    1.0000 0.41075  0.80303  0.61547  Biso   1.000  He
  Ne284    1.0000 0.39090  0.78383  0.63309  Biso   1.000  Ne
  Ne285    1.0000 0.98839  0.56263  0.50274  Biso   1.000  Ne
  He285    1.0000 0.98613  0.57868  0.53485  Biso   1.000  He
  He286    1.0000 0.98827  0.55763  0.55810  Biso   1.000  He
  Ne286    1.0000 0.98932  0.57106  0.58949  Biso   1.000  Ne
  Ne287    1.0000 0.37542  0.40257  0.18749  Biso   1.000  Ne
  He287    1.0000 0.38881  0.37746  0.16925  Biso   1.000  He
  He288    1.0000 0.42099  0.38128  0.16215  Biso   1.000  He
  Ne288    1.0000 0.43074  0.35410  0.14697  Biso   1.000  Ne
  Ne289    1.0000 0.29067  0.61145  0.87282  Biso   1.000  Ne
  He289    1.0000 0.26129  0.60140  0.85947  Biso   1.000  He
  He290    1.0000 0.25954  0.61223  0.82685  Biso   1.000  He
  Ne290    1.0000 0.23518  0.59603  0.81230  Biso   1.000  Ne
  Ne291    1.0000 0.42028  0.32771  0.91327  Biso   1.000  Ne
  He291    1.0000 0.39093  0.33687  0.92417  Biso   1.000  He
  He292    1.0000 0.36741  0.34908  0.90370  Biso   1.000  He
  Ne292    1.0000 0.34013  0.35984  0.91779  Biso   1.000  Ne
  Ne293    1.0000 0.18481  0.57525  0.38684  Biso   1.000  Ne
  He293    1.0000 0.21476  0.58218  0.37541  Biso   1.000  He
  He294    1.0000 0.21237  0.59634  0.34624  Biso   1.000  He
  Ne294    1.0000 0.24128  0.60482  0.33302  Biso   1.000  Ne
  Ne295    1.0000 0.84229  0.06858  0.91686  Biso   1.000  Ne
  He295    1.0000 0.81469  0.08235  0.90396  Biso   1.000  He
  He296    1.0000 0.79922  0.10489  0.92494  Biso   1.000  He
  Ne296    1.0000 0.76999  0.11632  0.91536  Biso   1.000  Ne
  Ne297    1.0000 0.09615  0.09107  0.07435  Biso   1.000  Ne
  He297    1.0000 0.07471  0.06450  0.07329  Biso   1.000  He
  He298    1.0000 0.08175  0.04462  0.04733  Biso   1.000  He
  Ne298    1.0000 0.05985  0.01880  0.04355  Biso   1.000  Ne
  Ne299    1.0000 0.43010  0.42092  0.07166  Biso   1.000  Ne
  He299    1.0000 0.46031  0.43701  0.06951  Biso   1.000  He
  He300    1.0000 0.48082  0.43533  0.09731  Biso   1.000  He
  Ne300    1.0000 0.51052  0.44937  0.09365  Biso   1.000  Ne
  Ne301    1.0000 0.17267  0.41753  0.75392  Biso   1.000  Ne
  He301    1.0000 0.15019  0.41763  0.72841  Biso   1.000  He
  He302    1.0000 0.16497  0.41777  0.69871  Biso   1.000  He
  Ne302    1.0000 0.14462  0.42559  0.67216  Biso   1.000  Ne
  Ne303    1.0000 0.22068  0.81981  0.41705  Biso   1.000  Ne
  He303    1.0000 0.19410  0.83039  0.43521  Biso   1.000  He
  He304    1.0000 0.17276  0.80765  0.44421  Biso   1.000  He
  Ne304    1.0000 0.15058  0.81668  0.46858  Biso   1.000  Ne
  Ne305    1.0000 0.67659  0.18714  0.58115  Biso   1.000  Ne
  He305    1.0000 0.68475  0.15526  0.57366  Biso   1.000  He
  He306    1.0000 0.71587  0.15047  0.58264  Biso   1.000  He
  Ne306    1.0000 0.72367  0.11861  0.58057  Biso   1.000  Ne
  Ne307    1.0000 0.69448  0.80872  0.00807  Biso   1.000  Ne
  He307    1.0000 0.71068  0.81462  0.03455  Biso   1.000  He
  He308    1.0000 0.74330  0.80348  0.03441  Biso   1.000  He
  Ne308    1.0000 0.76034  0.80948  0.06165  Biso   1.000  Ne
  Ne309    1.0000 0.94468  0.43252  0.56949  Biso   1.000  Ne
  He309    1.0000 0.92830  0.41924  0.59491  Biso   1.000  He
  He310    1.0000 0.93718  0.43493  0.62378  Biso   1.000  He
  Ne310    1.0000 0.91900  0.42731  0.65164  Biso   1.000  Ne
  Ne311    1.0000 0.89076  0.23480  0.84014  Biso   1.000  Ne
  He311    1.0000 0.89347  0.20452  0.85405  Biso   1.000  He
  He312    1.0000 0.89656  0.17854  0.83407  Biso   1.000  He
  Ne312    1.0000 0.89529  0.15014  0.84853  Biso   1.000  Ne
  Ne313    1.0000 0.77945  0.12417  0.64928  Biso   1.000  Ne
  He313    1.0000 0.76085  0.10126  0.66621  Biso   1.000  He
  He314    1.0000 0.77671  0.07476  0.67554  Biso   1.000  He
  Ne314    1.0000 0.75708  0.05102  0.69398  Biso   1.000  Ne
  Ne315    1.0000 0.57464  0.44675  0.80832  Biso   1.000  Ne
  He315    1.0000 0.57871  0.42365  0.78396  Biso   1.000  He
  He316    1.0000 0.59255  0.39563  0.79648  Biso   1.000  He
  Ne316    1.0000 0.60025  0.37180  0.77290  Biso   1.000  Ne
  Ne317    1.0000 0.68620  0.10750  0.96203  Biso   1.000  Ne
  He317    1.0000 0.71142  0.08774  0.97271  Biso   1.000  He
  He318    1.0000 0.70477  0.05570  0.96128  Biso   1.000  He
  Ne318    1.0000 0.72968  0.03329  0.96814  Biso   1.000  Ne
  Ne319    1.0000 0.42779  0.23314  0.44458  Biso   1.000  Ne
  He319    1.0000 0.43393  0.20454  0.43320  Biso   1.000  He
  He320    1.0000 0.41386  0.17920  0.44544  Biso   1.000  He
  Ne320    1.0000 0.42626  0.15188  0.44102  Biso   1.000  Ne
  Ne321    1.0000 0.32966  0.72133  0.43493  Biso   1.000  Ne
  He321    1.0000 0.30121  0.72911  0.41782  Biso   1.000  He
  He322    1.0000 0.27381  0.72010  0.43631  Biso   1.000  He
  Ne322    1.0000 0.24705  0.72494  0.42215  Biso   1.000  Ne
  Ne323    1.0000 0.30605  0.14027  0.41487  Biso   1.000  Ne
  He323    1.0000 0.31950  0.11395  0.42578  Biso   1.000  He
  He324    1.0000 0.34915  0.11622  0.44045  Biso   1.000  He
  Ne324    1.0000 0.36596  0.09115  0.44543  Biso   1.000  Ne
  Ne325    1.0000 0.35490  0.58066  0.15473  Biso   1.000  Ne
  He325    1.0000 0.34353  0.58673  0.18611  Biso   1.000  He
  He326    1.0000 0.36284  0.57532  0.21079  Biso   1.000  He
  Ne326    1.0000 0.34861  0.58040  0.24124  Biso   1.000  Ne
  Ne327    1.0000 0.63262  0.80184  0.21184  Biso   1.000  Ne
  He327    1.0000 0.63488  0.77230  0.22328  Biso   1.000  He
  He328    1.0000 0.66662  0.76115  0.22981  Biso   1.000  He
  Ne328    1.0000 0.66770  0.73280  0.24407  Biso   1.000  Ne
  Ne329    1.0000 0.75793  0.06602  0.17809  Biso   1.000  Ne
  He329    1.0000 0.75070  0.04716  0.15475  Biso   1.000  He
  He330    1.0000 0.74201  0.06144  0.12518  Biso   1.000  He
  Ne330    1.0000 0.73462  0.03784  0.10251  Biso   1.000  Ne
  Ne331    1.0000 0.69532  0.26490  0.64789  Biso   1.000  Ne
  He331    1.0000 0.70621  0.23688  0.65638  Biso   1.000  He
  He332    1.0000 0.72054  0.21826  0.63293  Biso   1.000  He
  Ne332    1.0000 0.73300  0.19196  0.64603  Biso   1.000  Ne
  Ne333    1.0000 0.57496  0.68671  0.91609  Biso   1.000  Ne
  He333    1.0000 0.57817  0.71945  0.92226  Biso   1.000  He
  He334    1.0000 0.59540  0.72772  0.94962  Biso   1.000  He
  Ne334    1.0000 0.60369  0.75707  0.95463  Biso   1.000  Ne
  Ne335    1.0000 0.92769  0.30876  0.36509  Biso   1.000  Ne
  He335    1.0000 0.93253  0.30702  0.39829  Biso   1.000  He
  He336    1.0000 0.94096  0.33803  0.40913  Biso   1.000  He
  Ne336    1.0000 0.94265  0.33903  0.44215  Biso   1.000  Ne
  Ne337    1.0000 0.59635  0.58903  0.90398  Biso   1.000  Ne
  He337    1.0000 0.62891  0.58791  0.90713  Biso   1.000  He
  He338    1.0000 0.64301  0.60250  0.93420  Biso   1.000  He
  Ne338    1.0000 0.67409  0.60239  0.93224  Biso   1.000  Ne
  Ne339    1.0000 0.33090  0.86070  0.33163  Biso   1.000  Ne
  He339    1.0000 0.31431  0.87480  0.35773  Biso   1.000  He
  He340    1.0000 0.30603  0.90790  0.35031  Biso   1.000  He
  Ne340    1.0000 0.28118  0.92116  0.37235  Biso   1.000  Ne
  Ne341    1.0000 0.68825  0.34033  0.29996  Biso   1.000  Ne
  He341    1.0000 0.69932  0.34660  0.26791  Biso   1.000  He
  He342    1.0000 0.70519  0.32271  0.24849  Biso   1.000  He
  Ne342    1.0000 0.71401  0.33321  0.21881  Biso   1.000  Ne
  Ne343    1.0000 0.82797  0.74114  0.61798  Biso   1.000  Ne
  He343    1.0000 0.81312  0.71576  0.63659  Biso   1.000  He
  He344    1.0000 0.81077  0.68738  0.61776  Biso   1.000  He
  Ne344    1.0000 0.79830  0.66229  0.63375  Biso   1.000  Ne
  Ne345    1.0000 0.07723  0.10044  0.83298  Biso   1.000  Ne
  He345    1.0000 0.08721  0.10692  0.86486  Biso   1.000  He
  He346    1.0000 0.06919  0.12581  0.88181  Biso   1.000  He
  Ne346    1.0000 0.07850  0.12877  0.91410  Biso   1.000  Ne
  Ne347    1.0000 0.58710  0.57534  0.13876  Biso   1.000  Ne
  He347    1.0000 0.60025  0.57760  0.10740  Biso   1.000  He
  He348    1.0000 0.62470  0.55667  0.10377  Biso   1.000  He
  Ne348    1.0000 0.63474  0.55210  0.07093  Biso   1.000  Ne
  Ne349    1.0000 0.59441  0.36711  0.38142  Biso   1.000  Ne
  He349    1.0000 0.56970  0.37801  0.40266  Biso   1.000  He
  He350    1.0000 0.54097  0.36211  0.40765  Biso   1.000  He
  Ne350    1.0000 0.52086  0.37613  0.43326  Biso   1.000  Ne
  Ne351    1.0000 0.90253  0.13229  0.93583  Biso   1.000  Ne
  He351    1.0000 0.87251  0.14695  0.93137  Biso   1.000  He
  He352    1.0000 0.87552  0.17391  0.94637  Biso   1.000  He
  Ne352    1.0000 0.84887  0.19268  0.94571  Biso   1.000  Ne
  Ne353    1.0000 0.57095  0.22892  0.58703  Biso   1.000  Ne
  He353    1.0000 0.57270  0.21086  0.61614  Biso   1.000  He
  He354    1.0000 0.60157  0.21216  0.63242  Biso   1.000  He
  Ne354    1.0000 0.60040  0.19818  0.66237  Biso   1.000  Ne
  Ne355    1.0000 0.42440  0.83744  0.80669  Biso   1.000  Ne
  He355    1.0000 0.41978  0.81617  0.77953  Biso   1.000  He
  He356    1.0000 0.39397  0.79603  0.77711  Biso   1.000  He
  Ne356    1.0000 0.39444  0.77425  0.75188  Biso   1.000  Ne
  Ne357    1.0000 0.22144  0.09632  0.94407  Biso   1.000  Ne
  He357    1.0000 0.19293  0.08095  0.93904  Biso   1.000  He
  He358    1.0000 0.16450  0.09701  0.94347  Biso   1.000  He
  Ne358    1.0000 0.13590  0.07690  0.94430  Biso   1.000  Ne
  Ne359    1.0000 0.61073  0.91799  0.43641  Biso   1.000  Ne
  He359    1.0000 0.64333  0.91523  0.43738  Biso   1.000  He
  He360    1.0000 0.66005  0.91968  0.40908  Biso   1.000  He
  Ne360    1.0000 0.69382  0.92308  0.41664  Biso   1.000  Ne
