data_image0
_cell_length_a       47.227
_cell_length_b       46.4712
_cell_length_c       46.5147
_cell_angle_alpha    90
_cell_angle_beta     90
_cell_angle_gamma    90

_symmetry_space_group_name_H-M    "P 1"
_symmetry_int_tables_number       1

loop_
  _symmetry_equiv_pos_as_xyz
  'x, y, z'

loop_
  _atom_site_label
  _atom_site_occupancy
  _atom_site_fract_x
  _atom_site_fract_y
  _atom_site_fract_z
  _atom_site_thermal_displace_type
  _atom_site_B_iso_or_equiv
  _atom_site_type_symbol
  Ne1      1.0000 0.96765  0.67350  0.88374  Biso   1.000  Ne
  He1      1.0000 0.95579  0.69667  0.86181  Biso   1.000  He
  He2      1.0000 0.93417  0.68536  0.84106  Biso   1.000  He
  Ne2      1.0000 0.93216  0.70416  0.81696  Biso   1.000  Ne
  Ne3      1.0000 0.08172  0.19871  0.33810  Biso   1.000  Ne
  He3      1.0000 0.11186  0.18543  0.34267  Biso   1.000  He
  He4      1.0000 0.12558  0.20440  0.36802  Biso   1.000  He
  Ne4      1.0000 0.15680  0.19488  0.37423  Biso   1.000  Ne
  Ne5      1.0000 0.84608  0.04267  0.72686  Biso   1.000  Ne
  He5      1.0000 0.87855  0.04064  0.73679  Biso   1.000  He
  He6      1.0000 0.88340  0.04561  0.76875  Biso   1.000  He
  Ne6      1.0000 0.91706  0.03917  0.77955  Biso   1.000  Ne
  Ne7      1.0000 0.32267  0.37195  0.73382  Biso   1.000  Ne
  He7      1.0000 0.30853  0.39273  0.71397  Biso   1.000  He
  He8      1.0000 0.32196  0.39701  0.68232  Biso   1.000  He
  Ne8      1.0000 0.30539  0.41916  0.66487  Biso   1.000  Ne
  Ne9      1.0000 0.59631  0.45090  0.95048  Biso   1.000  Ne
  He9      1.0000 0.56397  0.44025  0.94577  Biso   1.000  He
  He10     1.0000 0.55550  0.40964  0.95845  Biso   1.000  He
  Ne10     1.0000 0.52549  0.40256  0.95362  Biso   1.000  Ne
  Ne11     1.0000 0.91832  0.91993  0.13123  Biso   1.000  Ne
  He11     1.0000 0.93288  0.91080  0.15629  Biso   1.000  He
  He12     1.0000 0.91385  0.89686  0.17710  Biso   1.000  He
  Ne12     1.0000 0.91707  0.86122  0.17988  Biso   1.000  Ne
  Ne13     1.0000 0.09749  0.08374  0.29686  Biso   1.000  Ne
  He13     1.0000 0.10209  0.11001  0.27746  Biso   1.000  He
  He14     1.0000 0.13445  0.11733  0.26468  Biso   1.000  He
  Ne14     1.0000 0.13848  0.14563  0.24649  Biso   1.000  Ne
  Ne15     1.0000 0.24675  0.76496  0.35657  Biso   1.000  Ne
  He15     1.0000 0.21471  0.75874  0.36608  Biso   1.000  He
  He16     1.0000 0.20946  0.75357  0.39810  Biso   1.000  He
  Ne16     1.0000 0.19895  0.78214  0.41154  Biso   1.000  Ne
  Ne17     1.0000 0.40969  0.06905  0.72259  Biso   1.000  Ne
  He17     1.0000 0.38027  0.05938  0.70866  Biso   1.000  He
  He18     1.0000 0.36834  0.07826  0.68290  Biso   1.000  He
  Ne18     1.0000 0.33549  0.07278  0.67381  Biso   1.000  Ne
  Ne19     1.0000 0.48998  0.05562  0.43207  Biso   1.000  Ne
  He19     1.0000 0.47285  0.05196  0.46162  Biso   1.000  He
  He20     1.0000 0.45129  0.02349  0.46020  Biso   1.000  He
  Ne20     1.0000 0.43670  0.01545  0.49223  Biso   1.000  Ne
  Ne21     1.0000 0.95461  0.13795  0.09896  Biso   1.000  Ne
  He21     1.0000 0.94330  0.15189  0.12748  Biso   1.000  He
  He22     1.0000 0.94705  0.18472  0.13092  Biso   1.000  He
  Ne22     1.0000 0.93906  0.19433  0.16374  Biso   1.000  Ne
  Ne23     1.0000 0.46485  0.36416  0.13946  Biso   1.000  Ne
  He23     1.0000 0.44301  0.37162  0.11718  Biso   1.000  He
  He24     1.0000 0.41261  0.38361  0.12999  Biso   1.000  He
  Ne24     1.0000 0.39215  0.39673  0.10649  Biso   1.000  Ne
  Ne25     1.0000 0.92402  0.54608  0.81495  Biso   1.000  Ne
  He25     1.0000 0.94368  0.55902  0.79284  Biso   1.000  He
  He26     1.0000 0.92766  0.56854  0.76501  Biso   1.000  He
  Ne26     1.0000 0.94844  0.57776  0.74057  Biso   1.000  Ne
  Ne27     1.0000 0.72247  0.81079  0.42229  Biso   1.000  Ne
  He27     1.0000 0.72698  0.84326  0.41667  Biso   1.000  He
  He28     1.0000 0.75618  0.85696  0.42216  Biso   1.000  He
  Ne28     1.0000 0.75831  0.89044  0.41782  Biso   1.000  Ne
  Ne29     1.0000 0.58799  0.52429  0.95915  Biso   1.000  Ne
  He29     1.0000 0.59185  0.53738  0.99055  Biso   1.000  He
  He30     1.0000 0.58975  0.51471  0.01118  Biso   1.000  He
  Ne30     1.0000 0.59436  0.52255  0.04336  Biso   1.000  Ne
  Ne31     1.0000 0.39580  0.30659  0.10420  Biso   1.000  Ne
  He31     1.0000 0.41706  0.28527  0.08910  Biso   1.000  He
  He32     1.0000 0.44292  0.27640  0.10486  Biso   1.000  He
  Ne32     1.0000 0.46382  0.25789  0.08584  Biso   1.000  Ne
  Ne33     1.0000 0.58233  0.60984  0.94983  Biso   1.000  Ne
  He33     1.0000 0.58110  0.63613  0.92854  Biso   1.000  He
  He34     1.0000 0.60808  0.65579  0.92870  Biso   1.000  He
  Ne34     1.0000 0.60652  0.68379  0.91148  Biso   1.000  Ne
  Ne35     1.0000 0.68556  0.50101  0.42823  Biso   1.000  Ne
  He35     1.0000 0.71229  0.48632  0.43842  Biso   1.000  He
  He36     1.0000 0.71002  0.45533  0.45069  Biso   1.000  He
  Ne36     1.0000 0.74289  0.44301  0.45868  Biso   1.000  Ne
  Ne37     1.0000 0.22403  0.69793  0.11637  Biso   1.000  Ne
  He37     1.0000 0.20347  0.72028  0.10627  Biso   1.000  He
  He38     1.0000 0.20822  0.74995  0.12168  Biso   1.000  He
  Ne38     1.0000 0.18599  0.77449  0.11900  Biso   1.000  Ne
  Ne39     1.0000 0.83826  0.36719  0.66083  Biso   1.000  Ne
  He39     1.0000 0.84662  0.38072  0.63129  Biso   1.000  He
  He40     1.0000 0.82410  0.37478  0.60557  Biso   1.000  He
  Ne40     1.0000 0.82288  0.39978  0.58373  Biso   1.000  Ne
  Ne41     1.0000 0.10286  0.62516  0.63829  Biso   1.000  Ne
  He41     1.0000 0.10794  0.65643  0.62625  Biso   1.000  He
  He42     1.0000 0.11968  0.68013  0.65016  Biso   1.000  He
  Ne42     1.0000 0.11405  0.71319  0.64198  Biso   1.000  Ne
  Ne43     1.0000 0.39915  0.54138  0.07868  Biso   1.000  Ne
  He43     1.0000 0.41586  0.54097  0.10667  Biso   1.000  He
  He44     1.0000 0.44858  0.53885  0.10052  Biso   1.000  He
  Ne44     1.0000 0.46859  0.53878  0.12551  Biso   1.000  Ne
  Ne45     1.0000 0.10396  0.42261  0.53494  Biso   1.000  Ne
  He45     1.0000 0.09204  0.42418  0.56513  Biso   1.000  He
  He46     1.0000 0.06034  0.41605  0.56251  Biso   1.000  He
  Ne46     1.0000 0.04366  0.41632  0.59123  Biso   1.000  Ne
  Ne47     1.0000 0.30094  0.69180  0.37926  Biso   1.000  Ne
  He47     1.0000 0.30115  0.67331  0.40805  Biso   1.000  He
  He48     1.0000 0.32746  0.67999  0.42773  Biso   1.000  He
  Ne48     1.0000 0.35490  0.65990  0.42128  Biso   1.000  Ne
  Ne49     1.0000 0.22972  0.11841  0.25290  Biso   1.000  Ne
  He49     1.0000 0.23166  0.13593  0.28112  Biso   1.000  He
  He50     1.0000 0.26106  0.14794  0.29009  Biso   1.000  He
  Ne50     1.0000 0.25735  0.16562  0.31382  Biso   1.000  Ne
  Ne51     1.0000 0.24490  0.79611  0.86396  Biso   1.000  Ne
  He51     1.0000 0.24214  0.83005  0.86036  Biso   1.000  He
  He52     1.0000 0.26337  0.84368  0.83755  Biso   1.000  He
  Ne52     1.0000 0.26544  0.87646  0.83053  Biso   1.000  Ne
  Ne53     1.0000 0.13052  0.61686  0.18864  Biso   1.000  Ne
  He53     1.0000 0.15816  0.61384  0.17105  Biso   1.000  He
  He54     1.0000 0.15612  0.59111  0.14650  Biso   1.000  He
  Ne54     1.0000 0.18085  0.59210  0.12835  Biso   1.000  Ne
  Ne55     1.0000 0.12103  0.54830  0.58244  Biso   1.000  Ne
  He55     1.0000 0.09242  0.53827  0.59074  Biso   1.000  He
  He56     1.0000 0.07850  0.51319  0.57325  Biso   1.000  He
  Ne56     1.0000 0.05137  0.50514  0.58930  Biso   1.000  Ne
  Ne57     1.0000 0.88298  0.90320  0.71832  Biso   1.000  Ne
  He57     1.0000 0.88206  0.93170  0.70254  Biso   1.000  He
  He58     1.0000 0.86871  0.92887  0.66899  Biso   1.000  He
  Ne58     1.0000 0.87214  0.95598  0.65032  Biso   1.000  Ne
  Ne59     1.0000 0.39574  0.82034  0.32098  Biso   1.000  Ne
  He59     1.0000 0.39743  0.85216  0.33311  Biso   1.000  He
  He60     1.0000 0.39172  0.85459  0.36508  Biso   1.000  He
  Ne60     1.0000 0.39703  0.88387  0.37968  Biso   1.000  Ne
  Ne61     1.0000 0.11653  0.12247  0.93033  Biso   1.000  Ne
  He61     1.0000 0.13189  0.15350  0.92783  Biso   1.000  He
  He62     1.0000 0.16565  0.15478  0.91973  Biso   1.000  He
  Ne62     1.0000 0.17578  0.18660  0.91988  Biso   1.000  Ne
  Ne63     1.0000 0.32697  0.26639  0.09816  Biso   1.000  Ne
  He63     1.0000 0.32254  0.25442  0.12959  Biso   1.000  He
  He64     1.0000 0.32716  0.27893  0.15362  Biso   1.000  He
  Ne64     1.0000 0.31881  0.26974  0.18319  Biso   1.000  Ne
  Ne65     1.0000 0.41296  0.10118  0.58596  Biso   1.000  Ne
  He65     1.0000 0.41785  0.13004  0.57001  Biso   1.000  He
  He66     1.0000 0.43733  0.15070  0.58606  Biso   1.000  He
  Ne66     1.0000 0.44189  0.17589  0.56509  Biso   1.000  Ne
  Ne67     1.0000 0.49428  0.12676  0.20304  Biso   1.000  Ne
  He67     1.0000 0.49792  0.14758  0.17860  Biso   1.000  He
  He68     1.0000 0.52803  0.14636  0.16092  Biso   1.000  He
  Ne68     1.0000 0.53126  0.17249  0.14030  Biso   1.000  Ne
  Ne69     1.0000 0.57610  0.44195  0.06908  Biso   1.000  Ne
  He69     1.0000 0.59090  0.41147  0.05987  Biso   1.000  He
  He70     1.0000 0.58616  0.38525  0.07952  Biso   1.000  He
  Ne70     1.0000 0.60343  0.35837  0.06951  Biso   1.000  Ne
  Ne71     1.0000 0.20941  0.05323  0.11013  Biso   1.000  Ne
  He71     1.0000 0.23880  0.07014  0.10955  Biso   1.000  He
  He72     1.0000 0.26356  0.05943  0.09311  Biso   1.000  He
  Ne72     1.0000 0.28882  0.08231  0.09378  Biso   1.000  Ne
  Ne73     1.0000 0.77336  0.03910  0.39867  Biso   1.000  Ne
  He73     1.0000 0.75632  0.06616  0.40407  Biso   1.000  He
  He74     1.0000 0.72755  0.06219  0.38750  Biso   1.000  He
  Ne74     1.0000 0.70229  0.08326  0.39701  Biso   1.000  Ne
  Ne75     1.0000 0.11141  0.11353  0.42971  Biso   1.000  Ne
  He75     1.0000 0.13477  0.14152  0.43354  Biso   1.000  He
  He76     1.0000 0.12521  0.16713  0.45519  Biso   1.000  He
  Ne76     1.0000 0.15086  0.18604  0.46395  Biso   1.000  Ne
  Ne77     1.0000 0.93678  0.26457  0.22601  Biso   1.000  Ne
  He77     1.0000 0.94312  0.27410  0.25694  Biso   1.000  He
  He78     1.0000 0.94235  0.30643  0.26250  Biso   1.000  He
  Ne78     1.0000 0.93576  0.31500  0.29367  Biso   1.000  Ne
  Ne79     1.0000 0.43733  0.81001  0.70632  Biso   1.000  Ne
  He79     1.0000 0.43705  0.84192  0.69388  Biso   1.000  He
  He80     1.0000 0.45418  0.86097  0.71375  Biso   1.000  He
  Ne80     1.0000 0.45303  0.89264  0.70554  Biso   1.000  Ne
  Ne81     1.0000 0.69007  0.59334  0.07899  Biso   1.000  Ne
  He81     1.0000 0.68529  0.58057  0.10827  Biso   1.000  He
  He82     1.0000 0.71190  0.57817  0.13140  Biso   1.000  He
  Ne82     1.0000 0.70414  0.55968  0.15756  Biso   1.000  Ne
  Ne83     1.0000 0.08029  0.04734  0.77545  Biso   1.000  Ne
  He83     1.0000 0.09335  0.07564  0.77906  Biso   1.000  He
  He84     1.0000 0.09755  0.08222  0.81371  Biso   1.000  He
  Ne84     1.0000 0.10806  0.11368  0.82132  Biso   1.000  Ne
  Ne85     1.0000 0.15572  0.90049  0.18784  Biso   1.000  Ne
  He85     1.0000 0.13031  0.88390  0.17405  Biso   1.000  He
  He86     1.0000 0.10152  0.89483  0.18339  Biso   1.000  He
  Ne86     1.0000 0.07809  0.87141  0.17761  Biso   1.000  Ne
  Ne87     1.0000 0.11608  0.07831  0.09583  Biso   1.000  Ne
  He87     1.0000 0.09060  0.05890  0.08651  Biso   1.000  He
  He88     1.0000 0.09044  0.02899  0.10372  Biso   1.000  He
  Ne88     1.0000 0.06450  0.00669  0.09936  Biso   1.000  Ne
  Ne89     1.0000 0.94069  0.29526  0.57478  Biso   1.000  Ne
  He89     1.0000 0.91334  0.30097  0.59104  Biso   1.000  He
  He90     1.0000 0.88584  0.30298  0.57206  Biso   1.000  He
  Ne90     1.0000 0.85652  0.30582  0.59096  Biso   1.000  Ne
  Ne91     1.0000 0.33782  0.36491  0.91307  Biso   1.000  Ne
  He91     1.0000 0.35607  0.38781  0.92808  Biso   1.000  He
  He92     1.0000 0.38554  0.37653  0.93719  Biso   1.000  He
  Ne92     1.0000 0.40537  0.39699  0.94832  Biso   1.000  Ne
  Ne93     1.0000 0.60467  0.82710  0.37625  Biso   1.000  Ne
  He93     1.0000 0.60418  0.81314  0.40524  Biso   1.000  He
  He94     1.0000 0.62302  0.78361  0.40778  Biso   1.000  He
  Ne94     1.0000 0.60597  0.75710  0.42229  Biso   1.000  Ne
  Ne95     1.0000 0.06843  0.95064  0.93081  Biso   1.000  Ne
  He95     1.0000 0.07369  0.92778  0.95469  Biso   1.000  He
  He96     1.0000 0.06627  0.89565  0.94793  Biso   1.000  He
  Ne96     1.0000 0.06988  0.87716  0.97444  Biso   1.000  Ne
  Ne97     1.0000 0.14427  0.57068  0.79206  Biso   1.000  Ne
  He97     1.0000 0.12929  0.55300  0.76723  Biso   1.000  He
  He98     1.0000 0.11939  0.56903  0.73771  Biso   1.000  He
  Ne98     1.0000 0.10287  0.54883  0.71373  Biso   1.000  Ne
  Ne99     1.0000 0.25482  0.55295  0.91497  Biso   1.000  Ne
  He99     1.0000 0.24923  0.56963  0.94201  Biso   1.000  He
  He100    1.0000 0.26098  0.59847  0.94036  Biso   1.000  He
  Ne100    1.0000 0.24983  0.61800  0.96688  Biso   1.000  Ne
  Ne101    1.0000 0.16961  0.10497  0.14839  Biso   1.000  Ne
  He101    1.0000 0.14927  0.10220  0.17414  Biso   1.000  He
  He102    1.0000 0.12817  0.07630  0.17083  Biso   1.000  He
  Ne102    1.0000 0.11160  0.07076  0.19844  Biso   1.000  Ne
  Ne103    1.0000 0.30424  0.62321  0.59305  Biso   1.000  Ne
  He103    1.0000 0.31454  0.59474  0.57965  Biso   1.000  He
  He104    1.0000 0.29245  0.57417  0.56481  Biso   1.000  He
  Ne104    1.0000 0.30254  0.54565  0.55159  Biso   1.000  Ne
  Ne105    1.0000 0.25715  0.09798  0.38953  Biso   1.000  Ne
  He105    1.0000 0.24761  0.13103  0.39940  Biso   1.000  He
  He106    1.0000 0.23946  0.13248  0.43127  Biso   1.000  He
  Ne106    1.0000 0.22395  0.15966  0.44124  Biso   1.000  Ne
  Ne107    1.0000 0.92736  0.76029  0.72168  Biso   1.000  Ne
  He107    1.0000 0.91785  0.76195  0.75225  Biso   1.000  He
  He108    1.0000 0.90996  0.79420  0.76294  Biso   1.000  He
  Ne108    1.0000 0.90229  0.79380  0.79521  Biso   1.000  Ne
  Ne109    1.0000 0.43605  0.76660  0.37671  Biso   1.000  Ne
  He109    1.0000 0.44256  0.79281  0.39897  Biso   1.000  He
  He110    1.0000 0.43171  0.78835  0.43047  Biso   1.000  He
  Ne110    1.0000 0.44012  0.81327  0.45101  Biso   1.000  Ne
  Ne111    1.0000 0.16854  0.80243  0.84970  Biso   1.000  Ne
  He111    1.0000 0.16521  0.82972  0.82903  Biso   1.000  He
  He112    1.0000 0.16254  0.85942  0.84830  Biso   1.000  He
  Ne112    1.0000 0.16277  0.89013  0.82991  Biso   1.000  Ne
  Ne113    1.0000 0.60105  0.61192  0.09354  Biso   1.000  Ne
  He113    1.0000 0.60605  0.64017  0.10968  Biso   1.000  He
  He114    1.0000 0.63119  0.63594  0.12933  Biso   1.000  He
  Ne114    1.0000 0.63985  0.66069  0.14884  Biso   1.000  Ne
  Ne115    1.0000 0.91343  0.54704  0.41826  Biso   1.000  Ne
  He115    1.0000 0.88694  0.56568  0.41073  Biso   1.000  He
  He116    1.0000 0.86026  0.56215  0.43084  Biso   1.000  He
  Ne116    1.0000 0.83597  0.58369  0.42893  Biso   1.000  Ne
  Ne117    1.0000 0.16239  0.57364  0.67171  Biso   1.000  Ne
  He117    1.0000 0.17672  0.60202  0.67419  Biso   1.000  He
  He118    1.0000 0.19071  0.60855  0.70545  Biso   1.000  He
  Ne118    1.0000 0.20174  0.64068  0.70806  Biso   1.000  Ne
  Ne119    1.0000 0.68174  0.41953  0.75200  Biso   1.000  Ne
  He119    1.0000 0.69383  0.42154  0.72096  Biso   1.000  He
  He120    1.0000 0.72167  0.43562  0.72001  Biso   1.000  He
  Ne120    1.0000 0.73714  0.43520  0.69304  Biso   1.000  Ne
  Ne121    1.0000 0.94638  0.93554  0.94200  Biso   1.000  Ne
  He121    1.0000 0.95554  0.90574  0.93064  Biso   1.000  He
  He122    1.0000 0.93499  0.88421  0.94253  Biso   1.000  He
  Ne122    1.0000 0.94116  0.85179  0.93420  Biso   1.000  Ne
  Ne123    1.0000 0.56390  0.89779  0.45826  Biso   1.000  Ne
  He123    1.0000 0.59168  0.90157  0.44327  Biso   1.000  He
  He124    1.0000 0.61927  0.88694  0.45824  Biso   1.000  He
  Ne124    1.0000 0.64762  0.88964  0.44065  Biso   1.000  Ne
  Ne125    1.0000 0.12694  0.27068  0.66320  Biso   1.000  Ne
  He125    1.0000 0.12053  0.27694  0.63270  Biso   1.000  He
  He126    1.0000 0.11081  0.31071  0.62634  Biso   1.000  He
  Ne126    1.0000 0.10138  0.31805  0.59608  Biso   1.000  Ne
  Ne127    1.0000 0.75470  0.09044  0.84809  Biso   1.000  Ne
  He127    1.0000 0.77920  0.08089  0.86735  Biso   1.000  He
  He128    1.0000 0.80810  0.09366  0.86193  Biso   1.000  He
  Ne128    1.0000 0.82875  0.07689  0.83922  Biso   1.000  Ne
  Ne129    1.0000 0.12817  0.71006  0.46477  Biso   1.000  Ne
  He129    1.0000 0.10361  0.71340  0.44131  Biso   1.000  He
  He130    1.0000 0.09700  0.68618  0.42062  Biso   1.000  He
  Ne130    1.0000 0.07324  0.69212  0.39669  Biso   1.000  Ne
  Ne131    1.0000 0.22337  0.86259  0.11759  Biso   1.000  Ne
  He131    1.0000 0.19353  0.86865  0.10206  Biso   1.000  He
  He132    1.0000 0.18707  0.89966  0.09296  Biso   1.000  He
  Ne132    1.0000 0.15760  0.90308  0.07814  Biso   1.000  Ne
  Ne133    1.0000 0.58367  0.28083  0.37771  Biso   1.000  Ne
  He133    1.0000 0.58341  0.29878  0.34818  Biso   1.000  He
  He134    1.0000 0.55625  0.28950  0.33360  Biso   1.000  He
  Ne134    1.0000 0.55481  0.30185  0.30394  Biso   1.000  Ne
  Ne135    1.0000 0.27854  0.86926  0.38552  Biso   1.000  Ne
  He135    1.0000 0.28345  0.89182  0.41103  Biso   1.000  He
  He136    1.0000 0.31489  0.90710  0.41147  Biso   1.000  He
  Ne136    1.0000 0.33610  0.89758  0.43253  Biso   1.000  Ne
  Ne137    1.0000 0.68869  0.25348  0.39289  Biso   1.000  Ne
  He137    1.0000 0.68427  0.22017  0.39880  Biso   1.000  He
  He138    1.0000 0.71161  0.20030  0.39310  Biso   1.000  He
  Ne138    1.0000 0.70881  0.16860  0.40030  Biso   1.000  Ne
  Ne139    1.0000 0.43851  0.62046  0.10726  Biso   1.000  Ne
  He139    1.0000 0.43687  0.63641  0.13689  Biso   1.000  He
  He140    1.0000 0.43165  0.61623  0.16477  Biso   1.000  He
  Ne140    1.0000 0.42600  0.62999  0.19521  Biso   1.000  Ne
  Ne141    1.0000 0.89970  0.83115  0.10311  Biso   1.000  Ne
  He141    1.0000 0.89382  0.79824  0.10415  Biso   1.000  He
  He142    1.0000 0.91892  0.77647  0.10377  Biso   1.000  He
  Ne142    1.0000 0.91220  0.74505  0.10638  Biso   1.000  Ne
  Ne143    1.0000 0.08896  0.63142  0.12179  Biso   1.000  Ne
  He143    1.0000 0.08012  0.61613  0.09259  Biso   1.000  He
  He144    1.0000 0.09734  0.62875  0.06498  Biso   1.000  He
  Ne144    1.0000 0.08457  0.61960  0.03619  Biso   1.000  Ne
  Ne145    1.0000 0.72462  0.08166  0.62153  Biso   1.000  Ne
  He145    1.0000 0.70745  0.10586  0.64087  Biso   1.000  He
  He146    1.0000 0.69086  0.09453  0.66755  Biso   1.000  He
  Ne146    1.0000 0.68160  0.11659  0.69282  Biso   1.000  Ne
  Ne147    1.0000 0.85071  0.09688  0.08601  Biso   1.000  Ne
  He147    1.0000 0.86237  0.12870  0.09651  Biso   1.000  He
  He148    1.0000 0.83423  0.14757  0.10469  Biso   1.000  He
  Ne148    1.0000 0.84106  0.18069  0.11115  Biso   1.000  Ne
  Ne149    1.0000 0.23098  0.33202  0.19587  Biso   1.000  Ne
  He149    1.0000 0.21000  0.35153  0.21367  Biso   1.000  He
  He150    1.0000 0.20707  0.38508  0.20519  Biso   1.000  He
  Ne150    1.0000 0.19237  0.40581  0.22758  Biso   1.000  Ne
  Ne151    1.0000 0.42464  0.05925  0.30700  Biso   1.000  Ne
  He151    1.0000 0.39238  0.06276  0.31316  Biso   1.000  He
  He152    1.0000 0.37759  0.07587  0.28589  Biso   1.000  He
  Ne152    1.0000 0.34562  0.07753  0.29257  Biso   1.000  Ne
  Ne153    1.0000 0.74439  0.41500  0.91890  Biso   1.000  Ne
  He153    1.0000 0.71493  0.39401  0.92460  Biso   1.000  He
  He154    1.0000 0.68705  0.40884  0.92067  Biso   1.000  He
  Ne154    1.0000 0.66118  0.38936  0.92589  Biso   1.000  Ne
  Ne155    1.0000 0.43152  0.41007  0.85223  Biso   1.000  Ne
  He155    1.0000 0.41018  0.39178  0.83534  Biso   1.000  He
  He156    1.0000 0.37687  0.39653  0.84268  Biso   1.000  He
  Ne156    1.0000 0.35482  0.38083  0.82184  Biso   1.000  Ne
  Ne157    1.0000 0.23629  0.71923  0.67446  Biso   1.000  Ne
  He157    1.0000 0.22745  0.69155  0.66083  Biso   1.000  He
  He158    1.0000 0.24895  0.67555  0.63954  Biso   1.000  He
  Ne158    1.0000 0.23972  0.64368  0.62668  Biso   1.000  Ne
  Ne159    1.0000 0.92278  0.30661  0.77026  Biso   1.000  Ne
  He159    1.0000 0.90286  0.27792  0.76703  Biso   1.000  He
  He160    1.0000 0.87334  0.28396  0.75124  Biso   1.000  He
  Ne160    1.0000 0.85719  0.25878  0.74395  Biso   1.000  Ne
  Ne161    1.0000 0.88812  0.45790  0.83475  Biso   1.000  Ne
  He161    1.0000 0.86137  0.45446  0.81107  Biso   1.000  He
  He162    1.0000 0.84827  0.42239  0.80981  Biso   1.000  He
  Ne162    1.0000 0.82389  0.41748  0.78806  Biso   1.000  Ne
  Ne163    1.0000 0.09697  0.04134  0.88133  Biso   1.000  Ne
  He163    1.0000 0.09548  0.02726  0.90989  Biso   1.000  He
  He164    1.0000 0.11920  0.03485  0.93214  Biso   1.000  He
  Ne164    1.0000 0.11269  0.02182  0.96178  Biso   1.000  Ne
  Ne165    1.0000 0.11790  0.40545  0.35335  Biso   1.000  Ne
  He165    1.0000 0.14001  0.40455  0.32716  Biso   1.000  He
  He166    1.0000 0.17113  0.39542  0.33302  Biso   1.000  He
  Ne166    1.0000 0.19246  0.38768  0.30714  Biso   1.000  Ne
  Ne167    1.0000 0.23506  0.37733  0.57956  Biso   1.000  Ne
  He167    1.0000 0.20507  0.38982  0.58480  Biso   1.000  He
  He168    1.0000 0.18320  0.37127  0.60324  Biso   1.000  He
  Ne168    1.0000 0.15136  0.38139  0.60208  Biso   1.000  Ne
  Ne169    1.0000 0.65621  0.19729  0.25845  Biso   1.000  Ne
  He169    1.0000 0.64458  0.18800  0.28785  Biso   1.000  He
  He170    1.0000 0.61422  0.17860  0.28835  Biso   1.000  He
  Ne170    1.0000 0.60455  0.16807  0.31921  Biso   1.000  Ne
  Ne171    1.0000 0.14607  0.57203  0.30891  Biso   1.000  Ne
  He171    1.0000 0.13600  0.57292  0.34130  Biso   1.000  He
  He172    1.0000 0.15694  0.58630  0.36158  Biso   1.000  He
  Ne172    1.0000 0.17972  0.56318  0.37578  Biso   1.000  Ne
  Ne173    1.0000 0.35375  0.24470  0.42916  Biso   1.000  Ne
  He173    1.0000 0.35508  0.21583  0.41580  Biso   1.000  He
  He174    1.0000 0.32332  0.20741  0.40483  Biso   1.000  He
  Ne174    1.0000 0.31952  0.17562  0.39482  Biso   1.000  Ne
  Ne175    1.0000 0.41436  0.89303  0.46784  Biso   1.000  Ne
  He175    1.0000 0.44163  0.91242  0.46879  Biso   1.000  He
  He176    1.0000 0.45479  0.91205  0.43888  Biso   1.000  He
  Ne176    1.0000 0.47678  0.93536  0.43365  Biso   1.000  Ne
  Ne177    1.0000 0.46736  0.39775  0.04517  Biso   1.000  Ne
  He177    1.0000 0.45589  0.42718  0.02899  Biso   1.000  He
  He178    1.0000 0.44258  0.45280  0.04723  Biso   1.000  He
  Ne178    1.0000 0.46023  0.48066  0.05410  Biso   1.000  Ne
  Ne179    1.0000 0.75169  0.26772  0.15964  Biso   1.000  Ne
  He179    1.0000 0.73805  0.29564  0.17290  Biso   1.000  He
  He180    1.0000 0.70657  0.29094  0.18432  Biso   1.000  He
  Ne180    1.0000 0.69013  0.31781  0.18850  Biso   1.000  Ne
  Ne181    1.0000 0.07171  0.14416  0.66814  Biso   1.000  Ne
  He181    1.0000 0.07518  0.17824  0.67627  Biso   1.000  He
  He182    1.0000 0.09379  0.18364  0.70371  Biso   1.000  He
  Ne182    1.0000 0.09666  0.21472  0.71414  Biso   1.000  Ne
  Ne183    1.0000 0.03547  0.15208  0.30416  Biso   1.000  Ne
  He183    1.0000 0.01153  0.13649  0.31864  Biso   1.000  He
  He184    1.0000 0.00287  0.10682  0.30708  Biso   1.000  He
  Ne184    1.0000 0.98143  0.09170  0.32673  Biso   1.000  Ne
  Ne185    1.0000 0.61791  0.03190  0.53987  Biso   1.000  Ne
  He185    1.0000 0.60977  0.99945  0.54043  Biso   1.000  He
  He186    1.0000 0.58802  0.99088  0.56338  Biso   1.000  He
  Ne186    1.0000 0.57646  0.96135  0.56590  Biso   1.000  Ne
  Ne187    1.0000 0.43311  0.26613  0.92766  Biso   1.000  Ne
  He187    1.0000 0.43237  0.29091  0.90622  Biso   1.000  He
  He188    1.0000 0.44570  0.31807  0.91531  Biso   1.000  He
  Ne188    1.0000 0.44454  0.34319  0.89571  Biso   1.000  Ne
  Ne189    1.0000 0.96676  0.56300  0.58303  Biso   1.000  Ne
  He189    1.0000 0.96073  0.54834  0.55242  Biso   1.000  He
  He190    1.0000 0.95032  0.51675  0.55438  Biso   1.000  He
  Ne190    1.0000 0.94730  0.50257  0.52682  Biso   1.000  Ne
  Ne191    1.0000 0.94709  0.88289  0.82898  Biso   1.000  Ne
  He191    1.0000 0.94544  0.86874  0.79638  Biso   1.000  He
  He192    1.0000 0.96306  0.88515  0.77458  Biso   1.000  He
  Ne192    1.0000 0.95646  0.87486  0.74450  Biso   1.000  Ne
  Ne193    1.0000 0.93411  0.37963  0.62722  Biso   1.000  Ne
  He193    1.0000 0.95264  0.38666  0.60148  Biso   1.000  He
  He194    1.0000 0.93811  0.39634  0.57520  Biso   1.000  He
  Ne194    1.0000 0.95985  0.40242  0.55237  Biso   1.000  Ne
  Ne195    1.0000 0.43915  0.73777  0.74156  Biso   1.000  Ne
  He195    1.0000 0.43515  0.70738  0.73625  Biso   1.000  He
  He196    1.0000 0.45763  0.68508  0.75081  Biso   1.000  He
  Ne196    1.0000 0.44356  0.67334  0.77891  Biso   1.000  Ne
  Ne197    1.0000 0.73446  0.86388  0.66189  Biso   1.000  Ne
  He197    1.0000 0.73021  0.85244  0.62790  Biso   1.000  He
  He198    1.0000 0.70373  0.86313  0.61524  Biso   1.000  He
  Ne198    1.0000 0.70263  0.85501  0.58302  Biso   1.000  Ne
  Ne199    1.0000 0.60068  0.40602  0.87119  Biso   1.000  Ne
  He199    1.0000 0.58055  0.41868  0.84607  Biso   1.000  He
  He200    1.0000 0.58803  0.40596  0.81447  Biso   1.000  He
  Ne200    1.0000 0.60553  0.42702  0.79736  Biso   1.000  Ne
  Ne201    1.0000 0.48148  0.56772  0.00214  Biso   1.000  Ne
  He201    1.0000 0.46169  0.54529  0.98537  Biso   1.000  He
  He202    1.0000 0.47793  0.52418  0.96762  Biso   1.000  He
  Ne202    1.0000 0.46008  0.50555  0.94538  Biso   1.000  Ne
  Ne203    1.0000 0.56178  0.05546  0.47327  Biso   1.000  Ne
  He203    1.0000 0.58421  0.05619  0.44922  Biso   1.000  He
  He204    1.0000 0.60804  0.03240  0.45298  Biso   1.000  He
  Ne204    1.0000 0.63389  0.03155  0.43061  Biso   1.000  Ne
  Ne205    1.0000 0.67891  0.60228  0.85180  Biso   1.000  Ne
  He205    1.0000 0.66239  0.58100  0.87057  Biso   1.000  He
  He206    1.0000 0.66063  0.58815  0.90440  Biso   1.000  He
  Ne206    1.0000 0.64208  0.56796  0.92150  Biso   1.000  Ne
  Ne207    1.0000 0.42684  0.71704  0.21525  Biso   1.000  Ne
  He207    1.0000 0.42491  0.71596  0.18303  Biso   1.000  He
  He208    1.0000 0.43456  0.74211  0.16627  Biso   1.000  He
  Ne208    1.0000 0.43357  0.73814  0.13427  Biso   1.000  Ne
  Ne209    1.0000 0.62942  0.12659  0.41443  Biso   1.000  Ne
  He209    1.0000 0.62423  0.15489  0.39694  Biso   1.000  He
  He210    1.0000 0.60945  0.17623  0.41558  Biso   1.000  He
  Ne210    1.0000 0.60371  0.20335  0.40096  Biso   1.000  Ne
  Ne211    1.0000 0.24257  0.04288  0.93895  Biso   1.000  Ne
  He211    1.0000 0.22430  0.04921  0.91342  Biso   1.000  He
  He212    1.0000 0.20306  0.07570  0.91777  Biso   1.000  He
  Ne212    1.0000 0.18174  0.07754  0.89132  Biso   1.000  Ne
  Ne213    1.0000 0.61702  0.29567  0.90042  Biso   1.000  Ne
  He213    1.0000 0.61276  0.31391  0.87441  Biso   1.000  He
  He214    1.0000 0.63849  0.31904  0.85471  Biso   1.000  He
  Ne214    1.0000 0.63550  0.34183  0.83073  Biso   1.000  Ne
  Ne215    1.0000 0.97468  0.02814  0.91397  Biso   1.000  Ne
  He215    1.0000 0.99141  0.05242  0.92570  Biso   1.000  He
  He216    1.0000 0.01174  0.04290  0.95278  Biso   1.000  He
  Ne216    1.0000 0.02795  0.06820  0.96884  Biso   1.000  Ne
  Ne217    1.0000 0.65116  0.40519  0.14236  Biso   1.000  Ne
  He217    1.0000 0.67504  0.39827  0.12088  Biso   1.000  He
  He218    1.0000 0.70579  0.40849  0.13103  Biso   1.000  He
  Ne218    1.0000 0.73000  0.40345  0.10939  Biso   1.000  Ne
  Ne219    1.0000 0.33542  0.56081  0.83121  Biso   1.000  Ne
  He219    1.0000 0.32718  0.56985  0.86046  Biso   1.000  He
  He220    1.0000 0.35331  0.56805  0.88245  Biso   1.000  He
  Ne220    1.0000 0.34522  0.57175  0.91425  Biso   1.000  Ne
  Ne221    1.0000 0.32656  0.07565  0.44354  Biso   1.000  Ne
  He221    1.0000 0.34431  0.06300  0.41866  Biso   1.000  He
  He222    1.0000 0.37671  0.05749  0.42454  Biso   1.000  He
  Ne222    1.0000 0.39219  0.04600  0.39651  Biso   1.000  Ne
  Ne223    1.0000 0.25523  0.20193  0.12970  Biso   1.000  Ne
  He223    1.0000 0.23364  0.22140  0.11377  Biso   1.000  He
  He224    1.0000 0.24740  0.24458  0.09360  Biso   1.000  He
  Ne224    1.0000 0.22406  0.26427  0.08277  Biso   1.000  Ne
  Ne225    1.0000 0.59924  0.08510  0.67133  Biso   1.000  Ne
  He225    1.0000 0.60384  0.11755  0.67767  Biso   1.000  He
  He226    1.0000 0.59240  0.13839  0.65348  Biso   1.000  He
  Ne226    1.0000 0.59650  0.16939  0.66209  Biso   1.000  Ne
  Ne227    1.0000 0.09658  0.76256  0.18230  Biso   1.000  Ne
  He227    1.0000 0.10977  0.77979  0.15960  Biso   1.000  He
  He228    1.0000 0.08771  0.78854  0.13314  Biso   1.000  He
  Ne228    1.0000 0.09705  0.81071  0.10863  Biso   1.000  Ne
  Ne229    1.0000 0.84990  0.89428  0.84857  Biso   1.000  Ne
  He229    1.0000 0.86520  0.90120  0.87711  Biso   1.000  He
  He230    1.0000 0.84316  0.90460  0.90235  Biso   1.000  He
  Ne230    1.0000 0.85639  0.91244  0.93135  Biso   1.000  Ne
  Ne231    1.0000 0.24313  0.64388  0.45419  Biso   1.000  Ne
  He231    1.0000 0.21623  0.63017  0.44655  Biso   1.000  He
  He232    1.0000 0.19121  0.64393  0.46097  Biso   1.000  He
  Ne232    1.0000 0.16465  0.63221  0.44824  Biso   1.000  Ne
  Ne233    1.0000 0.60954  0.23975  0.06395  Biso   1.000  Ne
  He233    1.0000 0.62256  0.26762  0.07232  Biso   1.000  He
  He234    1.0000 0.62627  0.27624  0.10385  Biso   1.000  He
  Ne234    1.0000 0.64389  0.30322  0.10794  Biso   1.000  Ne
  Ne235    1.0000 0.35074  0.59648  0.11357  Biso   1.000  Ne
  He235    1.0000 0.31561  0.59897  0.11227  Biso   1.000  He
  He236    1.0000 0.29748  0.57161  0.11215  Biso   1.000  He
  Ne236    1.0000 0.26448  0.57630  0.11089  Biso   1.000  Ne
  Ne237    1.0000 0.08022  0.95211  0.03638  Biso   1.000  Ne
  He237    1.0000 0.06225  0.93590  0.05766  Biso   1.000  He
  He238    1.0000 0.07902  0.92644  0.08387  Biso   1.000  He
  Ne238    1.0000 0.06268  0.90961  0.10604  Biso   1.000  Ne
  Ne239    1.0000 0.59993  0.78476  0.60689  Biso   1.000  Ne
  He239    1.0000 0.60778  0.78819  0.63665  Biso   1.000  He
  He240    1.0000 0.62048  0.81693  0.64619  Biso   1.000  He
  Ne240    1.0000 0.61796  0.82415  0.67792  Biso   1.000  Ne
  Ne241    1.0000 0.93138  0.78268  0.88835  Biso   1.000  Ne
  He241    1.0000 0.91093  0.75884  0.89485  Biso   1.000  He
  He242    1.0000 0.91229  0.74514  0.92631  Biso   1.000  He
  Ne242    1.0000 0.89125  0.72096  0.93079  Biso   1.000  Ne
  Ne243    1.0000 0.45458  0.21669  0.16747  Biso   1.000  Ne
  He243    1.0000 0.43736  0.22523  0.19667  Biso   1.000  He
  He244    1.0000 0.44396  0.20337  0.22313  Biso   1.000  He
  Ne244    1.0000 0.42651  0.21528  0.25041  Biso   1.000  Ne
  Ne245    1.0000 0.16403  0.29482  0.14598  Biso   1.000  Ne
  He245    1.0000 0.13881  0.28350  0.16583  Biso   1.000  He
  He246    1.0000 0.15081  0.27171  0.19563  Biso   1.000  He
  Ne246    1.0000 0.12812  0.25698  0.21135  Biso   1.000  Ne
  Ne247    1.0000 0.34021  0.79187  0.67741  Biso   1.000  Ne
  He247    1.0000 0.33285  0.79801  0.64531  Biso   1.000  He
  He248    1.0000 0.32292  0.77080  0.63143  Biso   1.000  He
  Ne248    1.0000 0.32071  0.77526  0.59715  Biso   1.000  Ne
  Ne249    1.0000 0.29682  0.54274  0.19199  Biso   1.000  Ne
  He249    1.0000 0.32543  0.55361  0.18389  Biso   1.000  He
  He250    1.0000 0.35051  0.53170  0.18954  Biso   1.000  He
  Ne250    1.0000 0.38022  0.54378  0.18366  Biso   1.000  Ne
  Ne251    1.0000 0.62682  0.56421  0.20926  Biso   1.000  Ne
  He251    1.0000 0.60276  0.56057  0.18915  Biso   1.000  He
  He252    1.0000 0.61054  0.55263  0.15899  Biso   1.000  He
  Ne252    1.0000 0.58449  0.54840  0.13925  Biso   1.000  Ne
  Ne253    1.0000 0.46167  0.26394  0.43438  Biso   1.000  Ne
  He253    1.0000 0.44253  0.25772  0.40906  Biso   1.000  He
  He254    1.0000 0.44583  0.22752  0.39561  Biso   1.000  He
  Ne254    1.0000 0.42302  0.22538  0.37275  Biso   1.000  Ne
  Ne255    1.0000 0.89478  0.08540  0.17407  Biso   1.000  Ne
  He255    1.0000 0.92087  0.07657  0.19112  Biso   1.000  He
  He256    1.0000 0.93347  0.10440  0.20672  Biso   1.000  He
  Ne256    1.0000 0.96345  0.10143  0.21774  Biso   1.000  Ne
  Ne257    1.0000 0.32421  0.62726  0.24063  Biso   1.000  Ne
  He257    1.0000 0.29255  0.63714  0.23911  Biso   1.000  He
  He258    1.0000 0.27017  0.61477  0.23056  Biso   1.000  He
  Ne258    1.0000 0.24000  0.62591  0.23307  Biso   1.000  Ne
  Ne259    1.0000 0.09032  0.75212  0.95362  Biso   1.000  Ne
  He259    1.0000 0.09032  0.76967  0.92512  Biso   1.000  He
  He260    1.0000 0.10505  0.79953  0.92747  Biso   1.000  He
  Ne260    1.0000 0.10115  0.81664  0.89698  Biso   1.000  Ne
  Ne261    1.0000 0.27903  0.71523  0.18396  Biso   1.000  Ne
  He261    1.0000 0.30904  0.71044  0.17625  Biso   1.000  He
  He262    1.0000 0.31724  0.70121  0.14544  Biso   1.000  He
  Ne262    1.0000 0.34527  0.68417  0.14345  Biso   1.000  Ne
  Ne263    1.0000 0.46708  0.00926  0.58840  Biso   1.000  Ne
  He263    1.0000 0.47717  0.02609  0.56239  Biso   1.000  He
  He264    1.0000 0.49245  0.05312  0.57239  Biso   1.000  He
  Ne264    1.0000 0.49931  0.07020  0.54610  Biso   1.000  Ne
  Ne265    1.0000 0.83308  0.97952  0.31586  Biso   1.000  Ne
  He265    1.0000 0.84530  0.94907  0.32277  Biso   1.000  He
  He266    1.0000 0.84891  0.92813  0.29420  Biso   1.000  He
  Ne266    1.0000 0.86245  0.90029  0.30160  Biso   1.000  Ne
  Ne267    1.0000 0.20623  0.30644  0.66247  Biso   1.000  Ne
  He267    1.0000 0.21191  0.33735  0.67002  Biso   1.000  He
  He268    1.0000 0.20725  0.34281  0.70393  Biso   1.000  He
  Ne268    1.0000 0.20497  0.37468  0.71084  Biso   1.000  Ne
  Ne269    1.0000 0.26901  0.41204  0.06750  Biso   1.000  Ne
  He269    1.0000 0.27223  0.39408  0.09741  Biso   1.000  He
  He270    1.0000 0.29942  0.40373  0.11458  Biso   1.000  He
  Ne270    1.0000 0.30603  0.39020  0.14482  Biso   1.000  Ne
  Ne271    1.0000 0.29994  0.19352  0.91789  Biso   1.000  Ne
  He271    1.0000 0.30367  0.16457  0.93475  Biso   1.000  He
  He272    1.0000 0.31626  0.16831  0.96549  Biso   1.000  He
  Ne272    1.0000 0.32400  0.13972  0.98183  Biso   1.000  Ne
  Ne273    1.0000 0.64181  0.09313  0.59099  Biso   1.000  Ne
  He273    1.0000 0.65611  0.11337  0.56711  Biso   1.000  He
  He274    1.0000 0.66703  0.14111  0.58068  Biso   1.000  He
  Ne274    1.0000 0.68016  0.16590  0.56109  Biso   1.000  Ne
  Ne275    1.0000 0.60075  0.06439  0.35027  Biso   1.000  Ne
  He275    1.0000 0.62090  0.07543  0.32582  Biso   1.000  He
  He276    1.0000 0.64691  0.05500  0.31504  Biso   1.000  He
  Ne276    1.0000 0.66771  0.07130  0.29459  Biso   1.000  Ne
  Ne277    1.0000 0.19747  0.77475  0.93595  Biso   1.000  Ne
  He277    1.0000 0.22961  0.76253  0.93577  Biso   1.000  He
  He278    1.0000 0.23303  0.73039  0.93182  Biso   1.000  He
  Ne278    1.0000 0.26605  0.72105  0.93570  Biso   1.000  Ne
  Ne279    1.0000 0.34966  0.87950  0.60342  Biso   1.000  Ne
  He279    1.0000 0.34940  0.89720  0.63154  Biso   1.000  He
  He280    1.0000 0.35704  0.88309  0.65913  Biso   1.000  He
  Ne280    1.0000 0.35118  0.90664  0.68369  Biso   1.000  Ne
  Ne281    1.0000 0.80271  0.83780  0.07824  Biso   1.000  Ne
  He281    1.0000 0.82681  0.85949  0.06773  Biso   1.000  He
  He282    1.0000 0.82733  0.88777  0.08609  Biso   1.000  He
  Ne282    1.0000 0.85367  0.90361  0.07801  Biso   1.000  Ne
  Ne283    1.0000 0.43491  0.30234  0.28120  Biso   1.000  Ne
  He283    1.0000 0.44997  0.33143  0.28726  Biso   1.000  He
  He284    1.0000 0.45586  0.33700  0.31904  Biso   1.000  He
  Ne284    1.0000 0.47093  0.36384  0.32985  Biso   1.000  Ne
  Ne285    1.0000 0.33055  0.88318  0.28355  Biso   1.000  Ne
  He285    1.0000 0.30479  0.89359  0.26601  Biso   1.000  He
  He286    1.0000 0.29298  0.86831  0.24608  Biso   1.000  He
  Ne286    1.0000 0.27109  0.87830  0.22064  Biso   1.000  Ne
  Ne287    1.0000 0.91472  0.24616  0.37550  Biso   1.000  Ne
  He287    1.0000 0.94014  0.26367  0.38508  Biso   1.000  He
  He288    1.0000 0.93428  0.29705  0.39314  Biso   1.000  He
  Ne288    1.0000 0.96445  0.31189  0.40238  Biso   1.000  Ne
  Ne289    1.0000 0.13832  0.32153  0.42839  Biso   1.000  Ne
  He289    1.0000 0.16018  0.30275  0.41158  Biso   1.000  He
  He290    1.0000 0.18529  0.31769  0.39755  Biso   1.000  He
  Ne290    1.0000 0.20820  0.29633  0.38393  Biso   1.000  Ne
  Ne291    1.0000 0.43585  0.57957  0.85405  Biso   1.000  Ne
  He291    1.0000 0.42183  0.57457  0.82471  Biso   1.000  He
  He292    1.0000 0.41425  0.60024  0.80688  Biso   1.000  He
  Ne292    1.0000 0.40132  0.59583  0.77598  Biso   1.000  Ne
  Ne293    1.0000 0.25853  0.83838  0.70809  Biso   1.000  Ne
  He293    1.0000 0.23400  0.83682  0.68580  Biso   1.000  He
  He294    1.0000 0.21858  0.86434  0.68086  Biso   1.000  He
  Ne294    1.0000 0.22890  0.88106  0.65483  Biso   1.000  Ne
  Ne295    1.0000 0.84338  0.60234  0.58084  Biso   1.000  Ne
  He295    1.0000 0.86678  0.59630  0.60072  Biso   1.000  He
  He296    1.0000 0.86390  0.56602  0.61494  Biso   1.000  He
  Ne296    1.0000 0.88965  0.56109  0.63576  Biso   1.000  Ne
  Ne297    1.0000 0.19635  0.40621  0.42730  Biso   1.000  Ne
  He297    1.0000 0.16845  0.41934  0.41417  Biso   1.000  He
  He298    1.0000 0.15082  0.42662  0.43829  Biso   1.000  He
  Ne298    1.0000 0.11834  0.43523  0.42741  Biso   1.000  Ne
  Ne299    1.0000 0.79852  0.67694  0.90883  Biso   1.000  Ne
  He299    1.0000 0.81942  0.70323  0.91185  Biso   1.000  He
  He300    1.0000 0.80744  0.73144  0.92864  Biso   1.000  He
  Ne300    1.0000 0.82901  0.75764  0.93113  Biso   1.000  Ne
  Ne301    1.0000 0.10624  0.37427  0.68155  Biso   1.000  Ne
  He301    1.0000 0.09612  0.36803  0.71439  Biso   1.000  He
  He302    1.0000 0.12272  0.37480  0.73593  Biso   1.000  He
  Ne302    1.0000 0.11326  0.37135  0.76903  Biso   1.000  Ne
  Ne303    1.0000 0.35864  0.65211  0.81966  Biso   1.000  Ne
  He303    1.0000 0.33209  0.65235  0.79933  Biso   1.000  He
  He304    1.0000 0.31182  0.68022  0.79902  Biso   1.000  He
  Ne304    1.0000 0.28902  0.68092  0.77437  Biso   1.000  Ne
  Ne305    1.0000 0.52652  0.30414  0.55666  Biso   1.000  Ne
  He305    1.0000 0.52232  0.28427  0.53007  Biso   1.000  He
  He306    1.0000 0.54679  0.28363  0.50878  Biso   1.000  He
  Ne306    1.0000 0.54301  0.26535  0.48019  Biso   1.000  Ne
  Ne307    1.0000 0.35942  0.81246  0.44598  Biso   1.000  Ne
  He307    1.0000 0.33348  0.80674  0.42623  Biso   1.000  He
  He308    1.0000 0.32519  0.77579  0.42745  Biso   1.000  He
  Ne308    1.0000 0.30021  0.76830  0.40720  Biso   1.000  Ne
  Ne309    1.0000 0.93413  0.64152  0.44143  Biso   1.000  Ne
  He309    1.0000 0.92625  0.67078  0.43073  Biso   1.000  He
  He310    1.0000 0.91732  0.67210  0.39997  Biso   1.000  He
  Ne310    1.0000 0.90611  0.70104  0.39471  Biso   1.000  Ne
  Ne311    1.0000 0.82759  0.33826  0.06102  Biso   1.000  Ne
  He311    1.0000 0.82323  0.30908  0.07686  Biso   1.000  He
  He312    1.0000 0.79096  0.29889  0.07033  Biso   1.000  He
  Ne312    1.0000 0.77950  0.26987  0.08024  Biso   1.000  Ne
  Ne313    1.0000 0.86384  0.14835  0.91179  Biso   1.000  Ne
  He313    1.0000 0.89060  0.12850  0.91496  Biso   1.000  He
  He314    1.0000 0.88262  0.09857  0.92396  Biso   1.000  He
  Ne314    1.0000 0.90520  0.07504  0.93856  Biso   1.000  Ne
  Ne315    1.0000 0.94625  0.32530  0.68409  Biso   1.000  Ne
  He315    1.0000 0.92154  0.30451  0.67553  Biso   1.000  He
  He316    1.0000 0.92690  0.27149  0.68050  Biso   1.000  He
  Ne316    1.0000 0.93677  0.25356  0.65004  Biso   1.000  Ne
  Ne317    1.0000 0.20871  0.52707  0.20423  Biso   1.000  Ne
  He317    1.0000 0.21519  0.50813  0.17463  Biso   1.000  He
  He318    1.0000 0.22678  0.47791  0.17998  Biso   1.000  He
  Ne318    1.0000 0.23133  0.46092  0.15265  Biso   1.000  Ne
  Ne319    1.0000 0.31694  0.39121  0.28616  Biso   1.000  Ne
  He319    1.0000 0.30127  0.37914  0.31248  Biso   1.000  He
  He320    1.0000 0.28282  0.35271  0.30135  Biso   1.000  He
  Ne320    1.0000 0.26632  0.33488  0.32326  Biso   1.000  Ne
  Ne321    1.0000 0.38283  0.08479  0.00557  Biso   1.000  Ne
  He321    1.0000 0.39402  0.06308  0.98205  Biso   1.000  He
  He322    1.0000 0.38153  0.03171  0.98640  Biso   1.000  He
  Ne322    1.0000 0.39243  0.00948  0.96572  Biso   1.000  Ne
  Ne323    1.0000 0.47928  0.93194  0.53210  Biso   1.000  Ne
  He323    1.0000 0.46867  0.90658  0.54867  Biso   1.000  He
  He324    1.0000 0.45306  0.91361  0.57629  Biso   1.000  He
  Ne324    1.0000 0.47089  0.91656  0.60562  Biso   1.000  Ne
  Ne325    1.0000 0.04628  0.70691  0.22839  Biso   1.000  Ne
  He325    1.0000 0.06515  0.68683  0.24660  Biso   1.000  He
  He326    1.0000 0.05125  0.65760  0.24699  Biso   1.000  He
  Ne326    1.0000 0.07144  0.63451  0.26312  Biso   1.000  Ne
  Ne327    1.0000 0.72496  0.87829  0.33490  Biso   1.000  Ne
  He327    1.0000 0.69748  0.86867  0.32273  Biso   1.000  He
  He328    1.0000 0.67045  0.88765  0.32857  Biso   1.000  He
  Ne328    1.0000 0.64155  0.87641  0.31799  Biso   1.000  Ne
  Ne329    1.0000 0.13043  0.55169  0.45431  Biso   1.000  Ne
  He329    1.0000 0.10071  0.55330  0.43986  Biso   1.000  He
  He330    1.0000 0.10138  0.58025  0.41952  Biso   1.000  He
  Ne330    1.0000 0.07133  0.58337  0.40570  Biso   1.000  Ne
  Ne331    1.0000 0.93378  0.12395  0.80557  Biso   1.000  Ne
  He331    1.0000 0.94508  0.09823  0.82304  Biso   1.000  He
  He332    1.0000 0.92358  0.08929  0.84448  Biso   1.000  He
  Ne332    1.0000 0.93719  0.06448  0.86063  Biso   1.000  Ne
  Ne333    1.0000 0.38748  0.69350  0.94712  Biso   1.000  Ne
  He333    1.0000 0.40761  0.66825  0.94186  Biso   1.000  He
  He334    1.0000 0.39153  0.63763  0.94381  Biso   1.000  He
  Ne334    1.0000 0.41416  0.61287  0.93916  Biso   1.000  Ne
  Ne335    1.0000 0.42264  0.82251  0.60010  Biso   1.000  Ne
  He335    1.0000 0.43213  0.79536  0.61096  Biso   1.000  He
  He336    1.0000 0.41638  0.76952  0.59791  Biso   1.000  He
  Ne336    1.0000 0.42619  0.73811  0.60684  Biso   1.000  Ne
  Ne337    1.0000 0.68739  0.91201  0.72158  Biso   1.000  Ne
  He337    1.0000 0.65691  0.89888  0.71541  Biso   1.000  He
  He338    1.0000 0.63940  0.91225  0.68813  Biso   1.000  He
  Ne338    1.0000 0.60713  0.90314  0.68424  Biso   1.000  Ne
  Ne339    1.0000 0.97722  0.05582  0.04113  Biso   1.000  Ne
  He339    1.0000 0.98785  0.02758  0.05180  Biso   1.000  He
  He340    1.0000 0.96386  0.00614  0.06701  Biso   1.000  He
  Ne340    1.0000 0.97533  0.98066  0.08219  Biso   1.000  Ne
  Ne341    1.0000 0.24974  0.55349  0.63766  Biso   1.000  Ne
  He341    1.0000 0.24161  0.55019  0.66863  Biso   1.000  He
  He342    1.0000 0.26257  0.56116  0.69180  Biso   1.000  He
  Ne342    1.0000 0.25444  0.55731  0.72296  Biso   1.000  Ne
  Ne343    1.0000 0.38255  0.35816  0.47444  Biso   1.000  Ne
  He343    1.0000 0.35411  0.34181  0.47608  Biso   1.000  He
  He344    1.0000 0.33215  0.34333  0.44789  Biso   1.000  He
  Ne344    1.0000 0.30521  0.32211  0.45064  Biso   1.000  Ne
  Ne345    1.0000 0.92632  0.39638  0.46183  Biso   1.000  Ne
  He345    1.0000 0.92442  0.41221  0.43182  Biso   1.000  He
  He346    1.0000 0.91707  0.39088  0.40708  Biso   1.000  He
  Ne346    1.0000 0.91987  0.40381  0.37451  Biso   1.000  Ne
  Ne347    1.0000 0.41549  0.14729  0.40774  Biso   1.000  Ne
  He347    1.0000 0.41646  0.13612  0.37477  Biso   1.000  He
  He348    1.0000 0.43864  0.14976  0.35606  Biso   1.000  He
  Ne348    1.0000 0.43564  0.14205  0.32333  Biso   1.000  Ne
  Ne349    1.0000 0.18640  0.64507  0.86952  Biso   1.000  Ne
  He349    1.0000 0.21263  0.63088  0.85502  Biso   1.000  He
  He350    1.0000 0.21348  0.59684  0.84952  Biso   1.000  He
  Ne350    1.0000 0.23970  0.58841  0.82869  Biso   1.000  Ne
  Ne351    1.0000 0.43885  0.31210  0.19940  Biso   1.000  Ne
  He351    1.0000 0.40910  0.32099  0.18574  Biso   1.000  He
  He352    1.0000 0.39099  0.34270  0.20075  Biso   1.000  He
  Ne352    1.0000 0.36269  0.35045  0.18568  Biso   1.000  Ne
  Ne353    1.0000 0.21297  0.80324  0.59948  Biso   1.000  Ne
  He353    1.0000 0.19064  0.78015  0.58934  Biso   1.000  He
  He354    1.0000 0.16161  0.78809  0.57351  Biso   1.000  He
  Ne354    1.0000 0.13384  0.79244  0.59058  Biso   1.000  Ne
  Ne355    1.0000 0.74406  0.39151  0.21154  Biso   1.000  Ne
  He355    1.0000 0.73911  0.39201  0.24272  Biso   1.000  He
  He356    1.0000 0.70575  0.39671  0.25084  Biso   1.000  He
  Ne356    1.0000 0.70248  0.39955  0.28478  Biso   1.000  Ne
  Ne357    1.0000 0.78453  0.37058  0.42888  Biso   1.000  Ne
  He357    1.0000 0.80976  0.34998  0.42648  Biso   1.000  He
  He358    1.0000 0.79949  0.32023  0.41480  Biso   1.000  He
  Ne358    1.0000 0.82225  0.29565  0.41109  Biso   1.000  Ne
  Ne359    1.0000 0.21026  0.25281  0.72286  Biso   1.000  Ne
  He359    1.0000 0.18965  0.25245  0.74979  Biso   1.000  He
  He360    1.0000 0.16219  0.27374  0.74811  Biso   1.000  He
  Ne360    1.0000 0.14646  0.27392  0.77759  Biso   1.000  Ne
  Ne361    1.0000 0.55914  0.27132  0.63116  Biso   1.000  Ne
  He361    1.0000 0.56893  0.25447  0.60216  Biso   1.000  He
  He362    1.0000 0.58252  0.22473  0.60959  Biso   1.000  He
  Ne362    1.0000 0.59388  0.21166  0.58150  Biso   1.000  Ne
  Ne363    1.0000 0.93708  0.64492  0.59951  Biso   1.000  Ne
  He363    1.0000 0.92926  0.66116  0.62902  Biso   1.000  He
  He364    1.0000 0.93787  0.64026  0.65572  Biso   1.000  He
  Ne364    1.0000 0.92977  0.65575  0.68696  Biso   1.000  Ne
  Ne365    1.0000 0.15915  0.86451  0.93727  Biso   1.000  Ne
  He365    1.0000 0.19056  0.86783  0.92787  Biso   1.000  He
  He366    1.0000 0.21666  0.85444  0.94596  Biso   1.000  He
  Ne366    1.0000 0.24480  0.85888  0.92705  Biso   1.000  Ne
  Ne367    1.0000 0.10263  0.15075  0.08733  Biso   1.000  Ne
  He367    1.0000 0.12522  0.17241  0.09649  Biso   1.000  He
  He368    1.0000 0.12104  0.20344  0.08961  Biso   1.000  He
  Ne368    1.0000 0.14266  0.22486  0.10561  Biso   1.000  Ne
  Ne369    1.0000 0.25385  0.57365  0.38727  Biso   1.000  Ne
  He369    1.0000 0.26277  0.57744  0.35395  Biso   1.000  He
  He370    1.0000 0.25014  0.55336  0.33172  Biso   1.000  He
  Ne370    1.0000 0.25885  0.55758  0.29951  Biso   1.000  Ne
  Ne371    1.0000 0.23740  0.07527  0.72050  Biso   1.000  Ne
  He371    1.0000 0.20608  0.06482  0.71564  Biso   1.000  He
  He372    1.0000 0.19026  0.08361  0.69382  Biso   1.000  He
  Ne372    1.0000 0.15931  0.07065  0.69094  Biso   1.000  Ne
  Ne373    1.0000 0.85929  0.35094  0.35488  Biso   1.000  Ne
  He373    1.0000 0.84739  0.32887  0.33171  Biso   1.000  He
  He374    1.0000 0.83219  0.33961  0.30339  Biso   1.000  He
  Ne374    1.0000 0.81801  0.31403  0.28352  Biso   1.000  Ne
  Ne375    1.0000 0.13295  0.65800  0.77201  Biso   1.000  Ne
  He375    1.0000 0.13975  0.69155  0.77633  Biso   1.000  He
  He376    1.0000 0.11592  0.71024  0.78746  Biso   1.000  He
  Ne376    1.0000 0.12299  0.74038  0.79602  Biso   1.000  Ne
  Ne377    1.0000 0.99870  0.89025  0.04413  Biso   1.000  Ne
  He377    1.0000 0.97332  0.90319  0.02774  Biso   1.000  He
  He378    1.0000 0.94747  0.90947  0.04466  Biso   1.000  He
  Ne378    1.0000 0.92939  0.93109  0.02871  Biso   1.000  Ne
  Ne379    1.0000 0.19992  0.23295  0.29072  Biso   1.000  Ne
  He379    1.0000 0.20971  0.24688  0.26084  Biso   1.000  He
  He380    1.0000 0.22859  0.22645  0.23942  Biso   1.000  He
  Ne380    1.0000 0.24319  0.24555  0.21645  Biso   1.000  Ne
