data_image0
_cell_length_a       46.859
_cell_length_b       46.6008
_cell_length_c       46.5406
_cell_angle_alpha    90
_cell_angle_beta     90
_cell_angle_gamma    90

_symmetry_space_group_name_H-M    "P 1"
_symmetry_int_tables_number       1

loop_
  _symmetry_equiv_pos_as_xyz
  'x, y, z'

loop_
  _atom_site_label
  _atom_site_occupancy
  _atom_site_fract_x
  _atom_site_fract_y
  _atom_site_fract_z
  _atom_site_thermal_displace_type
  _atom_site_B_iso_or_equiv
  _atom_site_type_symbol
  Ne1      1.0000 0.47261  0.21574  0.99731  Biso   1.000  Ne
  He1      1.0000 0.49470  0.21113  0.01962  Biso   1.000  He
  He2      1.0000 0.52700  0.21262  0.00731  Biso   1.000  He
  Ne2      1.0000 0.55010  0.20517  0.02829  Biso   1.000  Ne
  Ne3      1.0000 0.19152  0.81133  0.63366  Biso   1.000  Ne
  He3      1.0000 0.17558  0.78288  0.63285  Biso   1.000  He
  He4      1.0000 0.18828  0.75793  0.61420  Biso   1.000  He
  Ne4      1.0000 0.16848  0.72936  0.61197  Biso   1.000  Ne
  Ne5      1.0000 0.13097  0.42657  0.09327  Biso   1.000  Ne
  He5      1.0000 0.15202  0.40827  0.07740  Biso   1.000  He
  He6      1.0000 0.14918  0.39966  0.04542  Biso   1.000  He
  Ne6      1.0000 0.17427  0.38175  0.03149  Biso   1.000  Ne
  Ne7      1.0000 0.81953  0.06463  0.17066  Biso   1.000  Ne
  He7      1.0000 0.84400  0.06335  0.14814  Biso   1.000  He
  He8      1.0000 0.87638  0.06735  0.15921  Biso   1.000  He
  Ne8      1.0000 0.90042  0.06326  0.13571  Biso   1.000  Ne
  Ne9      1.0000 0.86833  0.69313  0.86798  Biso   1.000  Ne
  He9      1.0000 0.87052  0.70380  0.90048  Biso   1.000  He
  He10     1.0000 0.84373  0.71791  0.91325  Biso   1.000  He
  Ne10     1.0000 0.84493  0.74670  0.91724  Biso   1.000  Ne
  Ne11     1.0000 0.33576  0.33740  0.96092  Biso   1.000  Ne
  He11     1.0000 0.34255  0.36883  0.94954  Biso   1.000  He
  He12     1.0000 0.31398  0.38434  0.95685  Biso   1.000  He
  Ne12     1.0000 0.31310  0.41679  0.94577  Biso   1.000  Ne
  Ne13     1.0000 0.82888  0.55968  0.79679  Biso   1.000  Ne
  He13     1.0000 0.86100  0.55997  0.80757  Biso   1.000  He
  He14     1.0000 0.87377  0.53304  0.82426  Biso   1.000  He
  Ne14     1.0000 0.90583  0.53400  0.82814  Biso   1.000  Ne
  Ne15     1.0000 0.63838  0.10025  0.40843  Biso   1.000  Ne
  He15     1.0000 0.67063  0.09413  0.41234  Biso   1.000  He
  He16     1.0000 0.67877  0.09738  0.44440  Biso   1.000  He
  Ne16     1.0000 0.71098  0.09315  0.44864  Biso   1.000  Ne
  Ne17     1.0000 0.21210  0.20471  0.33655  Biso   1.000  Ne
  He17     1.0000 0.20030  0.17930  0.35363  Biso   1.000  He
  He18     1.0000 0.16960  0.18589  0.35876  Biso   1.000  He
  Ne18     1.0000 0.15138  0.16105  0.37621  Biso   1.000  Ne
  Ne19     1.0000 0.61612  0.15980  0.72936  Biso   1.000  Ne
  He19     1.0000 0.61161  0.17237  0.75974  Biso   1.000  He
  He20     1.0000 0.60077  0.20489  0.76136  Biso   1.000  He
  Ne20     1.0000 0.60023  0.21801  0.79325  Biso   1.000  Ne
  Ne21     1.0000 0.74801  0.57827  0.78702  Biso   1.000  Ne
  He21     1.0000 0.72855  0.56524  0.80942  Biso   1.000  He
  He22     1.0000 0.69593  0.56743  0.80279  Biso   1.000  He
  Ne22     1.0000 0.67630  0.55959  0.82617  Biso   1.000  Ne
  Ne23     1.0000 0.71735  0.98636  0.15645  Biso   1.000  Ne
  He23     1.0000 0.72620  0.02037  0.15156  Biso   1.000  He
  He24     1.0000 0.74576  0.02734  0.12502  Biso   1.000  He
  Ne24     1.0000 0.74927  0.06057  0.11963  Biso   1.000  Ne
  Ne25     1.0000 0.70926  0.55219  0.28763  Biso   1.000  Ne
  He25     1.0000 0.68410  0.55576  0.30798  Biso   1.000  He
  He26     1.0000 0.66871  0.52678  0.31898  Biso   1.000  He
  Ne26     1.0000 0.64312  0.53278  0.33958  Biso   1.000  Ne
  Ne27     1.0000 0.38240  0.06910  0.44639  Biso   1.000  Ne
  He27     1.0000 0.36607  0.09760  0.44127  Biso   1.000  He
  He28     1.0000 0.35534  0.09923  0.40842  Biso   1.000  He
  Ne28     1.0000 0.33910  0.12765  0.40397  Biso   1.000  Ne
  Ne29     1.0000 0.58235  0.23300  0.62440  Biso   1.000  Ne
  He29     1.0000 0.58835  0.23716  0.65598  Biso   1.000  He
  He30     1.0000 0.62180  0.24064  0.66477  Biso   1.000  He
  Ne30     1.0000 0.62590  0.23586  0.69871  Biso   1.000  Ne
  Ne31     1.0000 0.09141  0.42261  0.76646  Biso   1.000  Ne
  He31     1.0000 0.11754  0.40646  0.76289  Biso   1.000  He
  He32     1.0000 0.13127  0.40684  0.73350  Biso   1.000  He
  Ne32     1.0000 0.15767  0.38987  0.73003  Biso   1.000  Ne
  Ne33     1.0000 0.93412  0.17143  0.11229  Biso   1.000  Ne
  He33     1.0000 0.94913  0.14243  0.09783  Biso   1.000  He
  He34     1.0000 0.96162  0.11850  0.11754  Biso   1.000  He
  Ne34     1.0000 0.97162  0.09023  0.10312  Biso   1.000  Ne
  Ne35     1.0000 0.93038  0.83755  0.84653  Biso   1.000  Ne
  He35     1.0000 0.94554  0.85939  0.86593  Biso   1.000  He
  He36     1.0000 0.93306  0.89176  0.86196  Biso   1.000  He
  Ne36     1.0000 0.94192  0.91510  0.88365  Biso   1.000  Ne
  Ne37     1.0000 0.41189  0.24589  0.90861  Biso   1.000  Ne
  He37     1.0000 0.43033  0.27626  0.90962  Biso   1.000  He
  He38     1.0000 0.42391  0.29591  0.93604  Biso   1.000  He
  Ne38     1.0000 0.43911  0.32432  0.93586  Biso   1.000  Ne
  Ne39     1.0000 0.21426  0.11515  0.27431  Biso   1.000  Ne
  He39     1.0000 0.20513  0.11271  0.24317  Biso   1.000  He
  He40     1.0000 0.22991  0.10450  0.22566  Biso   1.000  He
  Ne40     1.0000 0.22412  0.09956  0.19446  Biso   1.000  Ne
  Ne41     1.0000 0.31062  0.93293  0.17774  Biso   1.000  Ne
  He41     1.0000 0.28902  0.92207  0.20238  Biso   1.000  He
  He42     1.0000 0.25976  0.93959  0.20591  Biso   1.000  He
  Ne42     1.0000 0.24140  0.93068  0.23137  Biso   1.000  Ne
  Ne43     1.0000 0.45543  0.44137  0.95070  Biso   1.000  Ne
  He43     1.0000 0.45740  0.43082  0.98161  Biso   1.000  He
  He44     1.0000 0.46636  0.45414  0.00644  Biso   1.000  He
  Ne44     1.0000 0.46715  0.44549  0.03808  Biso   1.000  Ne
  Ne45     1.0000 0.94491  0.38792  0.33438  Biso   1.000  Ne
  He45     1.0000 0.91630  0.40788  0.33548  Biso   1.000  He
  He46     1.0000 0.89095  0.39793  0.35421  Biso   1.000  He
  Ne46     1.0000 0.86508  0.41628  0.35781  Biso   1.000  Ne
  Ne47     1.0000 0.40281  0.27815  0.11282  Biso   1.000  Ne
  He47     1.0000 0.41357  0.31039  0.10775  Biso   1.000  He
  He48     1.0000 0.38943  0.33327  0.10958  Biso   1.000  He
  Ne48     1.0000 0.40246  0.36371  0.10764  Biso   1.000  Ne
  Ne49     1.0000 0.18612  0.07008  0.94551  Biso   1.000  Ne
  He49     1.0000 0.17056  0.09080  0.92556  Biso   1.000  He
  He50     1.0000 0.16281  0.11897  0.94365  Biso   1.000  He
  Ne50     1.0000 0.14930  0.13975  0.92311  Biso   1.000  Ne
  Ne51     1.0000 0.37628  0.14964  0.32399  Biso   1.000  Ne
  He51     1.0000 0.35543  0.13578  0.30004  Biso   1.000  He
  He52     1.0000 0.34531  0.10584  0.30574  Biso   1.000  He
  Ne52     1.0000 0.32301  0.09151  0.28656  Biso   1.000  Ne
  Ne53     1.0000 0.24475  0.09135  0.41485  Biso   1.000  Ne
  He53     1.0000 0.25050  0.08090  0.44739  Biso   1.000  He
  He54     1.0000 0.25182  0.04566  0.44598  Biso   1.000  He
  Ne54     1.0000 0.25667  0.03275  0.47604  Biso   1.000  Ne
  Ne55     1.0000 0.29501  0.29668  0.44097  Biso   1.000  Ne
  He55     1.0000 0.26904  0.30838  0.42687  Biso   1.000  He
  He56     1.0000 0.24226  0.28836  0.42430  Biso   1.000  He
  Ne56     1.0000 0.21417  0.30262  0.41460  Biso   1.000  Ne
  Ne57     1.0000 0.69872  0.58213  0.18324  Biso   1.000  Ne
  He57     1.0000 0.72601  0.58393  0.16418  Biso   1.000  He
  He58     1.0000 0.72134  0.56884  0.13687  Biso   1.000  He
  Ne58     1.0000 0.74518  0.56627  0.11337  Biso   1.000  Ne
  Ne59     1.0000 0.72517  0.08712  0.66312  Biso   1.000  Ne
  He59     1.0000 0.70710  0.08088  0.63703  Biso   1.000  He
  He60     1.0000 0.67458  0.07426  0.64303  Biso   1.000  He
  Ne60     1.0000 0.65815  0.06772  0.61598  Biso   1.000  Ne
  Ne61     1.0000 0.62150  0.84234  0.37046  Biso   1.000  Ne
  He61     1.0000 0.61482  0.87425  0.36412  Biso   1.000  He
  He62     1.0000 0.62032  0.88901  0.39264  Biso   1.000  He
  Ne62     1.0000 0.61188  0.92033  0.38485  Biso   1.000  Ne
  Ne63     1.0000 0.89947  0.60981  0.26440  Biso   1.000  Ne
  He63     1.0000 0.91560  0.59358  0.28823  Biso   1.000  He
  He64     1.0000 0.94657  0.60184  0.29352  Biso   1.000  He
  Ne64     1.0000 0.95019  0.61841  0.31971  Biso   1.000  Ne
  Ne65     1.0000 0.35361  0.71440  0.91165  Biso   1.000  Ne
  He65     1.0000 0.33700  0.68645  0.91834  Biso   1.000  He
  He66     1.0000 0.30933  0.69629  0.93659  Biso   1.000  He
  Ne66     1.0000 0.28695  0.67075  0.93817  Biso   1.000  Ne
  Ne67     1.0000 0.10174  0.56776  0.41240  Biso   1.000  Ne
  He67     1.0000 0.10740  0.55835  0.44470  Biso   1.000  He
  He68     1.0000 0.09013  0.57807  0.46532  Biso   1.000  He
  Ne68     1.0000 0.09608  0.57600  0.49884  Biso   1.000  Ne
  Ne69     1.0000 0.35077  0.40693  0.19445  Biso   1.000  Ne
  He69     1.0000 0.34400  0.42620  0.16755  Biso   1.000  He
  He70     1.0000 0.34246  0.40573  0.13906  Biso   1.000  He
  Ne70     1.0000 0.33547  0.42331  0.11182  Biso   1.000  Ne
  Ne71     1.0000 0.87413  0.86608  0.92670  Biso   1.000  Ne
  He71     1.0000 0.86094  0.89699  0.91971  Biso   1.000  He
  He72     1.0000 0.82557  0.89592  0.91078  Biso   1.000  He
  Ne72     1.0000 0.81006  0.92205  0.90099  Biso   1.000  Ne
  Ne73     1.0000 0.95468  0.62298  0.69833  Biso   1.000  Ne
  He73     1.0000 0.96104  0.59466  0.71099  Biso   1.000  He
  He74     1.0000 0.94810  0.58932  0.74468  Biso   1.000  He
  Ne74     1.0000 0.95440  0.55943  0.75659  Biso   1.000  Ne
  Ne75     1.0000 0.13966  0.89580  0.85737  Biso   1.000  Ne
  He75     1.0000 0.11124  0.87806  0.86624  Biso   1.000  He
  He76     1.0000 0.12343  0.84832  0.87585  Biso   1.000  He
  Ne76     1.0000 0.09914  0.82688  0.88626  Biso   1.000  Ne
  Ne77     1.0000 0.04734  0.27187  0.88098  Biso   1.000  Ne
  He77     1.0000 0.07887  0.25608  0.88091  Biso   1.000  He
  He78     1.0000 0.08269  0.22716  0.86012  Biso   1.000  He
  Ne78     1.0000 0.09501  0.20136  0.87544  Biso   1.000  Ne
  Ne79     1.0000 0.63741  0.19270  0.45770  Biso   1.000  Ne
  He79     1.0000 0.65436  0.20812  0.43309  Biso   1.000  He
  He80     1.0000 0.67747  0.18918  0.41874  Biso   1.000  He
  Ne80     1.0000 0.69881  0.20354  0.39807  Biso   1.000  Ne
  Ne81     1.0000 0.95855  0.79374  0.91823  Biso   1.000  Ne
  He81     1.0000 0.96555  0.76277  0.92971  Biso   1.000  He
  He82     1.0000 0.93673  0.74847  0.93452  Biso   1.000  He
  Ne82     1.0000 0.93879  0.71766  0.95319  Biso   1.000  Ne
  Ne83     1.0000 0.87960  0.57599  0.42224  Biso   1.000  Ne
  He83     1.0000 0.84741  0.57478  0.41026  Biso   1.000  He
  He84     1.0000 0.82853  0.57357  0.43624  Biso   1.000  He
  Ne84     1.0000 0.79491  0.56353  0.42827  Biso   1.000  Ne
  Ne85     1.0000 0.44270  0.74439  0.21483  Biso   1.000  Ne
  He85     1.0000 0.42594  0.73125  0.18855  Biso   1.000  He
  He86     1.0000 0.39414  0.74013  0.18209  Biso   1.000  He
  Ne86     1.0000 0.37245  0.72039  0.19685  Biso   1.000  Ne
  Ne87     1.0000 0.11125  0.67285  0.67697  Biso   1.000  Ne
  He87     1.0000 0.11780  0.67478  0.71016  Biso   1.000  He
  He88     1.0000 0.13316  0.70275  0.72240  Biso   1.000  He
  Ne88     1.0000 0.14161  0.70072  0.75321  Biso   1.000  Ne
  Ne89     1.0000 0.24797  0.42246  0.07849  Biso   1.000  Ne
  He89     1.0000 0.23783  0.44466  0.09934  Biso   1.000  He
  He90     1.0000 0.20853  0.45541  0.09524  Biso   1.000  He
  Ne90     1.0000 0.19945  0.48199  0.11532  Biso   1.000  Ne
  Ne91     1.0000 0.10443  0.78752  0.79861  Biso   1.000  Ne
  He91     1.0000 0.12441  0.81217  0.79251  Biso   1.000  He
  He92     1.0000 0.15750  0.80193  0.79591  Biso   1.000  He
  Ne92     1.0000 0.18307  0.82288  0.78501  Biso   1.000  Ne
  Ne93     1.0000 0.70992  0.91740  0.65077  Biso   1.000  Ne
  He93     1.0000 0.72097  0.91237  0.61982  Biso   1.000  He
  He94     1.0000 0.75244  0.90259  0.62067  Biso   1.000  He
  Ne94     1.0000 0.76721  0.89799  0.59089  Biso   1.000  Ne
  Ne95     1.0000 0.72172  0.55984  0.90450  Biso   1.000  Ne
  He95     1.0000 0.73601  0.55404  0.93434  Biso   1.000  He
  He96     1.0000 0.76644  0.54374  0.92901  Biso   1.000  He
  Ne96     1.0000 0.78307  0.53706  0.95842  Biso   1.000  Ne
  Ne97     1.0000 0.09374  0.65685  0.84787  Biso   1.000  Ne
  He97     1.0000 0.09767  0.66012  0.88271  Biso   1.000  He
  He98     1.0000 0.06672  0.66737  0.89919  Biso   1.000  He
  Ne98     1.0000 0.06553  0.67614  0.93030  Biso   1.000  Ne
  Ne99     1.0000 0.76508  0.29599  0.15262  Biso   1.000  Ne
  He99     1.0000 0.78395  0.32200  0.13988  Biso   1.000  He
  He100    1.0000 0.81310  0.31156  0.12339  Biso   1.000  He
  Ne100    1.0000 0.83012  0.33751  0.11050  Biso   1.000  Ne
  Ne101    1.0000 0.42623  0.42834  0.27618  Biso   1.000  Ne
  He101    1.0000 0.41490  0.40429  0.25871  Biso   1.000  He
  He102    1.0000 0.43566  0.37683  0.26434  Biso   1.000  He
  Ne102    1.0000 0.42645  0.34913  0.24936  Biso   1.000  Ne
  Ne103    1.0000 0.11394  0.25579  0.30972  Biso   1.000  Ne
  He103    1.0000 0.10591  0.24729  0.34224  Biso   1.000  He
  He104    1.0000 0.08138  0.22425  0.34313  Biso   1.000  He
  Ne104    1.0000 0.07069  0.22049  0.37447  Biso   1.000  Ne
  Ne105    1.0000 0.43331  0.43754  0.11211  Biso   1.000  Ne
  He105    1.0000 0.42505  0.42950  0.14114  Biso   1.000  He
  He106    1.0000 0.44428  0.40755  0.15595  Biso   1.000  He
  Ne106    1.0000 0.43173  0.39296  0.18444  Biso   1.000  Ne
  Ne107    1.0000 0.45717  0.99842  0.48821  Biso   1.000  Ne
  He107    1.0000 0.48329  0.02197  0.49755  Biso   1.000  He
  He108    1.0000 0.46836  0.05216  0.50075  Biso   1.000  He
  Ne108    1.0000 0.48966  0.07700  0.50190  Biso   1.000  Ne
  Ne109    1.0000 0.46227  0.13235  0.44266  Biso   1.000  Ne
  He109    1.0000 0.45801  0.12891  0.40997  Biso   1.000  He
  He110    1.0000 0.43652  0.10541  0.40191  Biso   1.000  He
  Ne110    1.0000 0.44032  0.09964  0.37072  Biso   1.000  Ne
  Ne111    1.0000 0.99640  0.40952  0.52748  Biso   1.000  Ne
  He111    1.0000 0.00043  0.43324  0.55065  Biso   1.000  He
  He112    1.0000 0.97331  0.44939  0.55717  Biso   1.000  He
  Ne112    1.0000 0.97567  0.47316  0.57649  Biso   1.000  Ne
  Ne113    1.0000 0.64920  0.17015  0.62074  Biso   1.000  Ne
  He113    1.0000 0.68093  0.15831  0.62391  Biso   1.000  He
  He114    1.0000 0.70527  0.17739  0.61110  Biso   1.000  He
  Ne114    1.0000 0.73540  0.16510  0.61518  Biso   1.000  Ne
  Ne115    1.0000 0.92963  0.76212  0.39243  Biso   1.000  Ne
  He115    1.0000 0.94579  0.78645  0.37435  Biso   1.000  He
  He116    1.0000 0.95321  0.77645  0.34375  Biso   1.000  He
  Ne116    1.0000 0.96474  0.79966  0.32576  Biso   1.000  Ne
  Ne117    1.0000 0.63410  0.90590  0.67977  Biso   1.000  Ne
  He117    1.0000 0.60882  0.91125  0.70084  Biso   1.000  He
  He118    1.0000 0.61657  0.91163  0.73340  Biso   1.000  He
  Ne118    1.0000 0.59335  0.91886  0.75275  Biso   1.000  Ne
  Ne119    1.0000 0.60984  0.34663  0.20092  Biso   1.000  Ne
  He119    1.0000 0.63099  0.37226  0.19981  Biso   1.000  He
  He120    1.0000 0.61710  0.40292  0.20444  Biso   1.000  He
  Ne120    1.0000 0.63896  0.42763  0.20153  Biso   1.000  Ne
  Ne121    1.0000 0.77472  0.14841  0.23315  Biso   1.000  Ne
  He121    1.0000 0.77699  0.12669  0.25872  Biso   1.000  He
  He122    1.0000 0.80069  0.10148  0.25486  Biso   1.000  He
  Ne122    1.0000 0.79782  0.07305  0.27375  Biso   1.000  Ne
  Ne123    1.0000 0.55834  0.30817  0.44178  Biso   1.000  Ne
  He123    1.0000 0.55542  0.31978  0.40877  Biso   1.000  He
  He124    1.0000 0.58529  0.32423  0.39418  Biso   1.000  He
  Ne124    1.0000 0.58223  0.34007  0.36619  Biso   1.000  Ne
  Ne125    1.0000 0.59676  0.10620  0.60118  Biso   1.000  Ne
  He125    1.0000 0.58250  0.08363  0.58277  Biso   1.000  He
  He126    1.0000 0.54774  0.08148  0.57994  Biso   1.000  He
  Ne126    1.0000 0.53749  0.05668  0.55984  Biso   1.000  Ne
  Ne127    1.0000 0.76923  0.16145  0.42683  Biso   1.000  Ne
  He127    1.0000 0.78433  0.16528  0.39838  Biso   1.000  He
  He128    1.0000 0.81763  0.16143  0.40314  Biso   1.000  He
  Ne128    1.0000 0.83644  0.16503  0.37556  Biso   1.000  Ne
  Ne129    1.0000 0.47636  0.74740  0.91791  Biso   1.000  Ne
  He129    1.0000 0.46088  0.72466  0.93448  Biso   1.000  He
  He130    1.0000 0.45617  0.69741  0.91503  Biso   1.000  He
  Ne130    1.0000 0.43636  0.67457  0.92731  Biso   1.000  Ne
  Ne131    1.0000 0.03141  0.97352  0.11317  Biso   1.000  Ne
  He131    1.0000 0.03071  0.00632  0.10422  Biso   1.000  He
  He132    1.0000 0.02258  0.01411  0.07527  Biso   1.000  He
  Ne132    1.0000 0.02074  0.04423  0.06840  Biso   1.000  Ne
  Ne133    1.0000 0.06821  0.98996  0.96472  Biso   1.000  Ne
  He133    1.0000 0.05588  0.02038  0.96020  Biso   1.000  He
  He134    1.0000 0.06680  0.04749  0.97694  Biso   1.000  He
  Ne134    1.0000 0.04746  0.07199  0.97410  Biso   1.000  Ne
  Ne135    1.0000 0.43616  0.79350  0.72634  Biso   1.000  Ne
  He135    1.0000 0.42307  0.80930  0.75292  Biso   1.000  He
  He136    1.0000 0.44558  0.82801  0.77150  Biso   1.000  He
  Ne136    1.0000 0.43512  0.83996  0.80162  Biso   1.000  Ne
  Ne137    1.0000 0.95945  0.92805  0.07461  Biso   1.000  Ne
  He137    1.0000 0.95730  0.96094  0.08018  Biso   1.000  He
  He138    1.0000 0.93644  0.97318  0.05878  Biso   1.000  He
  Ne138    1.0000 0.93512  0.00653  0.06087  Biso   1.000  Ne
  Ne139    1.0000 0.61874  0.57848  0.96337  Biso   1.000  Ne
  He139    1.0000 0.60628  0.57300  0.93292  Biso   1.000  He
  He140    1.0000 0.62705  0.56443  0.90845  Biso   1.000  He
  Ne140    1.0000 0.61223  0.56881  0.87852  Biso   1.000  Ne
  Ne141    1.0000 0.87645  0.12807  0.57292  Biso   1.000  Ne
  He141    1.0000 0.85615  0.14822  0.59033  Biso   1.000  He
  He142    1.0000 0.84138  0.16628  0.57038  Biso   1.000  He
  Ne142    1.0000 0.82572  0.18767  0.58783  Biso   1.000  Ne
  Ne143    1.0000 0.28485  0.22664  0.37741  Biso   1.000  Ne
  He143    1.0000 0.30247  0.21951  0.40387  Biso   1.000  He
  He144    1.0000 0.33531  0.21674  0.39892  Biso   1.000  He
  Ne144    1.0000 0.35108  0.20906  0.42414  Biso   1.000  Ne
  Ne145    1.0000 0.33303  0.36171  0.81468  Biso   1.000  Ne
  He145    1.0000 0.33222  0.39215  0.80068  Biso   1.000  He
  He146    1.0000 0.35153  0.40046  0.77504  Biso   1.000  He
  Ne146    1.0000 0.35136  0.43265  0.76584  Biso   1.000  Ne
  Ne147    1.0000 0.17455  0.21591  0.10951  Biso   1.000  Ne
  He147    1.0000 0.19021  0.24374  0.11534  Biso   1.000  He
  He148    1.0000 0.17488  0.27141  0.10980  Biso   1.000  He
  Ne148    1.0000 0.17105  0.27668  0.07545  Biso   1.000  Ne
  Ne149    1.0000 0.62986  0.72251  0.47258  Biso   1.000  Ne
  He149    1.0000 0.60217  0.70355  0.46730  Biso   1.000  He
  He150    1.0000 0.57586  0.71760  0.47872  Biso   1.000  He
  Ne150    1.0000 0.54680  0.70090  0.47917  Biso   1.000  Ne
  Ne151    1.0000 0.76226  0.90997  0.81633  Biso   1.000  Ne
  He151    1.0000 0.73106  0.90621  0.82644  Biso   1.000  He
  He152    1.0000 0.71484  0.93168  0.84214  Biso   1.000  He
  Ne152    1.0000 0.69080  0.95099  0.82581  Biso   1.000  Ne
  Ne153    1.0000 0.43437  0.91045  0.71977  Biso   1.000  Ne
  He153    1.0000 0.40259  0.90060  0.71759  Biso   1.000  He
  He154    1.0000 0.38427  0.91088  0.69309  Biso   1.000  He
  Ne154    1.0000 0.35157  0.90245  0.69582  Biso   1.000  Ne
  Ne155    1.0000 0.08263  0.76062  0.65834  Biso   1.000  Ne
  He155    1.0000 0.06780  0.78512  0.67351  Biso   1.000  He
  He156    1.0000 0.08665  0.79767  0.69908  Biso   1.000  He
  Ne156    1.0000 0.07255  0.82560  0.71814  Biso   1.000  Ne
  Ne157    1.0000 0.90796  0.92266  0.74710  Biso   1.000  Ne
  He157    1.0000 0.89342  0.92353  0.77699  Biso   1.000  He
  He158    1.0000 0.86974  0.89682  0.77704  Biso   1.000  He
  Ne158    1.0000 0.85157  0.89376  0.80448  Biso   1.000  Ne
  Ne159    1.0000 0.81405  0.59198  0.31281  Biso   1.000  Ne
  He159    1.0000 0.78634  0.59811  0.32801  Biso   1.000  He
  He160    1.0000 0.76396  0.61381  0.31232  Biso   1.000  He
  Ne160    1.0000 0.73547  0.61461  0.32821  Biso   1.000  Ne
  Ne161    1.0000 0.21839  0.28035  0.59179  Biso   1.000  Ne
  He161    1.0000 0.18757  0.26631  0.58808  Biso   1.000  He
  He162    1.0000 0.18703  0.23077  0.57763  Biso   1.000  He
  Ne162    1.0000 0.18216  0.21071  0.60374  Biso   1.000  Ne
  Ne163    1.0000 0.36604  0.08599  0.61417  Biso   1.000  Ne
  He163    1.0000 0.37700  0.11289  0.59653  Biso   1.000  He
  He164    1.0000 0.37248  0.14250  0.61498  Biso   1.000  He
  Ne164    1.0000 0.38707  0.16703  0.59891  Biso   1.000  Ne
  Ne165    1.0000 0.12399  0.16932  0.15135  Biso   1.000  Ne
  He165    1.0000 0.12092  0.17598  0.18347  Biso   1.000  He
  He166    1.0000 0.14572  0.19535  0.19493  Biso   1.000  He
  Ne166    1.0000 0.14790  0.19698  0.22947  Biso   1.000  Ne
  Ne167    1.0000 0.23108  0.42325  0.58231  Biso   1.000  Ne
  He167    1.0000 0.20653  0.40777  0.59822  Biso   1.000  He
  He168    1.0000 0.21051  0.37306  0.59810  Biso   1.000  He
  Ne168    1.0000 0.19046  0.35568  0.61848  Biso   1.000  Ne
  Ne169    1.0000 0.95669  0.64700  0.46157  Biso   1.000  Ne
  He169    1.0000 0.94763  0.67634  0.44634  Biso   1.000  He
  He170    1.0000 0.92614  0.66962  0.42004  Biso   1.000  He
  Ne170    1.0000 0.94131  0.66357  0.38995  Biso   1.000  Ne
  Ne171    1.0000 0.82677  0.07218  0.36850  Biso   1.000  Ne
  He171    1.0000 0.79409  0.07089  0.37048  Biso   1.000  He
  He172    1.0000 0.78010  0.09748  0.35829  Biso   1.000  He
  Ne172    1.0000 0.74621  0.09312  0.35825  Biso   1.000  Ne
  Ne173    1.0000 0.12871  0.58120  0.74759  Biso   1.000  Ne
  He173    1.0000 0.15152  0.57699  0.72290  Biso   1.000  He
  He174    1.0000 0.13956  0.58803  0.69415  Biso   1.000  He
  Ne174    1.0000 0.15799  0.57993  0.66637  Biso   1.000  Ne
  Ne175    1.0000 0.69135  0.37695  0.12690  Biso   1.000  Ne
  He175    1.0000 0.69760  0.34686  0.12038  Biso   1.000  He
  He176    1.0000 0.66733  0.33215  0.11411  Biso   1.000  He
  Ne176    1.0000 0.66980  0.29965  0.10864  Biso   1.000  Ne
  Ne177    1.0000 0.94879  0.40350  0.66466  Biso   1.000  Ne
  He177    1.0000 0.95988  0.40023  0.63584  Biso   1.000  He
  He178    1.0000 0.95018  0.37041  0.62137  Biso   1.000  He
  Ne178    1.0000 0.96085  0.36480  0.59158  Biso   1.000  Ne
  Ne179    1.0000 0.35613  0.14815  0.01149  Biso   1.000  Ne
  He179    1.0000 0.36682  0.17435  0.99457  Biso   1.000  He
  He180    1.0000 0.34391  0.19886  0.98835  Biso   1.000  He
  Ne180    1.0000 0.35755  0.22762  0.97608  Biso   1.000  Ne
  Ne181    1.0000 0.82728  0.51978  0.02398  Biso   1.000  Ne
  He181    1.0000 0.82159  0.51940  0.05721  Biso   1.000  He
  He182    1.0000 0.84789  0.53100  0.07735  Biso   1.000  He
  Ne182    1.0000 0.84239  0.52666  0.10818  Biso   1.000  Ne
  Ne183    1.0000 0.65869  0.94354  0.29231  Biso   1.000  Ne
  He183    1.0000 0.68534  0.92335  0.29912  Biso   1.000  He
  He184    1.0000 0.70945  0.92876  0.27804  Biso   1.000  He
  Ne184    1.0000 0.73887  0.91238  0.28190  Biso   1.000  Ne
  Ne185    1.0000 0.11613  0.41846  0.64200  Biso   1.000  Ne
  He185    1.0000 0.10501  0.41326  0.61103  Biso   1.000  He
  He186    1.0000 0.08750  0.38564  0.60327  Biso   1.000  He
  Ne186    1.0000 0.07787  0.38558  0.57103  Biso   1.000  Ne
  Ne187    1.0000 0.65684  0.20156  0.22884  Biso   1.000  Ne
  He187    1.0000 0.65547  0.23551  0.22495  Biso   1.000  He
  He188    1.0000 0.65087  0.24495  0.19254  Biso   1.000  He
  Ne188    1.0000 0.64987  0.27831  0.18927  Biso   1.000  Ne
  Ne189    1.0000 0.16744  0.39676  0.31876  Biso   1.000  Ne
  He189    1.0000 0.14005  0.37883  0.31688  Biso   1.000  He
  He190    1.0000 0.14347  0.34779  0.32775  Biso   1.000  He
  Ne190    1.0000 0.11728  0.32872  0.32036  Biso   1.000  Ne
  Ne191    1.0000 0.95373  0.81059  0.22040  Biso   1.000  Ne
  He191    1.0000 0.94505  0.81320  0.18588  Biso   1.000  He
  He192    1.0000 0.96861  0.81150  0.16172  Biso   1.000  He
  Ne192    1.0000 0.95604  0.81463  0.12928  Biso   1.000  Ne
  Ne193    1.0000 0.15317  0.08530  0.10517  Biso   1.000  Ne
  He193    1.0000 0.18305  0.09679  0.11617  Biso   1.000  He
  He194    1.0000 0.18694  0.12920  0.10486  Biso   1.000  He
  Ne194    1.0000 0.21549  0.13904  0.11503  Biso   1.000  Ne
  Ne195    1.0000 0.34782  0.43663  0.33794  Biso   1.000  Ne
  He195    1.0000 0.34495  0.41584  0.31197  Biso   1.000  He
  He196    1.0000 0.35416  0.38411  0.31947  Biso   1.000  He
  Ne196    1.0000 0.35041  0.36028  0.29658  Biso   1.000  Ne
  Ne197    1.0000 0.43225  0.11442  0.69342  Biso   1.000  Ne
  He197    1.0000 0.44606  0.09371  0.67187  Biso   1.000  He
  He198    1.0000 0.44582  0.10486  0.64088  Biso   1.000  He
  Ne198    1.0000 0.45934  0.08328  0.61550  Biso   1.000  Ne
  Ne199    1.0000 0.35726  0.33553  0.38842  Biso   1.000  Ne
  He199    1.0000 0.36601  0.33210  0.42120  Biso   1.000  He
  He200    1.0000 0.36160  0.35889  0.43794  Biso   1.000  He
  Ne200    1.0000 0.36327  0.35647  0.46955  Biso   1.000  Ne
  Ne201    1.0000 0.79715  0.41822  0.19911  Biso   1.000  Ne
  He201    1.0000 0.78796  0.38610  0.19506  Biso   1.000  He
  He202    1.0000 0.77550  0.37418  0.22231  Biso   1.000  He
  Ne202    1.0000 0.76736  0.34286  0.21992  Biso   1.000  Ne
  Ne203    1.0000 0.94432  0.73611  0.82698  Biso   1.000  Ne
  He203    1.0000 0.93019  0.73279  0.80039  Biso   1.000  He
  He204    1.0000 0.89801  0.73983  0.79977  Biso   1.000  He
  Ne204    1.0000 0.88171  0.72950  0.77343  Biso   1.000  Ne
  Ne205    1.0000 0.64739  0.09750  0.33409  Biso   1.000  Ne
  He205    1.0000 0.61831  0.10107  0.31795  Biso   1.000  He
  He206    1.0000 0.62096  0.09544  0.28569  Biso   1.000  He
  Ne206    1.0000 0.60180  0.10542  0.26522  Biso   1.000  Ne
  Ne207    1.0000 0.46210  0.63594  0.84716  Biso   1.000  Ne
  He207    1.0000 0.45856  0.60202  0.84055  Biso   1.000  He
  He208    1.0000 0.45029  0.59884  0.80837  Biso   1.000  He
  Ne208    1.0000 0.45036  0.56766  0.79627  Biso   1.000  Ne
  Ne209    1.0000 0.98074  0.04383  0.95757  Biso   1.000  Ne
  He209    1.0000 0.94765  0.04558  0.95340  Biso   1.000  He
  He210    1.0000 0.93195  0.07050  0.96970  Biso   1.000  He
  Ne210    1.0000 0.89756  0.06973  0.96415  Biso   1.000  Ne
  Ne211    1.0000 0.80407  0.21059  0.13048  Biso   1.000  Ne
  He211    1.0000 0.83173  0.19357  0.13351  Biso   1.000  He
  He212    1.0000 0.82975  0.15908  0.12756  Biso   1.000  He
  Ne212    1.0000 0.85539  0.14572  0.13864  Biso   1.000  Ne
  Ne213    1.0000 0.44595  0.53200  0.95227  Biso   1.000  Ne
  He213    1.0000 0.45295  0.56659  0.96014  Biso   1.000  He
  He214    1.0000 0.47399  0.57931  0.93854  Biso   1.000  He
  Ne214    1.0000 0.48840  0.61085  0.94402  Biso   1.000  Ne
  Ne215    1.0000 0.09920  0.57526  0.59412  Biso   1.000  Ne
  He215    1.0000 0.08456  0.54771  0.59669  Biso   1.000  He
  He216    1.0000 0.05206  0.54917  0.60379  Biso   1.000  He
  Ne216    1.0000 0.03752  0.51884  0.60514  Biso   1.000  Ne
  Ne217    1.0000 0.22797  0.40393  0.21891  Biso   1.000  Ne
  He217    1.0000 0.24751  0.40013  0.19496  Biso   1.000  He
  He218    1.0000 0.23529  0.38440  0.16923  Biso   1.000  He
  Ne218    1.0000 0.25519  0.37829  0.14406  Biso   1.000  Ne
  Ne219    1.0000 0.31627  0.17829  0.08666  Biso   1.000  Ne
  He219    1.0000 0.31913  0.14771  0.09708  Biso   1.000  He
  He220    1.0000 0.29649  0.12770  0.08176  Biso   1.000  He
  Ne220    1.0000 0.29803  0.09512  0.09026  Biso   1.000  Ne
  Ne221    1.0000 0.10033  0.23790  0.46963  Biso   1.000  Ne
  He221    1.0000 0.10222  0.25717  0.44157  Biso   1.000  He
  He222    1.0000 0.10550  0.28620  0.44424  Biso   1.000  He
  Ne222    1.0000 0.10517  0.30169  0.41719  Biso   1.000  Ne
  Ne223    1.0000 0.35685  0.60177  0.17189  Biso   1.000  Ne
  He223    1.0000 0.36608  0.58724  0.19907  Biso   1.000  He
  He224    1.0000 0.39570  0.59797  0.20739  Biso   1.000  He
  Ne224    1.0000 0.41228  0.58224  0.23349  Biso   1.000  Ne
  Ne225    1.0000 0.62644  0.54842  0.08529  Biso   1.000  Ne
  He225    1.0000 0.60020  0.54252  0.06499  Biso   1.000  He
  He226    1.0000 0.60154  0.50787  0.05412  Biso   1.000  He
  Ne226    1.0000 0.58363  0.49980  0.02473  Biso   1.000  Ne
  Ne227    1.0000 0.10801  0.08433  0.87751  Biso   1.000  Ne
  He227    1.0000 0.13110  0.08708  0.85365  Biso   1.000  He
  He228    1.0000 0.12175  0.06793  0.82825  Biso   1.000  He
  Ne228    1.0000 0.14258  0.06580  0.80196  Biso   1.000  Ne
  Ne229    1.0000 0.75172  0.41240  0.37587  Biso   1.000  Ne
  He229    1.0000 0.72730  0.41799  0.39779  Biso   1.000  He
  He230    1.0000 0.73677  0.42418  0.42942  Biso   1.000  He
  Ne230    1.0000 0.71132  0.43457  0.44708  Biso   1.000  Ne
  Ne231    1.0000 0.48422  0.39180  0.38388  Biso   1.000  Ne
  He231    1.0000 0.48411  0.37964  0.41354  Biso   1.000  He
  He232    1.0000 0.46572  0.39496  0.43527  Biso   1.000  He
  Ne232    1.0000 0.46692  0.38093  0.46345  Biso   1.000  Ne
  Ne233    1.0000 0.62070  0.69887  0.89902  Biso   1.000  Ne
  He233    1.0000 0.64889  0.68432  0.90900  Biso   1.000  He
  He234    1.0000 0.64860  0.66698  0.93730  Biso   1.000  He
  Ne234    1.0000 0.67643  0.64746  0.93908  Biso   1.000  Ne
  Ne235    1.0000 0.94629  0.14367  0.81084  Biso   1.000  Ne
  He235    1.0000 0.93790  0.11877  0.82938  Biso   1.000  He
  He236    1.0000 0.93732  0.08989  0.81412  Biso   1.000  He
  Ne236    1.0000 0.93421  0.06278  0.83528  Biso   1.000  Ne
  Ne237    1.0000 0.13090  0.93178  0.19654  Biso   1.000  Ne
  He237    1.0000 0.13809  0.90113  0.20500  Biso   1.000  He
  He238    1.0000 0.11196  0.88299  0.20881  Biso   1.000  He
  Ne238    1.0000 0.11741  0.85235  0.22119  Biso   1.000  Ne
  Ne239    1.0000 0.74178  0.76326  0.07114  Biso   1.000  Ne
  He239    1.0000 0.76370  0.74145  0.08168  Biso   1.000  He
  He240    1.0000 0.74752  0.71120  0.08926  Biso   1.000  He
  Ne240    1.0000 0.73909  0.70367  0.12128  Biso   1.000  Ne
  Ne241    1.0000 0.61272  0.25137  0.10879  Biso   1.000  Ne
  He241    1.0000 0.58961  0.23508  0.12909  Biso   1.000  He
  He242    1.0000 0.57804  0.20385  0.11523  Biso   1.000  He
  Ne242    1.0000 0.55601  0.18690  0.13522  Biso   1.000  Ne
  Ne243    1.0000 0.58031  0.44916  0.11427  Biso   1.000  Ne
  He243    1.0000 0.57232  0.41767  0.10302  Biso   1.000  He
  He244    1.0000 0.59888  0.39906  0.10783  Biso   1.000  He
  Ne244    1.0000 0.59690  0.36844  0.09790  Biso   1.000  Ne
  Ne245    1.0000 0.61679  0.59277  0.26558  Biso   1.000  Ne
  He245    1.0000 0.60797  0.60347  0.23454  Biso   1.000  He
  He246    1.0000 0.60028  0.63681  0.23243  Biso   1.000  He
  Ne246    1.0000 0.59461  0.64227  0.20057  Biso   1.000  Ne
  Ne247    1.0000 0.06793  0.92383  0.01711  Biso   1.000  Ne
  He247    1.0000 0.07294  0.94645  0.04367  Biso   1.000  He
  He248    1.0000 0.10484  0.94910  0.05208  Biso   1.000  He
  Ne248    1.0000 0.11141  0.97401  0.07138  Biso   1.000  Ne
  Ne249    1.0000 0.91117  0.30579  0.45348  Biso   1.000  Ne
  He249    1.0000 0.92678  0.33390  0.45072  Biso   1.000  He
  He250    1.0000 0.92283  0.35234  0.42297  Biso   1.000  He
  Ne250    1.0000 0.94360  0.34768  0.40026  Biso   1.000  Ne
  Ne251    1.0000 0.17209  0.65788  0.43768  Biso   1.000  Ne
  He251    1.0000 0.16456  0.62491  0.43770  Biso   1.000  He
  He252    1.0000 0.19001  0.60479  0.44017  Biso   1.000  He
  Ne252    1.0000 0.18013  0.57132  0.44381  Biso   1.000  Ne
  Ne253    1.0000 0.60633  0.32437  0.86430  Biso   1.000  Ne
  He253    1.0000 0.61436  0.30395  0.88531  Biso   1.000  He
  He254    1.0000 0.58779  0.28993  0.90199  Biso   1.000  He
  Ne254    1.0000 0.59732  0.27230  0.92933  Biso   1.000  Ne
  Ne255    1.0000 0.93474  0.24249  0.39093  Biso   1.000  Ne
  He255    1.0000 0.91698  0.26575  0.37657  Biso   1.000  He
  He256    1.0000 0.88643  0.25651  0.36697  Biso   1.000  He
  Ne256    1.0000 0.87299  0.27701  0.34459  Biso   1.000  Ne
  Ne257    1.0000 0.20831  0.91517  0.11021  Biso   1.000  Ne
  He257    1.0000 0.17768  0.90607  0.10458  Biso   1.000  He
  He258    1.0000 0.17002  0.87740  0.12013  Biso   1.000  He
  Ne258    1.0000 0.14364  0.86505  0.10826  Biso   1.000  Ne
  Ne259    1.0000 0.69550  0.82569  0.67465  Biso   1.000  Ne
  He259    1.0000 0.70300  0.80009  0.65669  Biso   1.000  He
  He260    1.0000 0.73371  0.80404  0.64589  Biso   1.000  He
  Ne260    1.0000 0.74674  0.78465  0.62068  Biso   1.000  Ne
  Ne261    1.0000 0.44461  0.82943  0.31306  Biso   1.000  Ne
  He261    1.0000 0.44091  0.79871  0.32392  Biso   1.000  He
  He262    1.0000 0.42751  0.77888  0.30352  Biso   1.000  He
  Ne262    1.0000 0.42210  0.74631  0.31281  Biso   1.000  Ne
  Ne263    1.0000 0.81890  0.31470  0.44126  Biso   1.000  Ne
  He263    1.0000 0.80977  0.34692  0.44656  Biso   1.000  He
  He264    1.0000 0.83381  0.36792  0.44862  Biso   1.000  He
  Ne264    1.0000 0.82569  0.39969  0.44024  Biso   1.000  Ne
  Ne265    1.0000 0.94320  0.14283  0.19579  Biso   1.000  Ne
  He265    1.0000 0.94235  0.11144  0.20965  Biso   1.000  He
  He266    1.0000 0.92946  0.11143  0.24027  Biso   1.000  He
  Ne266    1.0000 0.92983  0.08215  0.25297  Biso   1.000  Ne
  Ne267    1.0000 0.91681  0.14547  0.94033  Biso   1.000  Ne
  He267    1.0000 0.91918  0.17836  0.94029  Biso   1.000  He
  He268    1.0000 0.93475  0.19226  0.91392  Biso   1.000  He
  Ne268    1.0000 0.94036  0.22527  0.91791  Biso   1.000  Ne
  Ne269    1.0000 0.89578  0.89139  0.10794  Biso   1.000  Ne
  He269    1.0000 0.87175  0.87018  0.09662  Biso   1.000  He
  He270    1.0000 0.84331  0.88155  0.10613  Biso   1.000  He
  Ne270    1.0000 0.81889  0.86266  0.08957  Biso   1.000  Ne
  Ne271    1.0000 0.20126  0.88515  0.93830  Biso   1.000  Ne
  He271    1.0000 0.18701  0.90775  0.95400  Biso   1.000  He
  He272    1.0000 0.15692  0.90923  0.94644  Biso   1.000  He
  Ne272    1.0000 0.14152  0.93623  0.95968  Biso   1.000  Ne
  Ne273    1.0000 0.44296  0.76618  0.43587  Biso   1.000  Ne
  He273    1.0000 0.43562  0.78929  0.41504  Biso   1.000  He
  He274    1.0000 0.46232  0.80954  0.41328  Biso   1.000  He
  Ne274    1.0000 0.46062  0.83524  0.39440  Biso   1.000  Ne
  Ne275    1.0000 0.36322  0.70620  0.08166  Biso   1.000  Ne
  He275    1.0000 0.36322  0.73889  0.08736  Biso   1.000  He
  He276    1.0000 0.37635  0.75711  0.06421  Biso   1.000  He
  Ne276    1.0000 0.38683  0.78943  0.07131  Biso   1.000  Ne
  Ne277    1.0000 0.94585  0.90507  0.20602  Biso   1.000  Ne
  He277    1.0000 0.93694  0.90497  0.23719  Biso   1.000  He
  He278    1.0000 0.90812  0.91728  0.24557  Biso   1.000  He
  Ne278    1.0000 0.90133  0.91279  0.27659  Biso   1.000  Ne
  Ne279    1.0000 0.85242  0.37567  0.60968  Biso   1.000  Ne
  He279    1.0000 0.86420  0.39624  0.63332  Biso   1.000  He
  He280    1.0000 0.84981  0.39101  0.66332  Biso   1.000  He
  Ne280    1.0000 0.86204  0.40641  0.68815  Biso   1.000  Ne
  Ne281    1.0000 0.83198  0.66637  0.11026  Biso   1.000  Ne
  He281    1.0000 0.84388  0.69506  0.10104  Biso   1.000  He
  He282    1.0000 0.86500  0.71232  0.11954  Biso   1.000  He
  Ne282    1.0000 0.87251  0.74402  0.11366  Biso   1.000  Ne
  Ne283    1.0000 0.31444  0.60401  0.88333  Biso   1.000  Ne
  He283    1.0000 0.33616  0.59494  0.90667  Biso   1.000  He
  He284    1.0000 0.35563  0.57074  0.89864  Biso   1.000  He
  Ne284    1.0000 0.37225  0.56094  0.92284  Biso   1.000  Ne
  Ne285    1.0000 0.49986  0.91369  0.50153  Biso   1.000  Ne
  He285    1.0000 0.48724  0.92359  0.47259  Biso   1.000  He
  He286    1.0000 0.47173  0.90114  0.45664  Biso   1.000  He
  Ne286    1.0000 0.46579  0.90564  0.42483  Biso   1.000  Ne
  Ne287    1.0000 0.84112  0.77173  0.35427  Biso   1.000  Ne
  He287    1.0000 0.85282  0.74169  0.34936  Biso   1.000  He
  He288    1.0000 0.85230  0.72774  0.31754  Biso   1.000  He
  Ne288    1.0000 0.86416  0.69606  0.31581  Biso   1.000  Ne
  Ne289    1.0000 0.45028  0.41476  0.79180  Biso   1.000  Ne
  He289    1.0000 0.45027  0.39747  0.81851  Biso   1.000  He
  He290    1.0000 0.41914  0.38640  0.82908  Biso   1.000  He
  Ne290    1.0000 0.42050  0.37146  0.85694  Biso   1.000  Ne
  Ne291    1.0000 0.45141  0.27898  0.30409  Biso   1.000  Ne
  He291    1.0000 0.42955  0.25320  0.30491  Biso   1.000  He
  He292    1.0000 0.39602  0.25847  0.29295  Biso   1.000  He
  Ne292    1.0000 0.37583  0.23430  0.29973  Biso   1.000  Ne
  Ne293    1.0000 0.17536  0.41026  0.39885  Biso   1.000  Ne
  He293    1.0000 0.20561  0.41151  0.39322  Biso   1.000  He
  He294    1.0000 0.22294  0.38880  0.40858  Biso   1.000  He
  Ne294    1.0000 0.25228  0.39147  0.39460  Biso   1.000  Ne
  Ne295    1.0000 0.50546  0.98467  0.58521  Biso   1.000  Ne
  He295    1.0000 0.47776  0.97571  0.56795  Biso   1.000  He
  He296    1.0000 0.46475  0.94734  0.57786  Biso   1.000  He
  Ne296    1.0000 0.43651  0.93685  0.56083  Biso   1.000  Ne
  Ne297    1.0000 0.70987  0.92140  0.39624  Biso   1.000  Ne
  He297    1.0000 0.70727  0.88715  0.39172  Biso   1.000  He
  He298    1.0000 0.72419  0.87004  0.41492  Biso   1.000  He
  Ne298    1.0000 0.73032  0.84068  0.41014  Biso   1.000  Ne
  Ne299    1.0000 0.95649  0.23358  0.60809  Biso   1.000  Ne
  He299    1.0000 0.93623  0.25547  0.62264  Biso   1.000  He
  He300    1.0000 0.92582  0.28231  0.60233  Biso   1.000  He
  Ne300    1.0000 0.90265  0.30389  0.61430  Biso   1.000  Ne
  Ne301    1.0000 0.57077  0.41238  0.00170  Biso   1.000  Ne
  He301    1.0000 0.57170  0.40947  0.96822  Biso   1.000  He
  He302    1.0000 0.60412  0.40338  0.95701  Biso   1.000  He
  Ne302    1.0000 0.60635  0.39846  0.92409  Biso   1.000  Ne
  Ne303    1.0000 0.41097  0.58820  0.07908  Biso   1.000  Ne
  He303    1.0000 0.38455  0.61162  0.08779  Biso   1.000  He
  He304    1.0000 0.35205  0.60073  0.08876  Biso   1.000  He
  Ne304    1.0000 0.33092  0.62580  0.09268  Biso   1.000  Ne
  Ne305    1.0000 0.10933  0.30768  0.62288  Biso   1.000  Ne
  He305    1.0000 0.10379  0.28015  0.63794  Biso   1.000  He
  He306    1.0000 0.09639  0.28381  0.67106  Biso   1.000  He
  Ne306    1.0000 0.09070  0.25390  0.68675  Biso   1.000  Ne
  Ne307    1.0000 0.34234  0.38504  0.68388  Biso   1.000  Ne
  He307    1.0000 0.37092  0.37878  0.69921  Biso   1.000  He
  He308    1.0000 0.37287  0.34596  0.70905  Biso   1.000  He
  Ne308    1.0000 0.40114  0.33903  0.72373  Biso   1.000  Ne
  Ne309    1.0000 0.10918  0.46924  0.47610  Biso   1.000  Ne
  He309    1.0000 0.11487  0.44089  0.45723  Biso   1.000  He
  He310    1.0000 0.10567  0.41337  0.46980  Biso   1.000  He
  Ne310    1.0000 0.10664  0.38660  0.44785  Biso   1.000  Ne
  Ne311    1.0000 0.62650  0.72743  0.23026  Biso   1.000  Ne
  He311    1.0000 0.64150  0.73140  0.20261  Biso   1.000  He
  He312    1.0000 0.62119  0.73314  0.17636  Biso   1.000  He
  Ne312    1.0000 0.63877  0.73804  0.14564  Biso   1.000  Ne
  Ne313    1.0000 0.83853  0.30649  0.03083  Biso   1.000  Ne
  He313    1.0000 0.82145  0.30958  0.00131  Biso   1.000  He
  He314    1.0000 0.79676  0.28861  0.99525  Biso   1.000  He
  Ne314    1.0000 0.77786  0.29832  0.96997  Biso   1.000  Ne
  Ne315    1.0000 0.59305  0.89854  0.25481  Biso   1.000  Ne
  He315    1.0000 0.61414  0.88631  0.27579  Biso   1.000  He
  He316    1.0000 0.62558  0.85521  0.26867  Biso   1.000  He
  Ne316    1.0000 0.65325  0.84534  0.28603  Biso   1.000  Ne
  Ne317    1.0000 0.36021  0.89457  0.25636  Biso   1.000  Ne
  He317    1.0000 0.37191  0.87258  0.27515  Biso   1.000  He
  He318    1.0000 0.35204  0.85426  0.29349  Biso   1.000  He
  Ne318    1.0000 0.36627  0.83340  0.31806  Biso   1.000  Ne
  Ne319    1.0000 0.93551  0.29989  0.96248  Biso   1.000  Ne
  He319    1.0000 0.92192  0.33059  0.95335  Biso   1.000  He
  He320    1.0000 0.93704  0.34263  0.92388  Biso   1.000  He
  Ne320    1.0000 0.92073  0.37044  0.91469  Biso   1.000  Ne
  Ne321    1.0000 0.65269  0.17592  0.32243  Biso   1.000  Ne
  He321    1.0000 0.62653  0.19541  0.32351  Biso   1.000  He
  He322    1.0000 0.63317  0.22830  0.33007  Biso   1.000  He
  Ne322    1.0000 0.60371  0.24426  0.32912  Biso   1.000  Ne
  Ne323    1.0000 0.46707  0.29156  0.43999  Biso   1.000  Ne
  He323    1.0000 0.48125  0.26350  0.42901  Biso   1.000  He
  He324    1.0000 0.46860  0.23596  0.44480  Biso   1.000  He
  Ne324    1.0000 0.47835  0.20943  0.42827  Biso   1.000  Ne
  Ne325    1.0000 0.15020  0.63585  0.60019  Biso   1.000  Ne
  He325    1.0000 0.18032  0.63460  0.61110  Biso   1.000  He
  He326    1.0000 0.20235  0.65735  0.60108  Biso   1.000  He
  Ne326    1.0000 0.23218  0.65523  0.61669  Biso   1.000  Ne
  Ne327    1.0000 0.95524  0.88016  0.94962  Biso   1.000  Ne
  He327    1.0000 0.98323  0.88058  0.96743  Biso   1.000  He
  He328    1.0000 0.98645  0.90678  0.98557  Biso   1.000  He
  Ne328    1.0000 0.00411  0.93249  0.97143  Biso   1.000  Ne
  Ne329    1.0000 0.61649  0.98120  0.53921  Biso   1.000  Ne
  He329    1.0000 0.59998  0.96101  0.51753  Biso   1.000  He
  He330    1.0000 0.62028  0.95517  0.48855  Biso   1.000  He
  Ne330    1.0000 0.60740  0.93499  0.46465  Biso   1.000  Ne
  Ne331    1.0000 0.64236  0.10413  0.19071  Biso   1.000  Ne
  He331    1.0000 0.66161  0.12242  0.17203  Biso   1.000  He
  He332    1.0000 0.65490  0.15295  0.16884  Biso   1.000  He
  Ne332    1.0000 0.67700  0.16661  0.14860  Biso   1.000  Ne
  Ne333    1.0000 0.98803  0.15160  0.31908  Biso   1.000  Ne
  He333    1.0000 0.96012  0.16251  0.30759  Biso   1.000  He
  He334    1.0000 0.93700  0.16891  0.33333  Biso   1.000  He
  Ne334    1.0000 0.90422  0.17780  0.32217  Biso   1.000  Ne
  Ne335    1.0000 0.31828  0.89154  0.58661  Biso   1.000  Ne
  He335    1.0000 0.34656  0.89020  0.60187  Biso   1.000  He
  He336    1.0000 0.35973  0.86196  0.60042  Biso   1.000  He
  Ne336    1.0000 0.38621  0.85808  0.61884  Biso   1.000  Ne
  Ne337    1.0000 0.84785  0.13487  0.49980  Biso   1.000  Ne
  He337    1.0000 0.81962  0.12597  0.48446  Biso   1.000  He
  He338    1.0000 0.82572  0.09764  0.46889  Biso   1.000  He
  Ne338    1.0000 0.80088  0.08168  0.45507  Biso   1.000  Ne
  Ne339    1.0000 0.10245  0.58402  0.31475  Biso   1.000  Ne
  He339    1.0000 0.11841  0.59184  0.33636  Biso   1.000  He
  He340    1.0000 0.15120  0.58686  0.33067  Biso   1.000  He
  Ne340    1.0000 0.17303  0.59889  0.35523  Biso   1.000  Ne
  Ne341    1.0000 0.59183  0.68331  0.31693  Biso   1.000  Ne
  He341    1.0000 0.59577  0.71505  0.30522  Biso   1.000  He
  He342    1.0000 0.60925  0.73342  0.33323  Biso   1.000  He
  Ne342    1.0000 0.62464  0.76325  0.32695  Biso   1.000  Ne
  Ne343    1.0000 0.40393  0.21254  0.21756  Biso   1.000  Ne
  He343    1.0000 0.43076  0.23414  0.21656  Biso   1.000  He
  He344    1.0000 0.42224  0.25715  0.19456  Biso   1.000  He
  Ne344    1.0000 0.44745  0.27915  0.18747  Biso   1.000  Ne
  Ne345    1.0000 0.11126  0.12660  0.28945  Biso   1.000  Ne
  He345    1.0000 0.10885  0.12072  0.25761  Biso   1.000  He
  He346    1.0000 0.12446  0.09287  0.24664  Biso   1.000  He
  Ne346    1.0000 0.11612  0.08448  0.21585  Biso   1.000  Ne
  Ne347    1.0000 0.69347  0.40530  0.94825  Biso   1.000  Ne
  He347    1.0000 0.70101  0.37316  0.94887  Biso   1.000  He
  He348    1.0000 0.67474  0.35465  0.94748  Biso   1.000  He
  Ne348    1.0000 0.67739  0.32146  0.94907  Biso   1.000  Ne
  Ne349    1.0000 0.97617  0.46251  0.45510  Biso   1.000  Ne
  He349    1.0000 0.99212  0.49219  0.45443  Biso   1.000  He
  He350    1.0000 0.01743  0.49454  0.47763  Biso   1.000  He
  Ne350    1.0000 0.02969  0.52378  0.48316  Biso   1.000  Ne
  Ne351    1.0000 0.39089  0.91154  0.38765  Biso   1.000  Ne
  He351    1.0000 0.38621  0.87721  0.39284  Biso   1.000  He
  He352    1.0000 0.35318  0.86805  0.39762  Biso   1.000  He
  Ne352    1.0000 0.35147  0.83371  0.40321  Biso   1.000  Ne
  Ne353    1.0000 0.64389  0.87378  0.60201  Biso   1.000  Ne
  He353    1.0000 0.62864  0.89859  0.58585  Biso   1.000  He
  He354    1.0000 0.59752  0.89364  0.57739  Biso   1.000  He
  Ne354    1.0000 0.57457  0.91250  0.59154  Biso   1.000  Ne
  Ne355    1.0000 0.55044  0.03595  0.43996  Biso   1.000  Ne
  He355    1.0000 0.56445  0.03630  0.47000  Biso   1.000  He
  He356    1.0000 0.59517  0.05099  0.47566  Biso   1.000  He
  Ne356    1.0000 0.60598  0.05055  0.50670  Biso   1.000  Ne
  Ne357    1.0000 0.27469  0.25611  0.88498  Biso   1.000  Ne
  He357    1.0000 0.26193  0.23574  0.90623  Biso   1.000  He
  He358    1.0000 0.26635  0.20183  0.90164  Biso   1.000  He
  Ne358    1.0000 0.24525  0.18485  0.92170  Biso   1.000  Ne
  Ne359    1.0000 0.06624  0.69046  0.23254  Biso   1.000  Ne
  He359    1.0000 0.07319  0.69415  0.26286  Biso   1.000  He
  He360    1.0000 0.09823  0.67665  0.27408  Biso   1.000  He
  Ne360    1.0000 0.10612  0.68477  0.30651  Biso   1.000  Ne
