data_image0
_cell_length_a       46.7151
_cell_length_b       46.6534
_cell_length_c       46.5402
_cell_angle_alpha    90
_cell_angle_beta     90
_cell_angle_gamma    90

_symmetry_space_group_name_H-M    "P 1"
_symmetry_int_tables_number       1

loop_
  _symmetry_equiv_pos_as_xyz
  'x, y, z'

loop_
  _atom_site_label
  _atom_site_occupancy
  _atom_site_fract_x
  _atom_site_fract_y
  _atom_site_fract_z
  _atom_site_thermal_displace_type
  _atom_site_B_iso_or_equiv
  _atom_site_type_symbol
  Ne1      1.0000 0.03488  0.12350  0.39940  Biso   1.000  Ne
  He1      1.0000 0.02091  0.12406  0.36835  Biso   1.000  He
  He2      1.0000 0.98693  0.13073  0.36891  Biso   1.000  He
  Ne2      1.0000 0.97386  0.12973  0.33642  Biso   1.000  Ne
  Ne3      1.0000 0.34610  0.33851  0.11392  Biso   1.000  Ne
  He3      1.0000 0.32421  0.31389  0.12052  Biso   1.000  He
  He4      1.0000 0.29238  0.32166  0.11674  Biso   1.000  He
  Ne4      1.0000 0.27201  0.29634  0.12332  Biso   1.000  Ne
  Ne5      1.0000 0.28349  0.87216  0.23521  Biso   1.000  Ne
  He5      1.0000 0.27502  0.84093  0.22967  Biso   1.000  He
  He6      1.0000 0.25592  0.83948  0.19933  Biso   1.000  He
  Ne6      1.0000 0.24348  0.80948  0.18856  Biso   1.000  Ne
  Ne7      1.0000 0.71755  0.50402  0.49563  Biso   1.000  Ne
  He7      1.0000 0.70034  0.53369  0.50066  Biso   1.000  He
  He8      1.0000 0.70726  0.54829  0.53100  Biso   1.000  He
  Ne8      1.0000 0.68680  0.57434  0.53834  Biso   1.000  Ne
  Ne9      1.0000 0.64362  0.20563  0.60384  Biso   1.000  Ne
  He9      1.0000 0.63639  0.17491  0.60613  Biso   1.000  He
  He10     1.0000 0.60452  0.16584  0.59802  Biso   1.000  He
  Ne10     1.0000 0.60157  0.13562  0.59776  Biso   1.000  Ne
  Ne11     1.0000 0.97357  0.20246  0.48267  Biso   1.000  Ne
  He11     1.0000 0.97831  0.18466  0.51110  Biso   1.000  He
  He12     1.0000 0.97903  0.20173  0.53879  Biso   1.000  He
  Ne12     1.0000 0.98280  0.18244  0.56423  Biso   1.000  Ne
  Ne13     1.0000 0.38881  0.39017  0.78140  Biso   1.000  Ne
  He13     1.0000 0.37910  0.40775  0.80520  Biso   1.000  He
  He14     1.0000 0.36105  0.39169  0.82940  Biso   1.000  He
  Ne14     1.0000 0.35019  0.40991  0.85476  Biso   1.000  Ne
  Ne15     1.0000 0.39965  0.83045  0.58796  Biso   1.000  Ne
  He15     1.0000 0.38490  0.85629  0.60045  Biso   1.000  He
  He16     1.0000 0.37641  0.88188  0.57827  Biso   1.000  He
  Ne16     1.0000 0.35913  0.90887  0.58867  Biso   1.000  Ne
  Ne17     1.0000 0.71407  0.61825  0.60044  Biso   1.000  Ne
  He17     1.0000 0.74745  0.62347  0.59759  Biso   1.000  He
  He18     1.0000 0.76532  0.59952  0.60580  Biso   1.000  He
  Ne18     1.0000 0.79755  0.60253  0.59868  Biso   1.000  Ne
  Ne19     1.0000 0.46418  0.30825  0.69221  Biso   1.000  Ne
  He19     1.0000 0.43055  0.30979  0.69660  Biso   1.000  He
  He20     1.0000 0.41674  0.34202  0.69320  Biso   1.000  He
  Ne20     1.0000 0.40292  0.34579  0.66324  Biso   1.000  Ne
  Ne21     1.0000 0.16183  0.93898  0.09403  Biso   1.000  Ne
  He21     1.0000 0.19267  0.93626  0.10676  Biso   1.000  He
  He22     1.0000 0.19373  0.92601  0.14067  Biso   1.000  He
  Ne22     1.0000 0.22417  0.92703  0.15035  Biso   1.000  Ne
  Ne23     1.0000 0.54035  0.30837  0.58614  Biso   1.000  Ne
  He23     1.0000 0.56478  0.29124  0.59830  Biso   1.000  He
  He24     1.0000 0.56016  0.25947  0.59109  Biso   1.000  He
  Ne24     1.0000 0.54881  0.23717  0.61543  Biso   1.000  Ne
  Ne25     1.0000 0.23152  0.41087  0.86515  Biso   1.000  Ne
  He25     1.0000 0.24770  0.39286  0.88698  Biso   1.000  He
  He26     1.0000 0.25630  0.40721  0.91636  Biso   1.000  He
  Ne26     1.0000 0.28071  0.39091  0.93320  Biso   1.000  Ne
  Ne27     1.0000 0.09855  0.24473  0.93721  Biso   1.000  Ne
  He27     1.0000 0.11083  0.21280  0.93331  Biso   1.000  He
  He28     1.0000 0.08748  0.18854  0.92966  Biso   1.000  He
  Ne28     1.0000 0.09957  0.15896  0.92481  Biso   1.000  Ne
  Ne29     1.0000 0.89597  0.45767  0.22208  Biso   1.000  Ne
  He29     1.0000 0.88126  0.47351  0.19653  Biso   1.000  He
  He30     1.0000 0.85361  0.46115  0.18718  Biso   1.000  He
  Ne30     1.0000 0.84108  0.47847  0.16059  Biso   1.000  Ne
  Ne31     1.0000 0.89898  0.25515  0.59911  Biso   1.000  Ne
  He31     1.0000 0.90068  0.22689  0.58076  Biso   1.000  He
  He32     1.0000 0.88300  0.22718  0.55344  Biso   1.000  He
  Ne32     1.0000 0.88529  0.20026  0.53347  Biso   1.000  Ne
  Ne33     1.0000 0.23922  0.61290  0.71590  Biso   1.000  Ne
  He33     1.0000 0.25713  0.62633  0.73875  Biso   1.000  He
  He34     1.0000 0.26007  0.60950  0.77094  Biso   1.000  He
  Ne34     1.0000 0.27851  0.62359  0.79362  Biso   1.000  Ne
  Ne35     1.0000 0.97032  0.93714  0.08164  Biso   1.000  Ne
  He35     1.0000 0.93722  0.93593  0.07846  Biso   1.000  He
  He36     1.0000 0.92019  0.96449  0.09008  Biso   1.000  He
  Ne36     1.0000 0.88948  0.97083  0.08098  Biso   1.000  Ne
  Ne37     1.0000 0.56902  0.29681  0.82397  Biso   1.000  Ne
  He37     1.0000 0.59103  0.28595  0.84865  Biso   1.000  He
  He38     1.0000 0.58392  0.25524  0.86037  Biso   1.000  He
  Ne38     1.0000 0.60689  0.23837  0.87806  Biso   1.000  Ne
  Ne39     1.0000 0.40294  0.90179  0.76282  Biso   1.000  Ne
  He39     1.0000 0.39486  0.88619  0.73475  Biso   1.000  He
  He40     1.0000 0.39950  0.90538  0.70666  Biso   1.000  He
  Ne40     1.0000 0.39652  0.88816  0.67667  Biso   1.000  Ne
  Ne41     1.0000 0.93528  0.78035  0.58539  Biso   1.000  Ne
  He41     1.0000 0.91499  0.75518  0.57433  Biso   1.000  He
  He42     1.0000 0.88095  0.76463  0.57832  Biso   1.000  He
  Ne42     1.0000 0.86179  0.73913  0.57170  Biso   1.000  Ne
  Ne43     1.0000 0.54288  0.72114  0.33161  Biso   1.000  Ne
  He43     1.0000 0.56905  0.73280  0.31016  Biso   1.000  He
  He44     1.0000 0.56698  0.76654  0.30374  Biso   1.000  He
  Ne44     1.0000 0.59386  0.77624  0.28545  Biso   1.000  Ne
  Ne45     1.0000 0.37301  0.84660  0.01161  Biso   1.000  Ne
  He45     1.0000 0.36313  0.82612  0.03584  Biso   1.000  He
  He46     1.0000 0.36012  0.79508  0.02741  Biso   1.000  He
  Ne46     1.0000 0.34301  0.77521  0.04942  Biso   1.000  Ne
  Ne47     1.0000 0.55602  0.75686  0.82598  Biso   1.000  Ne
  He47     1.0000 0.55224  0.76973  0.79605  Biso   1.000  He
  He48     1.0000 0.54400  0.80167  0.79813  Biso   1.000  He
  Ne48     1.0000 0.54397  0.81582  0.76908  Biso   1.000  Ne
  Ne49     1.0000 0.50096  0.47353  0.10126  Biso   1.000  Ne
  He49     1.0000 0.50613  0.47026  0.06998  Biso   1.000  He
  He50     1.0000 0.49059  0.44522  0.05642  Biso   1.000  He
  Ne50     1.0000 0.50103  0.43495  0.02694  Biso   1.000  Ne
  Ne51     1.0000 0.05707  0.87257  0.89288  Biso   1.000  Ne
  He51     1.0000 0.05544  0.83906  0.89177  Biso   1.000  He
  He52     1.0000 0.05874  0.82377  0.92074  Biso   1.000  He
  Ne52     1.0000 0.05391  0.78905  0.92086  Biso   1.000  Ne
  Ne53     1.0000 0.81139  0.71504  0.79127  Biso   1.000  Ne
  He53     1.0000 0.82822  0.69681  0.81669  Biso   1.000  He
  He54     1.0000 0.85059  0.71453  0.83553  Biso   1.000  He
  Ne54     1.0000 0.86602  0.69728  0.86195  Biso   1.000  Ne
  Ne55     1.0000 0.40040  0.53480  0.68116  Biso   1.000  Ne
  He55     1.0000 0.42505  0.54521  0.69996  Biso   1.000  He
  He56     1.0000 0.44331  0.52060  0.71652  Biso   1.000  He
  Ne56     1.0000 0.46966  0.53072  0.73731  Biso   1.000  Ne
  Ne57     1.0000 0.70043  0.74361  0.66762  Biso   1.000  Ne
  He57     1.0000 0.70748  0.72103  0.68924  Biso   1.000  He
  He58     1.0000 0.70524  0.68998  0.67656  Biso   1.000  He
  Ne58     1.0000 0.71109  0.66985  0.70068  Biso   1.000  Ne
  Ne59     1.0000 0.21587  0.04705  0.64609  Biso   1.000  Ne
  He59     1.0000 0.19643  0.02700  0.63151  Biso   1.000  He
  He60     1.0000 0.19054  0.99986  0.64782  Biso   1.000  He
  Ne60     1.0000 0.17271  0.97742  0.63303  Biso   1.000  Ne
  Ne61     1.0000 0.75563  0.26129  0.21063  Biso   1.000  Ne
  He61     1.0000 0.77713  0.25021  0.23635  Biso   1.000  He
  He62     1.0000 0.78785  0.27576  0.25611  Biso   1.000  He
  Ne62     1.0000 0.80639  0.26757  0.28254  Biso   1.000  Ne
  Ne63     1.0000 0.95077  0.09473  0.02022  Biso   1.000  Ne
  He63     1.0000 0.97002  0.08099  0.04532  Biso   1.000  He
  He64     1.0000 0.95434  0.06466  0.06965  Biso   1.000  He
  Ne64     1.0000 0.97724  0.04962  0.09121  Biso   1.000  Ne
  Ne65     1.0000 0.42840  0.09811  0.47086  Biso   1.000  Ne
  He65     1.0000 0.43193  0.06789  0.48416  Biso   1.000  He
  He66     1.0000 0.40302  0.05080  0.47733  Biso   1.000  He
  Ne66     1.0000 0.40259  0.02010  0.49194  Biso   1.000  Ne
  Ne67     1.0000 0.98137  0.72119  0.13525  Biso   1.000  Ne
  He67     1.0000 0.00326  0.69939  0.12536  Biso   1.000  He
  He68     1.0000 0.01899  0.68461  0.14758  Biso   1.000  He
  Ne68     1.0000 0.03920  0.66247  0.13400  Biso   1.000  Ne
  Ne69     1.0000 0.19955  0.49611  0.01107  Biso   1.000  Ne
  He69     1.0000 0.21060  0.51730  0.03327  Biso   1.000  He
  He70     1.0000 0.20309  0.55026  0.02347  Biso   1.000  He
  Ne70     1.0000 0.22012  0.57285  0.04140  Biso   1.000  Ne
  Ne71     1.0000 0.27996  0.64363  0.55786  Biso   1.000  Ne
  He71     1.0000 0.28810  0.65061  0.58930  Biso   1.000  He
  He72     1.0000 0.26608  0.63907  0.61139  Biso   1.000  He
  Ne72     1.0000 0.27498  0.64421  0.64247  Biso   1.000  Ne
  Ne73     1.0000 0.61377  0.12190  0.19578  Biso   1.000  Ne
  He73     1.0000 0.58790  0.13097  0.21174  Biso   1.000  He
  He74     1.0000 0.58649  0.16371  0.22357  Biso   1.000  He
  Ne74     1.0000 0.55897  0.17145  0.24354  Biso   1.000  Ne
  Ne75     1.0000 0.27115  0.84888  0.98397  Biso   1.000  Ne
  He75     1.0000 0.29276  0.86921  0.97234  Biso   1.000  He
  He76     1.0000 0.28951  0.87548  0.93873  Biso   1.000  He
  Ne76     1.0000 0.31082  0.89706  0.92775  Biso   1.000  Ne
  Ne77     1.0000 0.46852  0.94351  0.18293  Biso   1.000  Ne
  He77     1.0000 0.47643  0.91790  0.16243  Biso   1.000  He
  He78     1.0000 0.45974  0.89053  0.16901  Biso   1.000  He
  Ne78     1.0000 0.46180  0.86627  0.14517  Biso   1.000  Ne
  Ne79     1.0000 0.91276  0.07645  0.14351  Biso   1.000  Ne
  He79     1.0000 0.89252  0.08797  0.12171  Biso   1.000  He
  He80     1.0000 0.86291  0.09529  0.13437  Biso   1.000  He
  Ne80     1.0000 0.84096  0.11052  0.11628  Biso   1.000  Ne
  Ne81     1.0000 0.07541  0.41964  0.74943  Biso   1.000  Ne
  He81     1.0000 0.07365  0.38751  0.75718  Biso   1.000  He
  He82     1.0000 0.09097  0.38009  0.78543  Biso   1.000  He
  Ne82     1.0000 0.08668  0.34997  0.79514  Biso   1.000  Ne
  Ne83     1.0000 0.27666  0.76547  0.70590  Biso   1.000  Ne
  He83     1.0000 0.28024  0.73614  0.71802  Biso   1.000  He
  He84     1.0000 0.29467  0.71325  0.69636  Biso   1.000  He
  Ne84     1.0000 0.30887  0.68553  0.70833  Biso   1.000  Ne
  Ne85     1.0000 0.97370  0.29780  0.92523  Biso   1.000  Ne
  He85     1.0000 0.94289  0.31073  0.92495  Biso   1.000  He
  He86     1.0000 0.93193  0.32041  0.89534  Biso   1.000  He
  Ne86     1.0000 0.89693  0.32596  0.89195  Biso   1.000  Ne
  Ne87     1.0000 0.83156  0.18087  0.80427  Biso   1.000  Ne
  He87     1.0000 0.81348  0.20869  0.80603  Biso   1.000  He
  He88     1.0000 0.78143  0.20529  0.81178  Biso   1.000  He
  Ne88     1.0000 0.76829  0.23467  0.81847  Biso   1.000  Ne
  Ne89     1.0000 0.09987  0.43374  0.65987  Biso   1.000  Ne
  He89     1.0000 0.13329  0.43165  0.67004  Biso   1.000  He
  He90     1.0000 0.13660  0.42026  0.70196  Biso   1.000  He
  Ne90     1.0000 0.14288  0.38679  0.70487  Biso   1.000  Ne
  Ne91     1.0000 0.39319  0.06881  0.71768  Biso   1.000  Ne
  He91     1.0000 0.37895  0.09460  0.73323  Biso   1.000  He
  He92     1.0000 0.39540  0.10608  0.75980  Biso   1.000  He
  Ne92     1.0000 0.37793  0.13443  0.76762  Biso   1.000  Ne
  Ne93     1.0000 0.30400  0.91783  0.38951  Biso   1.000  Ne
  He93     1.0000 0.31929  0.93162  0.41603  Biso   1.000  He
  He94     1.0000 0.35245  0.93922  0.40816  Biso   1.000  He
  Ne94     1.0000 0.36868  0.95644  0.43275  Biso   1.000  Ne
  Ne95     1.0000 0.03282  0.96923  0.29359  Biso   1.000  Ne
  He95     1.0000 0.04729  0.98724  0.31709  Biso   1.000  He
  He96     1.0000 0.02960  0.99339  0.34491  Biso   1.000  He
  Ne96     1.0000 0.04099  0.01104  0.36984  Biso   1.000  Ne
  Ne97     1.0000 0.53639  0.85643  0.18972  Biso   1.000  Ne
  He97     1.0000 0.55353  0.82969  0.17688  Biso   1.000  He
  He98     1.0000 0.58645  0.83508  0.17482  Biso   1.000  He
  Ne98     1.0000 0.60079  0.80815  0.16129  Biso   1.000  Ne
  Ne99     1.0000 0.31350  0.89008  0.64972  Biso   1.000  Ne
  He99     1.0000 0.29706  0.89137  0.67978  Biso   1.000  He
  He100    1.0000 0.29138  0.86135  0.69392  Biso   1.000  He
  Ne100    1.0000 0.27546  0.86423  0.72276  Biso   1.000  Ne
  Ne101    1.0000 0.89636  0.46186  0.45152  Biso   1.000  Ne
  He101    1.0000 0.89071  0.43057  0.44571  Biso   1.000  He
  He102    1.0000 0.91144  0.41107  0.46105  Biso   1.000  He
  Ne102    1.0000 0.90829  0.37726  0.45425  Biso   1.000  Ne
  Ne103    1.0000 0.96131  0.82352  0.48762  Biso   1.000  Ne
  He103    1.0000 0.94623  0.81661  0.45770  Biso   1.000  He
  He104    1.0000 0.95727  0.78752  0.44445  Biso   1.000  He
  Ne104    1.0000 0.93876  0.77926  0.41923  Biso   1.000  Ne
  Ne105    1.0000 0.73297  0.13640  0.81669  Biso   1.000  Ne
  He105    1.0000 0.71344  0.13664  0.78921  Biso   1.000  He
  He106    1.0000 0.69273  0.11202  0.78701  Biso   1.000  He
  Ne106    1.0000 0.67261  0.11300  0.75714  Biso   1.000  Ne
  Ne107    1.0000 0.92153  0.07366  0.91968  Biso   1.000  Ne
  He107    1.0000 0.94954  0.08496  0.93282  Biso   1.000  He
  He108    1.0000 0.96912  0.05841  0.94369  Biso   1.000  He
  Ne108    1.0000 0.00068  0.06882  0.94712  Biso   1.000  Ne
  Ne109    1.0000 0.22202  0.92253  0.43953  Biso   1.000  Ne
  He109    1.0000 0.22024  0.95406  0.42936  Biso   1.000  He
  He110    1.0000 0.19007  0.96630  0.42935  Biso   1.000  He
  Ne110    1.0000 0.19140  0.99594  0.41626  Biso   1.000  Ne
  Ne111    1.0000 0.89615  0.24908  0.10501  Biso   1.000  Ne
  He111    1.0000 0.89356  0.21944  0.08977  Biso   1.000  He
  He112    1.0000 0.91375  0.19522  0.09726  Biso   1.000  He
  Ne112    1.0000 0.90781  0.16533  0.08480  Biso   1.000  Ne
  Ne113    1.0000 0.31498  0.89056  0.79259  Biso   1.000  Ne
  He113    1.0000 0.34101  0.89021  0.81340  Biso   1.000  He
  He114    1.0000 0.34193  0.91524  0.83582  Biso   1.000  He
  Ne114    1.0000 0.36742  0.91239  0.85575  Biso   1.000  Ne
  Ne115    1.0000 0.93666  0.45229  0.62488  Biso   1.000  Ne
  He115    1.0000 0.93513  0.45724  0.59333  Biso   1.000  He
  He116    1.0000 0.93651  0.43150  0.57112  Biso   1.000  He
  Ne116    1.0000 0.91837  0.43869  0.54341  Biso   1.000  Ne
  Ne117    1.0000 0.04330  0.28868  0.86749  Biso   1.000  Ne
  He117    1.0000 0.07300  0.26774  0.86637  Biso   1.000  He
  He118    1.0000 0.07355  0.24152  0.84280  Biso   1.000  He
  Ne118    1.0000 0.09645  0.22049  0.84938  Biso   1.000  Ne
  Ne119    1.0000 0.87682  0.67574  0.21344  Biso   1.000  Ne
  He119    1.0000 0.87215  0.69412  0.18628  Biso   1.000  He
  He120    1.0000 0.88623  0.68361  0.15905  Biso   1.000  He
  Ne120    1.0000 0.87976  0.70270  0.13446  Biso   1.000  Ne
  Ne121    1.0000 0.03763  0.42324  0.54758  Biso   1.000  Ne
  He121    1.0000 0.06389  0.42554  0.56468  Biso   1.000  He
  He122    1.0000 0.08790  0.44238  0.54878  Biso   1.000  He
  Ne122    1.0000 0.11775  0.44449  0.56463  Biso   1.000  Ne
  Ne123    1.0000 0.17691  0.05115  0.71981  Biso   1.000  Ne
  He123    1.0000 0.14328  0.05021  0.71880  Biso   1.000  He
  He124    1.0000 0.13428  0.01899  0.71582  Biso   1.000  He
  Ne124    1.0000 0.10184  0.01297  0.71480  Biso   1.000  Ne
  Ne125    1.0000 0.79484  0.18335  0.54694  Biso   1.000  Ne
  He125    1.0000 0.82286  0.16512  0.55322  Biso   1.000  He
  He126    1.0000 0.82069  0.13371  0.54440  Biso   1.000  He
  Ne126    1.0000 0.84386  0.11404  0.55862  Biso   1.000  Ne
  Ne127    1.0000 0.72658  0.92641  0.40377  Biso   1.000  Ne
  He127    1.0000 0.73855  0.90125  0.38256  Biso   1.000  He
  He128    1.0000 0.72978  0.91084  0.35066  Biso   1.000  He
  Ne128    1.0000 0.73810  0.89088  0.32464  Biso   1.000  Ne
  Ne129    1.0000 0.57905  0.49167  0.98504  Biso   1.000  Ne
  He129    1.0000 0.56787  0.46034  0.98054  Biso   1.000  He
  He130    1.0000 0.58204  0.44296  0.95527  Biso   1.000  He
  Ne130    1.0000 0.56576  0.41180  0.95177  Biso   1.000  Ne
  Ne131    1.0000 0.89927  0.06278  0.22898  Biso   1.000  Ne
  He131    1.0000 0.87124  0.06390  0.25122  Biso   1.000  He
  He132    1.0000 0.87886  0.06422  0.28587  Biso   1.000  He
  Ne132    1.0000 0.86835  0.09341  0.29764  Biso   1.000  Ne
  Ne133    1.0000 0.15899  0.58911  0.95568  Biso   1.000  Ne
  He133    1.0000 0.16883  0.61150  0.98032  Biso   1.000  He
  He134    1.0000 0.15177  0.61657  0.00739  Biso   1.000  He
  Ne134    1.0000 0.16267  0.64101  0.02939  Biso   1.000  Ne
  Ne135    1.0000 0.73365  0.18183  0.37026  Biso   1.000  Ne
  He135    1.0000 0.71381  0.20606  0.36067  Biso   1.000  He
  He136    1.0000 0.72575  0.22082  0.32861  Biso   1.000  He
  Ne136    1.0000 0.71677  0.25318  0.32120  Biso   1.000  Ne
  Ne137    1.0000 0.11143  0.74189  0.62613  Biso   1.000  Ne
  He137    1.0000 0.14335  0.74370  0.63801  Biso   1.000  He
  He138    1.0000 0.15773  0.71204  0.64412  Biso   1.000  He
  Ne138    1.0000 0.18930  0.71317  0.64268  Biso   1.000  Ne
  Ne139    1.0000 0.61711  0.69351  0.09058  Biso   1.000  Ne
  He139    1.0000 0.60647  0.71192  0.11800  Biso   1.000  He
  He140    1.0000 0.57480  0.71834  0.12552  Biso   1.000  He
  Ne140    1.0000 0.56909  0.74012  0.14734  Biso   1.000  Ne
  Ne141    1.0000 0.69828  0.61506  0.09200  Biso   1.000  Ne
  He141    1.0000 0.72457  0.59879  0.09880  Biso   1.000  He
  He142    1.0000 0.74359  0.61096  0.12094  Biso   1.000  He
  Ne142    1.0000 0.77114  0.59205  0.12770  Biso   1.000  Ne
  Ne143    1.0000 0.62619  0.36374  0.29108  Biso   1.000  Ne
  He143    1.0000 0.60452  0.37939  0.27320  Biso   1.000  He
  He144    1.0000 0.59074  0.36176  0.25106  Biso   1.000  He
  Ne144    1.0000 0.56421  0.37787  0.23768  Biso   1.000  Ne
  Ne145    1.0000 0.14750  0.40482  0.42991  Biso   1.000  Ne
  He145    1.0000 0.13067  0.41460  0.40270  Biso   1.000  He
  He146    1.0000 0.13983  0.40025  0.37338  Biso   1.000  He
  Ne146    1.0000 0.12663  0.41438  0.34582  Biso   1.000  Ne
  Ne147    1.0000 0.69603  0.70008  0.35428  Biso   1.000  Ne
  He147    1.0000 0.70289  0.70222  0.32199  Biso   1.000  He
  He148    1.0000 0.68155  0.71449  0.29846  Biso   1.000  He
  Ne148    1.0000 0.67270  0.69349  0.27394  Biso   1.000  Ne
  Ne149    1.0000 0.85144  0.01280  0.72417  Biso   1.000  Ne
  He149    1.0000 0.82620  0.99201  0.71738  Biso   1.000  He
  He150    1.0000 0.81626  0.99159  0.68622  Biso   1.000  He
  Ne150    1.0000 0.78731  0.97464  0.68293  Biso   1.000  Ne
  Ne151    1.0000 0.10431  0.06742  0.39464  Biso   1.000  Ne
  He151    1.0000 0.13490  0.05909  0.38610  Biso   1.000  He
  He152    1.0000 0.14049  0.05146  0.35133  Biso   1.000  He
  Ne152    1.0000 0.17078  0.04293  0.34528  Biso   1.000  Ne
  Ne153    1.0000 0.03783  0.99258  0.96522  Biso   1.000  Ne
  He153    1.0000 0.06740  0.97578  0.95812  Biso   1.000  He
  He154    1.0000 0.06478  0.94610  0.93933  Biso   1.000  He
  Ne154    1.0000 0.09197  0.92768  0.93818  Biso   1.000  Ne
  Ne155    1.0000 0.86191  0.33163  0.30587  Biso   1.000  Ne
  He155    1.0000 0.88671  0.33976  0.32696  Biso   1.000  He
  He156    1.0000 0.87531  0.33360  0.35918  Biso   1.000  He
  Ne156    1.0000 0.89406  0.34622  0.38172  Biso   1.000  Ne
  Ne157    1.0000 0.93762  0.98789  0.30569  Biso   1.000  Ne
  He157    1.0000 0.93667  0.00057  0.33607  Biso   1.000  He
  He158    1.0000 0.90604  0.00371  0.35077  Biso   1.000  He
  Ne158    1.0000 0.90920  0.01450  0.37994  Biso   1.000  Ne
  Ne159    1.0000 0.14701  0.78285  0.55193  Biso   1.000  Ne
  He159    1.0000 0.15292  0.81205  0.53913  Biso   1.000  He
  He160    1.0000 0.16496  0.80608  0.50699  Biso   1.000  He
  Ne160    1.0000 0.16517  0.82717  0.48323  Biso   1.000  Ne
  Ne161    1.0000 0.35931  0.57695  0.30222  Biso   1.000  Ne
  He161    1.0000 0.33457  0.58985  0.32067  Biso   1.000  He
  He162    1.0000 0.33624  0.62375  0.32596  Biso   1.000  He
  Ne162    1.0000 0.30882  0.63757  0.34130  Biso   1.000  Ne
  Ne163    1.0000 0.40662  0.62923  0.39223  Biso   1.000  Ne
  He163    1.0000 0.37894  0.64307  0.39893  Biso   1.000  He
  He164    1.0000 0.37429  0.67470  0.38980  Biso   1.000  He
  Ne164    1.0000 0.34636  0.68810  0.39804  Biso   1.000  Ne
  Ne165    1.0000 0.11062  0.18035  0.35894  Biso   1.000  Ne
  He165    1.0000 0.13715  0.18730  0.37962  Biso   1.000  He
  He166    1.0000 0.13328  0.21659  0.39344  Biso   1.000  He
  Ne166    1.0000 0.15955  0.22464  0.41198  Biso   1.000  Ne
  Ne167    1.0000 0.99966  0.45979  0.44465  Biso   1.000  Ne
  He167    1.0000 0.03077  0.46211  0.45994  Biso   1.000  He
  He168    1.0000 0.04695  0.48532  0.44317  Biso   1.000  He
  Ne168    1.0000 0.07758  0.48835  0.45529  Biso   1.000  Ne
  Ne169    1.0000 0.21186  0.17235  0.12632  Biso   1.000  Ne
  He169    1.0000 0.18407  0.16423  0.11308  Biso   1.000  He
  He170    1.0000 0.15738  0.18265  0.11849  Biso   1.000  He
  Ne170    1.0000 0.13286  0.17351  0.10019  Biso   1.000  Ne
  Ne171    1.0000 0.16264  0.65970  0.58799  Biso   1.000  Ne
  He171    1.0000 0.18425  0.63767  0.59819  Biso   1.000  He
  He172    1.0000 0.17708  0.60564  0.59654  Biso   1.000  He
  Ne172    1.0000 0.19999  0.58469  0.60340  Biso   1.000  Ne
  Ne173    1.0000 0.10458  0.74892  0.83136  Biso   1.000  Ne
  He173    1.0000 0.10297  0.78338  0.83613  Biso   1.000  He
  He174    1.0000 0.13169  0.79409  0.85344  Biso   1.000  He
  Ne174    1.0000 0.13595  0.82688  0.85214  Biso   1.000  Ne
  Ne175    1.0000 0.65992  0.57932  0.85035  Biso   1.000  Ne
  He175    1.0000 0.68036  0.59464  0.82886  Biso   1.000  He
  He176    1.0000 0.70954  0.58010  0.82508  Biso   1.000  He
  Ne176    1.0000 0.72622  0.59271  0.79975  Biso   1.000  Ne
  Ne177    1.0000 0.57228  0.83416  0.58389  Biso   1.000  Ne
  He177    1.0000 0.58542  0.80918  0.60052  Biso   1.000  He
  He178    1.0000 0.56383  0.78639  0.60768  Biso   1.000  He
  Ne178    1.0000 0.57797  0.76117  0.62711  Biso   1.000  Ne
  Ne179    1.0000 0.83904  0.15624  0.23096  Biso   1.000  Ne
  He179    1.0000 0.85410  0.15330  0.20183  Biso   1.000  He
  He180    1.0000 0.88565  0.15839  0.20453  Biso   1.000  He
  Ne180    1.0000 0.89835  0.15566  0.17412  Biso   1.000  Ne
  Ne181    1.0000 0.55139  0.65380  0.26624  Biso   1.000  Ne
  He181    1.0000 0.54222  0.63113  0.28995  Biso   1.000  He
  He182    1.0000 0.50868  0.62633  0.29754  Biso   1.000  He
  Ne182    1.0000 0.50469  0.60106  0.32030  Biso   1.000  Ne
  Ne183    1.0000 0.41547  0.94060  0.35453  Biso   1.000  Ne
  He183    1.0000 0.40054  0.93002  0.32645  Biso   1.000  He
  He184    1.0000 0.36782  0.93031  0.32818  Biso   1.000  He
  Ne184    1.0000 0.35114  0.91841  0.30292  Biso   1.000  Ne
  Ne185    1.0000 0.13651  0.56653  0.43151  Biso   1.000  Ne
  He185    1.0000 0.15239  0.58571  0.40780  Biso   1.000  He
  He186    1.0000 0.17317  0.56838  0.38987  Biso   1.000  He
  Ne186    1.0000 0.18479  0.58376  0.36260  Biso   1.000  Ne
  Ne187    1.0000 0.78571  0.30761  0.37453  Biso   1.000  Ne
  He187    1.0000 0.80671  0.28368  0.37264  Biso   1.000  He
  He188    1.0000 0.79384  0.25546  0.36368  Biso   1.000  He
  Ne188    1.0000 0.81369  0.22849  0.36210  Biso   1.000  Ne
  Ne189    1.0000 0.15035  0.23364  0.60533  Biso   1.000  Ne
  He189    1.0000 0.16146  0.26617  0.60431  Biso   1.000  He
  He190    1.0000 0.17295  0.27584  0.63409  Biso   1.000  He
  Ne190    1.0000 0.20640  0.26951  0.64337  Biso   1.000  Ne
  Ne191    1.0000 0.53673  0.32395  0.36351  Biso   1.000  Ne
  He191    1.0000 0.56790  0.31956  0.37538  Biso   1.000  He
  He192    1.0000 0.57860  0.33583  0.40396  Biso   1.000  He
  Ne192    1.0000 0.60769  0.32793  0.41045  Biso   1.000  Ne
  Ne193    1.0000 0.40472  0.23617  0.28183  Biso   1.000  Ne
  He193    1.0000 0.39430  0.26677  0.29912  Biso   1.000  He
  He194    1.0000 0.38744  0.29195  0.27850  Biso   1.000  He
  Ne194    1.0000 0.36883  0.31467  0.29548  Biso   1.000  Ne
  Ne195    1.0000 0.72155  0.96096  0.61619  Biso   1.000  Ne
  He195    1.0000 0.75220  0.95762  0.59998  Biso   1.000  He
  He196    1.0000 0.76722  0.98643  0.60005  Biso   1.000  He
  Ne196    1.0000 0.79413  0.98935  0.58536  Biso   1.000  Ne
  Ne197    1.0000 0.86420  0.16524  0.39877  Biso   1.000  Ne
  He197    1.0000 0.89312  0.17678  0.41013  Biso   1.000  He
  He198    1.0000 0.90547  0.20534  0.39292  Biso   1.000  He
  Ne198    1.0000 0.93277  0.21778  0.40299  Biso   1.000  Ne
  Ne199    1.0000 0.39932  0.24208  0.59747  Biso   1.000  Ne
  He199    1.0000 0.37187  0.24241  0.61546  Biso   1.000  He
  He200    1.0000 0.36921  0.26630  0.63745  Biso   1.000  He
  Ne200    1.0000 0.33891  0.26507  0.65050  Biso   1.000  Ne
  Ne201    1.0000 0.05161  0.18840  0.28194  Biso   1.000  Ne
  He201    1.0000 0.06111  0.16013  0.29481  Biso   1.000  He
  He202    1.0000 0.05366  0.13477  0.27719  Biso   1.000  He
  Ne202    1.0000 0.05406  0.10677  0.29305  Biso   1.000  Ne
  Ne203    1.0000 0.38765  0.27909  0.17842  Biso   1.000  Ne
  He203    1.0000 0.39220  0.24832  0.17130  Biso   1.000  He
  He204    1.0000 0.37810  0.23763  0.14633  Biso   1.000  He
  Ne204    1.0000 0.38364  0.20375  0.14278  Biso   1.000  Ne
  Ne205    1.0000 0.53917  0.34448  0.73731  Biso   1.000  Ne
  He205    1.0000 0.57075  0.35421  0.74349  Biso   1.000  He
  He206    1.0000 0.59422  0.32821  0.73662  Biso   1.000  He
  Ne206    1.0000 0.62457  0.34123  0.73752  Biso   1.000  Ne
  Ne207    1.0000 0.49609  0.59772  0.70595  Biso   1.000  Ne
  He207    1.0000 0.51527  0.62335  0.70090  Biso   1.000  He
  He208    1.0000 0.49896  0.64973  0.69060  Biso   1.000  He
  Ne208    1.0000 0.51798  0.67276  0.67603  Biso   1.000  Ne
  Ne209    1.0000 0.77255  0.63760  0.23350  Biso   1.000  Ne
  He209    1.0000 0.76431  0.65169  0.20538  Biso   1.000  He
  He210    1.0000 0.73221  0.65911  0.20932  Biso   1.000  He
  Ne210    1.0000 0.71911  0.68248  0.18528  Biso   1.000  Ne
  Ne211    1.0000 0.70793  0.14000  0.59529  Biso   1.000  Ne
  He211    1.0000 0.72600  0.13196  0.62472  Biso   1.000  He
  He212    1.0000 0.70904  0.12148  0.65256  Biso   1.000  He
  Ne212    1.0000 0.72565  0.12397  0.68219  Biso   1.000  Ne
  Ne213    1.0000 0.40115  0.69956  0.07958  Biso   1.000  Ne
  He213    1.0000 0.38159  0.70707  0.10193  Biso   1.000  He
  He214    1.0000 0.39630  0.71030  0.13379  Biso   1.000  He
  Ne214    1.0000 0.37814  0.72503  0.15714  Biso   1.000  Ne
  Ne215    1.0000 0.64594  0.28316  0.31244  Biso   1.000  Ne
  He215    1.0000 0.61285  0.27953  0.31559  Biso   1.000  He
  He216    1.0000 0.60393  0.24968  0.32485  Biso   1.000  He
  Ne216    1.0000 0.57086  0.24494  0.32740  Biso   1.000  Ne
  Ne217    1.0000 0.25798  0.67330  0.38561  Biso   1.000  Ne
  He217    1.0000 0.23252  0.65722  0.39182  Biso   1.000  He
  He218    1.0000 0.21036  0.67704  0.40490  Biso   1.000  He
  Ne218    1.0000 0.18533  0.65805  0.41787  Biso   1.000  Ne
  Ne219    1.0000 0.37880  0.59616  0.74451  Biso   1.000  Ne
  He219    1.0000 0.38660  0.59384  0.77772  Biso   1.000  He
  He220    1.0000 0.41657  0.59388  0.78747  Biso   1.000  He
  Ne220    1.0000 0.41893  0.59161  0.82076  Biso   1.000  Ne
  Ne221    1.0000 0.37330  0.83242  0.28433  Biso   1.000  Ne
  He221    1.0000 0.39420  0.82082  0.31060  Biso   1.000  He
  He222    1.0000 0.39796  0.78674  0.31518  Biso   1.000  He
  Ne222    1.0000 0.41329  0.77796  0.34460  Biso   1.000  Ne
  Ne223    1.0000 0.67022  0.60104  0.39193  Biso   1.000  Ne
  He223    1.0000 0.67081  0.60704  0.35903  Biso   1.000  He
  He224    1.0000 0.69885  0.60876  0.34384  Biso   1.000  He
  Ne224    1.0000 0.69652  0.61380  0.31063  Biso   1.000  Ne
  Ne225    1.0000 0.92727  0.97034  0.92540  Biso   1.000  Ne
  He225    1.0000 0.94066  0.97606  0.95882  Biso   1.000  He
  He226    1.0000 0.92317  0.00173  0.97184  Biso   1.000  He
  Ne226    1.0000 0.92476  0.00266  0.00451  Biso   1.000  Ne
  Ne227    1.0000 0.14570  0.78687  0.70139  Biso   1.000  Ne
  He227    1.0000 0.11160  0.79622  0.69937  Biso   1.000  He
  He228    1.0000 0.09814  0.79314  0.72967  Biso   1.000  He
  Ne228    1.0000 0.06772  0.80585  0.72845  Biso   1.000  Ne
  Ne229    1.0000 0.85879  0.29640  0.15440  Biso   1.000  Ne
  He229    1.0000 0.83421  0.30935  0.13495  Biso   1.000  He
  He230    1.0000 0.80686  0.31963  0.14921  Biso   1.000  He
  Ne230    1.0000 0.78493  0.33147  0.13006  Biso   1.000  Ne
  Ne231    1.0000 0.12033  0.07689  0.06705  Biso   1.000  Ne
  He231    1.0000 0.09581  0.09011  0.08257  Biso   1.000  He
  He232    1.0000 0.07245  0.06870  0.09578  Biso   1.000  He
  Ne232    1.0000 0.05384  0.08705  0.11638  Biso   1.000  Ne
  Ne233    1.0000 0.88998  0.90183  0.85841  Biso   1.000  Ne
  He233    1.0000 0.90315  0.90812  0.83072  Biso   1.000  He
  He234    1.0000 0.88692  0.93351  0.81322  Biso   1.000  He
  Ne234    1.0000 0.89937  0.94104  0.78341  Biso   1.000  Ne
  Ne235    1.0000 0.22954  0.37701  0.19152  Biso   1.000  Ne
  He235    1.0000 0.22436  0.36272  0.21994  Biso   1.000  He
  He236    1.0000 0.24434  0.33624  0.22553  Biso   1.000  He
  Ne236    1.0000 0.23295  0.32094  0.25229  Biso   1.000  Ne
  Ne237    1.0000 0.88685  0.93583  0.15428  Biso   1.000  Ne
  He237    1.0000 0.85722  0.93637  0.14355  Biso   1.000  He
  He238    1.0000 0.85108  0.92001  0.11304  Biso   1.000  He
  Ne238    1.0000 0.82183  0.92519  0.10124  Biso   1.000  Ne
  Ne239    1.0000 0.80510  0.44158  0.43549  Biso   1.000  Ne
  He239    1.0000 0.81516  0.41418  0.42577  Biso   1.000  He
  He240    1.0000 0.81422  0.39083  0.44901  Biso   1.000  He
  Ne240    1.0000 0.82089  0.36004  0.43841  Biso   1.000  Ne
  Ne241    1.0000 0.19969  0.34510  0.33582  Biso   1.000  Ne
  He241    1.0000 0.18763  0.31471  0.34564  Biso   1.000  He
  He242    1.0000 0.21095  0.29261  0.34347  Biso   1.000  He
  Ne242    1.0000 0.20031  0.26283  0.35213  Biso   1.000  Ne
  Ne243    1.0000 0.70364  0.33341  0.86967  Biso   1.000  Ne
  He243    1.0000 0.68700  0.33355  0.83938  Biso   1.000  He
  He244    1.0000 0.68900  0.30649  0.82287  Biso   1.000  He
  Ne244    1.0000 0.66538  0.30639  0.79873  Biso   1.000  Ne
  Ne245    1.0000 0.46201  0.79654  0.96723  Biso   1.000  Ne
  He245    1.0000 0.43600  0.78560  0.94742  Biso   1.000  He
  He246    1.0000 0.40639  0.77720  0.96002  Biso   1.000  He
  Ne246    1.0000 0.38361  0.76557  0.93870  Biso   1.000  Ne
  Ne247    1.0000 0.08252  0.55591  0.77547  Biso   1.000  Ne
  He247    1.0000 0.09275  0.54190  0.80371  Biso   1.000  He
  He248    1.0000 0.11027  0.51267  0.80192  Biso   1.000  He
  Ne248    1.0000 0.12663  0.51094  0.83200  Biso   1.000  Ne
  Ne249    1.0000 0.94369  0.60677  0.52746  Biso   1.000  Ne
  He249    1.0000 0.93891  0.58563  0.55410  Biso   1.000  He
  He250    1.0000 0.91329  0.56440  0.54922  Biso   1.000  He
  Ne250    1.0000 0.90391  0.54437  0.57529  Biso   1.000  Ne
  Ne251    1.0000 0.81386  0.21458  0.17334  Biso   1.000  Ne
  He251    1.0000 0.81899  0.21333  0.13932  Biso   1.000  He
  He252    1.0000 0.79124  0.19937  0.12362  Biso   1.000  He
  Ne252    1.0000 0.79463  0.19825  0.09255  Biso   1.000  Ne
  Ne253    1.0000 0.05873  0.58346  0.38223  Biso   1.000  Ne
  He253    1.0000 0.06742  0.57990  0.34814  Biso   1.000  He
  He254    1.0000 0.09897  0.59114  0.34293  Biso   1.000  He
  Ne254    1.0000 0.11048  0.58608  0.31071  Biso   1.000  Ne
  Ne255    1.0000 0.58929  0.79683  0.40694  Biso   1.000  Ne
  He255    1.0000 0.59857  0.76440  0.40728  Biso   1.000  He
  He256    1.0000 0.63042  0.75827  0.41870  Biso   1.000  He
  Ne256    1.0000 0.63717  0.72640  0.41490  Biso   1.000  Ne
  Ne257    1.0000 0.29394  0.02257  0.04311  Biso   1.000  Ne
  He257    1.0000 0.29769  0.99505  0.06178  Biso   1.000  He
  He258    1.0000 0.27951  0.96901  0.05094  Biso   1.000  He
  Ne258    1.0000 0.28615  0.93954  0.06506  Biso   1.000  Ne
  Ne259    1.0000 0.91503  0.43539  0.72748  Biso   1.000  Ne
  He259    1.0000 0.88279  0.43570  0.72461  Biso   1.000  He
  He260    1.0000 0.87740  0.43976  0.69342  Biso   1.000  He
  Ne260    1.0000 0.84813  0.44217  0.68381  Biso   1.000  Ne
  Ne261    1.0000 0.72549  0.38021  0.60854  Biso   1.000  Ne
  He261    1.0000 0.75602  0.38942  0.60989  Biso   1.000  He
  He262    1.0000 0.76167  0.42213  0.59839  Biso   1.000  He
  Ne262    1.0000 0.79116  0.43306  0.60540  Biso   1.000  Ne
  Ne263    1.0000 0.40096  0.79717  0.67535  Biso   1.000  Ne
  He263    1.0000 0.38214  0.78553  0.65036  Biso   1.000  He
  He264    1.0000 0.35083  0.78294  0.65798  Biso   1.000  He
  Ne264    1.0000 0.33116  0.77805  0.63179  Biso   1.000  Ne
  Ne265    1.0000 0.59970  0.15810  0.11684  Biso   1.000  Ne
  He265    1.0000 0.63241  0.16860  0.11349  Biso   1.000  He
  He266    1.0000 0.64487  0.17658  0.14085  Biso   1.000  He
  Ne266    1.0000 0.67521  0.18933  0.13761  Biso   1.000  Ne
  Ne267    1.0000 0.86596  0.70640  0.39834  Biso   1.000  Ne
  He267    1.0000 0.88185  0.67698  0.39728  Biso   1.000  He
  He268    1.0000 0.91699  0.67901  0.39256  Biso   1.000  He
  Ne268    1.0000 0.93251  0.64926  0.39310  Biso   1.000  Ne
  Ne269    1.0000 0.88904  0.81229  0.79254  Biso   1.000  Ne
  He269    1.0000 0.89439  0.77996  0.79051  Biso   1.000  He
  He270    1.0000 0.92153  0.76954  0.81150  Biso   1.000  He
  Ne270    1.0000 0.92796  0.73856  0.81227  Biso   1.000  Ne
  Ne271    1.0000 0.20659  0.33500  0.96598  Biso   1.000  Ne
  He271    1.0000 0.18545  0.33895  0.99256  Biso   1.000  He
  He272    1.0000 0.15739  0.35074  0.98250  Biso   1.000  He
  Ne272    1.0000 0.13551  0.35409  0.00946  Biso   1.000  Ne
  Ne273    1.0000 0.07483  0.13032  0.18864  Biso   1.000  Ne
  He273    1.0000 0.06742  0.16027  0.17375  Biso   1.000  He
  He274    1.0000 0.06141  0.16238  0.14296  Biso   1.000  He
  Ne274    1.0000 0.07075  0.19354  0.13341  Biso   1.000  Ne
  Ne275    1.0000 0.80597  0.66200  0.68957  Biso   1.000  Ne
  He275    1.0000 0.81851  0.69296  0.69290  Biso   1.000  He
  He276    1.0000 0.79586  0.71912  0.69110  Biso   1.000  He
  Ne276    1.0000 0.78761  0.72779  0.65900  Biso   1.000  Ne
  Ne277    1.0000 0.08483  0.32120  0.25122  Biso   1.000  Ne
  He277    1.0000 0.08284  0.28727  0.24998  Biso   1.000  He
  He278    1.0000 0.05259  0.27394  0.25663  Biso   1.000  He
  Ne278    1.0000 0.03872  0.25749  0.22959  Biso   1.000  Ne
  Ne279    1.0000 0.34019  0.19369  0.79490  Biso   1.000  Ne
  He279    1.0000 0.32109  0.17039  0.81155  Biso   1.000  He
  He280    1.0000 0.29659  0.18465  0.82887  Biso   1.000  He
  Ne280    1.0000 0.28210  0.16214  0.85242  Biso   1.000  Ne
  Ne281    1.0000 0.22304  0.92152  0.95985  Biso   1.000  Ne
  He281    1.0000 0.20646  0.89520  0.94563  Biso   1.000  He
  He282    1.0000 0.17696  0.88796  0.95713  Biso   1.000  He
  Ne282    1.0000 0.16111  0.86289  0.94068  Biso   1.000  Ne
  Ne283    1.0000 0.07084  0.23653  0.75063  Biso   1.000  Ne
  He283    1.0000 0.06755  0.21101  0.76897  Biso   1.000  He
  He284    1.0000 0.07740  0.18197  0.75501  Biso   1.000  He
  Ne284    1.0000 0.08001  0.15780  0.77837  Biso   1.000  Ne
  Ne285    1.0000 0.91612  0.68552  0.73645  Biso   1.000  Ne
  He285    1.0000 0.93340  0.67711  0.76294  Biso   1.000  He
  He286    1.0000 0.92556  0.64778  0.77964  Biso   1.000  He
  Ne286    1.0000 0.94027  0.64135  0.80969  Biso   1.000  Ne
  Ne287    1.0000 0.55708  0.77372  0.94585  Biso   1.000  Ne
  He287    1.0000 0.53915  0.76713  0.92010  Biso   1.000  He
  He288    1.0000 0.52517  0.79386  0.90413  Biso   1.000  He
  Ne288    1.0000 0.50432  0.78476  0.87840  Biso   1.000  Ne
  Ne289    1.0000 0.57335  0.22790  0.77942  Biso   1.000  Ne
  He289    1.0000 0.54643  0.21140  0.79131  Biso   1.000  He
  He290    1.0000 0.54907  0.17897  0.78587  Biso   1.000  He
  Ne290    1.0000 0.52012  0.16590  0.78996  Biso   1.000  Ne
  Ne291    1.0000 0.47687  0.80422  0.06042  Biso   1.000  Ne
  He291    1.0000 0.44333  0.80717  0.06978  Biso   1.000  He
  He292    1.0000 0.43598  0.79932  0.10268  Biso   1.000  He
  Ne292    1.0000 0.40155  0.79914  0.10653  Biso   1.000  Ne
  Ne293    1.0000 0.70933  0.73156  0.85276  Biso   1.000  Ne
  He293    1.0000 0.70032  0.71188  0.83064  Biso   1.000  He
  He294    1.0000 0.66808  0.70400  0.83437  Biso   1.000  He
  Ne294    1.0000 0.65952  0.68002  0.81380  Biso   1.000  Ne
  Ne295    1.0000 0.37135  0.68215  0.75951  Biso   1.000  Ne
  He295    1.0000 0.38230  0.69124  0.73155  Biso   1.000  He
  He296    1.0000 0.41764  0.69070  0.72900  Biso   1.000  He
  Ne296    1.0000 0.43316  0.70038  0.70115  Biso   1.000  Ne
  Ne297    1.0000 0.82889  0.60436  0.37857  Biso   1.000  Ne
  He297    1.0000 0.79982  0.61421  0.36472  Biso   1.000  He
  He298    1.0000 0.79071  0.64358  0.37326  Biso   1.000  He
  Ne298    1.0000 0.76544  0.65430  0.35627  Biso   1.000  Ne
  Ne299    1.0000 0.09033  0.83785  0.09161  Biso   1.000  Ne
  He299    1.0000 0.07707  0.86733  0.09763  Biso   1.000  He
  He300    1.0000 0.09378  0.88765  0.12036  Biso   1.000  He
  Ne300    1.0000 0.08115  0.91735  0.12667  Biso   1.000  Ne
  Ne301    1.0000 0.05550  0.03495  0.62063  Biso   1.000  Ne
  He301    1.0000 0.06995  0.06376  0.62647  Biso   1.000  He
  He302    1.0000 0.09599  0.06024  0.64782  Biso   1.000  He
  Ne302    1.0000 0.12805  0.05838  0.63185  Biso   1.000  Ne
  Ne303    1.0000 0.31162  0.69403  0.07323  Biso   1.000  Ne
  He303    1.0000 0.29154  0.71087  0.09169  Biso   1.000  He
  He304    1.0000 0.28322  0.69678  0.12002  Biso   1.000  He
  Ne304    1.0000 0.26741  0.72074  0.14048  Biso   1.000  Ne
  Ne305    1.0000 0.59055  0.33507  0.09667  Biso   1.000  Ne
  He305    1.0000 0.58611  0.35729  0.12055  Biso   1.000  He
  He306    1.0000 0.60899  0.35378  0.14273  Biso   1.000  He
  Ne306    1.0000 0.60099  0.33167  0.16854  Biso   1.000  Ne
  Ne307    1.0000 0.78058  0.71364  0.90960  Biso   1.000  Ne
  He307    1.0000 0.76539  0.68311  0.91943  Biso   1.000  He
  He308    1.0000 0.76618  0.66001  0.89681  Biso   1.000  He
  Ne308    1.0000 0.74738  0.63108  0.90509  Biso   1.000  Ne
  Ne309    1.0000 0.59710  0.93746  0.62788  Biso   1.000  Ne
  He309    1.0000 0.62778  0.93215  0.62317  Biso   1.000  He
  He310    1.0000 0.63510  0.91431  0.59858  Biso   1.000  He
  Ne310    1.0000 0.66607  0.91000  0.59238  Biso   1.000  Ne
  Ne311    1.0000 0.47332  0.96877  0.57917  Biso   1.000  Ne
  He311    1.0000 0.45940  0.96782  0.54913  Biso   1.000  He
  He312    1.0000 0.44563  0.93691  0.54463  Biso   1.000  He
  Ne312    1.0000 0.43104  0.93506  0.51527  Biso   1.000  Ne
  Ne313    1.0000 0.94820  0.70343  0.25233  Biso   1.000  Ne
  He313    1.0000 0.94306  0.70424  0.28486  Biso   1.000  He
  He314    1.0000 0.92396  0.72819  0.29593  Biso   1.000  He
  Ne314    1.0000 0.92725  0.73027  0.33044  Biso   1.000  Ne
  Ne315    1.0000 0.01597  0.49678  0.59623  Biso   1.000  Ne
  He315    1.0000 0.99729  0.51370  0.57457  Biso   1.000  He
  He316    1.0000 0.99691  0.50385  0.54298  Biso   1.000  He
  Ne316    1.0000 0.97506  0.51848  0.52256  Biso   1.000  Ne
  Ne317    1.0000 0.87251  0.37848  0.13161  Biso   1.000  Ne
  He317    1.0000 0.88310  0.38840  0.16022  Biso   1.000  He
  He318    1.0000 0.87996  0.36797  0.18857  Biso   1.000  He
  Ne318    1.0000 0.90894  0.34668  0.19541  Biso   1.000  Ne
  Ne319    1.0000 0.83011  0.83808  0.46324  Biso   1.000  Ne
  He319    1.0000 0.84217  0.84371  0.43503  Biso   1.000  He
  He320    1.0000 0.85115  0.87636  0.43155  Biso   1.000  He
  Ne320    1.0000 0.87245  0.88136  0.40795  Biso   1.000  Ne
  Ne321    1.0000 0.40860  0.18067  0.85041  Biso   1.000  Ne
  He321    1.0000 0.40639  0.14827  0.85191  Biso   1.000  He
  He322    1.0000 0.40914  0.13911  0.88399  Biso   1.000  He
  Ne322    1.0000 0.41471  0.10570  0.88834  Biso   1.000  Ne
  Ne323    1.0000 0.60413  0.70863  0.72356  Biso   1.000  Ne
  He323    1.0000 0.63108  0.72726  0.72719  Biso   1.000  He
  He324    1.0000 0.62756  0.75571  0.74485  Biso   1.000  He
  Ne324    1.0000 0.65547  0.77028  0.75196  Biso   1.000  Ne
  Ne325    1.0000 0.10951  0.73486  0.11222  Biso   1.000  Ne
  He325    1.0000 0.10323  0.76403  0.13118  Biso   1.000  He
  He326    1.0000 0.12257  0.76463  0.15760  Biso   1.000  He
  Ne326    1.0000 0.11941  0.79192  0.17773  Biso   1.000  Ne
  Ne327    1.0000 0.27185  0.39178  0.34053  Biso   1.000  Ne
  He327    1.0000 0.25027  0.40496  0.36272  Biso   1.000  He
  He328    1.0000 0.25960  0.39839  0.39284  Biso   1.000  He
  Ne328    1.0000 0.24220  0.41670  0.41520  Biso   1.000  Ne
  Ne329    1.0000 0.88920  0.30483  0.70576  Biso   1.000  Ne
  He329    1.0000 0.89630  0.32786  0.68178  Biso   1.000  He
  He330    1.0000 0.90509  0.35916  0.69059  Biso   1.000  He
  Ne330    1.0000 0.91656  0.37688  0.66555  Biso   1.000  Ne
  Ne331    1.0000 0.79444  0.68086  0.04917  Biso   1.000  Ne
  He331    1.0000 0.75982  0.68349  0.04839  Biso   1.000  He
  He332    1.0000 0.75187  0.70501  0.07125  Biso   1.000  He
  Ne332    1.0000 0.71856  0.70595  0.07787  Biso   1.000  Ne
  Ne333    1.0000 0.29234  0.99273  0.90192  Biso   1.000  Ne
  He333    1.0000 0.28183  0.98358  0.86944  Biso   1.000  He
  He334    1.0000 0.27591  0.95246  0.86558  Biso   1.000  He
  Ne334    1.0000 0.26692  0.94396  0.83712  Biso   1.000  Ne
  Ne335    1.0000 0.74811  0.83593  0.60347  Biso   1.000  Ne
  He335    1.0000 0.77351  0.82535  0.59349  Biso   1.000  He
  He336    1.0000 0.78685  0.84346  0.56854  Biso   1.000  He
  Ne336    1.0000 0.81477  0.82908  0.55574  Biso   1.000  Ne
  Ne337    1.0000 0.41084  0.69216  0.92106  Biso   1.000  Ne
  He337    1.0000 0.39936  0.66595  0.90396  Biso   1.000  He
  He338    1.0000 0.38034  0.67370  0.87623  Biso   1.000  He
  Ne338    1.0000 0.37244  0.64643  0.85891  Biso   1.000  Ne
  Ne339    1.0000 0.37521  0.62253  0.10718  Biso   1.000  Ne
  He339    1.0000 0.35463  0.62056  0.08231  Biso   1.000  He
  He340    1.0000 0.32491  0.60281  0.08854  Biso   1.000  He
  Ne340    1.0000 0.30414  0.59705  0.06062  Biso   1.000  Ne
  Ne341    1.0000 0.20036  0.06841  0.91676  Biso   1.000  Ne
  He341    1.0000 0.16876  0.05972  0.91846  Biso   1.000  He
  He342    1.0000 0.14528  0.08170  0.92170  Biso   1.000  He
  Ne342    1.0000 0.11556  0.06881  0.91844  Biso   1.000  Ne
  Ne343    1.0000 0.26949  0.44489  0.10132  Biso   1.000  Ne
  He343    1.0000 0.29758  0.42900  0.10839  Biso   1.000  He
  He344    1.0000 0.30341  0.42729  0.14130  Biso   1.000  He
  Ne344    1.0000 0.32475  0.40234  0.15208  Biso   1.000  Ne
  Ne345    1.0000 0.61190  0.26071  0.20657  Biso   1.000  Ne
  He345    1.0000 0.63747  0.25769  0.22596  Biso   1.000  He
  He346    1.0000 0.65204  0.22460  0.22272  Biso   1.000  He
  Ne346    1.0000 0.68000  0.21590  0.24147  Biso   1.000  Ne
  Ne347    1.0000 0.66367  0.22278  0.01770  Biso   1.000  Ne
  He347    1.0000 0.68726  0.19769  0.01976  Biso   1.000  He
  He348    1.0000 0.68880  0.17950  0.04699  Biso   1.000  He
  Ne348    1.0000 0.71136  0.19207  0.07109  Biso   1.000  Ne
  Ne349    1.0000 0.24849  0.30492  0.85738  Biso   1.000  Ne
  He349    1.0000 0.25576  0.27382  0.86732  Biso   1.000  He
  He350    1.0000 0.28442  0.27268  0.88774  Biso   1.000  He
  Ne350    1.0000 0.29820  0.24205  0.89360  Biso   1.000  Ne
  Ne351    1.0000 0.41029  0.77674  0.42582  Biso   1.000  Ne
  He351    1.0000 0.42437  0.74782  0.42503  Biso   1.000  He
  He352    1.0000 0.45242  0.74389  0.40893  Biso   1.000  He
  Ne352    1.0000 0.46248  0.71382  0.40631  Biso   1.000  Ne
  Ne353    1.0000 0.55923  0.92382  0.71156  Biso   1.000  Ne
  He353    1.0000 0.56157  0.90409  0.68640  Biso   1.000  He
  He354    1.0000 0.56813  0.87381  0.69442  Biso   1.000  He
  Ne354    1.0000 0.56053  0.85119  0.67250  Biso   1.000  Ne
  Ne355    1.0000 0.52201  0.03248  0.43324  Biso   1.000  Ne
  He355    1.0000 0.51210  0.00465  0.45012  Biso   1.000  He
  He356    1.0000 0.52328  0.97542  0.43787  Biso   1.000  He
  Ne356    1.0000 0.51991  0.94839  0.45872  Biso   1.000  Ne
  Ne357    1.0000 0.85534  0.33065  0.77910  Biso   1.000  Ne
  He357    1.0000 0.86463  0.31464  0.80731  Biso   1.000  He
  He358    1.0000 0.85370  0.28167  0.80958  Biso   1.000  He
  Ne358    1.0000 0.85867  0.26703  0.84020  Biso   1.000  Ne
  Ne359    1.0000 0.33959  0.43032  0.70381  Biso   1.000  Ne
  He359    1.0000 0.31006  0.42951  0.71597  Biso   1.000  He
  He360    1.0000 0.28333  0.41339  0.70078  Biso   1.000  He
  Ne360    1.0000 0.25539  0.41666  0.71852  Biso   1.000  Ne
  Ne361    1.0000 0.76971  0.38384  0.20344  Biso   1.000  Ne
  He361    1.0000 0.73822  0.37701  0.21470  Biso   1.000  He
  He362    1.0000 0.73832  0.35096  0.23517  Biso   1.000  He
  Ne362    1.0000 0.70863  0.34523  0.24735  Biso   1.000  Ne
  Ne363    1.0000 0.73593  0.46812  0.17068  Biso   1.000  Ne
  He363    1.0000 0.75410  0.48207  0.19117  Biso   1.000  He
  He364    1.0000 0.76891  0.46457  0.21365  Biso   1.000  He
  Ne364    1.0000 0.78758  0.48460  0.23296  Biso   1.000  Ne
  Ne365    1.0000 0.59222  0.60917  0.80597  Biso   1.000  Ne
  He365    1.0000 0.57415  0.62980  0.81901  Biso   1.000  He
  He366    1.0000 0.58868  0.65750  0.82803  Biso   1.000  He
  Ne366    1.0000 0.56904  0.67939  0.84004  Biso   1.000  Ne
  Ne367    1.0000 0.16446  0.27438  0.74134  Biso   1.000  Ne
  He367    1.0000 0.18116  0.29850  0.75958  Biso   1.000  He
  He368    1.0000 0.18414  0.32650  0.74430  Biso   1.000  He
  Ne368    1.0000 0.20117  0.35127  0.76287  Biso   1.000  Ne
  Ne369    1.0000 0.41003  0.79951  0.86430  Biso   1.000  Ne
  He369    1.0000 0.43554  0.80922  0.84407  Biso   1.000  He
  He370    1.0000 0.42245  0.82610  0.81726  Biso   1.000  He
  Ne370    1.0000 0.44698  0.83465  0.80088  Biso   1.000  Ne
  Ne371    1.0000 0.28185  0.47121  0.49058  Biso   1.000  Ne
  He371    1.0000 0.29853  0.49996  0.48373  Biso   1.000  He
  He372    1.0000 0.27903  0.52022  0.46299  Biso   1.000  He
  Ne372    1.0000 0.29355  0.54908  0.45760  Biso   1.000  Ne
  Ne373    1.0000 0.42978  0.01218  0.16231  Biso   1.000  Ne
  He373    1.0000 0.42075  0.01412  0.13300  Biso   1.000  He
  He374    1.0000 0.42509  0.98572  0.11981  Biso   1.000  He
  Ne374    1.0000 0.41542  0.98368  0.08635  Biso   1.000  Ne
  Ne375    1.0000 0.64793  0.56849  0.74997  Biso   1.000  Ne
  He375    1.0000 0.66188  0.56728  0.71876  Biso   1.000  He
  He376    1.0000 0.69301  0.57602  0.71919  Biso   1.000  He
  Ne376    1.0000 0.70691  0.57969  0.68935  Biso   1.000  Ne
  Ne377    1.0000 0.93821  0.82747  0.20037  Biso   1.000  Ne
  He377    1.0000 0.93200  0.86013  0.20182  Biso   1.000  He
  He378    1.0000 0.93638  0.87396  0.22976  Biso   1.000  He
  Ne378    1.0000 0.93010  0.90614  0.22820  Biso   1.000  Ne
  Ne379    1.0000 0.36389  0.96081  0.20280  Biso   1.000  Ne
  He379    1.0000 0.34898  0.93047  0.20245  Biso   1.000  He
  He380    1.0000 0.37439  0.90924  0.21060  Biso   1.000  He
  Ne380    1.0000 0.36576  0.87550  0.21061  Biso   1.000  Ne
  Ne381    1.0000 0.79845  0.46180  0.07238  Biso   1.000  Ne
  He381    1.0000 0.77660  0.44823  0.09312  Biso   1.000  He
  He382    1.0000 0.77580  0.41520  0.09522  Biso   1.000  He
  Ne382    1.0000 0.75213  0.40249  0.11701  Biso   1.000  Ne
  Ne383    1.0000 0.17757  0.34151  0.07941  Biso   1.000  Ne
  He383    1.0000 0.19476  0.36811  0.08800  Biso   1.000  He
  He384    1.0000 0.17484  0.39042  0.10136  Biso   1.000  He
  Ne384    1.0000 0.18935  0.41725  0.10641  Biso   1.000  Ne
  Ne385    1.0000 0.26582  0.08948  0.86301  Biso   1.000  Ne
  He385    1.0000 0.28215  0.07705  0.89015  Biso   1.000  He
  He386    1.0000 0.28429  0.09794  0.91554  Biso   1.000  He
  Ne386    1.0000 0.31576  0.10883  0.92014  Biso   1.000  Ne
  Ne387    1.0000 0.92922  0.52203  0.14245  Biso   1.000  Ne
  He387    1.0000 0.95462  0.50750  0.15922  Biso   1.000  He
  He388    1.0000 0.96150  0.51878  0.18892  Biso   1.000  He
  Ne388    1.0000 0.98597  0.50069  0.20679  Biso   1.000  Ne
  Ne389    1.0000 0.42024  0.68656  0.33447  Biso   1.000  Ne
  He389    1.0000 0.40084  0.69953  0.30736  Biso   1.000  He
  He390    1.0000 0.38912  0.67768  0.28394  Biso   1.000  He
  Ne390    1.0000 0.37483  0.69153  0.25955  Biso   1.000  Ne
  Ne391    1.0000 0.00484  0.55795  0.43518  Biso   1.000  Ne
  He391    1.0000 0.03433  0.56245  0.45289  Biso   1.000  He
  He392    1.0000 0.02952  0.56343  0.48517  Biso   1.000  He
  Ne392    1.0000 0.05519  0.55630  0.50450  Biso   1.000  Ne
  Ne393    1.0000 0.09761  0.69479  0.35513  Biso   1.000  Ne
  He393    1.0000 0.09566  0.68648  0.38643  Biso   1.000  He
  He394    1.0000 0.08928  0.65507  0.39113  Biso   1.000  He
  Ne394    1.0000 0.08759  0.64620  0.42246  Biso   1.000  Ne
  Ne395    1.0000 0.67888  0.76982  0.93276  Biso   1.000  Ne
  He395    1.0000 0.69222  0.79875  0.92832  Biso   1.000  He
  He396    1.0000 0.71833  0.80100  0.90662  Biso   1.000  He
  Ne396    1.0000 0.72828  0.83224  0.90231  Biso   1.000  Ne
  Ne397    1.0000 0.86834  0.60779  0.72281  Biso   1.000  Ne
  He397    1.0000 0.88042  0.59393  0.69534  Biso   1.000  He
  He398    1.0000 0.90793  0.60766  0.68385  Biso   1.000  He
  Ne398    1.0000 0.92021  0.59260  0.65562  Biso   1.000  Ne
  Ne399    1.0000 0.65942  0.76493  0.59711  Biso   1.000  Ne
  He399    1.0000 0.64308  0.75067  0.57175  Biso   1.000  He
  He400    1.0000 0.66390  0.73674  0.55085  Biso   1.000  He
  Ne400    1.0000 0.65062  0.71967  0.52550  Biso   1.000  Ne
  Ne401    1.0000 0.63988  0.31227  0.59882  Biso   1.000  Ne
  He401    1.0000 0.64114  0.31422  0.56615  Biso   1.000  He
  He402    1.0000 0.65553  0.34222  0.55412  Biso   1.000  He
  Ne402    1.0000 0.66515  0.34225  0.52126  Biso   1.000  Ne
  Ne403    1.0000 0.91165  0.84830  0.09817  Biso   1.000  Ne
  He403    1.0000 0.89476  0.81930  0.09943  Biso   1.000  He
  He404    1.0000 0.86028  0.82638  0.09942  Biso   1.000  He
  Ne404    1.0000 0.84392  0.80062  0.11232  Biso   1.000  Ne
  Ne405    1.0000 0.50897  0.20602  0.95608  Biso   1.000  Ne
  He405    1.0000 0.50025  0.19454  0.92590  Biso   1.000  He
  He406    1.0000 0.51829  0.20771  0.89986  Biso   1.000  He
  Ne406    1.0000 0.51151  0.19500  0.87165  Biso   1.000  Ne
  Ne407    1.0000 0.69180  0.76474  0.14134  Biso   1.000  Ne
  He407    1.0000 0.67946  0.76279  0.17220  Biso   1.000  He
  He408    1.0000 0.66298  0.73426  0.17681  Biso   1.000  He
  Ne408    1.0000 0.64762  0.73439  0.20588  Biso   1.000  Ne
  Ne409    1.0000 0.02834  0.81488  0.60224  Biso   1.000  Ne
  He409    1.0000 0.05764  0.81543  0.61545  Biso   1.000  He
  He410    1.0000 0.07406  0.84396  0.60806  Biso   1.000  He
  Ne410    1.0000 0.10573  0.84705  0.61842  Biso   1.000  Ne
  Ne411    1.0000 0.40648  0.58142  0.24040  Biso   1.000  Ne
  He411    1.0000 0.41299  0.61208  0.22536  Biso   1.000  He
  He412    1.0000 0.39300  0.61666  0.19820  Biso   1.000  He
  Ne412    1.0000 0.40140  0.64788  0.18402  Biso   1.000  Ne
  Ne413    1.0000 0.17896  0.84300  0.12288  Biso   1.000  Ne
  He413    1.0000 0.20317  0.82391  0.10711  Biso   1.000  He
  He414    1.0000 0.23096  0.83862  0.10235  Biso   1.000  He
  Ne414    1.0000 0.25358  0.81476  0.08930  Biso   1.000  Ne
  Ne415    1.0000 0.60271  0.25890  0.13212  Biso   1.000  Ne
  He415    1.0000 0.57272  0.24259  0.12255  Biso   1.000  He
  He416    1.0000 0.57262  0.23006  0.08897  Biso   1.000  He
  Ne416    1.0000 0.54597  0.21183  0.08072  Biso   1.000  Ne
  Ne417    1.0000 0.11798  0.68436  0.27130  Biso   1.000  Ne
  He417    1.0000 0.14699  0.67802  0.25318  Biso   1.000  He
  He418    1.0000 0.14071  0.66685  0.22156  Biso   1.000  He
  Ne418    1.0000 0.17129  0.66414  0.20547  Biso   1.000  Ne
  Ne419    1.0000 0.40301  0.86449  0.38342  Biso   1.000  Ne
  He419    1.0000 0.42108  0.86136  0.41344  Biso   1.000  He
  He420    1.0000 0.41927  0.88492  0.43512  Biso   1.000  He
  Ne420    1.0000 0.44484  0.90594  0.43657  Biso   1.000  Ne
  Ne421    1.0000 0.63967  0.60641  0.25066  Biso   1.000  Ne
  He421    1.0000 0.62924  0.61825  0.22172  Biso   1.000  He
  He422    1.0000 0.65571  0.62907  0.20293  Biso   1.000  He
  Ne422    1.0000 0.65264  0.63201  0.17073  Biso   1.000  Ne
  Ne423    1.0000 0.15748  0.37084  0.86958  Biso   1.000  Ne
  He423    1.0000 0.17345  0.34142  0.87176  Biso   1.000  He
  He424    1.0000 0.15450  0.31568  0.86465  Biso   1.000  He
  Ne424    1.0000 0.17058  0.28787  0.86545  Biso   1.000  Ne
  Ne425    1.0000 0.90702  0.15972  0.75998  Biso   1.000  Ne
  He425    1.0000 0.91448  0.18727  0.74362  Biso   1.000  He
  He426    1.0000 0.90047  0.19018  0.71148  Biso   1.000  He
  Ne426    1.0000 0.90414  0.22220  0.70008  Biso   1.000  Ne
  Ne427    1.0000 0.20683  0.12642  0.32297  Biso   1.000  Ne
  He427    1.0000 0.20835  0.15683  0.30715  Biso   1.000  He
  He428    1.0000 0.23869  0.16844  0.30546  Biso   1.000  He
  Ne428    1.0000 0.24170  0.19837  0.28892  Biso   1.000  Ne
  Ne429    1.0000 0.83046  0.56699  0.79184  Biso   1.000  Ne
  He429    1.0000 0.80859  0.57575  0.81583  Biso   1.000  He
  He430    1.0000 0.80716  0.56144  0.84564  Biso   1.000  He
  Ne430    1.0000 0.78226  0.56881  0.86186  Biso   1.000  Ne
  Ne431    1.0000 0.32070  0.84259  0.41809  Biso   1.000  Ne
  He431    1.0000 0.30412  0.81644  0.42660  Biso   1.000  He
  He432    1.0000 0.31838  0.78625  0.42414  Biso   1.000  He
  Ne432    1.0000 0.29826  0.76005  0.41876  Biso   1.000  Ne
  Ne433    1.0000 0.03562  0.40551  0.38117  Biso   1.000  Ne
  He433    1.0000 0.05453  0.39979  0.35432  Biso   1.000  He
  He434    1.0000 0.04229  0.41617  0.32760  Biso   1.000  He
  Ne434    1.0000 0.05825  0.41319  0.29812  Biso   1.000  Ne
  Ne435    1.0000 0.67569  0.00742  0.86088  Biso   1.000  Ne
  He435    1.0000 0.65937  0.98636  0.83885  Biso   1.000  He
  He436    1.0000 0.62438  0.98532  0.83948  Biso   1.000  He
  Ne436    1.0000 0.61328  0.96909  0.81274  Biso   1.000  Ne
  Ne437    1.0000 0.67632  0.84472  0.41419  Biso   1.000  Ne
  He437    1.0000 0.65694  0.87043  0.41729  Biso   1.000  He
  He438    1.0000 0.62710  0.86251  0.42995  Biso   1.000  He
  Ne438    1.0000 0.60674  0.89035  0.43551  Biso   1.000  Ne
  Ne439    1.0000 0.57987  0.22369  0.42623  Biso   1.000  Ne
  He439    1.0000 0.61067  0.22877  0.41518  Biso   1.000  He
  He440    1.0000 0.63536  0.21603  0.43492  Biso   1.000  He
  Ne440    1.0000 0.66575  0.22154  0.42449  Biso   1.000  Ne
  Ne441    1.0000 0.29604  0.76256  0.90286  Biso   1.000  Ne
  He441    1.0000 0.32279  0.78206  0.90157  Biso   1.000  He
  He442    1.0000 0.31497  0.81093  0.88886  Biso   1.000  He
  Ne442    1.0000 0.33903  0.83108  0.88964  Biso   1.000  Ne
  Ne443    1.0000 0.15439  0.76713  0.94320  Biso   1.000  Ne
  He443    1.0000 0.18489  0.75504  0.92982  Biso   1.000  He
  He444    1.0000 0.18738  0.72153  0.92519  Biso   1.000  He
  Ne444    1.0000 0.21864  0.71348  0.91840  Biso   1.000  Ne
  Ne445    1.0000 0.60604  0.55943  0.63395  Biso   1.000  Ne
  He445    1.0000 0.60186  0.59397  0.64103  Biso   1.000  He
  He446    1.0000 0.62837  0.60603  0.65505  Biso   1.000  He
  Ne446    1.0000 0.62950  0.63629  0.66380  Biso   1.000  Ne
  Ne447    1.0000 0.19891  0.06034  0.49349  Biso   1.000  Ne
  He447    1.0000 0.19268  0.07885  0.46880  Biso   1.000  He
  He448    1.0000 0.16703  0.09658  0.47662  Biso   1.000  He
  Ne448    1.0000 0.15694  0.11313  0.44958  Biso   1.000  Ne
  Ne449    1.0000 0.42139  0.10016  0.59656  Biso   1.000  Ne
  He449    1.0000 0.41625  0.06476  0.60075  Biso   1.000  He
  He450    1.0000 0.40524  0.05116  0.57285  Biso   1.000  He
  Ne450    1.0000 0.39644  0.02093  0.57813  Biso   1.000  Ne
  Ne451    1.0000 0.39976  0.28477  0.86275  Biso   1.000  Ne
  He451    1.0000 0.37640  0.29344  0.84218  Biso   1.000  He
  He452    1.0000 0.38693  0.29945  0.80949  Biso   1.000  He
  Ne452    1.0000 0.38848  0.27382  0.78891  Biso   1.000  Ne
  Ne453    1.0000 0.68727  0.85176  0.64982  Biso   1.000  Ne
  He453    1.0000 0.65602  0.84035  0.65219  Biso   1.000  He
  He454    1.0000 0.65634  0.81695  0.67560  Biso   1.000  He
  Ne454    1.0000 0.62635  0.80497  0.68347  Biso   1.000  Ne
  Ne455    1.0000 0.30191  0.05562  0.61599  Biso   1.000  Ne
  He455    1.0000 0.31618  0.08543  0.60974  Biso   1.000  He
  He456    1.0000 0.30370  0.11522  0.62680  Biso   1.000  He
  Ne456    1.0000 0.32009  0.14370  0.62077  Biso   1.000  Ne
  Ne457    1.0000 0.71234  0.08143  0.44802  Biso   1.000  Ne
  He457    1.0000 0.68730  0.09713  0.43425  Biso   1.000  He
  He458    1.0000 0.69664  0.12245  0.41426  Biso   1.000  He
  Ne458    1.0000 0.67259  0.13729  0.39860  Biso   1.000  Ne
  Ne459    1.0000 0.16385  0.38007  0.61110  Biso   1.000  Ne
  He459    1.0000 0.19428  0.39285  0.61836  Biso   1.000  He
  He460    1.0000 0.21893  0.37878  0.60073  Biso   1.000  He
  Ne460    1.0000 0.25040  0.39315  0.60633  Biso   1.000  Ne
  Ne461    1.0000 0.28547  0.05529  0.78109  Biso   1.000  Ne
  He461    1.0000 0.31890  0.05071  0.78015  Biso   1.000  He
  He462    1.0000 0.32861  0.02527  0.79747  Biso   1.000  He
  Ne462    1.0000 0.36157  0.02006  0.80287  Biso   1.000  Ne
  Ne463    1.0000 0.03483  0.64860  0.79068  Biso   1.000  Ne
  He463    1.0000 0.02476  0.61936  0.79853  Biso   1.000  He
  He464    1.0000 0.03892  0.60649  0.82675  Biso   1.000  He
  Ne464    1.0000 0.02736  0.57513  0.83210  Biso   1.000  Ne
  Ne465    1.0000 0.70029  0.42378  0.48836  Biso   1.000  Ne
  He465    1.0000 0.70763  0.41919  0.45677  Biso   1.000  He
  He466    1.0000 0.69528  0.39255  0.44272  Biso   1.000  He
  Ne466    1.0000 0.71102  0.38523  0.41243  Biso   1.000  Ne
  Ne467    1.0000 0.23386  0.86893  0.82661  Biso   1.000  Ne
  He467    1.0000 0.21794  0.85378  0.85171  Biso   1.000  He
  He468    1.0000 0.23957  0.84519  0.87775  Biso   1.000  He
  Ne468    1.0000 0.22537  0.82584  0.90076  Biso   1.000  Ne
  Ne469    1.0000 0.69402  0.48676  0.63102  Biso   1.000  Ne
  He469    1.0000 0.68528  0.47174  0.60391  Biso   1.000  He
  He470    1.0000 0.65193  0.47567  0.59262  Biso   1.000  He
  Ne470    1.0000 0.64689  0.45499  0.56617  Biso   1.000  Ne
  Ne471    1.0000 0.20479  0.13082  0.81665  Biso   1.000  Ne
  He471    1.0000 0.22371  0.14211  0.79127  Biso   1.000  He
  He472    1.0000 0.25323  0.12801  0.78458  Biso   1.000  He
  Ne472    1.0000 0.26704  0.14116  0.75684  Biso   1.000  Ne
  Ne473    1.0000 0.76569  0.20791  0.61845  Biso   1.000  Ne
  He473    1.0000 0.79100  0.20825  0.63692  Biso   1.000  He
  He474    1.0000 0.81598  0.22415  0.62397  Biso   1.000  He
  Ne474    1.0000 0.83652  0.23683  0.64312  Biso   1.000  Ne
  Ne475    1.0000 0.18699  0.18240  0.90247  Biso   1.000  Ne
  He475    1.0000 0.20710  0.19420  0.92664  Biso   1.000  He
  He476    1.0000 0.23886  0.17977  0.92785  Biso   1.000  He
  Ne476    1.0000 0.26008  0.19629  0.94798  Biso   1.000  Ne
  Ne477    1.0000 0.50222  0.97899  0.79407  Biso   1.000  Ne
  He477    1.0000 0.47107  0.98588  0.79404  Biso   1.000  He
  He478    1.0000 0.45750  0.97451  0.82198  Biso   1.000  He
  Ne478    1.0000 0.42326  0.96959  0.82647  Biso   1.000  Ne
  Ne479    1.0000 0.83096  0.09921  0.93039  Biso   1.000  Ne
  He479    1.0000 0.82964  0.11239  0.89717  Biso   1.000  He
  He480    1.0000 0.80998  0.09582  0.87420  Biso   1.000  He
  Ne480    1.0000 0.81090  0.11323  0.84503  Biso   1.000  Ne
  Ne481    1.0000 0.06417  0.58782  0.59781  Biso   1.000  Ne
  He481    1.0000 0.07737  0.61753  0.59296  Biso   1.000  He
  He482    1.0000 0.06004  0.64316  0.60533  Biso   1.000  He
  Ne482    1.0000 0.07265  0.67372  0.59726  Biso   1.000  Ne
  Ne483    1.0000 0.33150  0.39367  0.22846  Biso   1.000  Ne
  He483    1.0000 0.32828  0.42165  0.24739  Biso   1.000  He
  He484    1.0000 0.35753  0.42657  0.26426  Biso   1.000  He
  Ne484    1.0000 0.35384  0.44640  0.29238  Biso   1.000  Ne
  Ne485    1.0000 0.70571  0.09203  0.15149  Biso   1.000  Ne
  He485    1.0000 0.72480  0.12124  0.15761  Biso   1.000  He
  He486    1.0000 0.75793  0.11633  0.14519  Biso   1.000  He
  Ne486    1.0000 0.76208  0.11933  0.11489  Biso   1.000  Ne
  Ne487    1.0000 0.34635  0.20338  0.71430  Biso   1.000  Ne
  He487    1.0000 0.35950  0.19024  0.68789  Biso   1.000  He
  He488    1.0000 0.39007  0.18337  0.69468  Biso   1.000  He
  Ne488    1.0000 0.40234  0.16729  0.66978  Biso   1.000  Ne
  Ne489    1.0000 0.52058  0.56572  0.01278  Biso   1.000  Ne
  He489    1.0000 0.52983  0.55215  0.04034  Biso   1.000  He
  He490    1.0000 0.52818  0.57103  0.06804  Biso   1.000  He
  Ne490    1.0000 0.53216  0.55064  0.09415  Biso   1.000  Ne
  Ne491    1.0000 0.99119  0.86491  0.31167  Biso   1.000  Ne
  He491    1.0000 0.02567  0.86220  0.32208  Biso   1.000  He
  He492    1.0000 0.03692  0.88825  0.33748  Biso   1.000  He
  Ne492    1.0000 0.07057  0.88891  0.33951  Biso   1.000  Ne
  Ne493    1.0000 0.97642  0.30339  0.14730  Biso   1.000  Ne
  He493    1.0000 0.98580  0.31927  0.17585  Biso   1.000  He
  He494    1.0000 0.99731  0.34939  0.16847  Biso   1.000  He
  Ne494    1.0000 0.00363  0.36475  0.19672  Biso   1.000  Ne
  Ne495    1.0000 0.58415  0.52605  0.70152  Biso   1.000  Ne
  He495    1.0000 0.59092  0.50008  0.68004  Biso   1.000  He
  He496    1.0000 0.57913  0.46741  0.68625  Biso   1.000  He
  Ne496    1.0000 0.58734  0.44078  0.66692  Biso   1.000  Ne
  Ne497    1.0000 0.81325  0.91736  0.24104  Biso   1.000  Ne
  He497    1.0000 0.83020  0.92424  0.26745  Biso   1.000  He
  He498    1.0000 0.82355  0.90250  0.29412  Biso   1.000  He
  Ne498    1.0000 0.84166  0.90718  0.32097  Biso   1.000  Ne
  Ne499    1.0000 0.25068  0.79222  0.60084  Biso   1.000  Ne
  He499    1.0000 0.23144  0.81813  0.59424  Biso   1.000  He
  He500    1.0000 0.24930  0.84620  0.59504  Biso   1.000  He
  Ne500    1.0000 0.23361  0.87197  0.60317  Biso   1.000  Ne
  Ne501    1.0000 0.61509  0.16550  0.32407  Biso   1.000  Ne
  He501    1.0000 0.61466  0.13405  0.33357  Biso   1.000  He
  He502    1.0000 0.63615  0.11542  0.31530  Biso   1.000  He
  Ne502    1.0000 0.64440  0.08345  0.32752  Biso   1.000  Ne
  Ne503    1.0000 0.11050  0.28661  0.42741  Biso   1.000  Ne
  He503    1.0000 0.08576  0.30260  0.43799  Biso   1.000  He
  He504    1.0000 0.07671  0.32583  0.42001  Biso   1.000  He
  Ne504    1.0000 0.04868  0.33792  0.43024  Biso   1.000  Ne
  Ne505    1.0000 0.12448  0.94207  0.20483  Biso   1.000  Ne
  He505    1.0000 0.12859  0.92267  0.22956  Biso   1.000  He
  He506    1.0000 0.10352  0.92826  0.25046  Biso   1.000  He
  Ne506    1.0000 0.10267  0.90804  0.27623  Biso   1.000  Ne
  Ne507    1.0000 0.14735  0.39460  0.25044  Biso   1.000  Ne
  He507    1.0000 0.13147  0.41237  0.22706  Biso   1.000  He
  He508    1.0000 0.12990  0.40101  0.19314  Biso   1.000  He
  Ne508    1.0000 0.11700  0.42159  0.17054  Biso   1.000  Ne
  Ne509    1.0000 0.84216  0.81388  0.65495  Biso   1.000  Ne
  He509    1.0000 0.87098  0.79731  0.66424  Biso   1.000  He
  He510    1.0000 0.86658  0.77090  0.68049  Biso   1.000  He
  Ne510    1.0000 0.89363  0.75592  0.68709  Biso   1.000  Ne
  Ne511    1.0000 0.31888  0.20687  0.34273  Biso   1.000  Ne
  He511    1.0000 0.32542  0.23226  0.35843  Biso   1.000  He
  He512    1.0000 0.30978  0.25718  0.34346  Biso   1.000  He
  Ne512    1.0000 0.31662  0.28511  0.35696  Biso   1.000  Ne
  Ne513    1.0000 0.39667  0.32147  0.94127  Biso   1.000  Ne
  He513    1.0000 0.39797  0.35428  0.94501  Biso   1.000  He
  He514    1.0000 0.37123  0.37276  0.94017  Biso   1.000  He
  Ne514    1.0000 0.37412  0.40691  0.95028  Biso   1.000  Ne
  Ne515    1.0000 0.55244  0.10927  0.71329  Biso   1.000  Ne
  He515    1.0000 0.55357  0.09856  0.74291  Biso   1.000  He
  He516    1.0000 0.58429  0.08447  0.74838  Biso   1.000  He
  Ne516    1.0000 0.58493  0.06766  0.77927  Biso   1.000  Ne
  Ne517    1.0000 0.89132  0.59292  0.31085  Biso   1.000  Ne
  He517    1.0000 0.86807  0.61684  0.30897  Biso   1.000  He
  He518    1.0000 0.87712  0.64502  0.29297  Biso   1.000  He
  Ne518    1.0000 0.85407  0.66940  0.29408  Biso   1.000  Ne
  Ne519    1.0000 0.26618  0.55762  0.30509  Biso   1.000  Ne
  He519    1.0000 0.23867  0.57320  0.29520  Biso   1.000  He
  He520    1.0000 0.22799  0.56343  0.26460  Biso   1.000  He
  Ne520    1.0000 0.19432  0.57366  0.25826  Biso   1.000  Ne
  Ne521    1.0000 0.06848  0.92485  0.81124  Biso   1.000  Ne
  He521    1.0000 0.09923  0.92390  0.81430  Biso   1.000  He
  He522    1.0000 0.10819  0.91546  0.84463  Biso   1.000  He
  Ne522    1.0000 0.14104  0.91107  0.84869  Biso   1.000  Ne
  Ne523    1.0000 0.30151  0.24275  0.45760  Biso   1.000  Ne
  He523    1.0000 0.29503  0.21254  0.44310  Biso   1.000  He
  He524    1.0000 0.27294  0.21113  0.41829  Biso   1.000  He
  Ne524    1.0000 0.24516  0.20119  0.42768  Biso   1.000  Ne
  Ne525    1.0000 0.78385  0.07745  0.36094  Biso   1.000  Ne
  He525    1.0000 0.79896  0.08665  0.39008  Biso   1.000  He
  He526    1.0000 0.78966  0.11577  0.40650  Biso   1.000  He
  Ne526    1.0000 0.80646  0.12399  0.43408  Biso   1.000  Ne
  Ne527    1.0000 0.39408  0.35781  0.47789  Biso   1.000  Ne
  He527    1.0000 0.36558  0.37160  0.46050  Biso   1.000  He
  He528    1.0000 0.36048  0.36405  0.42829  Biso   1.000  He
  Ne528    1.0000 0.33739  0.37544  0.40986  Biso   1.000  Ne
  Ne529    1.0000 0.75017  0.74076  0.24917  Biso   1.000  Ne
  He529    1.0000 0.74528  0.76976  0.26608  Biso   1.000  He
  He530    1.0000 0.71847  0.78590  0.25699  Biso   1.000  He
  Ne530    1.0000 0.71339  0.81641  0.26660  Biso   1.000  Ne
  Ne531    1.0000 0.14551  0.60640  0.71086  Biso   1.000  Ne
  He531    1.0000 0.11706  0.62018  0.72140  Biso   1.000  He
  He532    1.0000 0.08990  0.60952  0.70465  Biso   1.000  He
  Ne532    1.0000 0.07921  0.63189  0.68253  Biso   1.000  Ne
  Ne533    1.0000 0.04601  0.23387  0.43197  Biso   1.000  Ne
  He533    1.0000 0.04822  0.22640  0.40145  Biso   1.000  He
  He534    1.0000 0.01970  0.22705  0.38673  Biso   1.000  He
  Ne534    1.0000 0.01296  0.22180  0.35466  Biso   1.000  Ne
  Ne535    1.0000 0.59926  0.84664  0.85653  Biso   1.000  Ne
  He535    1.0000 0.61878  0.84743  0.82976  Biso   1.000  He
  He536    1.0000 0.60828  0.86966  0.80471  Biso   1.000  He
  Ne536    1.0000 0.62345  0.86577  0.77677  Biso   1.000  Ne
  Ne537    1.0000 0.46101  0.48558  0.97495  Biso   1.000  Ne
  He537    1.0000 0.43295  0.46886  0.97614  Biso   1.000  He
  He538    1.0000 0.40886  0.48666  0.99289  Biso   1.000  He
  Ne538    1.0000 0.40549  0.47635  0.02384  Biso   1.000  Ne
  Ne539    1.0000 0.85231  0.94036  0.93412  Biso   1.000  Ne
  He539    1.0000 0.87058  0.91796  0.94721  Biso   1.000  He
  He540    1.0000 0.86578  0.89045  0.93307  Biso   1.000  He
  Ne540    1.0000 0.88932  0.86763  0.93736  Biso   1.000  Ne
  Ne541    1.0000 0.62546  0.43742  0.40051  Biso   1.000  Ne
  He541    1.0000 0.63421  0.46859  0.40607  Biso   1.000  He
  He542    1.0000 0.64607  0.47299  0.43829  Biso   1.000  He
  Ne542    1.0000 0.64686  0.50554  0.44404  Biso   1.000  Ne
  Ne543    1.0000 0.27518  0.13072  0.23495  Biso   1.000  Ne
  He543    1.0000 0.24272  0.12179  0.22433  Biso   1.000  He
  He544    1.0000 0.24427  0.10935  0.19632  Biso   1.000  He
  Ne544    1.0000 0.21673  0.09951  0.18448  Biso   1.000  Ne
  Ne545    1.0000 0.42165  0.14543  0.18999  Biso   1.000  Ne
  He545    1.0000 0.43650  0.16813  0.20837  Biso   1.000  He
  He546    1.0000 0.45318  0.19225  0.19140  Biso   1.000  He
  Ne546    1.0000 0.46484  0.22192  0.21082  Biso   1.000  Ne
  Ne547    1.0000 0.79331  0.07987  0.21262  Biso   1.000  Ne
  He547    1.0000 0.76671  0.07812  0.23344  Biso   1.000  He
  He548    1.0000 0.76504  0.10423  0.25131  Biso   1.000  He
  Ne548    1.0000 0.74602  0.10300  0.27555  Biso   1.000  Ne
  Ne549    1.0000 0.73723  0.70154  0.42530  Biso   1.000  Ne
  He549    1.0000 0.74872  0.67444  0.44616  Biso   1.000  He
  He550    1.0000 0.74304  0.64296  0.43293  Biso   1.000  He
  Ne550    1.0000 0.75111  0.61674  0.45342  Biso   1.000  Ne
  Ne551    1.0000 0.39300  0.24513  0.45069  Biso   1.000  Ne
  He551    1.0000 0.40497  0.22136  0.43035  Biso   1.000  He
  He552    1.0000 0.39707  0.22516  0.39828  Biso   1.000  He
  Ne552    1.0000 0.41196  0.20315  0.38280  Biso   1.000  Ne
  Ne553    1.0000 0.30842  0.26274  0.77953  Biso   1.000  Ne
  He553    1.0000 0.28606  0.26675  0.75538  Biso   1.000  He
  He554    1.0000 0.27189  0.23815  0.74696  Biso   1.000  He
  Ne554    1.0000 0.25102  0.24018  0.71983  Biso   1.000  Ne
  Ne555    1.0000 0.94894  0.12881  0.45053  Biso   1.000  Ne
  He555    1.0000 0.92319  0.12815  0.47109  Biso   1.000  He
  He556    1.0000 0.93227  0.10959  0.49534  Biso   1.000  He
  Ne556    1.0000 0.90965  0.10981  0.52150  Biso   1.000  Ne
  Ne557    1.0000 0.96247  0.31734  0.03624  Biso   1.000  Ne
  He557    1.0000 0.93446  0.33067  0.02396  Biso   1.000  He
  He558    1.0000 0.91096  0.33004  0.04591  Biso   1.000  He
  Ne558    1.0000 0.88471  0.35259  0.04280  Biso   1.000  Ne
  Ne559    1.0000 0.43974  0.56177  0.09786  Biso   1.000  Ne
  He559    1.0000 0.42679  0.54224  0.07387  Biso   1.000  He
  He560    1.0000 0.42924  0.55699  0.04391  Biso   1.000  He
  Ne560    1.0000 0.40059  0.57337  0.03422  Biso   1.000  Ne
  Ne561    1.0000 0.06695  0.30563  0.14667  Biso   1.000  Ne
  He561    1.0000 0.09377  0.30058  0.12790  Biso   1.000  He
  He562    1.0000 0.08630  0.28792  0.09675  Biso   1.000  He
  Ne562    1.0000 0.11478  0.27626  0.08148  Biso   1.000  Ne
  Ne563    1.0000 0.96988  0.43707  0.82085  Biso   1.000  Ne
  He563    1.0000 0.97813  0.40999  0.83920  Biso   1.000  He
  He564    1.0000 0.98272  0.38197  0.82322  Biso   1.000  He
  Ne564    1.0000 0.00104  0.35642  0.83935  Biso   1.000  Ne
  Ne565    1.0000 0.60416  0.23371  0.67809  Biso   1.000  Ne
  He565    1.0000 0.60492  0.19986  0.68475  Biso   1.000  He
  He566    1.0000 0.61637  0.19137  0.71216  Biso   1.000  He
  Ne566    1.0000 0.61645  0.15935  0.71937  Biso   1.000  Ne
  Ne567    1.0000 0.67706  0.21031  0.81842  Biso   1.000  Ne
  He567    1.0000 0.65625  0.18850  0.80519  Biso   1.000  He
  He568    1.0000 0.63716  0.16966  0.82621  Biso   1.000  He
  Ne568    1.0000 0.61624  0.14703  0.81286  Biso   1.000  Ne
  Ne569    1.0000 0.24224  0.96942  0.34701  Biso   1.000  Ne
  He569    1.0000 0.22308  0.98058  0.32374  Biso   1.000  He
  He570    1.0000 0.19130  0.97375  0.32634  Biso   1.000  He
  Ne570    1.0000 0.17371  0.98081  0.30126  Biso   1.000  Ne
  Ne571    1.0000 0.85516  0.79156  0.31569  Biso   1.000  Ne
  He571    1.0000 0.87074  0.81768  0.32822  Biso   1.000  He
  He572    1.0000 0.89632  0.80743  0.34902  Biso   1.000  He
  Ne572    1.0000 0.91065  0.83269  0.36319  Biso   1.000  Ne
  Ne573    1.0000 0.37689  0.42595  0.09207  Biso   1.000  Ne
  He573    1.0000 0.38954  0.39952  0.10816  Biso   1.000  He
  He574    1.0000 0.41813  0.38563  0.09440  Biso   1.000  He
  Ne574    1.0000 0.42704  0.35800  0.11203  Biso   1.000  Ne
  Ne575    1.0000 0.72527  0.36506  0.94648  Biso   1.000  Ne
  He575    1.0000 0.70331  0.38798  0.93508  Biso   1.000  He
  He576    1.0000 0.70543  0.41996  0.94784  Biso   1.000  He
  Ne576    1.0000 0.68383  0.44200  0.93876  Biso   1.000  Ne
  Ne577    1.0000 0.22906  0.16980  0.62397  Biso   1.000  Ne
  He577    1.0000 0.21365  0.17885  0.59393  Biso   1.000  He
  He578    1.0000 0.20006  0.15555  0.57772  Biso   1.000  He
  Ne578    1.0000 0.18702  0.16794  0.54880  Biso   1.000  Ne
  Ne579    1.0000 0.48496  0.05582  0.55200  Biso   1.000  Ne
  He579    1.0000 0.50298  0.07568  0.57282  Biso   1.000  He
  He580    1.0000 0.51947  0.05951  0.59450  Biso   1.000  He
  Ne580    1.0000 0.54181  0.07887  0.61352  Biso   1.000  Ne
  Ne581    1.0000 0.80402  0.76946  0.20295  Biso   1.000  Ne
  He581    1.0000 0.81857  0.79586  0.21776  Biso   1.000  He
  He582    1.0000 0.84013  0.81474  0.19937  Biso   1.000  He
  Ne582    1.0000 0.85413  0.84397  0.21204  Biso   1.000  Ne
  Ne583    1.0000 0.59400  0.08761  0.41396  Biso   1.000  Ne
  He583    1.0000 0.56946  0.09787  0.43558  Biso   1.000  He
  He584    1.0000 0.57071  0.08944  0.46647  Biso   1.000  He
  Ne584    1.0000 0.54554  0.10126  0.48499  Biso   1.000  Ne
  Ne585    1.0000 0.59360  0.93631  0.23380  Biso   1.000  Ne
  He585    1.0000 0.58316  0.91123  0.25266  Biso   1.000  He
  He586    1.0000 0.60130  0.88262  0.25540  Biso   1.000  He
  Ne586    1.0000 0.58459  0.86178  0.27113  Biso   1.000  Ne
  Ne587    1.0000 0.67560  0.10576  0.93241  Biso   1.000  Ne
  He587    1.0000 0.70568  0.12066  0.93076  Biso   1.000  He
  He588    1.0000 0.70564  0.15231  0.93724  Biso   1.000  He
  Ne588    1.0000 0.73140  0.17120  0.93386  Biso   1.000  Ne
  Ne589    1.0000 0.86523  0.38334  0.59567  Biso   1.000  Ne
  He589    1.0000 0.84387  0.36791  0.61703  Biso   1.000  He
  He590    1.0000 0.84858  0.33566  0.62288  Biso   1.000  He
  Ne590    1.0000 0.82388  0.31654  0.63851  Biso   1.000  Ne
  Ne591    1.0000 0.65166  0.10780  0.03695  Biso   1.000  Ne
  He591    1.0000 0.68329  0.09339  0.03096  Biso   1.000  He
  He592    1.0000 0.68537  0.07527  0.00352  Biso   1.000  He
  Ne592    1.0000 0.71430  0.06360  0.99523  Biso   1.000  Ne
  Ne593    1.0000 0.97296  0.72848  0.04756  Biso   1.000  Ne
  He593    1.0000 0.94074  0.71838  0.04317  Biso   1.000  He
  He594    1.0000 0.92042  0.74392  0.04678  Biso   1.000  He
  Ne594    1.0000 0.88990  0.73329  0.04173  Biso   1.000  Ne
  Ne595    1.0000 0.63449  0.38277  0.86429  Biso   1.000  Ne
  He595    1.0000 0.63265  0.40234  0.83623  Biso   1.000  He
  He596    1.0000 0.59960  0.40939  0.82952  Biso   1.000  He
  Ne596    1.0000 0.59835  0.42238  0.79902  Biso   1.000  Ne
  Ne597    1.0000 0.35663  0.43293  0.59531  Biso   1.000  Ne
  He597    1.0000 0.32971  0.45370  0.59281  Biso   1.000  He
  He598    1.0000 0.32313  0.47319  0.61965  Biso   1.000  He
  Ne598    1.0000 0.29238  0.48823  0.61985  Biso   1.000  Ne
  Ne599    1.0000 0.69264  0.30377  0.16500  Biso   1.000  Ne
  He599    1.0000 0.68980  0.30086  0.13244  Biso   1.000  He
  He600    1.0000 0.69546  0.27138  0.12319  Biso   1.000  He
  Ne600    1.0000 0.69108  0.26584  0.09182  Biso   1.000  Ne
  Ne601    1.0000 0.63245  0.32779  0.93599  Biso   1.000  Ne
  He601    1.0000 0.61068  0.31184  0.95399  Biso   1.000  He
  He602    1.0000 0.57974  0.30564  0.93797  Biso   1.000  He
  Ne602    1.0000 0.56054  0.28248  0.95217  Biso   1.000  Ne
  Ne603    1.0000 0.07933  0.98965  0.05494  Biso   1.000  Ne
  He603    1.0000 0.05011  0.97563  0.04300  Biso   1.000  He
  He604    1.0000 0.05292  0.94230  0.03546  Biso   1.000  He
  Ne604    1.0000 0.02589  0.93094  0.01863  Biso   1.000  Ne
  Ne605    1.0000 0.56110  0.61574  0.16241  Biso   1.000  Ne
  He605    1.0000 0.56564  0.62262  0.13067  Biso   1.000  He
  He606    1.0000 0.59148  0.60658  0.11986  Biso   1.000  He
  Ne606    1.0000 0.60025  0.61573  0.08987  Biso   1.000  Ne
  Ne607    1.0000 0.90246  0.17242  0.30895  Biso   1.000  Ne
  He607    1.0000 0.90049  0.19253  0.28080  Biso   1.000  He
  He608    1.0000 0.87744  0.21807  0.27981  Biso   1.000  He
  Ne608    1.0000 0.87787  0.23499  0.25172  Biso   1.000  Ne
  Ne609    1.0000 0.81172  0.19659  0.89226  Biso   1.000  Ne
  He609    1.0000 0.81403  0.22904  0.89501  Biso   1.000  He
  He610    1.0000 0.80356  0.24248  0.92319  Biso   1.000  He
  Ne610    1.0000 0.80343  0.27467  0.92516  Biso   1.000  Ne
  Ne611    1.0000 0.16556  0.86007  0.77847  Biso   1.000  Ne
  He611    1.0000 0.14522  0.88533  0.76663  Biso   1.000  He
  He612    1.0000 0.11707  0.87933  0.74845  Biso   1.000  He
  Ne612    1.0000 0.10251  0.90819  0.73692  Biso   1.000  Ne
  Ne613    1.0000 0.30666  0.17676  0.10704  Biso   1.000  Ne
  He613    1.0000 0.31004  0.15396  0.08484  Biso   1.000  He
  He614    1.0000 0.34306  0.15089  0.07728  Biso   1.000  He
  Ne614    1.0000 0.35082  0.12624  0.05461  Biso   1.000  Ne
  Ne615    1.0000 0.19702  0.87354  0.27037  Biso   1.000  Ne
  He615    1.0000 0.21623  0.88740  0.29287  Biso   1.000  He
  He616    1.0000 0.22670  0.86832  0.31672  Biso   1.000  He
  Ne616    1.0000 0.24436  0.88607  0.34030  Biso   1.000  Ne
  Ne617    1.0000 0.24942  0.72168  0.24632  Biso   1.000  Ne
  He617    1.0000 0.26709  0.71066  0.27061  Biso   1.000  He
  He618    1.0000 0.26822  0.73380  0.29665  Biso   1.000  He
  Ne618    1.0000 0.28873  0.73066  0.32201  Biso   1.000  Ne
  Ne619    1.0000 0.72224  0.49373  0.69847  Biso   1.000  Ne
  He619    1.0000 0.73087  0.45898  0.70403  Biso   1.000  He
  He620    1.0000 0.76209  0.44908  0.69938  Biso   1.000  He
  Ne620    1.0000 0.76714  0.41618  0.70369  Biso   1.000  Ne
  Ne621    1.0000 0.66512  0.68926  0.91909  Biso   1.000  Ne
  He621    1.0000 0.63326  0.68730  0.93108  Biso   1.000  He
  He622    1.0000 0.60989  0.70467  0.91390  Biso   1.000  He
  Ne622    1.0000 0.57671  0.70180  0.92570  Biso   1.000  Ne
  Ne623    1.0000 0.59100  0.91269  0.35613  Biso   1.000  Ne
  He623    1.0000 0.61213  0.88971  0.34646  Biso   1.000  He
  He624    1.0000 0.63899  0.89843  0.32811  Biso   1.000  He
  Ne624    1.0000 0.65770  0.87301  0.31292  Biso   1.000  Ne
  Ne625    1.0000 0.19898  0.55413  0.79117  Biso   1.000  Ne
  He625    1.0000 0.18099  0.58107  0.78574  Biso   1.000  He
  He626    1.0000 0.16613  0.59205  0.81145  Biso   1.000  He
  Ne626    1.0000 0.14601  0.61870  0.80471  Biso   1.000  Ne
  Ne627    1.0000 0.08292  0.33276  0.68822  Biso   1.000  Ne
  He627    1.0000 0.08687  0.34308  0.65870  Biso   1.000  He
  He628    1.0000 0.07213  0.32600  0.63630  Biso   1.000  He
  Ne628    1.0000 0.07257  0.33912  0.60550  Biso   1.000  Ne
  Ne629    1.0000 0.34468  0.04801  0.19039  Biso   1.000  Ne
  He629    1.0000 0.31365  0.03833  0.18296  Biso   1.000  He
  He630    1.0000 0.31420  0.01418  0.16084  Biso   1.000  He
  Ne630    1.0000 0.28450  0.00466  0.15353  Biso   1.000  Ne
  Ne631    1.0000 0.59502  0.45415  0.08242  Biso   1.000  Ne
  He631    1.0000 0.60966  0.43250  0.10049  Biso   1.000  He
  He632    1.0000 0.64031  0.44178  0.10844  Biso   1.000  He
  Ne632    1.0000 0.65895  0.42123  0.12852  Biso   1.000  Ne
  Ne633    1.0000 0.27536  0.34393  0.47426  Biso   1.000  Ne
  He633    1.0000 0.25166  0.32155  0.46928  Biso   1.000  He
  He634    1.0000 0.23563  0.32317  0.44146  Biso   1.000  He
  Ne634    1.0000 0.21202  0.29931  0.43900  Biso   1.000  Ne
  Ne635    1.0000 0.76167  0.84459  0.18690  Biso   1.000  Ne
  He635    1.0000 0.77471  0.84151  0.15640  Biso   1.000  He
  He636    1.0000 0.75397  0.85419  0.13145  Biso   1.000  He
  Ne636    1.0000 0.76936  0.85234  0.10206  Biso   1.000  Ne
  Ne637    1.0000 0.13003  0.96398  0.37534  Biso   1.000  Ne
  He637    1.0000 0.13898  0.93398  0.38863  Biso   1.000  He
  He638    1.0000 0.15898  0.91395  0.37025  Biso   1.000  He
  Ne638    1.0000 0.16451  0.88503  0.38527  Biso   1.000  Ne
  Ne639    1.0000 0.79173  0.43191  0.33280  Biso   1.000  Ne
  He639    1.0000 0.82346  0.43154  0.34296  Biso   1.000  He
  He640    1.0000 0.84747  0.43456  0.31939  Biso   1.000  He
  Ne640    1.0000 0.87723  0.42674  0.32943  Biso   1.000  Ne
  Ne641    1.0000 0.13780  0.74957  0.43360  Biso   1.000  Ne
  He641    1.0000 0.16883  0.73802  0.42402  Biso   1.000  He
  He642    1.0000 0.19570  0.76082  0.42906  Biso   1.000  He
  Ne642    1.0000 0.22410  0.74912  0.41681  Biso   1.000  Ne
  Ne643    1.0000 0.56214  0.80630  0.06751  Biso   1.000  Ne
  He643    1.0000 0.58710  0.81993  0.08230  Biso   1.000  He
  He644    1.0000 0.61400  0.80036  0.08510  Biso   1.000  He
  Ne644    1.0000 0.64049  0.81395  0.09686  Biso   1.000  Ne
  Ne645    1.0000 0.50377  0.00741  0.22621  Biso   1.000  Ne
  He645    1.0000 0.51283  0.03655  0.22325  Biso   1.000  He
  He646    1.0000 0.51322  0.04628  0.19481  Biso   1.000  He
  Ne646    1.0000 0.52285  0.07701  0.19028  Biso   1.000  Ne
  Ne647    1.0000 0.40217  0.43651  0.18356  Biso   1.000  Ne
  He647    1.0000 0.41661  0.40633  0.18344  Biso   1.000  He
  He648    1.0000 0.39962  0.38230  0.19377  Biso   1.000  He
  Ne648    1.0000 0.41542  0.35395  0.20003  Biso   1.000  Ne
  Ne649    1.0000 0.07747  0.19250  0.55358  Biso   1.000  Ne
  He649    1.0000 0.09463  0.17636  0.52997  Biso   1.000  He
  He650    1.0000 0.08908  0.18654  0.49738  Biso   1.000  He
  Ne650    1.0000 0.10174  0.16693  0.47504  Biso   1.000  Ne
  Ne651    1.0000 0.33555  0.77398  0.19814  Biso   1.000  Ne
  He651    1.0000 0.36105  0.78432  0.21988  Biso   1.000  He
  He652    1.0000 0.38849  0.78436  0.20116  Biso   1.000  He
  Ne652    1.0000 0.41768  0.79642  0.21328  Biso   1.000  Ne
  Ne653    1.0000 0.03182  0.97661  0.68388  Biso   1.000  Ne
  He653    1.0000 0.02809  0.95243  0.70836  Biso   1.000  He
  He654    1.0000 0.00846  0.92413  0.70227  Biso   1.000  He
  Ne654    1.0000 0.01275  0.90152  0.72494  Biso   1.000  Ne
  Ne655    1.0000 0.44526  0.59494  0.92713  Biso   1.000  Ne
  He655    1.0000 0.41720  0.58404  0.91648  Biso   1.000  He
  He656    1.0000 0.40558  0.56195  0.93293  Biso   1.000  He
  Ne656    1.0000 0.37439  0.55428  0.92307  Biso   1.000  Ne
  Ne657    1.0000 0.73077  0.78920  0.34988  Biso   1.000  Ne
  He657    1.0000 0.70257  0.77525  0.35735  Biso   1.000  He
  He658    1.0000 0.67648  0.79078  0.34121  Biso   1.000  He
  Ne658    1.0000 0.64667  0.78231  0.35112  Biso   1.000  Ne
  Ne659    1.0000 0.30921  0.62387  0.25150  Biso   1.000  Ne
  He659    1.0000 0.29526  0.60324  0.23232  Biso   1.000  He
  He660    1.0000 0.29813  0.61262  0.20135  Biso   1.000  He
  Ne660    1.0000 0.29171  0.59036  0.17632  Biso   1.000  Ne
  Ne661    1.0000 0.31170  0.77097  0.79222  Biso   1.000  Ne
  He661    1.0000 0.34201  0.75936  0.79765  Biso   1.000  He
  He662    1.0000 0.36509  0.77659  0.78264  Biso   1.000  He
  Ne662    1.0000 0.39672  0.76509  0.78480  Biso   1.000  Ne
  Ne663    1.0000 0.81851  0.83288  0.88810  Biso   1.000  Ne
  He663    1.0000 0.84486  0.81310  0.89892  Biso   1.000  He
  He664    1.0000 0.86505  0.80083  0.87618  Biso   1.000  He
  Ne664    1.0000 0.89035  0.78314  0.89137  Biso   1.000  Ne
  Ne665    1.0000 0.65077  0.43797  0.20762  Biso   1.000  Ne
  He665    1.0000 0.61667  0.43254  0.21037  Biso   1.000  He
  He666    1.0000 0.60053  0.44795  0.18533  Biso   1.000  He
  Ne666    1.0000 0.56848  0.44290  0.18565  Biso   1.000  Ne
  Ne667    1.0000 0.38658  0.09513  0.38624  Biso   1.000  Ne
  He667    1.0000 0.37051  0.11879  0.36680  Biso   1.000  He
  He668    1.0000 0.36905  0.10958  0.33629  Biso   1.000  He
  Ne668    1.0000 0.34717  0.12825  0.31735  Biso   1.000  Ne
  Ne669    1.0000 0.32330  0.57820  0.85699  Biso   1.000  Ne
  He669    1.0000 0.29563  0.57683  0.87681  Biso   1.000  He
  He670    1.0000 0.28572  0.60446  0.89265  Biso   1.000  He
  Ne670    1.0000 0.25944  0.60182  0.91403  Biso   1.000  Ne
  Ne671    1.0000 0.74289  0.76891  0.75363  Biso   1.000  Ne
  He671    1.0000 0.75430  0.78865  0.77961  Biso   1.000  He
  He672    1.0000 0.78041  0.80568  0.77074  Biso   1.000  He
  Ne672    1.0000 0.78355  0.83597  0.78859  Biso   1.000  Ne
  Ne673    1.0000 0.82900  0.25785  0.44450  Biso   1.000  Ne
  He673    1.0000 0.85495  0.25363  0.46538  Biso   1.000  He
  He674    1.0000 0.88443  0.26049  0.45139  Biso   1.000  He
  Ne674    1.0000 0.91334  0.25738  0.46924  Biso   1.000  Ne
  Ne675    1.0000 0.91335  0.24402  0.90855  Biso   1.000  Ne
  He675    1.0000 0.91816  0.21225  0.92157  Biso   1.000  He
  He676    1.0000 0.89242  0.19112  0.92446  Biso   1.000  He
  Ne676    1.0000 0.90507  0.16030  0.92829  Biso   1.000  Ne
  Ne677    1.0000 0.19594  0.09449  0.07157  Biso   1.000  Ne
  He677    1.0000 0.22978  0.09200  0.07280  Biso   1.000  He
  He678    1.0000 0.24111  0.08791  0.10445  Biso   1.000  He
  Ne678    1.0000 0.27372  0.07816  0.10635  Biso   1.000  Ne
  Ne679    1.0000 0.89208  0.64796  0.57287  Biso   1.000  Ne
  He679    1.0000 0.91156  0.66602  0.59491  Biso   1.000  He
  He680    1.0000 0.90279  0.66695  0.62678  Biso   1.000  He
  Ne680    1.0000 0.91938  0.68359  0.65056  Biso   1.000  Ne
  Ne681    1.0000 0.26769  0.10642  0.45017  Biso   1.000  Ne
  He681    1.0000 0.29528  0.11238  0.43461  Biso   1.000  He
  He682    1.0000 0.31707  0.13001  0.45308  Biso   1.000  He
  Ne682    1.0000 0.34327  0.13862  0.43875  Biso   1.000  Ne
  Ne683    1.0000 0.87655  0.61188  0.44652  Biso   1.000  Ne
  He683    1.0000 0.88068  0.57995  0.45479  Biso   1.000  He
  He684    1.0000 0.91284  0.56828  0.44393  Biso   1.000  He
  Ne684    1.0000 0.92289  0.53947  0.45452  Biso   1.000  Ne
  Ne685    1.0000 0.42723  0.72121  0.59908  Biso   1.000  Ne
  He685    1.0000 0.42374  0.69507  0.62008  Biso   1.000  He
  He686    1.0000 0.39086  0.69128  0.62556  Biso   1.000  He
  Ne686    1.0000 0.38514  0.66173  0.63982  Biso   1.000  Ne
  Ne687    1.0000 0.16799  0.27071  0.19972  Biso   1.000  Ne
  He687    1.0000 0.15460  0.23922  0.19147  Biso   1.000  He
  He688    1.0000 0.16027  0.21492  0.21460  Biso   1.000  He
  Ne688    1.0000 0.14439  0.18842  0.20559  Biso   1.000  Ne
  Ne689    1.0000 0.53782  0.90783  0.56595  Biso   1.000  Ne
  He689    1.0000 0.54210  0.94120  0.55916  Biso   1.000  He
  He690    1.0000 0.56773  0.95149  0.54162  Biso   1.000  He
  Ne690    1.0000 0.56838  0.98505  0.53760  Biso   1.000  Ne
  Ne691    1.0000 0.62475  0.59481  0.91520  Biso   1.000  Ne
  He691    1.0000 0.60641  0.60360  0.94129  Biso   1.000  He
  He692    1.0000 0.57552  0.61503  0.93161  Biso   1.000  He
  Ne692    1.0000 0.55551  0.62259  0.95960  Biso   1.000  Ne
  Ne693    1.0000 0.55826  0.43957  0.31538  Biso   1.000  Ne
  He693    1.0000 0.58967  0.45151  0.31168  Biso   1.000  He
  He694    1.0000 0.59292  0.48395  0.30977  Biso   1.000  He
  Ne694    1.0000 0.62685  0.49327  0.31058  Biso   1.000  Ne
  Ne695    1.0000 0.67378  0.92333  0.69844  Biso   1.000  Ne
  He695    1.0000 0.67219  0.93628  0.72721  Biso   1.000  He
  He696    1.0000 0.69913  0.93122  0.74650  Biso   1.000  He
  Ne696    1.0000 0.69316  0.93850  0.77752  Biso   1.000  Ne
  Ne697    1.0000 0.68556  0.46060  0.34810  Biso   1.000  Ne
  He697    1.0000 0.68935  0.43674  0.32543  Biso   1.000  He
  He698    1.0000 0.71044  0.44460  0.30191  Biso   1.000  He
  Ne698    1.0000 0.70749  0.42069  0.27735  Biso   1.000  Ne
  Ne699    1.0000 0.38445  0.21891  0.93247  Biso   1.000  Ne
  He699    1.0000 0.36048  0.20594  0.95035  Biso   1.000  He
  He700    1.0000 0.35181  0.22354  0.97796  Biso   1.000  He
  Ne700    1.0000 0.32576  0.21203  0.99638  Biso   1.000  Ne
