data_image0
_cell_length_a       46.7408
_cell_length_b       46.645
_cell_length_c       46.5598
_cell_angle_alpha    90
_cell_angle_beta     90
_cell_angle_gamma    90

_symmetry_space_group_name_H-M    "P 1"
_symmetry_int_tables_number       1

loop_
  _symmetry_equiv_pos_as_xyz
  'x, y, z'

loop_
  _atom_site_label
  _atom_site_occupancy
  _atom_site_fract_x
  _atom_site_fract_y
  _atom_site_fract_z
  _atom_site_thermal_displace_type
  _atom_site_B_iso_or_equiv
  _atom_site_type_symbol
  Ne1      1.0000 0.21694  0.16410  0.13864  Biso   1.000  Ne
  He1      1.0000 0.19381  0.14119  0.13808  Biso   1.000  He
  He2      1.0000 0.18508  0.13156  0.10841  Biso   1.000  He
  Ne2      1.0000 0.15735  0.11424  0.10896  Biso   1.000  Ne
  Ne3      1.0000 0.24862  0.88110  0.97717  Biso   1.000  Ne
  He3      1.0000 0.21755  0.86852  0.96721  Biso   1.000  He
  He4      1.0000 0.19511  0.89315  0.96659  Biso   1.000  He
  Ne4      1.0000 0.16379  0.88369  0.95796  Biso   1.000  Ne
  Ne5      1.0000 0.59920  0.86609  0.37193  Biso   1.000  Ne
  He5      1.0000 0.60522  0.88952  0.34794  Biso   1.000  He
  He6      1.0000 0.58018  0.89291  0.32322  Biso   1.000  He
  Ne6      1.0000 0.58971  0.91561  0.30358  Biso   1.000  Ne
  Ne7      1.0000 0.81414  0.10251  0.20026  Biso   1.000  Ne
  He7      1.0000 0.82448  0.07155  0.20404  Biso   1.000  He
  He8      1.0000 0.85550  0.06807  0.20687  Biso   1.000  He
  Ne8      1.0000 0.87428  0.06150  0.17812  Biso   1.000  Ne
  Ne9      1.0000 0.71326  0.69084  0.69764  Biso   1.000  Ne
  He9      1.0000 0.69868  0.66751  0.67771  Biso   1.000  He
  He10     1.0000 0.71572  0.65805  0.65260  Biso   1.000  He
  Ne10     1.0000 0.70343  0.63076  0.63554  Biso   1.000  Ne
  Ne11     1.0000 0.92280  0.75716  0.55529  Biso   1.000  Ne
  He11     1.0000 0.93649  0.75307  0.52875  Biso   1.000  He
  He12     1.0000 0.91906  0.77034  0.50657  Biso   1.000  He
  Ne12     1.0000 0.93063  0.76491  0.47556  Biso   1.000  Ne
  Ne13     1.0000 0.24175  0.41615  0.97776  Biso   1.000  Ne
  He13     1.0000 0.26200  0.38909  0.96571  Biso   1.000  He
  He14     1.0000 0.29449  0.39770  0.95500  Biso   1.000  He
  Ne14     1.0000 0.31441  0.37480  0.94658  Biso   1.000  Ne
  Ne15     1.0000 0.39107  0.07685  0.95590  Biso   1.000  Ne
  He15     1.0000 0.37633  0.06436  0.98241  Biso   1.000  He
  He16     1.0000 0.39837  0.05423  0.00377  Biso   1.000  He
  Ne16     1.0000 0.38873  0.05150  0.03727  Biso   1.000  Ne
  Ne17     1.0000 0.79633  0.13727  0.93289  Biso   1.000  Ne
  He17     1.0000 0.81550  0.11319  0.92345  Biso   1.000  He
  He18     1.0000 0.80131  0.08474  0.92985  Biso   1.000  He
  Ne18     1.0000 0.81737  0.05682  0.91827  Biso   1.000  Ne
  Ne19     1.0000 0.08721  0.03675  0.07348  Biso   1.000  Ne
  He19     1.0000 0.05807  0.04040  0.08611  Biso   1.000  He
  He20     1.0000 0.03764  0.01650  0.07344  Biso   1.000  He
  Ne20     1.0000 0.00676  0.01582  0.08477  Biso   1.000  Ne
  Ne21     1.0000 0.63704  0.55760  0.94187  Biso   1.000  Ne
  He21     1.0000 0.61604  0.58171  0.94069  Biso   1.000  He
  He22     1.0000 0.59442  0.57813  0.96554  Biso   1.000  He
  Ne22     1.0000 0.57166  0.60212  0.96823  Biso   1.000  Ne
  Ne23     1.0000 0.13016  0.41130  0.60379  Biso   1.000  Ne
  He23     1.0000 0.10019  0.40172  0.61047  Biso   1.000  He
  He24     1.0000 0.08461  0.42114  0.63226  Biso   1.000  He
  Ne24     1.0000 0.05190  0.41279  0.64173  Biso   1.000  Ne
  Ne25     1.0000 0.13069  0.74047  0.96388  Biso   1.000  Ne
  He25     1.0000 0.10770  0.74946  0.93781  Biso   1.000  He
  He26     1.0000 0.12181  0.75947  0.91184  Biso   1.000  He
  Ne26     1.0000 0.10025  0.77147  0.88943  Biso   1.000  Ne
  Ne27     1.0000 0.43491  0.52706  0.29478  Biso   1.000  Ne
  He27     1.0000 0.43298  0.56009  0.29043  Biso   1.000  He
  He28     1.0000 0.43128  0.56529  0.25529  Biso   1.000  He
  Ne28     1.0000 0.42820  0.59529  0.24943  Biso   1.000  Ne
  Ne29     1.0000 0.75664  0.64656  0.43692  Biso   1.000  Ne
  He29     1.0000 0.78449  0.66248  0.44445  Biso   1.000  He
  He30     1.0000 0.78188  0.69616  0.43782  Biso   1.000  He
  Ne30     1.0000 0.81028  0.71302  0.43328  Biso   1.000  Ne
  Ne31     1.0000 0.75617  0.06657  0.63231  Biso   1.000  Ne
  He31     1.0000 0.72631  0.05753  0.64504  Biso   1.000  He
  He32     1.0000 0.72533  0.05916  0.67766  Biso   1.000  He
  Ne32     1.0000 0.69539  0.04743  0.68990  Biso   1.000  Ne
  Ne33     1.0000 0.10502  0.59810  0.86042  Biso   1.000  Ne
  He33     1.0000 0.12964  0.58401  0.84017  Biso   1.000  He
  He34     1.0000 0.13248  0.55079  0.84083  Biso   1.000  He
  Ne34     1.0000 0.12084  0.53611  0.81419  Biso   1.000  Ne
  Ne35     1.0000 0.58046  0.43342  0.05841  Biso   1.000  Ne
  He35     1.0000 0.56968  0.44437  0.09053  Biso   1.000  He
  He36     1.0000 0.54327  0.46220  0.09214  Biso   1.000  He
  Ne36     1.0000 0.53319  0.47489  0.12334  Biso   1.000  Ne
  Ne37     1.0000 0.09066  0.92974  0.97251  Biso   1.000  Ne
  He37     1.0000 0.08029  0.91284  0.94720  Biso   1.000  He
  He38     1.0000 0.10158  0.91204  0.92156  Biso   1.000  He
  Ne38     1.0000 0.08850  0.90280  0.89200  Biso   1.000  Ne
  Ne39     1.0000 0.52523  0.76300  0.17698  Biso   1.000  Ne
  He39     1.0000 0.49703  0.77507  0.18751  Biso   1.000  He
  He40     1.0000 0.48889  0.80460  0.17274  Biso   1.000  He
  Ne40     1.0000 0.46069  0.81689  0.18479  Biso   1.000  Ne
  Ne41     1.0000 0.42088  0.14472  0.41750  Biso   1.000  Ne
  He41     1.0000 0.41514  0.11287  0.42938  Biso   1.000  He
  He42     1.0000 0.39481  0.10769  0.45638  Biso   1.000  He
  Ne42     1.0000 0.39555  0.07435  0.46142  Biso   1.000  Ne
  Ne43     1.0000 0.97810  0.40053  0.58619  Biso   1.000  Ne
  He43     1.0000 0.95066  0.41908  0.59323  Biso   1.000  He
  He44     1.0000 0.92172  0.41263  0.57664  Biso   1.000  He
  Ne44     1.0000 0.89657  0.42874  0.58547  Biso   1.000  Ne
  Ne45     1.0000 0.54131  0.57461  0.08848  Biso   1.000  Ne
  He45     1.0000 0.57225  0.57648  0.09003  Biso   1.000  He
  He46     1.0000 0.58606  0.54788  0.09550  Biso   1.000  He
  Ne46     1.0000 0.61964  0.54679  0.09543  Biso   1.000  Ne
  Ne47     1.0000 0.57163  0.62651  0.26944  Biso   1.000  Ne
  He47     1.0000 0.56464  0.65122  0.29213  Biso   1.000  He
  He48     1.0000 0.54210  0.63845  0.31447  Biso   1.000  He
  Ne48     1.0000 0.53387  0.66078  0.33869  Biso   1.000  Ne
  Ne49     1.0000 0.47617  0.26496  0.42570  Biso   1.000  Ne
  He49     1.0000 0.44847  0.24813  0.43227  Biso   1.000  He
  He50     1.0000 0.43959  0.24289  0.46305  Biso   1.000  He
  Ne50     1.0000 0.41290  0.22376  0.46364  Biso   1.000  Ne
  Ne51     1.0000 0.40002  0.34838  0.80660  Biso   1.000  Ne
  He51     1.0000 0.42331  0.37152  0.81195  Biso   1.000  He
  He52     1.0000 0.41330  0.40333  0.80684  Biso   1.000  He
  Ne52     1.0000 0.42004  0.41656  0.77898  Biso   1.000  Ne
  Ne53     1.0000 0.92426  0.38793  0.37319  Biso   1.000  Ne
  He53     1.0000 0.91788  0.38527  0.34119  Biso   1.000  He
  He54     1.0000 0.89439  0.36751  0.32843  Biso   1.000  He
  Ne54     1.0000 0.89075  0.37287  0.29698  Biso   1.000  Ne
  Ne55     1.0000 0.58339  0.61538  0.65807  Biso   1.000  Ne
  He55     1.0000 0.57325  0.62874  0.68781  Biso   1.000  He
  He56     1.0000 0.57318  0.60986  0.71496  Biso   1.000  He
  Ne56     1.0000 0.56355  0.62864  0.73950  Biso   1.000  Ne
  Ne57     1.0000 0.21280  0.86210  0.59515  Biso   1.000  Ne
  He57     1.0000 0.21579  0.86615  0.62658  Biso   1.000  He
  He58     1.0000 0.19762  0.89356  0.64093  Biso   1.000  He
  Ne58     1.0000 0.20065  0.89556  0.67321  Biso   1.000  Ne
  Ne59     1.0000 0.58631  0.76188  0.74426  Biso   1.000  Ne
  He59     1.0000 0.60075  0.74201  0.71922  Biso   1.000  He
  He60     1.0000 0.60780  0.71468  0.73179  Biso   1.000  He
  Ne60     1.0000 0.62180  0.69333  0.71383  Biso   1.000  Ne
  Ne61     1.0000 0.53350  0.41607  0.96376  Biso   1.000  Ne
  He61     1.0000 0.56218  0.41137  0.97509  Biso   1.000  He
  He62     1.0000 0.58616  0.40814  0.95334  Biso   1.000  He
  Ne62     1.0000 0.61373  0.40604  0.96592  Biso   1.000  Ne
  Ne63     1.0000 0.35726  0.15127  0.64336  Biso   1.000  Ne
  He63     1.0000 0.37888  0.15985  0.61991  Biso   1.000  He
  He64     1.0000 0.39128  0.19114  0.62458  Biso   1.000  He
  Ne64     1.0000 0.41943  0.19763  0.60507  Biso   1.000  Ne
  Ne65     1.0000 0.43711  0.00282  0.50178  Biso   1.000  Ne
  He65     1.0000 0.46677  0.00550  0.48934  Biso   1.000  He
  He66     1.0000 0.47061  0.01427  0.45760  Biso   1.000  He
  Ne66     1.0000 0.50345  0.01387  0.45030  Biso   1.000  Ne
  Ne67     1.0000 0.09909  0.92789  0.10966  Biso   1.000  Ne
  He67     1.0000 0.06989  0.91274  0.10243  Biso   1.000  He
  He68     1.0000 0.07412  0.88114  0.09323  Biso   1.000  He
  Ne68     1.0000 0.04494  0.86338  0.09249  Biso   1.000  Ne
  Ne69     1.0000 0.83718  0.34085  0.74350  Biso   1.000  Ne
  He69     1.0000 0.84621  0.34595  0.77382  Biso   1.000  He
  He70     1.0000 0.82535  0.33192  0.79625  Biso   1.000  He
  Ne70     1.0000 0.83293  0.34063  0.82774  Biso   1.000  Ne
  Ne71     1.0000 0.31932  0.16873  0.44675  Biso   1.000  Ne
  He71     1.0000 0.32675  0.20146  0.44731  Biso   1.000  He
  He72     1.0000 0.30367  0.21920  0.45788  Biso   1.000  He
  Ne72     1.0000 0.31462  0.24773  0.46396  Biso   1.000  Ne
  Ne73     1.0000 0.64521  0.54092  0.34549  Biso   1.000  Ne
  He73     1.0000 0.65747  0.51667  0.32580  Biso   1.000  He
  He74     1.0000 0.69003  0.52086  0.31880  Biso   1.000  He
  Ne74     1.0000 0.69882  0.53324  0.28778  Biso   1.000  Ne
  Ne75     1.0000 0.19037  0.57912  0.36777  Biso   1.000  Ne
  He75     1.0000 0.17597  0.59112  0.34271  Biso   1.000  He
  He76     1.0000 0.14287  0.59388  0.34444  Biso   1.000  He
  Ne76     1.0000 0.12923  0.61400  0.31964  Biso   1.000  Ne
  Ne77     1.0000 0.31959  0.74801  0.12899  Biso   1.000  Ne
  He77     1.0000 0.31961  0.77760  0.11092  Biso   1.000  He
  He78     1.0000 0.29236  0.77997  0.09737  Biso   1.000  He
  Ne78     1.0000 0.29216  0.80654  0.07800  Biso   1.000  Ne
  Ne79     1.0000 0.58692  0.06718  0.69297  Biso   1.000  Ne
  He79     1.0000 0.59942  0.05913  0.66148  Biso   1.000  He
  He80     1.0000 0.63062  0.07209  0.65275  Biso   1.000  He
  Ne80     1.0000 0.63554  0.06145  0.62187  Biso   1.000  Ne
  Ne81     1.0000 0.07408  0.69289  0.67032  Biso   1.000  Ne
  He81     1.0000 0.08219  0.70057  0.64046  Biso   1.000  He
  He82     1.0000 0.09754  0.67427  0.62471  Biso   1.000  He
  Ne82     1.0000 0.10731  0.68094  0.59267  Biso   1.000  Ne
  Ne83     1.0000 0.99887  0.89219  0.01093  Biso   1.000  Ne
  He83     1.0000 0.99551  0.89765  0.04451  Biso   1.000  He
  He84     1.0000 0.99341  0.93122  0.05099  Biso   1.000  He
  Ne84     1.0000 0.99203  0.94140  0.08206  Biso   1.000  Ne
  Ne85     1.0000 0.92398  0.09954  0.78028  Biso   1.000  Ne
  He85     1.0000 0.89739  0.10529  0.79950  Biso   1.000  He
  He86     1.0000 0.88401  0.07610  0.80869  Biso   1.000  He
  Ne86     1.0000 0.85916  0.07557  0.83249  Biso   1.000  Ne
  Ne87     1.0000 0.06705  0.05773  0.79104  Biso   1.000  Ne
  He87     1.0000 0.08097  0.07649  0.81421  Biso   1.000  He
  He88     1.0000 0.06094  0.08478  0.83914  Biso   1.000  He
  Ne88     1.0000 0.07538  0.10059  0.86371  Biso   1.000  Ne
  Ne89     1.0000 0.29117  0.09759  0.03810  Biso   1.000  Ne
  He89     1.0000 0.29801  0.11708  0.06415  Biso   1.000  He
  He90     1.0000 0.32935  0.12835  0.06386  Biso   1.000  He
  Ne90     1.0000 0.33602  0.15451  0.08115  Biso   1.000  Ne
  Ne91     1.0000 0.60077  0.94250  0.83485  Biso   1.000  Ne
  He91     1.0000 0.62777  0.93310  0.85750  Biso   1.000  He
  He92     1.0000 0.65627  0.93439  0.84231  Biso   1.000  He
  Ne92     1.0000 0.68333  0.92570  0.85875  Biso   1.000  Ne
  Ne93     1.0000 0.41084  0.76542  0.61160  Biso   1.000  Ne
  He93     1.0000 0.40007  0.78893  0.63040  Biso   1.000  He
  He94     1.0000 0.41105  0.81872  0.62062  Biso   1.000  He
  Ne94     1.0000 0.39799  0.84408  0.63806  Biso   1.000  Ne
  Ne95     1.0000 0.18775  0.08511  0.84157  Biso   1.000  Ne
  He95     1.0000 0.17338  0.06471  0.82044  Biso   1.000  He
  He96     1.0000 0.18462  0.06419  0.79000  Biso   1.000  He
  Ne96     1.0000 0.16662  0.04630  0.76965  Biso   1.000  Ne
  Ne97     1.0000 0.71738  0.34903  0.54953  Biso   1.000  Ne
  He97     1.0000 0.70309  0.36372  0.57601  Biso   1.000  He
  He98     1.0000 0.70591  0.39823  0.57760  Biso   1.000  He
  Ne98     1.0000 0.68835  0.40886  0.60445  Biso   1.000  Ne
  Ne99     1.0000 0.72586  0.20515  0.18622  Biso   1.000  Ne
  He99     1.0000 0.75764  0.19223  0.18773  Biso   1.000  He
  He100    1.0000 0.78273  0.21360  0.18513  Biso   1.000  He
  Ne100    1.0000 0.81398  0.19828  0.18481  Biso   1.000  Ne
  Ne101    1.0000 0.55570  0.90405  0.58683  Biso   1.000  Ne
  He101    1.0000 0.57060  0.87573  0.59306  Biso   1.000  He
  He102    1.0000 0.56873  0.86728  0.62500  Biso   1.000  He
  Ne102    1.0000 0.57533  0.83601  0.63127  Biso   1.000  Ne
  Ne103    1.0000 0.91731  0.14490  0.26519  Biso   1.000  Ne
  He103    1.0000 0.90542  0.11873  0.28238  Biso   1.000  He
  He104    1.0000 0.92473  0.09211  0.28736  Biso   1.000  He
  Ne104    1.0000 0.90829  0.06323  0.29230  Biso   1.000  Ne
  Ne105    1.0000 0.27185  0.22100  0.18402  Biso   1.000  Ne
  He105    1.0000 0.30271  0.22612  0.16274  Biso   1.000  He
  He106    1.0000 0.29640  0.21993  0.13209  Biso   1.000  He
  Ne106    1.0000 0.32211  0.22542  0.10941  Biso   1.000  Ne
  Ne107    1.0000 0.57163  0.07469  0.48142  Biso   1.000  Ne
  He107    1.0000 0.57869  0.04385  0.47213  Biso   1.000  He
  He108    1.0000 0.57202  0.02375  0.49646  Biso   1.000  He
  Ne108    1.0000 0.57623  0.99212  0.49061  Biso   1.000  Ne
  Ne109    1.0000 0.27854  0.03576  0.97469  Biso   1.000  Ne
  He109    1.0000 0.27591  0.01753  0.00115  Biso   1.000  He
  He110    1.0000 0.27842  0.98340  0.99977  Biso   1.000  He
  Ne110    1.0000 0.26987  0.96959  0.02987  Biso   1.000  Ne
  Ne111    1.0000 0.31550  0.31234  0.09946  Biso   1.000  Ne
  He111    1.0000 0.34478  0.30521  0.10153  Biso   1.000  He
  He112    1.0000 0.36546  0.33278  0.10314  Biso   1.000  He
  Ne112    1.0000 0.39769  0.32463  0.10263  Biso   1.000  Ne
  Ne113    1.0000 0.89575  0.37366  0.46059  Biso   1.000  Ne
  He113    1.0000 0.87540  0.36892  0.43427  Biso   1.000  He
  He114    1.0000 0.85274  0.39308  0.42574  Biso   1.000  He
  Ne114    1.0000 0.83009  0.38225  0.40618  Biso   1.000  Ne
  Ne115    1.0000 0.14715  0.07402  0.23494  Biso   1.000  Ne
  He115    1.0000 0.17235  0.09543  0.23742  Biso   1.000  He
  He116    1.0000 0.16510  0.12845  0.23875  Biso   1.000  He
  Ne116    1.0000 0.19329  0.14712  0.24204  Biso   1.000  Ne
  Ne117    1.0000 0.88177  0.66308  0.39700  Biso   1.000  Ne
  He117    1.0000 0.88878  0.66511  0.42919  Biso   1.000  He
  He118    1.0000 0.88512  0.69505  0.43958  Biso   1.000  He
  Ne118    1.0000 0.89125  0.70091  0.47022  Biso   1.000  Ne
  Ne119    1.0000 0.66409  0.43073  0.33853  Biso   1.000  Ne
  He119    1.0000 0.68561  0.41294  0.35768  Biso   1.000  He
  He120    1.0000 0.71175  0.43011  0.36369  Biso   1.000  He
  Ne120    1.0000 0.72957  0.41679  0.38691  Biso   1.000  Ne
  Ne121    1.0000 0.81680  0.60799  0.94837  Biso   1.000  Ne
  He121    1.0000 0.84116  0.63146  0.94482  Biso   1.000  He
  He122    1.0000 0.87404  0.61989  0.94031  Biso   1.000  He
  Ne122    1.0000 0.89876  0.64060  0.94122  Biso   1.000  Ne
  Ne123    1.0000 0.57869  0.08389  0.40179  Biso   1.000  Ne
  He123    1.0000 0.59728  0.09129  0.37294  Biso   1.000  He
  He124    1.0000 0.57602  0.10347  0.35057  Biso   1.000  He
  Ne124    1.0000 0.58670  0.10825  0.31974  Biso   1.000  Ne
  Ne125    1.0000 0.20635  0.55625  0.88628  Biso   1.000  Ne
  He125    1.0000 0.22945  0.57568  0.90088  Biso   1.000  He
  He126    1.0000 0.26105  0.56801  0.89906  Biso   1.000  He
  Ne126    1.0000 0.28442  0.58706  0.91450  Biso   1.000  Ne
  Ne127    1.0000 0.76523  0.91266  0.40452  Biso   1.000  Ne
  He127    1.0000 0.74581  0.92035  0.38023  Biso   1.000  He
  He128    1.0000 0.73891  0.89702  0.36088  Biso   1.000  He
  Ne128    1.0000 0.72057  0.90723  0.33788  Biso   1.000  Ne
  Ne129    1.0000 0.30549  0.36087  0.21770  Biso   1.000  Ne
  He129    1.0000 0.29176  0.36076  0.18385  Biso   1.000  He
  He130    1.0000 0.30240  0.37916  0.15862  Biso   1.000  He
  Ne130    1.0000 0.28862  0.37203  0.12971  Biso   1.000  Ne
  Ne131    1.0000 0.59880  0.80969  0.45420  Biso   1.000  Ne
  He131    1.0000 0.63096  0.82077  0.45389  Biso   1.000  He
  He132    1.0000 0.65116  0.80226  0.43474  Biso   1.000  He
  Ne132    1.0000 0.68156  0.81388  0.43561  Biso   1.000  Ne
  Ne133    1.0000 0.91626  0.01044  0.10014  Biso   1.000  Ne
  He133    1.0000 0.92063  0.04344  0.10590  Biso   1.000  He
  He134    1.0000 0.91851  0.06359  0.08054  Biso   1.000  He
  Ne134    1.0000 0.92687  0.09658  0.09003  Biso   1.000  Ne
  Ne135    1.0000 0.36959  0.25974  0.75733  Biso   1.000  Ne
  He135    1.0000 0.37280  0.29412  0.74961  Biso   1.000  He
  He136    1.0000 0.34431  0.30585  0.73926  Biso   1.000  He
  Ne136    1.0000 0.34458  0.33752  0.73576  Biso   1.000  Ne
  Ne137    1.0000 0.42139  0.51967  0.14576  Biso   1.000  Ne
  He137    1.0000 0.40540  0.55008  0.14944  Biso   1.000  He
  He138    1.0000 0.42808  0.57527  0.15111  Biso   1.000  He
  Ne138    1.0000 0.41687  0.60631  0.15343  Biso   1.000  Ne
  Ne139    1.0000 0.58387  0.27827  0.26391  Biso   1.000  Ne
  He139    1.0000 0.58369  0.28775  0.29767  Biso   1.000  He
  He140    1.0000 0.55541  0.27598  0.31490  Biso   1.000  He
  Ne140    1.0000 0.55108  0.28864  0.34544  Biso   1.000  Ne
  Ne141    1.0000 0.35604  0.06426  0.67797  Biso   1.000  Ne
  He141    1.0000 0.33563  0.06902  0.65251  Biso   1.000  He
  He142    1.0000 0.30439  0.07404  0.66125  Biso   1.000  He
  Ne142    1.0000 0.28545  0.08175  0.63335  Biso   1.000  Ne
  Ne143    1.0000 0.57838  0.24523  0.12365  Biso   1.000  Ne
  He143    1.0000 0.59180  0.27578  0.12403  Biso   1.000  He
  He144    1.0000 0.58523  0.29453  0.14977  Biso   1.000  He
  Ne144    1.0000 0.59961  0.32193  0.15245  Biso   1.000  Ne
  Ne145    1.0000 0.64427  0.32571  0.95681  Biso   1.000  Ne
  He145    1.0000 0.63629  0.32405  0.92680  Biso   1.000  He
  He146    1.0000 0.60676  0.30859  0.92355  Biso   1.000  He
  Ne146    1.0000 0.59515  0.30723  0.89293  Biso   1.000  Ne
  Ne147    1.0000 0.28646  0.18194  0.62081  Biso   1.000  Ne
  He147    1.0000 0.30659  0.20902  0.62385  Biso   1.000  He
  He148    1.0000 0.29118  0.23319  0.64014  Biso   1.000  He
  Ne148    1.0000 0.30890  0.25985  0.64500  Biso   1.000  Ne
  Ne149    1.0000 0.43219  0.19519  0.85977  Biso   1.000  Ne
  He149    1.0000 0.42795  0.20927  0.89021  Biso   1.000  He
  He150    1.0000 0.43537  0.24003  0.88963  Biso   1.000  He
  Ne150    1.0000 0.42555  0.25561  0.91719  Biso   1.000  Ne
  Ne151    1.0000 0.19231  0.34469  0.00605  Biso   1.000  Ne
  He151    1.0000 0.16318  0.32842  0.01222  Biso   1.000  He
  He152    1.0000 0.16302  0.30668  0.03911  Biso   1.000  He
  Ne152    1.0000 0.13248  0.29344  0.04510  Biso   1.000  Ne
  Ne153    1.0000 0.30978  0.20662  0.71551  Biso   1.000  Ne
  He153    1.0000 0.30269  0.18289  0.73409  Biso   1.000  He
  He154    1.0000 0.33077  0.16802  0.74603  Biso   1.000  He
  Ne154    1.0000 0.32205  0.14698  0.77171  Biso   1.000  Ne
  Ne155    1.0000 0.84709  0.90340  0.22777  Biso   1.000  Ne
  He155    1.0000 0.82310  0.88971  0.24807  Biso   1.000  He
  He156    1.0000 0.79870  0.91110  0.25383  Biso   1.000  He
  Ne156    1.0000 0.77265  0.90200  0.27184  Biso   1.000  Ne
  Ne157    1.0000 0.06911  0.13450  0.14815  Biso   1.000  Ne
  He157    1.0000 0.07760  0.13034  0.18028  Biso   1.000  He
  He158    1.0000 0.07726  0.15739  0.19717  Biso   1.000  He
  Ne158    1.0000 0.08453  0.15499  0.22728  Biso   1.000  Ne
  Ne159    1.0000 0.90385  0.63872  0.66931  Biso   1.000  Ne
  He159    1.0000 0.90646  0.60407  0.67051  Biso   1.000  He
  He160    1.0000 0.89285  0.59194  0.69799  Biso   1.000  He
  Ne160    1.0000 0.89910  0.56034  0.70521  Biso   1.000  Ne
  Ne161    1.0000 0.74354  0.55868  0.15145  Biso   1.000  Ne
  He161    1.0000 0.71261  0.57237  0.15096  Biso   1.000  He
  He162    1.0000 0.70941  0.59259  0.12593  Biso   1.000  He
  Ne162    1.0000 0.67719  0.60342  0.12094  Biso   1.000  Ne
  Ne163    1.0000 0.61007  0.86201  0.71443  Biso   1.000  Ne
  He163    1.0000 0.61899  0.86796  0.68242  Biso   1.000  He
  He164    1.0000 0.63810  0.89489  0.67504  Biso   1.000  He
  Ne164    1.0000 0.64713  0.89708  0.64292  Biso   1.000  Ne
  Ne165    1.0000 0.40590  0.88187  0.72033  Biso   1.000  Ne
  He165    1.0000 0.41576  0.89648  0.74870  Biso   1.000  He
  He166    1.0000 0.39162  0.90304  0.76946  Biso   1.000  He
  Ne166    1.0000 0.40010  0.92445  0.79297  Biso   1.000  Ne
  Ne167    1.0000 0.33201  0.92410  0.38759  Biso   1.000  Ne
  He167    1.0000 0.31303  0.89996  0.37124  Biso   1.000  He
  He168    1.0000 0.31799  0.90285  0.33903  Biso   1.000  He
  Ne168    1.0000 0.30064  0.87911  0.32017  Biso   1.000  Ne
  Ne169    1.0000 0.92190  0.48385  0.51306  Biso   1.000  Ne
  He169    1.0000 0.93405  0.46788  0.48626  Biso   1.000  He
  He170    1.0000 0.95571  0.44648  0.49563  Biso   1.000  He
  Ne170    1.0000 0.96675  0.42437  0.47231  Biso   1.000  Ne
  Ne171    1.0000 0.26277  0.80850  0.37200  Biso   1.000  Ne
  He171    1.0000 0.29477  0.81080  0.37983  Biso   1.000  He
  He172    1.0000 0.30141  0.80442  0.41085  Biso   1.000  He
  Ne172    1.0000 0.33502  0.80548  0.41324  Biso   1.000  Ne
  Ne173    1.0000 0.42184  0.97791  0.21278  Biso   1.000  Ne
  He173    1.0000 0.44262  0.98333  0.23939  Biso   1.000  He
  He174    1.0000 0.47681  0.97497  0.23011  Biso   1.000  He
  Ne174    1.0000 0.49686  0.97738  0.25646  Biso   1.000  Ne
  Ne175    1.0000 0.87987  0.90205  0.87953  Biso   1.000  Ne
  He175    1.0000 0.85090  0.88748  0.87260  Biso   1.000  He
  He176    1.0000 0.84730  0.87180  0.84193  Biso   1.000  He
  Ne176    1.0000 0.82139  0.84904  0.84137  Biso   1.000  Ne
  Ne177    1.0000 0.18964  0.47044  0.96793  Biso   1.000  Ne
  He177    1.0000 0.16742  0.44816  0.97663  Biso   1.000  He
  He178    1.0000 0.16438  0.44318  0.00678  Biso   1.000  He
  Ne178    1.0000 0.14079  0.42031  0.01571  Biso   1.000  Ne
  Ne179    1.0000 0.69980  0.37259  0.11280  Biso   1.000  Ne
  He179    1.0000 0.67363  0.38183  0.13196  Biso   1.000  He
  He180    1.0000 0.64856  0.38877  0.11415  Biso   1.000  He
  Ne180    1.0000 0.62406  0.40471  0.13191  Biso   1.000  Ne
  Ne181    1.0000 0.71603  0.07568  0.44695  Biso   1.000  Ne
  He181    1.0000 0.70637  0.06329  0.41869  Biso   1.000  He
  He182    1.0000 0.70050  0.08220  0.39382  Biso   1.000  He
  Ne182    1.0000 0.72606  0.08247  0.37205  Biso   1.000  Ne
  Ne183    1.0000 0.07953  0.11643  0.94642  Biso   1.000  Ne
  He183    1.0000 0.08864  0.14237  0.93002  Biso   1.000  He
  He184    1.0000 0.09532  0.16596  0.95329  Biso   1.000  He
  Ne184    1.0000 0.09591  0.19836  0.94179  Biso   1.000  Ne
  Ne185    1.0000 0.90067  0.90888  0.14589  Biso   1.000  Ne
  He185    1.0000 0.90138  0.88384  0.12533  Biso   1.000  He
  He186    1.0000 0.92611  0.86296  0.13242  Biso   1.000  He
  Ne186    1.0000 0.92219  0.83443  0.11380  Biso   1.000  Ne
  Ne187    1.0000 0.45199  0.18663  0.16125  Biso   1.000  Ne
  He187    1.0000 0.48364  0.18395  0.14928  Biso   1.000  He
  He188    1.0000 0.50652  0.17766  0.17238  Biso   1.000  He
  Ne188    1.0000 0.53621  0.17682  0.16149  Biso   1.000  Ne
  Ne189    1.0000 0.40223  0.64725  0.89295  Biso   1.000  Ne
  He189    1.0000 0.40355  0.66424  0.91968  Biso   1.000  He
  He190    1.0000 0.37470  0.66614  0.93825  Biso   1.000  He
  Ne190    1.0000 0.37922  0.67958  0.96653  Biso   1.000  Ne
  Ne191    1.0000 0.37961  0.18244  0.24103  Biso   1.000  Ne
  He191    1.0000 0.40959  0.17186  0.23569  Biso   1.000  He
  He192    1.0000 0.41863  0.14699  0.25587  Biso   1.000  He
  Ne192    1.0000 0.44456  0.12722  0.24339  Biso   1.000  Ne
  Ne193    1.0000 0.23332  0.28388  0.09847  Biso   1.000  Ne
  He193    1.0000 0.21479  0.25992  0.10948  Biso   1.000  He
  He194    1.0000 0.20101  0.24375  0.08540  Biso   1.000  He
  Ne194    1.0000 0.18146  0.21895  0.09388  Biso   1.000  Ne
  Ne195    1.0000 0.09813  0.41562  0.37114  Biso   1.000  Ne
  He195    1.0000 0.07802  0.39290  0.38594  Biso   1.000  He
  He196    1.0000 0.08672  0.36393  0.37584  Biso   1.000  He
  Ne196    1.0000 0.06984  0.33948  0.38887  Biso   1.000  Ne
  Ne197    1.0000 0.91758  0.93156  0.97117  Biso   1.000  Ne
  He197    1.0000 0.91605  0.89956  0.97405  Biso   1.000  He
  He198    1.0000 0.94374  0.88636  0.96165  Biso   1.000  He
  Ne198    1.0000 0.94270  0.85288  0.95662  Biso   1.000  Ne
  Ne199    1.0000 0.41458  0.16859  0.95408  Biso   1.000  Ne
  He199    1.0000 0.41032  0.15874  0.98502  Biso   1.000  He
  He200    1.0000 0.41823  0.18255  0.00919  Biso   1.000  He
  Ne200    1.0000 0.40526  0.17327  0.03942  Biso   1.000  Ne
  Ne201    1.0000 0.77817  0.75721  0.13512  Biso   1.000  Ne
  He201    1.0000 0.75616  0.77811  0.14606  Biso   1.000  He
  He202    1.0000 0.73895  0.79361  0.12355  Biso   1.000  He
  Ne202    1.0000 0.71809  0.81640  0.13682  Biso   1.000  Ne
  Ne203    1.0000 0.34785  0.58001  0.25460  Biso   1.000  Ne
  He203    1.0000 0.34922  0.60057  0.23059  Biso   1.000  He
  He204    1.0000 0.33078  0.59139  0.20928  Biso   1.000  He
  Ne204    1.0000 0.32907  0.61397  0.18529  Biso   1.000  Ne
  Ne205    1.0000 0.22741  0.14173  0.94722  Biso   1.000  Ne
  He205    1.0000 0.19888  0.12562  0.94868  Biso   1.000  He
  He206    1.0000 0.20293  0.09268  0.94846  Biso   1.000  He
  Ne206    1.0000 0.17639  0.07592  0.93898  Biso   1.000  Ne
  Ne207    1.0000 0.09475  0.29284  0.70973  Biso   1.000  Ne
  He207    1.0000 0.10976  0.30076  0.68117  Biso   1.000  He
  He208    1.0000 0.08865  0.31272  0.65713  Biso   1.000  He
  Ne208    1.0000 0.10468  0.31910  0.62683  Biso   1.000  Ne
  Ne209    1.0000 0.01680  0.81274  0.35878  Biso   1.000  Ne
  He209    1.0000 0.03025  0.84171  0.35598  Biso   1.000  He
  He210    1.0000 0.01686  0.85830  0.33006  Biso   1.000  He
  Ne210    1.0000 0.03185  0.89005  0.32250  Biso   1.000  Ne
  Ne211    1.0000 0.58168  0.56699  0.16977  Biso   1.000  Ne
  He211    1.0000 0.60321  0.56673  0.19448  Biso   1.000  He
  He212    1.0000 0.58696  0.55842  0.22243  Biso   1.000  He
  Ne212    1.0000 0.60900  0.55327  0.24602  Biso   1.000  Ne
  Ne213    1.0000 0.23276  0.94627  0.20953  Biso   1.000  Ne
  He213    1.0000 0.26388  0.95111  0.19658  Biso   1.000  He
  He214    1.0000 0.28278  0.97009  0.21741  Biso   1.000  He
  Ne214    1.0000 0.31133  0.97971  0.20324  Biso   1.000  Ne
  Ne215    1.0000 0.50565  0.00086  0.59605  Biso   1.000  Ne
  He215    1.0000 0.52937  0.02101  0.60290  Biso   1.000  He
  He216    1.0000 0.53939  0.04058  0.57748  Biso   1.000  He
  Ne216    1.0000 0.56368  0.06340  0.58005  Biso   1.000  Ne
  Ne217    1.0000 0.54023  0.51197  0.98280  Biso   1.000  Ne
  He217    1.0000 0.51001  0.50702  0.96961  Biso   1.000  He
  He218    1.0000 0.49479  0.48284  0.98778  Biso   1.000  He
  Ne218    1.0000 0.46144  0.47893  0.97890  Biso   1.000  Ne
  Ne219    1.0000 0.26445  0.41710  0.68942  Biso   1.000  Ne
  He219    1.0000 0.27550  0.41824  0.66057  Biso   1.000  He
  He220    1.0000 0.29775  0.44423  0.65446  Biso   1.000  He
  Ne220    1.0000 0.31287  0.44229  0.62591  Biso   1.000  Ne
  Ne221    1.0000 0.09990  0.84114  0.83115  Biso   1.000  Ne
  He221    1.0000 0.08459  0.84877  0.80225  Biso   1.000  He
  He222    1.0000 0.08241  0.82715  0.77749  Biso   1.000  He
  Ne222    1.0000 0.06530  0.83652  0.74889  Biso   1.000  Ne
  Ne223    1.0000 0.93493  0.83161  0.37483  Biso   1.000  Ne
  He223    1.0000 0.92178  0.81734  0.34861  Biso   1.000  He
  He224    1.0000 0.93540  0.78866  0.33665  Biso   1.000  He
  Ne224    1.0000 0.91961  0.77774  0.31014  Biso   1.000  Ne
  Ne225    1.0000 0.77837  0.83102  0.95858  Biso   1.000  Ne
  He225    1.0000 0.80753  0.84613  0.96695  Biso   1.000  He
  He226    1.0000 0.81411  0.87472  0.95302  Biso   1.000  He
  Ne226    1.0000 0.83762  0.89252  0.96905  Biso   1.000  Ne
  Ne227    1.0000 0.62693  0.91334  0.43835  Biso   1.000  Ne
  He227    1.0000 0.60568  0.90176  0.46072  Biso   1.000  He
  He228    1.0000 0.57509  0.91270  0.46200  Biso   1.000  He
  Ne228    1.0000 0.55821  0.89588  0.48585  Biso   1.000  Ne
  Ne229    1.0000 0.91857  0.58940  0.34688  Biso   1.000  Ne
  He229    1.0000 0.91997  0.58219  0.38008  Biso   1.000  He
  He230    1.0000 0.92684  0.54944  0.38551  Biso   1.000  He
  Ne230    1.0000 0.93651  0.53952  0.41622  Biso   1.000  Ne
  Ne231    1.0000 0.10287  0.79045  0.20075  Biso   1.000  Ne
  He231    1.0000 0.09262  0.79634  0.17015  Biso   1.000  He
  He232    1.0000 0.09928  0.77631  0.14590  Biso   1.000  He
  Ne232    1.0000 0.08952  0.78577  0.11630  Biso   1.000  Ne
  Ne233    1.0000 0.67906  0.38624  0.21293  Biso   1.000  Ne
  He233    1.0000 0.64824  0.37538  0.20336  Biso   1.000  He
  He234    1.0000 0.62275  0.38839  0.22052  Biso   1.000  He
  Ne234    1.0000 0.58931  0.38479  0.20693  Biso   1.000  Ne
  Ne235    1.0000 0.13031  0.88621  0.17216  Biso   1.000  Ne
  He235    1.0000 0.12113  0.89925  0.19859  Biso   1.000  He
  He236    1.0000 0.08979  0.89264  0.20656  Biso   1.000  He
  Ne236    1.0000 0.08343  0.91169  0.23249  Biso   1.000  Ne
  Ne237    1.0000 0.04245  0.38427  0.48243  Biso   1.000  Ne
  He237    1.0000 0.04715  0.41371  0.49888  Biso   1.000  He
  He238    1.0000 0.05624  0.40906  0.52969  Biso   1.000  He
  Ne238    1.0000 0.05831  0.43742  0.54402  Biso   1.000  Ne
  Ne239    1.0000 0.41924  0.12954  0.69479  Biso   1.000  Ne
  He239    1.0000 0.41222  0.11262  0.72029  Biso   1.000  He
  He240    1.0000 0.40978  0.13115  0.74658  Biso   1.000  He
  Ne240    1.0000 0.41603  0.11488  0.77492  Biso   1.000  Ne
  Ne241    1.0000 0.60623  0.75438  0.93782  Biso   1.000  Ne
  He241    1.0000 0.59750  0.72337  0.92862  Biso   1.000  He
  He242    1.0000 0.58644  0.70470  0.95438  Biso   1.000  He
  Ne242    1.0000 0.57411  0.67623  0.94588  Biso   1.000  Ne
  Ne243    1.0000 0.79614  0.56357  0.68302  Biso   1.000  Ne
  He243    1.0000 0.79617  0.57785  0.71264  Biso   1.000  He
  He244    1.0000 0.76692  0.59068  0.72285  Biso   1.000  He
  Ne244    1.0000 0.76418  0.60095  0.75414  Biso   1.000  Ne
  Ne245    1.0000 0.01443  0.75586  0.46344  Biso   1.000  Ne
  He245    1.0000 0.02995  0.72750  0.45809  Biso   1.000  He
  He246    1.0000 0.04281  0.72316  0.42933  Biso   1.000  He
  Ne246    1.0000 0.06038  0.69423  0.42423  Biso   1.000  Ne
  Ne247    1.0000 0.25209  0.58954  0.28738  Biso   1.000  Ne
  He247    1.0000 0.27144  0.56722  0.27382  Biso   1.000  He
  He248    1.0000 0.26143  0.55766  0.24514  Biso   1.000  He
  Ne248    1.0000 0.27736  0.52969  0.23060  Biso   1.000  Ne
  Ne249    1.0000 0.77545  0.04947  0.84237  Biso   1.000  Ne
  He249    1.0000 0.77271  0.06300  0.81351  Biso   1.000  He
  He250    1.0000 0.76554  0.09423  0.81188  Biso   1.000  He
  Ne250    1.0000 0.76049  0.10404  0.78048  Biso   1.000  Ne
  Ne251    1.0000 0.04899  0.58429  0.46510  Biso   1.000  Ne
  He251    1.0000 0.04631  0.55391  0.47753  Biso   1.000  He
  He252    1.0000 0.03763  0.53022  0.45603  Biso   1.000  He
  Ne252    1.0000 0.04186  0.49954  0.47025  Biso   1.000  Ne
  Ne253    1.0000 0.90686  0.73958  0.09053  Biso   1.000  Ne
  He253    1.0000 0.92017  0.72816  0.11805  Biso   1.000  He
  He254    1.0000 0.90472  0.74084  0.14624  Biso   1.000  He
  Ne254    1.0000 0.92024  0.76717  0.15896  Biso   1.000  Ne
  Ne255    1.0000 0.07775  0.18909  0.83882  Biso   1.000  Ne
  He255    1.0000 0.11037  0.19133  0.83537  Biso   1.000  He
  He256    1.0000 0.12862  0.17017  0.85342  Biso   1.000  He
  Ne256    1.0000 0.15911  0.17608  0.84971  Biso   1.000  Ne
  Ne257    1.0000 0.33055  0.39763  0.83440  Biso   1.000  Ne
  He257    1.0000 0.29947  0.41099  0.83006  Biso   1.000  He
  He258    1.0000 0.28869  0.41128  0.79934  Biso   1.000  He
  Ne258    1.0000 0.25775  0.41902  0.79634  Biso   1.000  Ne
  Ne259    1.0000 0.47334  0.66121  0.68653  Biso   1.000  Ne
  He259    1.0000 0.45594  0.67554  0.70872  Biso   1.000  He
  He260    1.0000 0.45063  0.65791  0.73639  Biso   1.000  He
  Ne260    1.0000 0.43006  0.67156  0.75885  Biso   1.000  Ne
  Ne261    1.0000 0.84529  0.13115  0.10913  Biso   1.000  Ne
  He261    1.0000 0.82612  0.10860  0.10066  Biso   1.000  He
  He262    1.0000 0.83384  0.07974  0.11588  Biso   1.000  He
  Ne262    1.0000 0.81889  0.05316  0.10567  Biso   1.000  Ne
  Ne263    1.0000 0.59619  0.24037  0.41709  Biso   1.000  Ne
  He263    1.0000 0.57982  0.22758  0.39227  Biso   1.000  He
  He264    1.0000 0.59740  0.20460  0.37739  Biso   1.000  He
  Ne264    1.0000 0.58178  0.18859  0.35397  Biso   1.000  Ne
  Ne265    1.0000 0.64570  0.07053  0.28756  Biso   1.000  Ne
  He265    1.0000 0.66134  0.06195  0.25852  Biso   1.000  He
  He266    1.0000 0.66160  0.03142  0.24884  Biso   1.000  He
  Ne266    1.0000 0.67840  0.02573  0.22045  Biso   1.000  Ne
  Ne267    1.0000 0.06263  0.54064  0.56871  Biso   1.000  Ne
  He267    1.0000 0.05465  0.51767  0.58982  Biso   1.000  He
  He268    1.0000 0.02108  0.51021  0.58707  Biso   1.000  He
  Ne268    1.0000 0.00758  0.48780  0.60666  Biso   1.000  Ne
  Ne269    1.0000 0.58349  0.69322  0.18974  Biso   1.000  Ne
  He269    1.0000 0.60152  0.69034  0.16241  Biso   1.000  He
  He270    1.0000 0.58618  0.69817  0.13513  Biso   1.000  He
  Ne270    1.0000 0.60618  0.69934  0.10874  Biso   1.000  Ne
  Ne271    1.0000 0.13078  0.27614  0.92196  Biso   1.000  Ne
  He271    1.0000 0.16181  0.26982  0.91804  Biso   1.000  He
  He272    1.0000 0.17953  0.28874  0.89375  Biso   1.000  He
  Ne272    1.0000 0.21005  0.27908  0.89047  Biso   1.000  Ne
  Ne273    1.0000 0.81914  0.55791  0.44268  Biso   1.000  Ne
  He273    1.0000 0.84954  0.56115  0.44883  Biso   1.000  He
  He274    1.0000 0.86056  0.59261  0.45029  Biso   1.000  He
  Ne274    1.0000 0.89253  0.59983  0.46191  Biso   1.000  Ne
  Ne275    1.0000 0.62504  0.80019  0.12881  Biso   1.000  Ne
  He275    1.0000 0.62909  0.79334  0.09587  Biso   1.000  He
  He276    1.0000 0.60554  0.77463  0.08092  Biso   1.000  He
  Ne276    1.0000 0.61138  0.77422  0.04574  Biso   1.000  Ne
  Ne277    1.0000 0.36873  0.90961  0.46610  Biso   1.000  Ne
  He277    1.0000 0.37554  0.88130  0.45031  Biso   1.000  He
  He278    1.0000 0.40711  0.87268  0.44595  Biso   1.000  He
  Ne278    1.0000 0.42181  0.84719  0.46544  Biso   1.000  Ne
  Ne279    1.0000 0.13098  0.21521  0.47761  Biso   1.000  Ne
  He279    1.0000 0.14076  0.23637  0.45340  Biso   1.000  He
  He280    1.0000 0.12557  0.26589  0.45717  Biso   1.000  He
  Ne280    1.0000 0.13181  0.28802  0.43271  Biso   1.000  Ne
  Ne281    1.0000 0.41849  0.89306  0.33827  Biso   1.000  Ne
  He281    1.0000 0.41240  0.85763  0.33718  Biso   1.000  He
  He282    1.0000 0.41529  0.84427  0.36634  Biso   1.000  He
  Ne282    1.0000 0.41671  0.81180  0.36673  Biso   1.000  Ne
  Ne283    1.0000 0.13042  0.57215  0.43515  Biso   1.000  Ne
  He283    1.0000 0.14954  0.57005  0.46445  Biso   1.000  He
  He284    1.0000 0.17761  0.59152  0.46705  Biso   1.000  He
  Ne284    1.0000 0.20530  0.58014  0.44995  Biso   1.000  Ne
  Ne285    1.0000 0.01498  0.96127  0.96506  Biso   1.000  Ne
  He285    1.0000 0.03724  0.98561  0.97802  Biso   1.000  He
  He286    1.0000 0.05421  0.00348  0.95558  Biso   1.000  He
  Ne286    1.0000 0.07856  0.02058  0.96597  Biso   1.000  Ne
  Ne287    1.0000 0.32040  0.52507  0.69777  Biso   1.000  Ne
  He287    1.0000 0.29611  0.52746  0.67327  Biso   1.000  He
  He288    1.0000 0.31110  0.53105  0.64216  Biso   1.000  He
  Ne288    1.0000 0.28797  0.53712  0.61625  Biso   1.000  Ne
  Ne289    1.0000 0.62106  0.15416  0.24918  Biso   1.000  Ne
  He289    1.0000 0.62779  0.18426  0.24918  Biso   1.000  He
  He290    1.0000 0.63608  0.19311  0.28011  Biso   1.000  He
  Ne290    1.0000 0.63975  0.22577  0.28490  Biso   1.000  Ne
  Ne291    1.0000 0.80675  0.73160  0.95047  Biso   1.000  Ne
  He291    1.0000 0.81314  0.76350  0.94068  Biso   1.000  He
  He292    1.0000 0.84406  0.76540  0.92772  Biso   1.000  He
  Ne292    1.0000 0.85589  0.79795  0.92462  Biso   1.000  Ne
  Ne293    1.0000 0.72668  0.29111  0.97127  Biso   1.000  Ne
  He293    1.0000 0.74569  0.27545  0.94964  Biso   1.000  He
  He294    1.0000 0.77057  0.25985  0.96263  Biso   1.000  He
  Ne294    1.0000 0.77463  0.23234  0.94382  Biso   1.000  Ne
  Ne295    1.0000 0.46403  0.39621  0.03696  Biso   1.000  Ne
  He295    1.0000 0.46188  0.39863  0.07127  Biso   1.000  He
  He296    1.0000 0.46064  0.42952  0.08583  Biso   1.000  He
  Ne296    1.0000 0.44917  0.42601  0.11572  Biso   1.000  Ne
  Ne297    1.0000 0.44290  0.02967  0.64658  Biso   1.000  Ne
  He297    1.0000 0.43076  0.04698  0.62342  Biso   1.000  He
  He298    1.0000 0.43840  0.07951  0.62741  Biso   1.000  He
  Ne298    1.0000 0.42463  0.09762  0.60489  Biso   1.000  Ne
  Ne299    1.0000 0.89832  0.71569  0.84345  Biso   1.000  Ne
  He299    1.0000 0.89779  0.74785  0.84377  Biso   1.000  He
  He300    1.0000 0.92632  0.76276  0.83776  Biso   1.000  He
  Ne300    1.0000 0.92651  0.79345  0.84912  Biso   1.000  Ne
  Ne301    1.0000 0.64718  0.52542  0.69999  Biso   1.000  Ne
  He301    1.0000 0.64634  0.55497  0.71322  Biso   1.000  He
  He302    1.0000 0.67304  0.57559  0.70905  Biso   1.000  He
  Ne302    1.0000 0.67156  0.60441  0.72267  Biso   1.000  Ne
  Ne303    1.0000 0.41293  0.09112  0.34126  Biso   1.000  Ne
  He303    1.0000 0.40434  0.06864  0.31801  Biso   1.000  He
  He304    1.0000 0.37455  0.07441  0.30064  Biso   1.000  He
  Ne304    1.0000 0.36792  0.05189  0.27733  Biso   1.000  Ne
  Ne305    1.0000 0.19560  0.36565  0.82322  Biso   1.000  Ne
  He305    1.0000 0.16549  0.37739  0.83036  Biso   1.000  He
  He306    1.0000 0.14762  0.36184  0.85424  Biso   1.000  He
  Ne306    1.0000 0.11710  0.37377  0.85842  Biso   1.000  Ne
  Ne307    1.0000 0.55548  0.45288  0.31214  Biso   1.000  Ne
  He307    1.0000 0.55871  0.42079  0.31499  Biso   1.000  He
  He308    1.0000 0.58789  0.40660  0.30292  Biso   1.000  He
  Ne308    1.0000 0.58389  0.37529  0.29956  Biso   1.000  Ne
  Ne309    1.0000 0.90444  0.16974  0.86240  Biso   1.000  Ne
  He309    1.0000 0.90595  0.15505  0.89168  Biso   1.000  He
  He310    1.0000 0.91024  0.17469  0.91983  Biso   1.000  He
  Ne310    1.0000 0.91717  0.16012  0.95017  Biso   1.000  Ne
  Ne311    1.0000 0.68985  0.56062  0.89209  Biso   1.000  Ne
  He311    1.0000 0.68697  0.59099  0.87304  Biso   1.000  He
  He312    1.0000 0.67268  0.58582  0.84458  Biso   1.000  He
  Ne312    1.0000 0.66816  0.61261  0.82441  Biso   1.000  Ne
  Ne313    1.0000 0.83745  0.82868  0.13468  Biso   1.000  Ne
  He313    1.0000 0.82205  0.85626  0.14686  Biso   1.000  He
  He314    1.0000 0.81055  0.87688  0.12548  Biso   1.000  He
  Ne314    1.0000 0.80231  0.90594  0.14107  Biso   1.000  Ne
  Ne315    1.0000 0.22529  0.68989  0.95503  Biso   1.000  Ne
  He315    1.0000 0.24296  0.66736  0.97787  Biso   1.000  He
  He316    1.0000 0.25595  0.64111  0.96341  Biso   1.000  He
  Ne316    1.0000 0.27533  0.62139  0.97914  Biso   1.000  Ne
  Ne317    1.0000 0.90680  0.02423  0.98228  Biso   1.000  Ne
  He317    1.0000 0.93311  0.03355  0.00115  Biso   1.000  He
  He318    1.0000 0.95297  0.05511  0.98680  Biso   1.000  He
  Ne318    1.0000 0.97855  0.06380  0.00647  Biso   1.000  Ne
  Ne319    1.0000 0.30683  0.84246  0.19726  Biso   1.000  Ne
  He319    1.0000 0.33575  0.85344  0.18024  Biso   1.000  He
  He320    1.0000 0.33067  0.87688  0.15965  Biso   1.000  He
  Ne320    1.0000 0.35811  0.88644  0.13981  Biso   1.000  Ne
  Ne321    1.0000 0.28468  0.72870  0.63621  Biso   1.000  Ne
  He321    1.0000 0.27430  0.75891  0.63195  Biso   1.000  He
  He322    1.0000 0.30056  0.77946  0.62816  Biso   1.000  He
  Ne322    1.0000 0.29333  0.81165  0.62444  Biso   1.000  Ne
  Ne323    1.0000 0.45149  0.90063  0.59766  Biso   1.000  Ne
  He323    1.0000 0.44108  0.91996  0.61828  Biso   1.000  He
  He324    1.0000 0.41886  0.93918  0.60699  Biso   1.000  He
  Ne324    1.0000 0.42992  0.96766  0.59332  Biso   1.000  Ne
  Ne325    1.0000 0.90384  0.59206  0.79766  Biso   1.000  Ne
  He325    1.0000 0.87505  0.57699  0.80916  Biso   1.000  He
  He326    1.0000 0.86548  0.54891  0.79063  Biso   1.000  He
  Ne326    1.0000 0.84025  0.53270  0.80459  Biso   1.000  Ne
  Ne327    1.0000 0.07783  0.34355  0.77135  Biso   1.000  Ne
  He327    1.0000 0.07171  0.37035  0.75184  Biso   1.000  He
  He328    1.0000 0.09928  0.37891  0.73572  Biso   1.000  He
  Ne328    1.0000 0.09345  0.40186  0.71401  Biso   1.000  Ne
  Ne329    1.0000 0.35794  0.30503  0.18489  Biso   1.000  Ne
  He329    1.0000 0.38950  0.30083  0.18858  Biso   1.000  He
  He330    1.0000 0.39763  0.27992  0.21286  Biso   1.000  He
  Ne330    1.0000 0.42923  0.27921  0.21868  Biso   1.000  Ne
  Ne331    1.0000 0.92924  0.78417  0.68226  Biso   1.000  Ne
  He331    1.0000 0.92791  0.81221  0.66403  Biso   1.000  He
  He332    1.0000 0.94558  0.83836  0.67425  Biso   1.000  He
  Ne332    1.0000 0.93955  0.86658  0.66185  Biso   1.000  Ne
  Ne333    1.0000 0.03219  0.66567  0.88423  Biso   1.000  Ne
  He333    1.0000 0.04366  0.66265  0.85339  Biso   1.000  He
  He334    1.0000 0.07771  0.67444  0.85559  Biso   1.000  He
  Ne334    1.0000 0.09313  0.67670  0.82480  Biso   1.000  Ne
  Ne335    1.0000 0.67806  0.73176  0.13208  Biso   1.000  Ne
  He335    1.0000 0.70502  0.71542  0.14432  Biso   1.000  He
  He336    1.0000 0.69623  0.69397  0.16744  Biso   1.000  He
  Ne336    1.0000 0.72025  0.67795  0.17754  Biso   1.000  Ne
  Ne337    1.0000 0.22411  0.08499  0.29840  Biso   1.000  Ne
  He337    1.0000 0.22234  0.06780  0.32715  Biso   1.000  He
  He338    1.0000 0.19255  0.05211  0.32874  Biso   1.000  He
  Ne338    1.0000 0.18664  0.03974  0.35846  Biso   1.000  Ne
  Ne339    1.0000 0.62543  0.78437  0.64457  Biso   1.000  Ne
  He339    1.0000 0.62584  0.75308  0.63159  Biso   1.000  He
  He340    1.0000 0.65348  0.74357  0.61653  Biso   1.000  He
  Ne340    1.0000 0.64896  0.71370  0.60709  Biso   1.000  Ne
  Ne341    1.0000 0.41450  0.57330  0.91521  Biso   1.000  Ne
  He341    1.0000 0.41126  0.55631  0.94229  Biso   1.000  He
  He342    1.0000 0.37980  0.54847  0.95003  Biso   1.000  He
  Ne342    1.0000 0.37295  0.54030  0.98137  Biso   1.000  Ne
  Ne343    1.0000 0.43900  0.37440  0.26555  Biso   1.000  Ne
  He343    1.0000 0.42594  0.39009  0.23849  Biso   1.000  He
  He344    1.0000 0.42384  0.37091  0.21376  Biso   1.000  He
  Ne344    1.0000 0.41305  0.38766  0.18660  Biso   1.000  Ne
  Ne345    1.0000 0.20627  0.29845  0.67130  Biso   1.000  Ne
  He345    1.0000 0.20124  0.32650  0.65498  Biso   1.000  He
  He346    1.0000 0.18485  0.34913  0.67640  Biso   1.000  He
  Ne346    1.0000 0.17869  0.37712  0.66384  Biso   1.000  Ne
  Ne347    1.0000 0.96243  0.56902  0.57069  Biso   1.000  Ne
  He347    1.0000 0.94138  0.55088  0.58551  Biso   1.000  He
  He348    1.0000 0.91310  0.56316  0.58946  Biso   1.000  He
  Ne348    1.0000 0.89073  0.54366  0.60537  Biso   1.000  Ne
  Ne349    1.0000 0.72799  0.60009  0.96615  Biso   1.000  Ne
  He349    1.0000 0.73034  0.62788  0.94983  Biso   1.000  He
  He350    1.0000 0.70261  0.64209  0.94323  Biso   1.000  He
  Ne350    1.0000 0.70553  0.67136  0.92975  Biso   1.000  Ne
  Ne351    1.0000 0.42638  0.34796  0.95830  Biso   1.000  Ne
  He351    1.0000 0.41277  0.34086  0.92944  Biso   1.000  He
  He352    1.0000 0.38445  0.32114  0.93208  Biso   1.000  He
  Ne352    1.0000 0.36508  0.31435  0.90544  Biso   1.000  Ne
  Ne353    1.0000 0.14415  0.55481  0.25712  Biso   1.000  Ne
  He353    1.0000 0.16891  0.53303  0.25450  Biso   1.000  He
  He354    1.0000 0.15801  0.50738  0.23524  Biso   1.000  He
  Ne354    1.0000 0.18106  0.48268  0.23261  Biso   1.000  Ne
  Ne355    1.0000 0.28540  0.90523  0.11337  Biso   1.000  Ne
  He355    1.0000 0.25992  0.92627  0.11729  Biso   1.000  He
  He356    1.0000 0.23319  0.91178  0.12421  Biso   1.000  He
  Ne356    1.0000 0.20839  0.93384  0.13186  Biso   1.000  Ne
  Ne357    1.0000 0.30413  0.11200  0.94060  Biso   1.000  Ne
  He357    1.0000 0.31480  0.14525  0.94494  Biso   1.000  He
  He358    1.0000 0.32190  0.15600  0.97761  Biso   1.000  He
  Ne358    1.0000 0.33103  0.18640  0.97692  Biso   1.000  Ne
  Ne359    1.0000 0.67544  0.19871  0.07185  Biso   1.000  Ne
  He359    1.0000 0.69402  0.17314  0.08807  Biso   1.000  He
  He360    1.0000 0.71663  0.15706  0.06938  Biso   1.000  He
  Ne360    1.0000 0.73445  0.13461  0.08615  Biso   1.000  Ne
  Ne361    1.0000 0.32812  0.90438  0.65065  Biso   1.000  Ne
  He361    1.0000 0.31382  0.88369  0.67210  Biso   1.000  He
  He362    1.0000 0.29112  0.89882  0.69149  Biso   1.000  He
  Ne362    1.0000 0.27643  0.88021  0.71139  Biso   1.000  Ne
  Ne363    1.0000 0.24835  0.91457  0.82809  Biso   1.000  Ne
  He363    1.0000 0.22897  0.90368  0.85246  Biso   1.000  He
  He364    1.0000 0.19450  0.90905  0.84632  Biso   1.000  He
  Ne364    1.0000 0.17690  0.90076  0.87409  Biso   1.000  Ne
  Ne365    1.0000 0.89484  0.39718  0.66318  Biso   1.000  Ne
  He365    1.0000 0.90418  0.36812  0.65516  Biso   1.000  He
  He366    1.0000 0.90900  0.34738  0.67775  Biso   1.000  He
  Ne366    1.0000 0.92346  0.32029  0.66762  Biso   1.000  Ne
  Ne367    1.0000 0.12898  0.41539  0.45583  Biso   1.000  Ne
  He367    1.0000 0.16078  0.40819  0.45030  Biso   1.000  He
  He368    1.0000 0.16638  0.37548  0.45495  Biso   1.000  He
  Ne368    1.0000 0.19840  0.36509  0.45089  Biso   1.000  Ne
  Ne369    1.0000 0.40002  0.42628  0.99979  Biso   1.000  Ne
  He369    1.0000 0.38294  0.41373  0.97383  Biso   1.000  He
  He370    1.0000 0.39189  0.42925  0.94600  Biso   1.000  He
  Ne370    1.0000 0.37558  0.41376  0.91974  Biso   1.000  Ne
  Ne371    1.0000 0.41468  0.83776  0.26328  Biso   1.000  Ne
  He371    1.0000 0.38111  0.83262  0.26878  Biso   1.000  He
  He372    1.0000 0.37358  0.80091  0.26303  Biso   1.000  He
  Ne372    1.0000 0.33985  0.79393  0.25958  Biso   1.000  Ne
  Ne373    1.0000 0.09185  0.19457  0.32634  Biso   1.000  Ne
  He373    1.0000 0.12308  0.18912  0.32583  Biso   1.000  He
  He374    1.0000 0.13627  0.20432  0.35260  Biso   1.000  He
  Ne374    1.0000 0.16698  0.20263  0.35367  Biso   1.000  Ne
  Ne375    1.0000 0.65588  0.36064  0.82947  Biso   1.000  Ne
  He375    1.0000 0.62548  0.37337  0.82177  Biso   1.000  He
  He376    1.0000 0.61423  0.39633  0.84128  Biso   1.000  He
  Ne376    1.0000 0.58251  0.40743  0.83289  Biso   1.000  Ne
  Ne377    1.0000 0.07469  0.56998  0.67283  Biso   1.000  Ne
  He377    1.0000 0.08249  0.58865  0.69956  Biso   1.000  He
  He378    1.0000 0.07201  0.57672  0.72974  Biso   1.000  He
  Ne378    1.0000 0.08023  0.59584  0.75510  Biso   1.000  Ne
  Ne379    1.0000 0.27158  0.09543  0.44411  Biso   1.000  Ne
  He379    1.0000 0.28015  0.10175  0.41240  Biso   1.000  He
  He380    1.0000 0.29548  0.07702  0.39607  Biso   1.000  He
  Ne380    1.0000 0.30374  0.07959  0.36467  Biso   1.000  Ne
  Ne381    1.0000 0.56298  0.55878  0.86164  Biso   1.000  Ne
  He381    1.0000 0.57168  0.59045  0.87042  Biso   1.000  He
  He382    1.0000 0.56244  0.61145  0.84870  Biso   1.000  He
  Ne382    1.0000 0.57570  0.64165  0.85411  Biso   1.000  Ne
  Ne383    1.0000 0.42816  0.69793  0.18268  Biso   1.000  Ne
  He383    1.0000 0.43011  0.72267  0.20724  Biso   1.000  He
  He384    1.0000 0.41870  0.71568  0.23565  Biso   1.000  He
  Ne384    1.0000 0.42457  0.74013  0.25897  Biso   1.000  Ne
  Ne385    1.0000 0.39960  0.59582  0.78872  Biso   1.000  Ne
  He385    1.0000 0.38913  0.58774  0.81995  Biso   1.000  He
  He386    1.0000 0.35761  0.58084  0.82084  Biso   1.000  He
  Ne386    1.0000 0.34551  0.57147  0.85330  Biso   1.000  Ne
  Ne387    1.0000 0.92961  0.20643  0.51225  Biso   1.000  Ne
  He387    1.0000 0.89787  0.20294  0.51304  Biso   1.000  He
  He388    1.0000 0.88734  0.19165  0.54219  Biso   1.000  He
  Ne388    1.0000 0.85589  0.18001  0.54162  Biso   1.000  Ne
  Ne389    1.0000 0.79996  0.64599  0.11224  Biso   1.000  Ne
  He389    1.0000 0.77986  0.63345  0.09039  Biso   1.000  He
  He390    1.0000 0.79181  0.63144  0.05940  Biso   1.000  He
  Ne390    1.0000 0.80221  0.60324  0.04986  Biso   1.000  Ne
  Ne391    1.0000 0.20627  0.79584  0.12508  Biso   1.000  Ne
  He391    1.0000 0.20318  0.77162  0.14832  Biso   1.000  He
  He392    1.0000 0.19415  0.73916  0.13890  Biso   1.000  He
  Ne392    1.0000 0.19631  0.72087  0.16528  Biso   1.000  Ne
  Ne393    1.0000 0.13859  0.58601  0.62010  Biso   1.000  Ne
  He393    1.0000 0.16999  0.58707  0.63001  Biso   1.000  He
  He394    1.0000 0.18216  0.55699  0.63119  Biso   1.000  He
  Ne394    1.0000 0.21645  0.55867  0.63884  Biso   1.000  Ne
  Ne395    1.0000 0.66815  0.13598  0.46037  Biso   1.000  Ne
  He395    1.0000 0.64109  0.15212  0.46562  Biso   1.000  He
  He396    1.0000 0.61825  0.14810  0.44286  Biso   1.000  He
  Ne396    1.0000 0.58825  0.16215  0.45149  Biso   1.000  Ne
  Ne397    1.0000 0.40985  0.50964  0.06390  Biso   1.000  Ne
  He397    1.0000 0.43994  0.51341  0.05397  Biso   1.000  He
  He398    1.0000 0.45551  0.54184  0.05837  Biso   1.000  He
  Ne398    1.0000 0.48284  0.54434  0.04236  Biso   1.000  Ne
  Ne399    1.0000 0.90014  0.13909  0.66586  Biso   1.000  Ne
  He399    1.0000 0.87631  0.12823  0.68784  Biso   1.000  He
  He400    1.0000 0.84328  0.12491  0.68056  Biso   1.000  He
  Ne400    1.0000 0.82707  0.11261  0.70635  Biso   1.000  Ne
