data_image0
_cell_length_a       46.9559
_cell_length_b       46.6234
_cell_length_c       46.595
_cell_angle_alpha    90
_cell_angle_beta     90
_cell_angle_gamma    90

_symmetry_space_group_name_H-M    "P 1"
_symmetry_int_tables_number       1

loop_
  _symmetry_equiv_pos_as_xyz
  'x, y, z'

loop_
  _atom_site_label
  _atom_site_occupancy
  _atom_site_fract_x
  _atom_site_fract_y
  _atom_site_fract_z
  _atom_site_thermal_displace_type
  _atom_site_B_iso_or_equiv
  _atom_site_type_symbol
  Ne1      1.0000 0.41611  0.58703  0.54347  Biso   1.000  Ne
  He1      1.0000 0.41428  0.58986  0.57683  Biso   1.000  He
  He2      1.0000 0.44569  0.58465  0.59079  Biso   1.000  He
  Ne2      1.0000 0.44579  0.58754  0.62441  Biso   1.000  Ne
  Ne3      1.0000 0.12176  0.17392  0.89668  Biso   1.000  Ne
  He3      1.0000 0.12840  0.14977  0.87486  Biso   1.000  He
  He4      1.0000 0.11181  0.15308  0.84588  Biso   1.000  He
  Ne4      1.0000 0.11722  0.13099  0.82415  Biso   1.000  Ne
  Ne5      1.0000 0.16655  0.15515  0.08511  Biso   1.000  Ne
  He5      1.0000 0.18015  0.12797  0.09490  Biso   1.000  He
  He6      1.0000 0.21198  0.12401  0.08363  Biso   1.000  He
  Ne6      1.0000 0.22470  0.09327  0.09140  Biso   1.000  Ne
  Ne7      1.0000 0.17030  0.61969  0.60612  Biso   1.000  Ne
  He7      1.0000 0.18904  0.64501  0.60055  Biso   1.000  He
  He8      1.0000 0.17347  0.66846  0.58273  Biso   1.000  He
  Ne8      1.0000 0.19426  0.69491  0.58421  Biso   1.000  Ne
  Ne9      1.0000 0.85409  0.14177  0.11256  Biso   1.000  Ne
  He9      1.0000 0.83177  0.12191  0.12880  Biso   1.000  He
  He10     1.0000 0.80367  0.12126  0.11235  Biso   1.000  He
  Ne10     1.0000 0.78106  0.10026  0.12355  Biso   1.000  Ne
  Ne11     1.0000 0.64150  0.68083  0.78512  Biso   1.000  Ne
  He11     1.0000 0.64299  0.64733  0.78522  Biso   1.000  He
  He12     1.0000 0.61223  0.63482  0.77762  Biso   1.000  He
  Ne12     1.0000 0.61784  0.60070  0.78061  Biso   1.000  Ne
  Ne13     1.0000 0.16743  0.77510  0.70247  Biso   1.000  Ne
  He13     1.0000 0.14389  0.80223  0.70630  Biso   1.000  He
  He14     1.0000 0.12143  0.79491  0.72864  Biso   1.000  He
  Ne14     1.0000 0.09677  0.81856  0.73367  Biso   1.000  Ne
  Ne15     1.0000 0.63647  0.61702  0.60640  Biso   1.000  Ne
  He15     1.0000 0.60742  0.62025  0.59118  Biso   1.000  He
  He16     1.0000 0.58196  0.61023  0.61033  Biso   1.000  He
  Ne16     1.0000 0.56358  0.58475  0.59641  Biso   1.000  Ne
  Ne17     1.0000 0.41757  0.81321  0.60313  Biso   1.000  Ne
  He17     1.0000 0.43457  0.78704  0.58760  Biso   1.000  He
  He18     1.0000 0.43348  0.75832  0.60452  Biso   1.000  He
  Ne18     1.0000 0.44509  0.73354  0.58899  Biso   1.000  Ne
  Ne19     1.0000 0.58973  0.84348  0.23423  Biso   1.000  Ne
  He19     1.0000 0.60421  0.81299  0.22976  Biso   1.000  He
  He20     1.0000 0.59896  0.79915  0.19857  Biso   1.000  He
  Ne20     1.0000 0.61305  0.76642  0.19763  Biso   1.000  Ne
  Ne21     1.0000 0.12837  0.89847  0.20626  Biso   1.000  Ne
  He21     1.0000 0.12675  0.86855  0.19142  Biso   1.000  He
  He22     1.0000 0.14296  0.84231  0.20786  Biso   1.000  He
  Ne22     1.0000 0.14727  0.81582  0.18951  Biso   1.000  Ne
  Ne23     1.0000 0.94741  0.50125  0.46007  Biso   1.000  Ne
  He23     1.0000 0.96741  0.52754  0.45670  Biso   1.000  He
  He24     1.0000 0.96860  0.54831  0.48387  Biso   1.000  He
  Ne24     1.0000 0.99109  0.57420  0.47950  Biso   1.000  Ne
  Ne25     1.0000 0.19548  0.68242  0.67417  Biso   1.000  Ne
  He25     1.0000 0.16964  0.67754  0.69371  Biso   1.000  He
  He26     1.0000 0.14633  0.70057  0.69117  Biso   1.000  He
  Ne26     1.0000 0.12002  0.69516  0.70961  Biso   1.000  Ne
  Ne27     1.0000 0.39081  0.29695  0.86292  Biso   1.000  Ne
  He27     1.0000 0.40663  0.32572  0.86105  Biso   1.000  He
  He28     1.0000 0.40053  0.34107  0.82974  Biso   1.000  He
  Ne28     1.0000 0.41658  0.36881  0.82425  Biso   1.000  Ne
  Ne29     1.0000 0.65850  0.04667  0.74731  Biso   1.000  Ne
  He29     1.0000 0.63688  0.04354  0.77370  Biso   1.000  He
  He30     1.0000 0.60775  0.02698  0.76843  Biso   1.000  He
  Ne30     1.0000 0.59036  0.02684  0.79512  Biso   1.000  Ne
  Ne31     1.0000 0.36082  0.00568  0.81048  Biso   1.000  Ne
  He31     1.0000 0.35001  0.02316  0.83558  Biso   1.000  He
  He32     1.0000 0.33249  0.00168  0.85357  Biso   1.000  He
  Ne32     1.0000 0.31960  0.01505  0.88221  Biso   1.000  Ne
  Ne33     1.0000 0.93812  0.87987  0.88236  Biso   1.000  Ne
  He33     1.0000 0.91912  0.89468  0.86114  Biso   1.000  He
  He34     1.0000 0.92521  0.87792  0.83499  Biso   1.000  He
  Ne34     1.0000 0.91157  0.88665  0.80592  Biso   1.000  Ne
  Ne35     1.0000 0.07594  0.46418  0.50654  Biso   1.000  Ne
  He35     1.0000 0.09109  0.47001  0.53619  Biso   1.000  He
  He36     1.0000 0.09774  0.44246  0.55276  Biso   1.000  He
  Ne36     1.0000 0.10545  0.44796  0.58664  Biso   1.000  Ne
  Ne37     1.0000 0.59235  0.88755  0.74585  Biso   1.000  Ne
  He37     1.0000 0.60168  0.86722  0.72299  Biso   1.000  He
  He38     1.0000 0.59938  0.88276  0.69478  Biso   1.000  He
  Ne38     1.0000 0.60547  0.85999  0.67056  Biso   1.000  Ne
  Ne39     1.0000 0.24747  0.15398  0.62236  Biso   1.000  Ne
  He39     1.0000 0.27628  0.13498  0.62160  Biso   1.000  He
  He40     1.0000 0.27507  0.10748  0.60450  Biso   1.000  He
  Ne40     1.0000 0.30059  0.08646  0.60636  Biso   1.000  Ne
  Ne41     1.0000 0.71675  0.52848  0.55905  Biso   1.000  Ne
  He41     1.0000 0.70841  0.55510  0.54242  Biso   1.000  He
  He42     1.0000 0.71833  0.58441  0.55251  Biso   1.000  He
  Ne42     1.0000 0.70823  0.61115  0.53129  Biso   1.000  Ne
  Ne43     1.0000 0.20424  0.56992  0.86931  Biso   1.000  Ne
  He43     1.0000 0.22910  0.58050  0.85079  Biso   1.000  He
  He44     1.0000 0.25942  0.56560  0.85785  Biso   1.000  He
  Ne44     1.0000 0.28446  0.57263  0.83419  Biso   1.000  Ne
  Ne45     1.0000 0.39309  0.57959  0.79080  Biso   1.000  Ne
  He45     1.0000 0.41454  0.55645  0.80110  Biso   1.000  He
  He46     1.0000 0.41608  0.55130  0.83475  Biso   1.000  He
  Ne46     1.0000 0.44222  0.56441  0.84839  Biso   1.000  Ne
  Ne47     1.0000 0.83340  0.99573  0.43428  Biso   1.000  Ne
  He47     1.0000 0.84506  0.00242  0.40269  Biso   1.000  He
  He48     1.0000 0.84409  0.97420  0.38482  Biso   1.000  He
  Ne48     1.0000 0.86138  0.98024  0.35767  Biso   1.000  Ne
  Ne49     1.0000 0.45070  0.07121  0.14966  Biso   1.000  Ne
  He49     1.0000 0.43075  0.07311  0.12165  Biso   1.000  He
  He50     1.0000 0.40942  0.09906  0.11983  Biso   1.000  He
  Ne50     1.0000 0.38312  0.09607  0.09412  Biso   1.000  Ne
  Ne51     1.0000 0.28459  0.18072  0.91862  Biso   1.000  Ne
  He51     1.0000 0.26139  0.16046  0.90386  Biso   1.000  He
  He52     1.0000 0.27130  0.15066  0.87198  Biso   1.000  He
  Ne52     1.0000 0.25042  0.13471  0.85593  Biso   1.000  Ne
  Ne53     1.0000 0.93546  0.23849  0.92753  Biso   1.000  Ne
  He53     1.0000 0.90059  0.23769  0.92486  Biso   1.000  He
  He54     1.0000 0.88544  0.23491  0.95359  Biso   1.000  He
  Ne54     1.0000 0.85382  0.24141  0.95172  Biso   1.000  Ne
  Ne55     1.0000 0.78046  0.36802  0.19317  Biso   1.000  Ne
  He55     1.0000 0.78891  0.37361  0.16237  Biso   1.000  He
  He56     1.0000 0.76677  0.39334  0.14481  Biso   1.000  He
  Ne56     1.0000 0.77498  0.38949  0.11073  Biso   1.000  Ne
  Ne57     1.0000 0.40749  0.78443  0.00641  Biso   1.000  Ne
  He57     1.0000 0.40825  0.81172  0.98915  Biso   1.000  He
  He58     1.0000 0.38017  0.81918  0.96990  Biso   1.000  He
  Ne58     1.0000 0.37900  0.84979  0.95859  Biso   1.000  Ne
  Ne59     1.0000 0.57457  0.30705  0.54527  Biso   1.000  Ne
  He59     1.0000 0.57902  0.27260  0.54950  Biso   1.000  He
  He60     1.0000 0.58006  0.26495  0.57996  Biso   1.000  He
  Ne60     1.0000 0.58460  0.23309  0.58198  Biso   1.000  Ne
  Ne61     1.0000 0.39826  0.08074  0.91800  Biso   1.000  Ne
  He61     1.0000 0.38009  0.08528  0.94447  Biso   1.000  He
  He62     1.0000 0.39871  0.08786  0.97249  Biso   1.000  He
  Ne62     1.0000 0.38089  0.09415  0.99917  Biso   1.000  Ne
  Ne63     1.0000 0.85866  0.32088  0.62197  Biso   1.000  Ne
  He63     1.0000 0.85774  0.35285  0.61106  Biso   1.000  He
  He64     1.0000 0.88839  0.36286  0.61339  Biso   1.000  He
  Ne64     1.0000 0.89392  0.39423  0.60801  Biso   1.000  Ne
  Ne65     1.0000 0.13998  0.91597  0.51147  Biso   1.000  Ne
  He65     1.0000 0.13442  0.93897  0.53442  Biso   1.000  He
  He66     1.0000 0.13187  0.92819  0.56617  Biso   1.000  He
  Ne66     1.0000 0.12346  0.95423  0.58416  Biso   1.000  Ne
  Ne67     1.0000 0.27089  0.92253  0.95807  Biso   1.000  Ne
  He67     1.0000 0.29905  0.93166  0.97665  Biso   1.000  He
  He68     1.0000 0.32063  0.90847  0.98392  Biso   1.000  He
  Ne68     1.0000 0.35062  0.91765  0.00029  Biso   1.000  Ne
  Ne69     1.0000 0.53447  0.96051  0.81505  Biso   1.000  Ne
  He69     1.0000 0.50665  0.97624  0.82082  Biso   1.000  He
  He70     1.0000 0.50554  0.00732  0.83122  Biso   1.000  He
  Ne70     1.0000 0.47409  0.02125  0.83170  Biso   1.000  Ne
  Ne71     1.0000 0.83653  0.08470  0.31353  Biso   1.000  Ne
  He71     1.0000 0.80840  0.08468  0.32775  Biso   1.000  He
  He72     1.0000 0.80745  0.06066  0.34797  Biso   1.000  He
  Ne72     1.0000 0.77796  0.05774  0.36416  Biso   1.000  Ne
  Ne73     1.0000 0.39053  0.15667  0.44264  Biso   1.000  Ne
  He73     1.0000 0.41622  0.17882  0.44792  Biso   1.000  He
  He74     1.0000 0.43561  0.18221  0.42277  Biso   1.000  He
  Ne74     1.0000 0.45869  0.20443  0.42629  Biso   1.000  Ne
  Ne75     1.0000 0.62338  0.08228  0.85926  Biso   1.000  Ne
  He75     1.0000 0.61457  0.11574  0.86008  Biso   1.000  He
  He76     1.0000 0.61953  0.13126  0.83248  Biso   1.000  He
  Ne76     1.0000 0.62006  0.16660  0.83929  Biso   1.000  Ne
  Ne77     1.0000 0.59335  0.25905  0.69770  Biso   1.000  Ne
  He77     1.0000 0.56778  0.28165  0.70268  Biso   1.000  He
  He78     1.0000 0.57540  0.30760  0.72727  Biso   1.000  He
  Ne78     1.0000 0.55289  0.33364  0.72608  Biso   1.000  Ne
  Ne79     1.0000 0.91702  0.58213  0.95553  Biso   1.000  Ne
  He79     1.0000 0.93405  0.57706  0.92855  Biso   1.000  He
  He80     1.0000 0.93563  0.54595  0.91434  Biso   1.000  He
  Ne80     1.0000 0.95759  0.54967  0.89111  Biso   1.000  Ne
  Ne81     1.0000 0.60370  0.55867  0.86338  Biso   1.000  Ne
  He81     1.0000 0.61183  0.56969  0.89411  Biso   1.000  He
  He82     1.0000 0.63131  0.55155  0.91523  Biso   1.000  He
  Ne82     1.0000 0.63578  0.56703  0.94292  Biso   1.000  Ne
  Ne83     1.0000 0.09249  0.87475  0.42103  Biso   1.000  Ne
  He83     1.0000 0.12487  0.88181  0.42377  Biso   1.000  He
  He84     1.0000 0.14316  0.87247  0.40075  Biso   1.000  He
  Ne84     1.0000 0.17126  0.85333  0.40837  Biso   1.000  Ne
  Ne85     1.0000 0.12958  0.16089  0.49040  Biso   1.000  Ne
  He85     1.0000 0.09882  0.18033  0.49311  Biso   1.000  He
  He86     1.0000 0.06942  0.16668  0.49623  Biso   1.000  He
  Ne86     1.0000 0.04619  0.18770  0.49828  Biso   1.000  Ne
  Ne87     1.0000 0.92661  0.09763  0.35184  Biso   1.000  Ne
  He87     1.0000 0.92427  0.08261  0.38267  Biso   1.000  He
  He88     1.0000 0.89621  0.08401  0.40196  Biso   1.000  He
  Ne88     1.0000 0.90279  0.07160  0.43111  Biso   1.000  Ne
  Ne89     1.0000 0.36547  0.38338  0.63629  Biso   1.000  Ne
  He89     1.0000 0.39502  0.38697  0.62189  Biso   1.000  He
  He90     1.0000 0.40096  0.41514  0.60772  Biso   1.000  He
  Ne90     1.0000 0.43285  0.41992  0.59755  Biso   1.000  Ne
  Ne91     1.0000 0.68400  0.27389  0.43833  Biso   1.000  Ne
  He91     1.0000 0.68170  0.30182  0.45623  Biso   1.000  He
  He92     1.0000 0.66986  0.29143  0.48681  Biso   1.000  He
  Ne92     1.0000 0.66378  0.31240  0.51180  Biso   1.000  Ne
  Ne93     1.0000 0.12367  0.05251  0.75970  Biso   1.000  Ne
  He93     1.0000 0.14893  0.05165  0.78159  Biso   1.000  He
  He94     1.0000 0.17525  0.06640  0.76765  Biso   1.000  He
  Ne94     1.0000 0.19696  0.04692  0.75094  Biso   1.000  Ne
  Ne95     1.0000 0.42756  0.24715  0.08863  Biso   1.000  Ne
  He95     1.0000 0.42433  0.21180  0.08572  Biso   1.000  He
  He96     1.0000 0.44877  0.19714  0.07050  Biso   1.000  He
  Ne96     1.0000 0.44585  0.16299  0.06721  Biso   1.000  Ne
  Ne97     1.0000 0.16834  0.33887  0.69566  Biso   1.000  Ne
  He97     1.0000 0.14425  0.34967  0.67314  Biso   1.000  He
  He98     1.0000 0.14482  0.33715  0.64519  Biso   1.000  He
  Ne98     1.0000 0.11647  0.34641  0.62576  Biso   1.000  Ne
  Ne99     1.0000 0.79405  0.29509  0.98492  Biso   1.000  Ne
  He99     1.0000 0.76888  0.27429  0.98077  Biso   1.000  He
  He100    1.0000 0.76770  0.26020  0.95163  Biso   1.000  He
  Ne100    1.0000 0.74285  0.24149  0.94865  Biso   1.000  Ne
  Ne101    1.0000 0.21707  0.52714  0.10802  Biso   1.000  Ne
  He101    1.0000 0.22603  0.51684  0.07914  Biso   1.000  He
  He102    1.0000 0.24398  0.49001  0.07590  Biso   1.000  He
  Ne102    1.0000 0.24966  0.47990  0.04407  Biso   1.000  Ne
  Ne103    1.0000 0.11519  0.64419  0.23246  Biso   1.000  Ne
  He103    1.0000 0.10508  0.64942  0.26451  Biso   1.000  He
  He104    1.0000 0.12821  0.66634  0.28169  Biso   1.000  He
  Ne104    1.0000 0.12596  0.66450  0.31546  Biso   1.000  Ne
  Ne105    1.0000 0.47601  0.10000  0.97507  Biso   1.000  Ne
  He105    1.0000 0.48516  0.09616  0.00811  Biso   1.000  He
  He106    1.0000 0.50838  0.07415  0.01504  Biso   1.000  He
  Ne106    1.0000 0.52070  0.07677  0.04669  Biso   1.000  Ne
  Ne107    1.0000 0.33587  0.90692  0.37093  Biso   1.000  Ne
  He107    1.0000 0.36105  0.89360  0.39137  Biso   1.000  He
  He108    1.0000 0.37795  0.86712  0.37914  Biso   1.000  He
  Ne108    1.0000 0.39626  0.84792  0.40163  Biso   1.000  Ne
  Ne109    1.0000 0.83843  0.45679  0.98726  Biso   1.000  Ne
  He109    1.0000 0.85439  0.44578  0.96219  Biso   1.000  He
  He110    1.0000 0.85282  0.41257  0.95514  Biso   1.000  He
  Ne110    1.0000 0.86649  0.40489  0.92803  Biso   1.000  Ne
  Ne111    1.0000 0.73044  0.45648  0.54376  Biso   1.000  Ne
  He111    1.0000 0.73765  0.45373  0.51224  Biso   1.000  He
  He112    1.0000 0.74425  0.48413  0.49710  Biso   1.000  He
  Ne112    1.0000 0.75305  0.48357  0.46634  Biso   1.000  Ne
  Ne113    1.0000 0.24615  0.64744  0.92118  Biso   1.000  Ne
  He113    1.0000 0.25425  0.66458  0.89714  Biso   1.000  He
  He114    1.0000 0.25022  0.65004  0.86528  Biso   1.000  He
  Ne114    1.0000 0.26115  0.66991  0.84308  Biso   1.000  Ne
  Ne115    1.0000 0.53931  0.63594  0.53624  Biso   1.000  Ne
  He115    1.0000 0.51673  0.61099  0.53512  Biso   1.000  He
  He116    1.0000 0.52740  0.58085  0.52717  Biso   1.000  He
  Ne116    1.0000 0.50499  0.55627  0.52506  Biso   1.000  Ne
  Ne117    1.0000 0.28362  0.75060  0.75109  Biso   1.000  Ne
  He117    1.0000 0.27178  0.74763  0.78180  Biso   1.000  He
  He118    1.0000 0.24463  0.76681  0.78890  Biso   1.000  He
  Ne118    1.0000 0.23906  0.76036  0.82300  Biso   1.000  Ne
  Ne119    1.0000 0.91912  0.78745  0.29091  Biso   1.000  Ne
  He119    1.0000 0.94669  0.77319  0.30337  Biso   1.000  He
  He120    1.0000 0.94339  0.75664  0.32994  Biso   1.000  He
  Ne120    1.0000 0.97273  0.74470  0.34240  Biso   1.000  Ne
  Ne121    1.0000 0.32510  0.83959  0.77687  Biso   1.000  Ne
  He121    1.0000 0.31416  0.84786  0.74889  Biso   1.000  He
  He122    1.0000 0.33498  0.86822  0.73130  Biso   1.000  He
  Ne122    1.0000 0.32496  0.87281  0.70038  Biso   1.000  Ne
  Ne123    1.0000 0.60266  0.03890  0.66544  Biso   1.000  Ne
  He123    1.0000 0.61930  0.06533  0.67556  Biso   1.000  He
  He124    1.0000 0.60845  0.08380  0.70002  Biso   1.000  He
  Ne124    1.0000 0.62247  0.11297  0.70251  Biso   1.000  Ne
  Ne125    1.0000 0.82076  0.58479  0.34003  Biso   1.000  Ne
  He125    1.0000 0.84758  0.56792  0.32675  Biso   1.000  He
  He126    1.0000 0.84018  0.55190  0.29841  Biso   1.000  He
  Ne126    1.0000 0.86798  0.54057  0.27989  Biso   1.000  Ne
  Ne127    1.0000 0.48293  0.43558  0.50947  Biso   1.000  Ne
  He127    1.0000 0.46581  0.45933  0.49299  Biso   1.000  He
  He128    1.0000 0.43267  0.45135  0.49296  Biso   1.000  He
  Ne128    1.0000 0.41047  0.46854  0.47685  Biso   1.000  Ne
  Ne129    1.0000 0.21379  0.31269  0.59394  Biso   1.000  Ne
  He129    1.0000 0.21349  0.28082  0.58544  Biso   1.000  He
  He130    1.0000 0.22928  0.25944  0.60615  Biso   1.000  He
  Ne130    1.0000 0.23196  0.22744  0.59235  Biso   1.000  Ne
  Ne131    1.0000 0.77741  0.37630  0.64575  Biso   1.000  Ne
  He131    1.0000 0.76848  0.35627  0.61868  Biso   1.000  He
  He132    1.0000 0.74043  0.36904  0.60382  Biso   1.000  He
  Ne132    1.0000 0.73034  0.35012  0.57681  Biso   1.000  Ne
  Ne133    1.0000 0.26866  0.08180  0.80328  Biso   1.000  Ne
  He133    1.0000 0.28073  0.10024  0.77880  Biso   1.000  He
  He134    1.0000 0.30703  0.11684  0.78809  Biso   1.000  He
  Ne134    1.0000 0.32225  0.13734  0.76720  Biso   1.000  Ne
  Ne135    1.0000 0.85392  0.23275  0.30010  Biso   1.000  Ne
  He135    1.0000 0.83124  0.25240  0.31645  Biso   1.000  He
  He136    1.0000 0.84461  0.27361  0.33780  Biso   1.000  He
  Ne136    1.0000 0.82245  0.29318  0.35278  Biso   1.000  Ne
  Ne137    1.0000 0.26400  0.71050  0.40479  Biso   1.000  Ne
  He137    1.0000 0.27780  0.70874  0.37558  Biso   1.000  He
  He138    1.0000 0.25971  0.71115  0.34641  Biso   1.000  He
  Ne138    1.0000 0.27755  0.70916  0.31606  Biso   1.000  Ne
  Ne139    1.0000 0.96237  0.57949  0.13927  Biso   1.000  Ne
  He139    1.0000 0.95754  0.60151  0.11332  Biso   1.000  He
  He140    1.0000 0.92839  0.59786  0.10009  Biso   1.000  He
  Ne140    1.0000 0.92579  0.62192  0.07601  Biso   1.000  Ne
  Ne141    1.0000 0.95392  0.24487  0.46402  Biso   1.000  Ne
  He141    1.0000 0.93179  0.27091  0.46237  Biso   1.000  He
  He142    1.0000 0.94887  0.30274  0.45500  Biso   1.000  He
  Ne142    1.0000 0.94472  0.31101  0.42144  Biso   1.000  Ne
  Ne143    1.0000 0.65695  0.41067  0.48614  Biso   1.000  Ne
  He143    1.0000 0.64781  0.38284  0.46774  Biso   1.000  He
  He144    1.0000 0.63751  0.38959  0.43785  Biso   1.000  He
  Ne144    1.0000 0.62063  0.36775  0.42238  Biso   1.000  Ne
  Ne145    1.0000 0.12772  0.23669  0.77401  Biso   1.000  Ne
  He145    1.0000 0.12160  0.23702  0.74251  Biso   1.000  He
  He146    1.0000 0.13534  0.26238  0.72933  Biso   1.000  He
  Ne146    1.0000 0.13080  0.26701  0.69791  Biso   1.000  Ne
  Ne147    1.0000 0.77248  0.28974  0.47849  Biso   1.000  Ne
  He147    1.0000 0.76178  0.32198  0.47420  Biso   1.000  He
  He148    1.0000 0.74445  0.33712  0.49967  Biso   1.000  He
  Ne148    1.0000 0.73177  0.36655  0.49160  Biso   1.000  Ne
  Ne149    1.0000 0.69253  0.32641  0.12743  Biso   1.000  Ne
  He149    1.0000 0.69238  0.35844  0.12045  Biso   1.000  He
  He150    1.0000 0.66245  0.36988  0.10994  Biso   1.000  He
  Ne150    1.0000 0.66094  0.40243  0.10193  Biso   1.000  Ne
  Ne151    1.0000 0.95759  0.87411  0.96210  Biso   1.000  Ne
  He151    1.0000 0.96125  0.90681  0.96280  Biso   1.000  He
  He152    1.0000 0.98387  0.91697  0.94065  Biso   1.000  He
  Ne152    1.0000 0.98489  0.95111  0.93794  Biso   1.000  Ne
  Ne153    1.0000 0.72589  0.85478  0.84584  Biso   1.000  Ne
  He153    1.0000 0.70001  0.83395  0.83997  Biso   1.000  He
  He154    1.0000 0.67514  0.83815  0.86392  Biso   1.000  He
  Ne154    1.0000 0.67833  0.81814  0.89243  Biso   1.000  Ne
  Ne155    1.0000 0.69933  0.36753  0.70962  Biso   1.000  Ne
  He155    1.0000 0.68274  0.35524  0.73586  Biso   1.000  He
  He156    1.0000 0.68795  0.32566  0.74140  Biso   1.000  He
  Ne156    1.0000 0.67589  0.31487  0.77069  Biso   1.000  Ne
  Ne157    1.0000 0.05220  0.09018  0.57414  Biso   1.000  Ne
  He157    1.0000 0.07411  0.10009  0.55008  Biso   1.000  He
  He158    1.0000 0.09004  0.07635  0.53722  Biso   1.000  He
  Ne158    1.0000 0.11751  0.08712  0.52348  Biso   1.000  Ne
  Ne159    1.0000 0.37544  0.07478  0.68095  Biso   1.000  Ne
  He159    1.0000 0.39739  0.07870  0.70740  Biso   1.000  He
  He160    1.0000 0.42009  0.05562  0.70806  Biso   1.000  He
  Ne160    1.0000 0.44123  0.05426  0.73560  Biso   1.000  Ne
  Ne161    1.0000 0.04493  0.98164  0.73437  Biso   1.000  Ne
  He161    1.0000 0.05091  0.96688  0.70682  Biso   1.000  He
  He162    1.0000 0.03244  0.97562  0.68200  Biso   1.000  He
  Ne162    1.0000 0.04005  0.95857  0.65504  Biso   1.000  Ne
  Ne163    1.0000 0.44800  0.26894  0.92459  Biso   1.000  Ne
  He163    1.0000 0.45229  0.25014  0.95243  Biso   1.000  He
  He164    1.0000 0.45666  0.21551  0.94899  Biso   1.000  He
  Ne164    1.0000 0.47643  0.20217  0.97511  Biso   1.000  Ne
  Ne165    1.0000 0.93158  0.30199  0.14199  Biso   1.000  Ne
  He165    1.0000 0.91544  0.29480  0.16811  Biso   1.000  He
  He166    1.0000 0.88592  0.30990  0.17014  Biso   1.000  He
  Ne166    1.0000 0.86681  0.29659  0.19400  Biso   1.000  Ne
  Ne167    1.0000 0.35519  0.21232  0.11825  Biso   1.000  Ne
  He167    1.0000 0.33343  0.23251  0.10603  Biso   1.000  He
  He168    1.0000 0.30494  0.21938  0.10373  Biso   1.000  He
  Ne168    1.0000 0.28072  0.23926  0.08845  Biso   1.000  Ne
  Ne169    1.0000 0.37770  0.02281  0.04704  Biso   1.000  Ne
  He169    1.0000 0.40321  0.00424  0.03822  Biso   1.000  He
  He170    1.0000 0.40976  0.00759  0.00534  Biso   1.000  He
  Ne170    1.0000 0.43429  0.98974  0.99037  Biso   1.000  Ne
  Ne171    1.0000 0.59219  0.41170  0.68867  Biso   1.000  Ne
  He171    1.0000 0.57054  0.40787  0.66017  Biso   1.000  He
  He172    1.0000 0.56612  0.43441  0.63815  Biso   1.000  He
  Ne172    1.0000 0.55000  0.42818  0.61050  Biso   1.000  Ne
  Ne173    1.0000 0.48285  0.47618  0.57487  Biso   1.000  Ne
  He173    1.0000 0.48566  0.49314  0.60278  Biso   1.000  He
  He174    1.0000 0.51595  0.49754  0.61564  Biso   1.000  He
  Ne174    1.0000 0.51814  0.51287  0.64441  Biso   1.000  Ne
  Ne175    1.0000 0.10114  0.03506  0.09192  Biso   1.000  Ne
  He175    1.0000 0.08658  0.06719  0.08754  Biso   1.000  He
  He176    1.0000 0.11012  0.09160  0.09026  Biso   1.000  He
  Ne176    1.0000 0.09383  0.11979  0.08850  Biso   1.000  Ne
  Ne177    1.0000 0.39325  0.14252  0.18613  Biso   1.000  Ne
  He177    1.0000 0.38049  0.14510  0.21593  Biso   1.000  He
  He178    1.0000 0.40169  0.15035  0.23865  Biso   1.000  He
  Ne178    1.0000 0.38851  0.15324  0.26764  Biso   1.000  Ne
  Ne179    1.0000 0.92457  0.93119  0.43501  Biso   1.000  Ne
  He179    1.0000 0.90762  0.90109  0.43817  Biso   1.000  He
  He180    1.0000 0.87537  0.90175  0.43132  Biso   1.000  He
  Ne180    1.0000 0.85974  0.87150  0.43548  Biso   1.000  Ne
  Ne181    1.0000 0.87044  0.09923  0.54915  Biso   1.000  Ne
  He181    1.0000 0.85096  0.10233  0.52321  Biso   1.000  He
  He182    1.0000 0.84375  0.13450  0.51441  Biso   1.000  He
  Ne182    1.0000 0.82572  0.13423  0.48603  Biso   1.000  Ne
  Ne183    1.0000 0.94031  0.79379  0.93494  Biso   1.000  Ne
  He183    1.0000 0.94044  0.76044  0.93679  Biso   1.000  He
  He184    1.0000 0.91566  0.75127  0.91739  Biso   1.000  He
  Ne184    1.0000 0.91522  0.71908  0.91119  Biso   1.000  Ne
  Ne185    1.0000 0.09294  0.42421  0.23845  Biso   1.000  Ne
  He185    1.0000 0.08358  0.45212  0.25159  Biso   1.000  He
  He186    1.0000 0.06264  0.46889  0.23416  Biso   1.000  He
  Ne186    1.0000 0.05828  0.50099  0.24745  Biso   1.000  Ne
  Ne187    1.0000 0.50749  0.91953  0.04537  Biso   1.000  Ne
  He187    1.0000 0.50373  0.94380  0.06945  Biso   1.000  He
  He188    1.0000 0.50667  0.97662  0.06052  Biso   1.000  He
  Ne188    1.0000 0.50638  0.99837  0.08608  Biso   1.000  Ne
  Ne189    1.0000 0.71602  0.39690  0.39640  Biso   1.000  Ne
  He189    1.0000 0.72650  0.37181  0.37602  Biso   1.000  He
  He190    1.0000 0.73312  0.34239  0.38986  Biso   1.000  He
  Ne190    1.0000 0.74523  0.32288  0.36650  Biso   1.000  Ne
  Ne191    1.0000 0.22109  0.60905  0.77737  Biso   1.000  Ne
  He191    1.0000 0.23592  0.60654  0.74789  Biso   1.000  He
  He192    1.0000 0.21772  0.60478  0.72021  Biso   1.000  He
  Ne192    1.0000 0.23666  0.59861  0.69495  Biso   1.000  Ne
  Ne193    1.0000 0.08881  0.92283  0.01530  Biso   1.000  Ne
  He193    1.0000 0.08822  0.94082  0.98623  Biso   1.000  He
  He194    1.0000 0.06610  0.93268  0.96285  Biso   1.000  He
  Ne194    1.0000 0.07262  0.94662  0.93305  Biso   1.000  Ne
  Ne195    1.0000 0.44758  0.90590  0.47348  Biso   1.000  Ne
  He195    1.0000 0.46528  0.90972  0.44609  Biso   1.000  He
  He196    1.0000 0.44960  0.92244  0.41920  Biso   1.000  He
  Ne196    1.0000 0.47244  0.93443  0.39489  Biso   1.000  Ne
  Ne197    1.0000 0.25840  0.88808  0.83447  Biso   1.000  Ne
  He197    1.0000 0.27492  0.91282  0.81837  Biso   1.000  He
  He198    1.0000 0.30718  0.90854  0.81407  Biso   1.000  He
  Ne198    1.0000 0.32068  0.92795  0.79276  Biso   1.000  Ne
  Ne199    1.0000 0.97300  0.58573  0.25528  Biso   1.000  Ne
  He199    1.0000 0.96332  0.56113  0.23732  Biso   1.000  He
  He200    1.0000 0.97719  0.53301  0.24696  Biso   1.000  He
  Ne200    1.0000 0.96687  0.50424  0.23439  Biso   1.000  Ne
  Ne201    1.0000 0.59456  0.81490  0.41750  Biso   1.000  Ne
  He201    1.0000 0.59392  0.78669  0.40623  Biso   1.000  He
  He202    1.0000 0.59653  0.78476  0.37512  Biso   1.000  He
  Ne202    1.0000 0.59628  0.75172  0.36424  Biso   1.000  Ne
  Ne203    1.0000 0.62268  0.20682  0.32243  Biso   1.000  Ne
  He203    1.0000 0.64344  0.22353  0.34347  Biso   1.000  He
  He204    1.0000 0.67627  0.21035  0.33850  Biso   1.000  He
  Ne204    1.0000 0.70397  0.22651  0.35137  Biso   1.000  Ne
  Ne205    1.0000 0.25287  0.87704  0.40285  Biso   1.000  Ne
  He205    1.0000 0.26016  0.84464  0.39934  Biso   1.000  He
  He206    1.0000 0.28003  0.83091  0.42232  Biso   1.000  He
  Ne206    1.0000 0.28796  0.79855  0.41714  Biso   1.000  Ne
  Ne207    1.0000 0.42398  0.42247  0.11102  Biso   1.000  Ne
  He207    1.0000 0.41276  0.39188  0.09962  Biso   1.000  He
  He208    1.0000 0.43785  0.36828  0.09286  Biso   1.000  He
  Ne208    1.0000 0.42463  0.33803  0.08631  Biso   1.000  Ne
  Ne209    1.0000 0.81270  0.99733  0.65923  Biso   1.000  Ne
  He209    1.0000 0.82105  0.96659  0.66435  Biso   1.000  He
  He210    1.0000 0.80919  0.95355  0.69360  Biso   1.000  He
  Ne210    1.0000 0.82161  0.92493  0.69990  Biso   1.000  Ne
  Ne211    1.0000 0.22232  0.07434  0.90521  Biso   1.000  Ne
  He211    1.0000 0.18942  0.07225  0.90546  Biso   1.000  He
  He212    1.0000 0.17639  0.05554  0.88129  Biso   1.000  He
  Ne212    1.0000 0.14288  0.05105  0.88442  Biso   1.000  Ne
  Ne213    1.0000 0.78793  0.58224  0.83033  Biso   1.000  Ne
  He213    1.0000 0.81822  0.58407  0.84630  Biso   1.000  He
  He214    1.0000 0.83630  0.55809  0.83726  Biso   1.000  He
  Ne214    1.0000 0.86541  0.55757  0.85236  Biso   1.000  Ne
  Ne215    1.0000 0.43255  0.76517  0.39918  Biso   1.000  Ne
  He215    1.0000 0.41147  0.74335  0.38838  Biso   1.000  He
  He216    1.0000 0.38163  0.75792  0.38099  Biso   1.000  He
  Ne216    1.0000 0.35874  0.73826  0.36821  Biso   1.000  Ne
  Ne217    1.0000 0.62282  0.06218  0.36625  Biso   1.000  Ne
  He217    1.0000 0.61857  0.07540  0.33626  Biso   1.000  He
  He218    1.0000 0.62000  0.05292  0.31355  Biso   1.000  He
  Ne218    1.0000 0.61723  0.06193  0.28182  Biso   1.000  Ne
  Ne219    1.0000 0.17112  0.28767  0.40952  Biso   1.000  Ne
  He219    1.0000 0.14751  0.26746  0.39584  Biso   1.000  He
  He220    1.0000 0.15695  0.25150  0.36655  Biso   1.000  He
  Ne220    1.0000 0.13798  0.22866  0.35642  Biso   1.000  Ne
  Ne221    1.0000 0.62844  0.22608  0.45404  Biso   1.000  Ne
  He221    1.0000 0.59690  0.23642  0.44656  Biso   1.000  He
  He222    1.0000 0.58498  0.25908  0.46857  Biso   1.000  He
  Ne222    1.0000 0.55439  0.27113  0.46076  Biso   1.000  Ne
  Ne223    1.0000 0.86836  0.66045  0.98830  Biso   1.000  Ne
  He223    1.0000 0.86755  0.65002  0.01795  Biso   1.000  He
  He224    1.0000 0.85669  0.61868  0.02250  Biso   1.000  He
  Ne224    1.0000 0.85495  0.61049  0.05606  Biso   1.000  Ne
  Ne225    1.0000 0.70982  0.27350  0.86932  Biso   1.000  Ne
  He225    1.0000 0.67831  0.28433  0.86039  Biso   1.000  He
  He226    1.0000 0.65377  0.26172  0.86333  Biso   1.000  He
  Ne226    1.0000 0.62525  0.27199  0.84711  Biso   1.000  Ne
  Ne227    1.0000 0.20314  0.18398  0.53146  Biso   1.000  Ne
  He227    1.0000 0.22170  0.15756  0.52087  Biso   1.000  He
  He228    1.0000 0.20658  0.13941  0.49825  Biso   1.000  He
  Ne228    1.0000 0.22358  0.11083  0.49093  Biso   1.000  Ne
  Ne229    1.0000 0.46352  0.36339  0.76323  Biso   1.000  Ne
  He229    1.0000 0.46537  0.33206  0.77236  Biso   1.000  He
  He230    1.0000 0.47140  0.31061  0.75000  Biso   1.000  He
  Ne230    1.0000 0.47975  0.27903  0.75922  Biso   1.000  Ne
  Ne231    1.0000 0.46978  0.53840  0.42008  Biso   1.000  Ne
  He231    1.0000 0.44877  0.53306  0.39293  Biso   1.000  He
  He232    1.0000 0.41689  0.54092  0.39876  Biso   1.000  He
  Ne232    1.0000 0.39753  0.53159  0.37242  Biso   1.000  Ne
  Ne233    1.0000 0.38046  0.38285  0.52219  Biso   1.000  Ne
  He233    1.0000 0.40052  0.36951  0.50193  Biso   1.000  He
  He234    1.0000 0.42406  0.34922  0.51620  Biso   1.000  He
  Ne234    1.0000 0.44659  0.33534  0.49708  Biso   1.000  Ne
  Ne235    1.0000 0.64646  0.19973  0.71423  Biso   1.000  Ne
  He235    1.0000 0.66797  0.19784  0.73955  Biso   1.000  He
  He236    1.0000 0.66415  0.21837  0.76634  Biso   1.000  He
  Ne236    1.0000 0.68877  0.21582  0.78917  Biso   1.000  Ne
  Ne237    1.0000 0.83890  0.71682  0.72172  Biso   1.000  Ne
  He237    1.0000 0.84183  0.74983  0.72047  Biso   1.000  He
  He238    1.0000 0.81826  0.76616  0.70461  Biso   1.000  He
  Ne238    1.0000 0.82443  0.80091  0.69832  Biso   1.000  Ne
  Ne239    1.0000 0.59991  0.95393  0.55203  Biso   1.000  Ne
  He239    1.0000 0.58726  0.92793  0.56654  Biso   1.000  He
  He240    1.0000 0.58723  0.89685  0.55266  Biso   1.000  He
  Ne240    1.0000 0.57266  0.87555  0.57245  Biso   1.000  Ne
  Ne241    1.0000 0.49228  0.58625  0.71635  Biso   1.000  Ne
  He241    1.0000 0.50345  0.61555  0.71502  Biso   1.000  He
  He242    1.0000 0.53737  0.61815  0.71762  Biso   1.000  He
  Ne242    1.0000 0.54609  0.65124  0.71809  Biso   1.000  Ne
  Ne243    1.0000 0.03636  0.83489  0.67519  Biso   1.000  Ne
  He243    1.0000 0.01751  0.83703  0.70427  Biso   1.000  He
  He244    1.0000 0.00879  0.86658  0.70702  Biso   1.000  He
  Ne244    1.0000 0.99157  0.87097  0.73247  Biso   1.000  Ne
  Ne245    1.0000 0.85811  0.71877  0.06122  Biso   1.000  Ne
  He245    1.0000 0.88513  0.72192  0.08384  Biso   1.000  He
  He246    1.0000 0.90130  0.69369  0.08850  Biso   1.000  He
  Ne246    1.0000 0.92228  0.69508  0.11394  Biso   1.000  Ne
  Ne247    1.0000 0.13554  0.40544  0.31499  Biso   1.000  Ne
  He247    1.0000 0.16334  0.41097  0.33587  Biso   1.000  He
  He248    1.0000 0.18038  0.38327  0.33946  Biso   1.000  He
  Ne248    1.0000 0.19858  0.38675  0.36673  Biso   1.000  Ne
  Ne249    1.0000 0.83051  0.75870  0.58378  Biso   1.000  Ne
  He249    1.0000 0.80074  0.75091  0.59366  Biso   1.000  He
  He250    1.0000 0.77856  0.77560  0.58850  Biso   1.000  He
  Ne250    1.0000 0.74708  0.76801  0.60080  Biso   1.000  Ne
  Ne251    1.0000 0.44577  0.89826  0.20151  Biso   1.000  Ne
  He251    1.0000 0.45351  0.86684  0.19863  Biso   1.000  He
  He252    1.0000 0.48546  0.86104  0.18867  Biso   1.000  He
  Ne252    1.0000 0.49679  0.82868  0.19494  Biso   1.000  Ne
  Ne253    1.0000 0.31185  0.32247  0.81664  Biso   1.000  Ne
  He253    1.0000 0.31036  0.29921  0.79174  Biso   1.000  He
  He254    1.0000 0.33546  0.27674  0.79264  Biso   1.000  He
  Ne254    1.0000 0.33304  0.25285  0.76917  Biso   1.000  Ne
  Ne255    1.0000 0.30723  0.18405  0.34480  Biso   1.000  Ne
  He255    1.0000 0.33124  0.20300  0.32986  Biso   1.000  He
  He256    1.0000 0.36420  0.20282  0.34369  Biso   1.000  He
  Ne256    1.0000 0.38848  0.21519  0.32313  Biso   1.000  Ne
  Ne257    1.0000 0.11805  0.96634  0.36825  Biso   1.000  Ne
  He257    1.0000 0.08491  0.95997  0.36821  Biso   1.000  He
  He258    1.0000 0.07465  0.92956  0.36599  Biso   1.000  He
  Ne258    1.0000 0.03950  0.92780  0.36965  Biso   1.000  Ne
  Ne259    1.0000 0.74920  0.87395  0.33890  Biso   1.000  Ne
  He259    1.0000 0.72407  0.89035  0.34872  Biso   1.000  He
  He260    1.0000 0.70712  0.87492  0.37363  Biso   1.000  He
  Ne260    1.0000 0.68523  0.89328  0.38464  Biso   1.000  Ne
  Ne261    1.0000 0.97504  0.32335  0.61050  Biso   1.000  Ne
  He261    1.0000 0.94889  0.30393  0.62236  Biso   1.000  He
  He262    1.0000 0.95598  0.29220  0.65515  Biso   1.000  He
  Ne262    1.0000 0.94323  0.26508  0.66421  Biso   1.000  Ne
  Ne263    1.0000 0.29275  0.08275  0.42400  Biso   1.000  Ne
  He263    1.0000 0.30167  0.11341  0.43571  Biso   1.000  He
  He264    1.0000 0.28102  0.13791  0.42530  Biso   1.000  He
  Ne264    1.0000 0.28436  0.16580  0.44066  Biso   1.000  Ne
  Ne265    1.0000 0.62780  0.11866  0.60986  Biso   1.000  Ne
  He265    1.0000 0.65768  0.12099  0.62555  Biso   1.000  He
  He266    1.0000 0.68357  0.11682  0.60790  Biso   1.000  He
  Ne266    1.0000 0.71244  0.11883  0.62704  Biso   1.000  Ne
  Ne267    1.0000 0.20191  0.44208  0.24488  Biso   1.000  Ne
  He267    1.0000 0.20657  0.44077  0.21366  Biso   1.000  He
  He268    1.0000 0.22309  0.46613  0.20198  Biso   1.000  He
  Ne268    1.0000 0.22551  0.46386  0.16746  Biso   1.000  Ne
  Ne269    1.0000 0.72790  0.36425  0.94208  Biso   1.000  Ne
  He269    1.0000 0.71210  0.33465  0.93317  Biso   1.000  He
  He270    1.0000 0.68693  0.33118  0.95306  Biso   1.000  He
  Ne270    1.0000 0.66670  0.30522  0.94722  Biso   1.000  Ne
  Ne271    1.0000 0.77611  0.83737  0.63694  Biso   1.000  Ne
  He271    1.0000 0.74764  0.85166  0.64922  Biso   1.000  He
  He272    1.0000 0.73630  0.88083  0.63229  Biso   1.000  He
  Ne272    1.0000 0.70589  0.89354  0.64262  Biso   1.000  Ne
  Ne273    1.0000 0.28845  0.29719  0.34176  Biso   1.000  Ne
  He273    1.0000 0.26361  0.29313  0.31722  Biso   1.000  He
  He274    1.0000 0.24731  0.26731  0.32082  Biso   1.000  He
  Ne274    1.0000 0.22379  0.26199  0.29779  Biso   1.000  Ne
  Ne275    1.0000 0.16421  0.17083  0.16934  Biso   1.000  Ne
  He275    1.0000 0.18388  0.17923  0.19301  Biso   1.000  He
  He276    1.0000 0.18962  0.21022  0.19691  Biso   1.000  He
  Ne276    1.0000 0.20748  0.21647  0.22584  Biso   1.000  Ne
  Ne277    1.0000 0.59683  0.35531  0.82993  Biso   1.000  Ne
  He277    1.0000 0.61528  0.36750  0.80531  Biso   1.000  He
  He278    1.0000 0.60630  0.39374  0.78640  Biso   1.000  He
  Ne278    1.0000 0.62639  0.40159  0.76151  Biso   1.000  Ne
  Ne279    1.0000 0.80360  0.88260  0.24676  Biso   1.000  Ne
  He279    1.0000 0.80476  0.87235  0.27741  Biso   1.000  He
  He280    1.0000 0.83304  0.86252  0.28666  Biso   1.000  He
  Ne280    1.0000 0.83399  0.86288  0.32033  Biso   1.000  Ne
  Ne281    1.0000 0.28001  0.80381  0.23974  Biso   1.000  Ne
  He281    1.0000 0.26885  0.80395  0.27104  Biso   1.000  He
  He282    1.0000 0.24401  0.78183  0.27550  Biso   1.000  He
  Ne282    1.0000 0.22765  0.78416  0.30387  Biso   1.000  Ne
  Ne283    1.0000 0.94818  0.07778  0.92031  Biso   1.000  Ne
  He283    1.0000 0.92933  0.10233  0.92456  Biso   1.000  He
  He284    1.0000 0.94443  0.12971  0.92848  Biso   1.000  He
  Ne284    1.0000 0.92532  0.15640  0.93441  Biso   1.000  Ne
  Ne285    1.0000 0.18110  0.39642  0.44227  Biso   1.000  Ne
  He285    1.0000 0.15482  0.41728  0.43845  Biso   1.000  He
  He286    1.0000 0.13135  0.40497  0.41606  Biso   1.000  He
  Ne286    1.0000 0.10280  0.42095  0.41400  Biso   1.000  Ne
  Ne287    1.0000 0.35963  0.41722  0.19081  Biso   1.000  Ne
  He287    1.0000 0.33001  0.40462  0.19148  Biso   1.000  He
  He288    1.0000 0.31017  0.41020  0.16584  Biso   1.000  He
  Ne288    1.0000 0.28297  0.39222  0.17053  Biso   1.000  Ne
  Ne289    1.0000 0.53405  0.41893  0.08487  Biso   1.000  Ne
  He289    1.0000 0.55551  0.41780  0.06159  Biso   1.000  He
  He290    1.0000 0.58762  0.41938  0.06837  Biso   1.000  He
  Ne290    1.0000 0.60528  0.42097  0.04004  Biso   1.000  Ne
  Ne291    1.0000 0.73588  0.29692  0.19224  Biso   1.000  Ne
  He291    1.0000 0.72950  0.30897  0.22128  Biso   1.000  He
  He292    1.0000 0.75432  0.30218  0.24287  Biso   1.000  He
  Ne292    1.0000 0.75062  0.31260  0.27561  Biso   1.000  Ne
  Ne293    1.0000 0.41987  0.84727  0.70593  Biso   1.000  Ne
  He293    1.0000 0.41182  0.85666  0.73500  Biso   1.000  He
  He294    1.0000 0.41791  0.88735  0.74078  Biso   1.000  He
  Ne294    1.0000 0.42252  0.89757  0.77142  Biso   1.000  Ne
  Ne295    1.0000 0.18741  0.72018  0.08396  Biso   1.000  Ne
  He295    1.0000 0.19382  0.71466  0.11595  Biso   1.000  He
  He296    1.0000 0.20094  0.74355  0.13434  Biso   1.000  He
  Ne296    1.0000 0.20244  0.74129  0.16668  Biso   1.000  Ne
  Ne297    1.0000 0.96309  0.45963  0.58246  Biso   1.000  Ne
  He297    1.0000 0.98612  0.43754  0.59101  Biso   1.000  He
  He298    1.0000 0.98396  0.41167  0.57025  Biso   1.000  He
  Ne298    1.0000 0.00612  0.39007  0.57458  Biso   1.000  Ne
  Ne299    1.0000 0.84075  0.50710  0.91288  Biso   1.000  Ne
  He299    1.0000 0.85473  0.52886  0.92885  Biso   1.000  He
  He300    1.0000 0.83751  0.55714  0.92820  Biso   1.000  He
  Ne300    1.0000 0.83512  0.57231  0.95953  Biso   1.000  Ne
  Ne301    1.0000 0.71915  0.74966  0.14234  Biso   1.000  Ne
  He301    1.0000 0.69590  0.77361  0.14591  Biso   1.000  He
  He302    1.0000 0.67186  0.77692  0.12121  Biso   1.000  He
  Ne302    1.0000 0.65103  0.80311  0.12624  Biso   1.000  Ne
  Ne303    1.0000 0.05773  0.37112  0.15060  Biso   1.000  Ne
  He303    1.0000 0.09367  0.37515  0.14925  Biso   1.000  He
  He304    1.0000 0.10768  0.35903  0.12505  Biso   1.000  He
  Ne304    1.0000 0.14143  0.36366  0.12369  Biso   1.000  Ne
  Ne305    1.0000 0.25374  0.35779  0.76081  Biso   1.000  Ne
  He305    1.0000 0.24567  0.38995  0.75140  Biso   1.000  He
  He306    1.0000 0.21212  0.39889  0.75276  Biso   1.000  He
  Ne306    1.0000 0.20257  0.42822  0.73994  Biso   1.000  Ne
  Ne307    1.0000 0.23038  0.87890  0.52979  Biso   1.000  Ne
  He307    1.0000 0.23506  0.90646  0.55178  Biso   1.000  He
  He308    1.0000 0.21537  0.90702  0.57651  Biso   1.000  He
  Ne308    1.0000 0.22276  0.92726  0.60083  Biso   1.000  Ne
  Ne309    1.0000 0.90624  0.13346  0.63897  Biso   1.000  Ne
  He309    1.0000 0.89556  0.16779  0.64072  Biso   1.000  He
  He310    1.0000 0.86900  0.17557  0.62035  Biso   1.000  He
  Ne310    1.0000 0.87204  0.18509  0.58866  Biso   1.000  Ne
  Ne311    1.0000 0.09811  0.40566  0.70993  Biso   1.000  Ne
  He311    1.0000 0.10841  0.39853  0.74184  Biso   1.000  He
  He312    1.0000 0.09696  0.37173  0.75243  Biso   1.000  He
  Ne312    1.0000 0.10168  0.36432  0.78457  Biso   1.000  Ne
  Ne313    1.0000 0.61082  0.90418  0.35932  Biso   1.000  Ne
  He313    1.0000 0.62368  0.89182  0.33055  Biso   1.000  He
  He314    1.0000 0.62183  0.85937  0.33094  Biso   1.000  He
  Ne314    1.0000 0.64308  0.84527  0.31064  Biso   1.000  Ne
  Ne315    1.0000 0.72672  0.71707  0.86027  Biso   1.000  Ne
  He315    1.0000 0.72135  0.69694  0.83617  Biso   1.000  He
  He316    1.0000 0.74756  0.68006  0.82672  Biso   1.000  He
  Ne316    1.0000 0.74224  0.65602  0.80755  Biso   1.000  Ne
  Ne317    1.0000 0.86566  0.21181  0.84486  Biso   1.000  Ne
  He317    1.0000 0.88274  0.20617  0.81820  Biso   1.000  He
  He318    1.0000 0.91552  0.20575  0.82273  Biso   1.000  He
  Ne318    1.0000 0.93193  0.20311  0.79522  Biso   1.000  Ne
  Ne319    1.0000 0.77499  0.87364  0.72874  Biso   1.000  Ne
  He319    1.0000 0.74168  0.87747  0.73066  Biso   1.000  He
  He320    1.0000 0.72564  0.84980  0.72992  Biso   1.000  He
  Ne320    1.0000 0.69301  0.85745  0.73382  Biso   1.000  Ne
  Ne321    1.0000 0.09526  0.56736  0.14928  Biso   1.000  Ne
  He321    1.0000 0.12811  0.57976  0.15496  Biso   1.000  He
  He322    1.0000 0.12754  0.61485  0.16121  Biso   1.000  He
  Ne322    1.0000 0.15867  0.62733  0.16267  Biso   1.000  Ne
  Ne323    1.0000 0.26107  0.76887  0.67100  Biso   1.000  Ne
  He323    1.0000 0.24927  0.79883  0.66670  Biso   1.000  He
  He324    1.0000 0.26176  0.81474  0.63976  Biso   1.000  He
  Ne324    1.0000 0.24893  0.84657  0.63604  Biso   1.000  Ne
  Ne325    1.0000 0.79307  0.37758  0.73711  Biso   1.000  Ne
  He325    1.0000 0.79053  0.34251  0.73784  Biso   1.000  He
  He326    1.0000 0.78183  0.33462  0.76983  Biso   1.000  He
  Ne326    1.0000 0.77078  0.30466  0.77543  Biso   1.000  Ne
  Ne327    1.0000 0.09935  0.85557  0.60771  Biso   1.000  Ne
  He327    1.0000 0.11838  0.83528  0.62494  Biso   1.000  He
  He328    1.0000 0.14649  0.83064  0.60955  Biso   1.000  He
  Ne328    1.0000 0.17007  0.81318  0.62508  Biso   1.000  Ne
  Ne329    1.0000 0.95854  0.21875  0.36251  Biso   1.000  Ne
  He329    1.0000 0.96428  0.20463  0.39040  Biso   1.000  He
  He330    1.0000 0.97244  0.17277  0.38616  Biso   1.000  He
  Ne330    1.0000 0.98071  0.15533  0.41641  Biso   1.000  Ne
  Ne331    1.0000 0.42917  0.27522  0.23606  Biso   1.000  Ne
  He331    1.0000 0.43010  0.24379  0.22869  Biso   1.000  He
  He332    1.0000 0.43570  0.24298  0.19694  Biso   1.000  He
  Ne332    1.0000 0.44036  0.21504  0.18504  Biso   1.000  Ne
  Ne333    1.0000 0.62907  0.74560  0.73521  Biso   1.000  Ne
  He333    1.0000 0.65730  0.76118  0.72724  Biso   1.000  He
  He334    1.0000 0.68540  0.74322  0.73027  Biso   1.000  He
  Ne334    1.0000 0.70471  0.75125  0.75613  Biso   1.000  Ne
  Ne335    1.0000 0.29625  0.04599  0.95288  Biso   1.000  Ne
  He335    1.0000 0.29974  0.05699  0.98344  Biso   1.000  He
  He336    1.0000 0.30000  0.03044  0.00591  Biso   1.000  He
  Ne336    1.0000 0.30548  0.04118  0.03628  Biso   1.000  Ne
  Ne337    1.0000 0.94758  0.03243  0.98698  Biso   1.000  Ne
  He337    1.0000 0.96693  0.05302  0.00623  Biso   1.000  He
  He338    1.0000 0.99760  0.04334  0.01115  Biso   1.000  He
  Ne338    1.0000 0.01339  0.06475  0.03218  Biso   1.000  Ne
  Ne339    1.0000 0.80328  0.89512  0.91594  Biso   1.000  Ne
  He339    1.0000 0.82599  0.87333  0.92170  Biso   1.000  He
  He340    1.0000 0.85750  0.88459  0.92414  Biso   1.000  He
  Ne340    1.0000 0.88014  0.86575  0.93912  Biso   1.000  Ne
  Ne341    1.0000 0.45237  0.90829  0.97015  Biso   1.000  Ne
  He341    1.0000 0.45663  0.88395  0.94879  Biso   1.000  He
  He342    1.0000 0.46981  0.89481  0.92139  Biso   1.000  He
  Ne342    1.0000 0.47611  0.86930  0.90064  Biso   1.000  Ne
  Ne343    1.0000 0.14847  0.14722  0.39367  Biso   1.000  Ne
  He343    1.0000 0.16152  0.17796  0.39949  Biso   1.000  He
  He344    1.0000 0.18485  0.17582  0.42529  Biso   1.000  He
  Ne344    1.0000 0.20370  0.20572  0.43467  Biso   1.000  Ne
  Ne345    1.0000 0.00680  0.93464  0.29923  Biso   1.000  Ne
  He345    1.0000 0.02828  0.96248  0.30020  Biso   1.000  He
  He346    1.0000 0.01009  0.99035  0.29850  Biso   1.000  He
  Ne346    1.0000 0.02413  0.01839  0.30187  Biso   1.000  Ne
  Ne347    1.0000 0.13829  0.16492  0.56809  Biso   1.000  Ne
  He347    1.0000 0.13431  0.19473  0.58003  Biso   1.000  He
  He348    1.0000 0.15022  0.20406  0.60779  Biso   1.000  He
  Ne348    1.0000 0.14608  0.23669  0.61496  Biso   1.000  Ne
  Ne349    1.0000 0.37858  0.31299  0.70404  Biso   1.000  Ne
  He349    1.0000 0.40155  0.30225  0.68433  Biso   1.000  He
  He350    1.0000 0.39314  0.29796  0.65130  Biso   1.000  He
  Ne350    1.0000 0.42199  0.29120  0.63426  Biso   1.000  Ne
  Ne351    1.0000 0.31111  0.20244  0.25015  Biso   1.000  Ne
  He351    1.0000 0.29231  0.22764  0.23842  Biso   1.000  He
  He352    1.0000 0.29135  0.23001  0.20689  Biso   1.000  He
  Ne352    1.0000 0.27539  0.25873  0.19794  Biso   1.000  Ne
  Ne353    1.0000 0.42047  0.28425  0.38415  Biso   1.000  Ne
  He353    1.0000 0.40002  0.28993  0.40992  Biso   1.000  He
  He354    1.0000 0.41023  0.27151  0.43650  Biso   1.000  He
  Ne354    1.0000 0.39303  0.27530  0.46679  Biso   1.000  Ne
  Ne355    1.0000 0.64372  0.56972  0.12434  Biso   1.000  Ne
  He355    1.0000 0.64910  0.57979  0.15854  Biso   1.000  He
  He356    1.0000 0.67713  0.56485  0.17242  Biso   1.000  He
  Ne356    1.0000 0.67891  0.57305  0.20391  Biso   1.000  Ne
  Ne357    1.0000 0.07573  0.86795  0.78305  Biso   1.000  Ne
  He357    1.0000 0.07748  0.89463  0.80478  Biso   1.000  He
  He358    1.0000 0.08811  0.88646  0.83633  Biso   1.000  He
  Ne358    1.0000 0.11841  0.89525  0.84194  Biso   1.000  Ne
  Ne359    1.0000 0.62308  0.31736  0.61433  Biso   1.000  Ne
  He359    1.0000 0.63640  0.34278  0.59861  Biso   1.000  He
  He360    1.0000 0.61613  0.36864  0.59307  Biso   1.000  He
  Ne360    1.0000 0.62726  0.39561  0.57471  Biso   1.000  Ne
  Ne361    1.0000 0.97115  0.07997  0.74984  Biso   1.000  Ne
  He361    1.0000 0.98341  0.09966  0.72692  Biso   1.000  He
  He362    1.0000 0.99103  0.08689  0.69646  Biso   1.000  He
  Ne362    1.0000 0.02178  0.07854  0.68906  Biso   1.000  Ne
  Ne363    1.0000 0.54042  0.05681  0.52348  Biso   1.000  Ne
  He363    1.0000 0.57041  0.04876  0.53814  Biso   1.000  He
  He364    1.0000 0.56802  0.02869  0.56629  Biso   1.000  He
  Ne364    1.0000 0.59786  0.02481  0.58619  Biso   1.000  Ne
  Ne365    1.0000 0.96698  0.71536  0.23107  Biso   1.000  Ne
  He365    1.0000 0.94840  0.73810  0.21502  Biso   1.000  He
  He366    1.0000 0.93398  0.72872  0.18561  Biso   1.000  He
  Ne366    1.0000 0.91968  0.75456  0.16798  Biso   1.000  Ne
  Ne367    1.0000 0.57687  0.36471  0.13500  Biso   1.000  Ne
  He367    1.0000 0.57873  0.33437  0.11819  Biso   1.000  He
  He368    1.0000 0.58518  0.30712  0.13759  Biso   1.000  He
  Ne368    1.0000 0.58642  0.27863  0.12120  Biso   1.000  Ne
  Ne369    1.0000 0.92872  0.56716  0.67413  Biso   1.000  Ne
  He369    1.0000 0.90937  0.54794  0.65313  Biso   1.000  He
  He370    1.0000 0.92577  0.54402  0.62210  Biso   1.000  He
  Ne370    1.0000 0.91258  0.52704  0.59662  Biso   1.000  Ne
  Ne371    1.0000 0.57056  0.65710  0.30441  Biso   1.000  Ne
  He371    1.0000 0.60143  0.65137  0.32003  Biso   1.000  He
  He372    1.0000 0.62603  0.67516  0.32390  Biso   1.000  He
  Ne372    1.0000 0.65155  0.66660  0.34263  Biso   1.000  Ne
  Ne373    1.0000 0.68855  0.09832  0.17063  Biso   1.000  Ne
  He373    1.0000 0.69878  0.08379  0.14147  Biso   1.000  He
  He374    1.0000 0.71476  0.05320  0.14136  Biso   1.000  He
  Ne374    1.0000 0.71915  0.03934  0.10850  Biso   1.000  Ne
  Ne375    1.0000 0.72579  0.69351  0.26899  Biso   1.000  Ne
  He375    1.0000 0.74276  0.69414  0.29775  Biso   1.000  He
  He376    1.0000 0.73472  0.67521  0.32479  Biso   1.000  He
  Ne376    1.0000 0.74940  0.64637  0.32414  Biso   1.000  Ne
  Ne377    1.0000 0.84091  0.55185  0.17400  Biso   1.000  Ne
  He377    1.0000 0.86217  0.52768  0.18634  Biso   1.000  He
  He378    1.0000 0.84928  0.50345  0.20306  Biso   1.000  He
  Ne378    1.0000 0.86875  0.47821  0.21415  Biso   1.000  Ne
  Ne379    1.0000 0.04119  0.81469  0.56570  Biso   1.000  Ne
  He379    1.0000 0.03856  0.84652  0.56239  Biso   1.000  He
  He380    1.0000 0.01021  0.85830  0.57533  Biso   1.000  He
  Ne380    1.0000 0.00505  0.89090  0.56829  Biso   1.000  Ne
  Ne381    1.0000 0.09213  0.62162  0.65072  Biso   1.000  Ne
  He381    1.0000 0.10469  0.61568  0.67965  Biso   1.000  He
  He382    1.0000 0.11844  0.58457  0.68248  Biso   1.000  He
  Ne382    1.0000 0.13429  0.57982  0.70874  Biso   1.000  Ne
  Ne383    1.0000 0.49229  0.36189  0.68608  Biso   1.000  Ne
  He383    1.0000 0.47094  0.38552  0.67975  Biso   1.000  He
  He384    1.0000 0.47728  0.41653  0.69077  Biso   1.000  He
  Ne384    1.0000 0.44819  0.43377  0.68800  Biso   1.000  Ne
  Ne385    1.0000 0.34070  0.43815  0.72148  Biso   1.000  Ne
  He385    1.0000 0.35636  0.42726  0.75067  Biso   1.000  He
  He386    1.0000 0.33619  0.42468  0.77759  Biso   1.000  He
  Ne386    1.0000 0.34883  0.41143  0.80555  Biso   1.000  Ne
  Ne387    1.0000 0.39626  0.18124  0.79148  Biso   1.000  Ne
  He387    1.0000 0.42027  0.15618  0.79049  Biso   1.000  He
  He388    1.0000 0.41432  0.13207  0.81579  Biso   1.000  He
  Ne388    1.0000 0.44009  0.10930  0.82159  Biso   1.000  Ne
  Ne389    1.0000 0.82410  0.05962  0.59803  Biso   1.000  Ne
  He389    1.0000 0.81623  0.08813  0.61660  Biso   1.000  He
  He390    1.0000 0.81395  0.11661  0.60237  Biso   1.000  He
  Ne390    1.0000 0.80292  0.13705  0.62466  Biso   1.000  Ne
  Ne391    1.0000 0.19434  0.70330  0.98466  Biso   1.000  Ne
  He391    1.0000 0.17077  0.67938  0.98308  Biso   1.000  He
  He392    1.0000 0.18213  0.64933  0.97330  Biso   1.000  He
  Ne392    1.0000 0.16336  0.62213  0.97619  Biso   1.000  Ne
  Ne393    1.0000 0.70599  0.04915  0.44026  Biso   1.000  Ne
  He393    1.0000 0.73260  0.06229  0.45213  Biso   1.000  He
  He394    1.0000 0.75775  0.04205  0.45396  Biso   1.000  He
  Ne394    1.0000 0.78253  0.05683  0.46757  Biso   1.000  Ne
  Ne395    1.0000 0.17610  0.43090  0.08766  Biso   1.000  Ne
  He395    1.0000 0.19060  0.40920  0.06611  Biso   1.000  He
  He396    1.0000 0.20499  0.38127  0.07762  Biso   1.000  He
  Ne396    1.0000 0.21656  0.36214  0.05094  Biso   1.000  Ne
  Ne397    1.0000 0.80688  0.24075  0.21524  Biso   1.000  Ne
  He397    1.0000 0.79941  0.22630  0.18776  Biso   1.000  He
  He398    1.0000 0.76648  0.22311  0.17869  Biso   1.000  He
  Ne398    1.0000 0.76048  0.21058  0.15075  Biso   1.000  Ne
  Ne399    1.0000 0.26965  0.37468  0.66965  Biso   1.000  Ne
  He399    1.0000 0.23631  0.38264  0.67035  Biso   1.000  He
  He400    1.0000 0.22916  0.41331  0.65751  Biso   1.000  He
  Ne400    1.0000 0.19682  0.41410  0.64806  Biso   1.000  Ne
  Ne401    1.0000 0.32068  0.85793  0.90243  Biso   1.000  Ne
  He401    1.0000 0.31146  0.82820  0.91142  Biso   1.000  He
  He402    1.0000 0.28080  0.81910  0.90244  Biso   1.000  He
  Ne402    1.0000 0.27362  0.78764  0.90960  Biso   1.000  Ne
  Ne403    1.0000 0.72005  0.98614  0.19189  Biso   1.000  Ne
  He403    1.0000 0.69698  0.00428  0.20736  Biso   1.000  He
  He404    1.0000 0.70498  0.01247  0.24142  Biso   1.000  He
  Ne404    1.0000 0.68384  0.02912  0.25829  Biso   1.000  Ne
  Ne405    1.0000 0.24463  0.75040  0.59110  Biso   1.000  Ne
  He405    1.0000 0.22719  0.76428  0.56589  Biso   1.000  He
  He406    1.0000 0.21898  0.79712  0.56941  Biso   1.000  He
  Ne406    1.0000 0.19866  0.80901  0.54629  Biso   1.000  Ne
  Ne407    1.0000 0.92487  0.04861  0.81735  Biso   1.000  Ne
  He407    1.0000 0.90242  0.06966  0.80640  Biso   1.000  He
  He408    1.0000 0.90221  0.09593  0.82648  Biso   1.000  He
  Ne408    1.0000 0.88281  0.12039  0.81455  Biso   1.000  Ne
  Ne409    1.0000 0.58241  0.48872  0.93035  Biso   1.000  Ne
  He409    1.0000 0.55402  0.49744  0.94681  Biso   1.000  He
  He410    1.0000 0.52748  0.47837  0.93734  Biso   1.000  He
  Ne410    1.0000 0.49894  0.48938  0.94982  Biso   1.000  Ne
  Ne411    1.0000 0.92328  0.31062  0.31401  Biso   1.000  Ne
  He411    1.0000 0.93225  0.33789  0.33453  Biso   1.000  He
  He412    1.0000 0.95615  0.35831  0.32176  Biso   1.000  He
  Ne412    1.0000 0.96569  0.38201  0.34287  Biso   1.000  Ne
  Ne413    1.0000 0.84134  0.65165  0.88964  Biso   1.000  Ne
  He413    1.0000 0.80918  0.64411  0.89032  Biso   1.000  He
  He414    1.0000 0.78919  0.66782  0.90142  Biso   1.000  He
  Ne414    1.0000 0.75673  0.65668  0.90595  Biso   1.000  Ne
  Ne415    1.0000 0.48989  0.31711  0.61721  Biso   1.000  Ne
  He415    1.0000 0.48684  0.34421  0.59769  Biso   1.000  He
  He416    1.0000 0.51533  0.35686  0.58397  Biso   1.000  He
  Ne416    1.0000 0.50767  0.38564  0.56593  Biso   1.000  Ne
  Ne417    1.0000 0.86118  0.03918  0.20758  Biso   1.000  Ne
  He417    1.0000 0.88214  0.04521  0.18692  Biso   1.000  He
  He418    1.0000 0.91579  0.04607  0.19781  Biso   1.000  He
  Ne418    1.0000 0.93770  0.04810  0.17403  Biso   1.000  Ne
  Ne419    1.0000 0.84721  0.29619  0.83145  Biso   1.000  Ne
  He419    1.0000 0.84022  0.32360  0.85080  Biso   1.000  He
  He420    1.0000 0.83181  0.31733  0.88184  Biso   1.000  He
  Ne420    1.0000 0.85476  0.32183  0.90512  Biso   1.000  Ne
  Ne421    1.0000 0.46675  0.08799  0.45305  Biso   1.000  Ne
  He421    1.0000 0.47826  0.05623  0.45404  Biso   1.000  He
  He422    1.0000 0.45131  0.03591  0.45537  Biso   1.000  He
  Ne422    1.0000 0.45802  0.00098  0.45970  Biso   1.000  Ne
  Ne423    1.0000 0.87239  0.05675  0.96193  Biso   1.000  Ne
  He423    1.0000 0.84912  0.05387  0.93952  Biso   1.000  He
  He424    1.0000 0.85520  0.05297  0.90801  Biso   1.000  He
  Ne424    1.0000 0.83009  0.06189  0.88578  Biso   1.000  Ne
  Ne425    1.0000 0.92314  0.32895  0.95443  Biso   1.000  Ne
  He425    1.0000 0.94372  0.34562  0.93318  Biso   1.000  He
  He426    1.0000 0.96671  0.32780  0.91828  Biso   1.000  He
  Ne426    1.0000 0.98580  0.34779  0.89866  Biso   1.000  Ne
  Ne427    1.0000 0.35597  0.22739  0.59527  Biso   1.000  Ne
  He427    1.0000 0.37452  0.19946  0.60250  Biso   1.000  He
  He428    1.0000 0.35546  0.17154  0.61086  Biso   1.000  He
  Ne428    1.0000 0.37122  0.14312  0.61734  Biso   1.000  Ne
  Ne429    1.0000 0.58784  0.51139  0.39522  Biso   1.000  Ne
  He429    1.0000 0.57273  0.53183  0.41881  Biso   1.000  He
  He430    1.0000 0.59048  0.54386  0.44276  Biso   1.000  He
  Ne430    1.0000 0.57462  0.57080  0.45778  Biso   1.000  Ne
  Ne431    1.0000 0.80790  0.72294  0.13386  Biso   1.000  Ne
  He431    1.0000 0.79425  0.71084  0.10764  Biso   1.000  He
  He432    1.0000 0.80373  0.67981  0.10402  Biso   1.000  He
  Ne432    1.0000 0.78372  0.66290  0.08255  Biso   1.000  Ne
  Ne433    1.0000 0.12086  0.27320  0.21150  Biso   1.000  Ne
  He433    1.0000 0.10640  0.29452  0.23066  Biso   1.000  He
  He434    1.0000 0.07549  0.29540  0.22517  Biso   1.000  He
  Ne434    1.0000 0.06014  0.32409  0.23482  Biso   1.000  Ne
  Ne435    1.0000 0.35380  0.67873  0.77209  Biso   1.000  Ne
  He435    1.0000 0.34105  0.67003  0.74078  Biso   1.000  He
  He436    1.0000 0.30710  0.66152  0.73948  Biso   1.000  He
  Ne436    1.0000 0.29270  0.65520  0.70936  Biso   1.000  Ne
  Ne437    1.0000 0.89827  0.44591  0.83235  Biso   1.000  Ne
  He437    1.0000 0.87184  0.42407  0.83128  Biso   1.000  He
  He438    1.0000 0.84077  0.43958  0.84062  Biso   1.000  He
  Ne438    1.0000 0.81659  0.42093  0.84725  Biso   1.000  Ne
  Ne439    1.0000 0.10781  0.80157  0.28854  Biso   1.000  Ne
  He439    1.0000 0.13195  0.79121  0.27307  Biso   1.000  He
  He440    1.0000 0.12681  0.75982  0.26214  Biso   1.000  He
  Ne440    1.0000 0.15357  0.74720  0.24395  Biso   1.000  Ne
  Ne441    1.0000 0.01241  0.66392  0.17509  Biso   1.000  Ne
  He441    1.0000 0.03669  0.64684  0.18794  Biso   1.000  He
  He442    1.0000 0.02532  0.62633  0.21028  Biso   1.000  He
  Ne442    1.0000 0.04933  0.60646  0.22399  Biso   1.000  Ne
  Ne443    1.0000 0.25059  0.87321  0.70648  Biso   1.000  Ne
  He443    1.0000 0.23796  0.88363  0.73536  Biso   1.000  He
  He444    1.0000 0.21145  0.86309  0.74327  Biso   1.000  He
  Ne444    1.0000 0.19225  0.87796  0.76339  Biso   1.000  Ne
  Ne445    1.0000 0.81743  0.25893  0.63805  Biso   1.000  Ne
  He445    1.0000 0.81859  0.25318  0.67005  Biso   1.000  He
  He446    1.0000 0.83463  0.22682  0.68120  Biso   1.000  He
  Ne446    1.0000 0.83891  0.21812  0.71391  Biso   1.000  Ne
  Ne447    1.0000 0.60231  0.39237  0.90437  Biso   1.000  Ne
  He447    1.0000 0.58341  0.39326  0.93188  Biso   1.000  He
  He448    1.0000 0.58835  0.36600  0.95097  Biso   1.000  He
  Ne448    1.0000 0.57272  0.36801  0.97874  Biso   1.000  Ne
  Ne449    1.0000 0.09064  0.71601  0.85786  Biso   1.000  Ne
  He449    1.0000 0.09690  0.71263  0.82436  Biso   1.000  He
  He450    1.0000 0.10619  0.74057  0.80878  Biso   1.000  He
  Ne450    1.0000 0.10841  0.73727  0.77523  Biso   1.000  Ne
  Ne451    1.0000 0.91610  0.62491  0.32495  Biso   1.000  Ne
  He451    1.0000 0.88770  0.63523  0.30976  Biso   1.000  He
  He452    1.0000 0.86645  0.65515  0.32705  Biso   1.000  He
  Ne452    1.0000 0.83725  0.66409  0.31106  Biso   1.000  Ne
  Ne453    1.0000 0.61442  0.57592  0.34194  Biso   1.000  Ne
  He453    1.0000 0.64383  0.57914  0.33103  Biso   1.000  He
  He454    1.0000 0.64800  0.55987  0.30528  Biso   1.000  He
  Ne454    1.0000 0.67670  0.56170  0.29609  Biso   1.000  Ne
  Ne455    1.0000 0.21358  0.41497  0.91065  Biso   1.000  Ne
  He455    1.0000 0.23847  0.39967  0.89435  Biso   1.000  He
  He456    1.0000 0.22988  0.37207  0.87740  Biso   1.000  He
  Ne456    1.0000 0.25434  0.36179  0.85638  Biso   1.000  Ne
  Ne457    1.0000 0.17783  0.84675  0.86444  Biso   1.000  Ne
  He457    1.0000 0.19221  0.87116  0.88256  Biso   1.000  He
  He458    1.0000 0.19038  0.86861  0.91466  Biso   1.000  He
  Ne458    1.0000 0.20740  0.89141  0.92818  Biso   1.000  Ne
  Ne459    1.0000 0.86055  0.76287  0.35830  Biso   1.000  Ne
  He459    1.0000 0.88517  0.77641  0.37765  Biso   1.000  He
  He460    1.0000 0.88932  0.81009  0.37565  Biso   1.000  He
  Ne460    1.0000 0.90683  0.81849  0.40246  Biso   1.000  Ne
  Ne461    1.0000 0.79035  0.12709  0.40269  Biso   1.000  Ne
  He461    1.0000 0.82273  0.13536  0.40396  Biso   1.000  He
  He462    1.0000 0.83717  0.15276  0.37849  Biso   1.000  He
  Ne462    1.0000 0.86980  0.15479  0.38203  Biso   1.000  Ne
  Ne463    1.0000 0.19038  0.22776  0.86429  Biso   1.000  Ne
  He463    1.0000 0.19033  0.25741  0.87060  Biso   1.000  He
  He464    1.0000 0.18824  0.26455  0.90191  Biso   1.000  He
  Ne464    1.0000 0.19072  0.29686  0.90715  Biso   1.000  Ne
  Ne465    1.0000 0.05579  0.54722  0.87452  Biso   1.000  Ne
  He465    1.0000 0.07662  0.52533  0.85981  Biso   1.000  He
  He466    1.0000 0.06213  0.51621  0.83233  Biso   1.000  He
  Ne466    1.0000 0.07881  0.49447  0.81403  Biso   1.000  Ne
  Ne467    1.0000 0.52668  0.96807  0.22370  Biso   1.000  Ne
  He467    1.0000 0.51463  0.94917  0.19885  Biso   1.000  He
  He468    1.0000 0.52902  0.94985  0.16906  Biso   1.000  He
  Ne468    1.0000 0.51081  0.93783  0.14385  Biso   1.000  Ne
  Ne469    1.0000 0.93927  0.15661  0.54363  Biso   1.000  Ne
  He469    1.0000 0.91815  0.17791  0.52563  Biso   1.000  He
  He470    1.0000 0.91149  0.16682  0.49696  Biso   1.000  He
  Ne470    1.0000 0.89870  0.19171  0.47585  Biso   1.000  Ne
  Ne471    1.0000 0.00995  0.45442  0.17122  Biso   1.000  Ne
  He471    1.0000 0.02624  0.48141  0.16768  Biso   1.000  He
  He472    1.0000 0.00938  0.50634  0.15566  Biso   1.000  He
  Ne472    1.0000 0.02492  0.53540  0.15805  Biso   1.000  Ne
  Ne473    1.0000 0.85260  0.62926  0.44218  Biso   1.000  Ne
  He473    1.0000 0.85536  0.65712  0.42620  Biso   1.000  He
  He474    1.0000 0.83158  0.66820  0.40286  Biso   1.000  He
  Ne474    1.0000 0.81116  0.69284  0.41458  Biso   1.000  Ne
  Ne475    1.0000 0.16347  0.34028  0.27057  Biso   1.000  Ne
  He475    1.0000 0.19539  0.33919  0.26020  Biso   1.000  He
  He476    1.0000 0.20887  0.36892  0.25218  Biso   1.000  He
  Ne476    1.0000 0.24061  0.36462  0.24886  Biso   1.000  Ne
  Ne477    1.0000 0.68924  0.37727  0.85735  Biso   1.000  Ne
  He477    1.0000 0.71082  0.36979  0.83324  Biso   1.000  He
  He478    1.0000 0.74234  0.37768  0.84453  Biso   1.000  He
  Ne478    1.0000 0.75996  0.35441  0.86069  Biso   1.000  Ne
  Ne479    1.0000 0.30112  0.88767  0.18321  Biso   1.000  Ne
  He479    1.0000 0.33149  0.88489  0.17342  Biso   1.000  He
  He480    1.0000 0.33983  0.85510  0.16307  Biso   1.000  He
  Ne480    1.0000 0.37335  0.85388  0.16082  Biso   1.000  Ne
  Ne481    1.0000 0.43563  0.22085  0.71247  Biso   1.000  Ne
  He481    1.0000 0.46624  0.22535  0.70238  Biso   1.000  He
  He482    1.0000 0.47096  0.24706  0.67605  Biso   1.000  He
  Ne482    1.0000 0.50292  0.25312  0.66557  Biso   1.000  Ne
  Ne483    1.0000 0.96346  0.17874  0.70024  Biso   1.000  Ne
  He483    1.0000 0.98401  0.17381  0.67546  Biso   1.000  He
  He484    1.0000 0.97227  0.18643  0.64647  Biso   1.000  He
  Ne484    1.0000 0.99323  0.18405  0.61907  Biso   1.000  Ne
  Ne485    1.0000 0.71849  0.62398  0.61854  Biso   1.000  Ne
  He485    1.0000 0.71420  0.62681  0.65258  Biso   1.000  He
  He486    1.0000 0.69543  0.65333  0.66147  Biso   1.000  He
  Ne486    1.0000 0.68768  0.65460  0.69383  Biso   1.000  Ne
  Ne487    1.0000 0.30495  0.38933  0.08152  Biso   1.000  Ne
  He487    1.0000 0.31648  0.35721  0.07890  Biso   1.000  He
  He488    1.0000 0.30396  0.33817  0.10111  Biso   1.000  He
  Ne488    1.0000 0.31484  0.30448  0.09874  Biso   1.000  Ne
  Ne489    1.0000 0.19548  0.55971  0.42735  Biso   1.000  Ne
  He489    1.0000 0.18847  0.59121  0.42231  Biso   1.000  He
  He490    1.0000 0.21150  0.60599  0.40734  Biso   1.000  He
  Ne490    1.0000 0.20712  0.64123  0.39853  Biso   1.000  Ne
  Ne491    1.0000 0.79872  0.80118  0.91299  Biso   1.000  Ne
  He491    1.0000 0.80323  0.77025  0.90019  Biso   1.000  He
  He492    1.0000 0.80707  0.77243  0.86732  Biso   1.000  He
  Ne492    1.0000 0.81589  0.74326  0.85305  Biso   1.000  Ne
  Ne493    1.0000 0.09665  0.92048  0.29002  Biso   1.000  Ne
  He493    1.0000 0.12077  0.89547  0.28873  Biso   1.000  He
  He494    1.0000 0.14437  0.89915  0.31280  Biso   1.000  He
  Ne494    1.0000 0.16914  0.87328  0.31924  Biso   1.000  Ne
  Ne495    1.0000 0.79396  0.82997  0.40863  Biso   1.000  Ne
  He495    1.0000 0.77776  0.80344  0.39971  Biso   1.000  He
  He496    1.0000 0.78696  0.78536  0.37439  Biso   1.000  He
  Ne496    1.0000 0.76893  0.75745  0.36865  Biso   1.000  Ne
  Ne497    1.0000 0.65174  0.14710  0.27111  Biso   1.000  Ne
  He497    1.0000 0.68382  0.15742  0.26493  Biso   1.000  He
  He498    1.0000 0.68649  0.19191  0.26016  Biso   1.000  He
  Ne498    1.0000 0.71257  0.20449  0.24476  Biso   1.000  Ne
  Ne499    1.0000 0.30069  0.55169  0.54252  Biso   1.000  Ne
  He499    1.0000 0.27700  0.55808  0.56526  Biso   1.000  He
  He500    1.0000 0.28690  0.55774  0.59718  Biso   1.000  He
  Ne500    1.0000 0.26604  0.56828  0.62073  Biso   1.000  Ne
  Ne501    1.0000 0.48698  0.95800  0.56835  Biso   1.000  Ne
  He501    1.0000 0.47846  0.98223  0.54639  Biso   1.000  He
  He502    1.0000 0.47385  0.01258  0.56180  Biso   1.000  He
  Ne502    1.0000 0.45793  0.03490  0.54321  Biso   1.000  Ne
  Ne503    1.0000 0.25790  0.59751  0.23787  Biso   1.000  Ne
  He503    1.0000 0.27815  0.58798  0.21324  Biso   1.000  He
  He504    1.0000 0.31025  0.58360  0.22379  Biso   1.000  He
  Ne504    1.0000 0.33130  0.57893  0.20248  Biso   1.000  Ne
  Ne505    1.0000 0.43665  0.89956  0.33650  Biso   1.000  Ne
  He505    1.0000 0.43188  0.87190  0.32135  Biso   1.000  He
  He506    1.0000 0.45360  0.86365  0.29840  Biso   1.000  He
  Ne506    1.0000 0.44609  0.83655  0.28154  Biso   1.000  Ne
  Ne507    1.0000 0.67274  0.14535  0.44474  Biso   1.000  Ne
  He507    1.0000 0.64137  0.14361  0.43597  Biso   1.000  He
  He508    1.0000 0.64147  0.13938  0.40355  Biso   1.000  He
  Ne508    1.0000 0.61191  0.14020  0.38912  Biso   1.000  Ne
  Ne509    1.0000 0.00751  0.02697  0.39512  Biso   1.000  Ne
  He509    1.0000 0.00129  0.99517  0.38573  Biso   1.000  He
  He510    1.0000 0.97108  0.99109  0.37005  Biso   1.000  He
  Ne510    1.0000 0.96279  0.96021  0.36242  Biso   1.000  Ne
  Ne511    1.0000 0.07623  0.69243  0.01558  Biso   1.000  Ne
  He511    1.0000 0.06812  0.66105  0.00470  Biso   1.000  He
  He512    1.0000 0.08535  0.65106  0.98109  Biso   1.000  He
  Ne512    1.0000 0.07327  0.62366  0.96093  Biso   1.000  Ne
  Ne513    1.0000 0.52591  0.81214  0.98020  Biso   1.000  Ne
  He513    1.0000 0.55066  0.78676  0.98118  Biso   1.000  He
  He514    1.0000 0.57099  0.78628  0.00971  Biso   1.000  He
  Ne514    1.0000 0.58757  0.75644  0.01111  Biso   1.000  Ne
  Ne515    1.0000 0.57801  0.75038  0.10196  Biso   1.000  Ne
  He515    1.0000 0.60161  0.72801  0.09580  Biso   1.000  He
  He516    1.0000 0.59352  0.69689  0.09979  Biso   1.000  He
  Ne516    1.0000 0.61659  0.67602  0.08779  Biso   1.000  Ne
  Ne517    1.0000 0.29026  0.59478  0.09737  Biso   1.000  Ne
  He517    1.0000 0.26507  0.61358  0.10860  Biso   1.000  He
  He518    1.0000 0.23567  0.61337  0.09328  Biso   1.000  He
  Ne518    1.0000 0.21464  0.63824  0.10429  Biso   1.000  Ne
  Ne519    1.0000 0.20375  0.78078  0.40295  Biso   1.000  Ne
  He519    1.0000 0.18839  0.77665  0.37802  Biso   1.000  He
  He520    1.0000 0.18778  0.74339  0.36841  Biso   1.000  He
  Ne520    1.0000 0.16535  0.73903  0.34356  Biso   1.000  Ne
  Ne521    1.0000 0.67270  0.81938  0.42269  Biso   1.000  Ne
  He521    1.0000 0.69173  0.79512  0.43649  Biso   1.000  He
  He522    1.0000 0.69122  0.76724  0.41717  Biso   1.000  He
  Ne522    1.0000 0.71028  0.74004  0.42739  Biso   1.000  Ne
  Ne523    1.0000 0.52106  0.96610  0.90472  Biso   1.000  Ne
  He523    1.0000 0.53286  0.94946  0.93187  Biso   1.000  He
  He524    1.0000 0.51907  0.95984  0.95955  Biso   1.000  He
  Ne524    1.0000 0.52955  0.94320  0.98517  Biso   1.000  Ne
  Ne525    1.0000 0.89329  0.51019  0.09960  Biso   1.000  Ne
  He525    1.0000 0.89883  0.47804  0.09313  Biso   1.000  He
  He526    1.0000 0.92904  0.47264  0.08104  Biso   1.000  He
  Ne526    1.0000 0.93750  0.44088  0.08073  Biso   1.000  Ne
  Ne527    1.0000 0.60747  0.51774  0.55715  Biso   1.000  Ne
  He527    1.0000 0.63001  0.52225  0.53345  Biso   1.000  He
  He528    1.0000 0.64448  0.49582  0.52073  Biso   1.000  He
  Ne528    1.0000 0.66301  0.50096  0.49457  Biso   1.000  Ne
  Ne529    1.0000 0.16794  0.57799  0.33034  Biso   1.000  Ne
  He529    1.0000 0.14404  0.58730  0.35140  Biso   1.000  He
  He530    1.0000 0.12058  0.56209  0.35424  Biso   1.000  He
  Ne530    1.0000 0.09824  0.56735  0.37530  Biso   1.000  Ne
  Ne531    1.0000 0.49503  0.49151  0.73573  Biso   1.000  Ne
  He531    1.0000 0.52314  0.49885  0.72927  Biso   1.000  He
  He532    1.0000 0.54713  0.47381  0.72130  Biso   1.000  He
  Ne532    1.0000 0.57861  0.48393  0.71895  Biso   1.000  Ne
  Ne533    1.0000 0.67722  0.10970  0.94230  Biso   1.000  Ne
  He533    1.0000 0.70485  0.12781  0.93424  Biso   1.000  He
  He534    1.0000 0.73447  0.11881  0.95209  Biso   1.000  He
  Ne534    1.0000 0.76323  0.13358  0.94544  Biso   1.000  Ne
  Ne535    1.0000 0.06738  0.15283  0.65540  Biso   1.000  Ne
  He535    1.0000 0.09668  0.16104  0.67371  Biso   1.000  He
  He536    1.0000 0.09290  0.17387  0.70720  Biso   1.000  He
  Ne536    1.0000 0.09648  0.15170  0.73327  Biso   1.000  Ne
  Ne537    1.0000 0.08755  0.24965  0.91689  Biso   1.000  Ne
  He537    1.0000 0.08863  0.28154  0.90058  Biso   1.000  He
  He538    1.0000 0.06815  0.28129  0.87137  Biso   1.000  He
  Ne538    1.0000 0.08405  0.27870  0.84216  Biso   1.000  Ne
  Ne539    1.0000 0.09226  0.04285  0.01354  Biso   1.000  Ne
  He539    1.0000 0.09493  0.06271  0.98515  Biso   1.000  He
  He540    1.0000 0.06538  0.06681  0.96663  Biso   1.000  He
  Ne540    1.0000 0.07236  0.08470  0.94155  Biso   1.000  Ne
  Ne541    1.0000 0.33981  0.31951  0.55808  Biso   1.000  Ne
  He541    1.0000 0.33921  0.32536  0.59222  Biso   1.000  He
  He542    1.0000 0.32055  0.29948  0.60482  Biso   1.000  He
  Ne542    1.0000 0.31281  0.30505  0.63648  Biso   1.000  Ne
  Ne543    1.0000 0.35612  0.78781  0.08158  Biso   1.000  Ne
  He543    1.0000 0.33441  0.81037  0.07238  Biso   1.000  He
  He544    1.0000 0.34443  0.83714  0.05936  Biso   1.000  He
  Ne544    1.0000 0.32120  0.86132  0.05403  Biso   1.000  Ne
  Ne545    1.0000 0.82650  0.79395  0.16055  Biso   1.000  Ne
  He545    1.0000 0.83860  0.80783  0.18790  Biso   1.000  He
  He546    1.0000 0.84483  0.78267  0.21030  Biso   1.000  He
  Ne546    1.0000 0.85440  0.79403  0.23944  Biso   1.000  Ne
  Ne547    1.0000 0.20993  0.10061  0.18165  Biso   1.000  Ne
  He547    1.0000 0.19515  0.07704  0.19935  Biso   1.000  He
  He548    1.0000 0.16725  0.06684  0.18436  Biso   1.000  He
  Ne548    1.0000 0.14609  0.05127  0.20210  Biso   1.000  Ne
  Ne549    1.0000 0.76491  0.57961  0.43540  Biso   1.000  Ne
  He549    1.0000 0.78233  0.55488  0.42307  Biso   1.000  He
  He550    1.0000 0.81568  0.55952  0.42095  Biso   1.000  He
  Ne550    1.0000 0.82965  0.53699  0.40485  Biso   1.000  Ne
  Ne551    1.0000 0.95234  0.44740  0.89063  Biso   1.000  Ne
  He551    1.0000 0.97488  0.44980  0.91430  Biso   1.000  He
  He552    1.0000 0.97270  0.42553  0.93606  Biso   1.000  He
  Ne552    1.0000 0.99472  0.42894  0.96360  Biso   1.000  Ne
  Ne553    1.0000 0.43294  0.68496  0.45637  Biso   1.000  Ne
  He553    1.0000 0.40968  0.69153  0.47824  Biso   1.000  He
  He554    1.0000 0.42172  0.68610  0.51010  Biso   1.000  He
  Ne554    1.0000 0.39296  0.68465  0.53136  Biso   1.000  Ne
  Ne555    1.0000 0.32891  0.46325  0.37000  Biso   1.000  Ne
  He555    1.0000 0.33104  0.46469  0.40340  Biso   1.000  He
  He556    1.0000 0.32957  0.49805  0.41293  Biso   1.000  He
  Ne556    1.0000 0.32724  0.50415  0.44575  Biso   1.000  Ne
  Ne557    1.0000 0.21395  0.36557  0.17292  Biso   1.000  Ne
  He557    1.0000 0.19694  0.33799  0.17678  Biso   1.000  He
  He558    1.0000 0.20679  0.31457  0.15498  Biso   1.000  He
  Ne558    1.0000 0.19300  0.28420  0.16078  Biso   1.000  Ne
  Ne559    1.0000 0.56534  0.48631  0.48178  Biso   1.000  Ne
  He559    1.0000 0.56352  0.45273  0.47678  Biso   1.000  He
  He560    1.0000 0.56233  0.43564  0.50353  Biso   1.000  He
  Ne560    1.0000 0.56697  0.40305  0.49869  Biso   1.000  Ne
  Ne561    1.0000 0.93275  0.63608  0.74472  Biso   1.000  Ne
  He561    1.0000 0.93408  0.65275  0.77351  Biso   1.000  He
  He562    1.0000 0.92596  0.63650  0.79855  Biso   1.000  He
  Ne562    1.0000 0.92677  0.65504  0.82708  Biso   1.000  Ne
  Ne563    1.0000 0.83893  0.34371  0.44883  Biso   1.000  Ne
  He563    1.0000 0.85668  0.37068  0.44133  Biso   1.000  He
  He564    1.0000 0.88106  0.36448  0.42073  Biso   1.000  He
  Ne564    1.0000 0.87172  0.37323  0.38838  Biso   1.000  Ne
  Ne565    1.0000 0.01050  0.27478  0.13240  Biso   1.000  Ne
  He565    1.0000 0.02292  0.29698  0.11039  Biso   1.000  He
  He566    1.0000 0.99609  0.31591  0.09562  Biso   1.000  He
  Ne566    1.0000 0.00667  0.34233  0.08175  Biso   1.000  Ne
  Ne567    1.0000 0.57963  0.83415  0.08088  Biso   1.000  Ne
  He567    1.0000 0.58888  0.85936  0.09929  Biso   1.000  He
  He568    1.0000 0.57913  0.85873  0.13132  Biso   1.000  He
  Ne568    1.0000 0.59954  0.87813  0.15150  Biso   1.000  Ne
  Ne569    1.0000 0.32528  0.40453  0.89751  Biso   1.000  Ne
  He569    1.0000 0.34378  0.38136  0.91073  Biso   1.000  He
  He570    1.0000 0.37459  0.39550  0.91997  Biso   1.000  He
  Ne570    1.0000 0.39757  0.37308  0.93343  Biso   1.000  Ne
  Ne571    1.0000 0.64556  0.89209  0.45759  Biso   1.000  Ne
  He571    1.0000 0.61980  0.90907  0.45356  Biso   1.000  He
  He572    1.0000 0.61232  0.93244  0.47447  Biso   1.000  He
  Ne572    1.0000 0.58388  0.94993  0.46668  Biso   1.000  Ne
  Ne573    1.0000 0.77423  0.04422  0.97631  Biso   1.000  Ne
  He573    1.0000 0.74602  0.02529  0.97346  Biso   1.000  He
  He574    1.0000 0.72861  0.01903  0.00168  Biso   1.000  He
  Ne574    1.0000 0.69810  0.00342  0.99884  Biso   1.000  Ne
  Ne575    1.0000 0.69784  0.08547  0.35142  Biso   1.000  Ne
  He575    1.0000 0.71395  0.10984  0.33659  Biso   1.000  He
  He576    1.0000 0.72811  0.10291  0.30969  Biso   1.000  He
  Ne576    1.0000 0.75044  0.12645  0.29945  Biso   1.000  Ne
  Ne577    1.0000 0.87440  0.39605  0.23110  Biso   1.000  Ne
  He577    1.0000 0.87269  0.38477  0.20042  Biso   1.000  He
  He578    1.0000 0.87268  0.40783  0.17521  Biso   1.000  He
  Ne578    1.0000 0.86936  0.39640  0.14637  Biso   1.000  Ne
  Ne579    1.0000 0.74989  0.06629  0.71106  Biso   1.000  Ne
  He579    1.0000 0.75827  0.06196  0.68010  Biso   1.000  He
  He580    1.0000 0.73358  0.05015  0.66010  Biso   1.000  He
  Ne580    1.0000 0.74272  0.04794  0.62695  Biso   1.000  Ne
  Ne581    1.0000 0.90865  0.65170  0.66409  Biso   1.000  Ne
  He581    1.0000 0.89695  0.65334  0.63438  Biso   1.000  He
  He582    1.0000 0.91059  0.67788  0.61503  Biso   1.000  He
  Ne582    1.0000 0.90137  0.67813  0.58342  Biso   1.000  Ne
  Ne583    1.0000 0.17545  0.52837  0.20407  Biso   1.000  Ne
  He583    1.0000 0.16307  0.55093  0.22596  Biso   1.000  He
  He584    1.0000 0.13142  0.54524  0.23591  Biso   1.000  He
  Ne584    1.0000 0.11971  0.56742  0.25668  Biso   1.000  Ne
  Ne585    1.0000 0.34102  0.80212  0.67656  Biso   1.000  Ne
  He585    1.0000 0.36985  0.79295  0.68820  Biso   1.000  He
  He586    1.0000 0.38131  0.75965  0.68335  Biso   1.000  He
  Ne586    1.0000 0.41216  0.75424  0.69093  Biso   1.000  Ne
  Ne587    1.0000 0.69747  0.77288  0.97957  Biso   1.000  Ne
  He587    1.0000 0.71259  0.79543  0.99939  Biso   1.000  He
  He588    1.0000 0.71732  0.82633  0.98424  Biso   1.000  He
  Ne588    1.0000 0.73195  0.84982  0.00348  Biso   1.000  Ne
  Ne589    1.0000 0.19431  0.78565  0.94090  Biso   1.000  Ne
  He589    1.0000 0.16859  0.77653  0.92632  Biso   1.000  He
  He590    1.0000 0.14810  0.76130  0.94625  Biso   1.000  He
  Ne590    1.0000 0.11963  0.75399  0.93024  Biso   1.000  Ne
  Ne591    1.0000 0.23965  0.94341  0.36329  Biso   1.000  Ne
  He591    1.0000 0.21657  0.94169  0.33740  Biso   1.000  He
  He592    1.0000 0.20306  0.97225  0.32957  Biso   1.000  He
  Ne592    1.0000 0.17512  0.96908  0.31000  Biso   1.000  Ne
  Ne593    1.0000 0.08506  0.20651  0.41573  Biso   1.000  Ne
  He593    1.0000 0.06174  0.18494  0.40353  Biso   1.000  He
  He594    1.0000 0.07663  0.16117  0.38943  Biso   1.000  He
  Ne594    1.0000 0.05567  0.13455  0.37620  Biso   1.000  Ne
  Ne595    1.0000 0.81157  0.87972  0.83427  Biso   1.000  Ne
  He595    1.0000 0.81693  0.86861  0.80410  Biso   1.000  He
  He596    1.0000 0.82839  0.83852  0.80106  Biso   1.000  He
  Ne596    1.0000 0.83815  0.83445  0.76939  Biso   1.000  Ne
  Ne597    1.0000 0.52734  0.67217  0.61550  Biso   1.000  Ne
  He597    1.0000 0.49839  0.66187  0.63008  Biso   1.000  He
  He598    1.0000 0.48822  0.68107  0.65591  Biso   1.000  He
  Ne598    1.0000 0.45507  0.67558  0.66545  Biso   1.000  Ne
  Ne599    1.0000 0.34041  0.36477  0.42206  Biso   1.000  Ne
  He599    1.0000 0.30872  0.36915  0.40832  Biso   1.000  He
  He600    1.0000 0.28879  0.38820  0.42546  Biso   1.000  He
  Ne600    1.0000 0.25479  0.38631  0.41483  Biso   1.000  Ne
  Ne601    1.0000 0.00595  0.69773  0.06330  Biso   1.000  Ne
  He601    1.0000 0.98258  0.67710  0.05317  Biso   1.000  He
  He602    1.0000 0.98035  0.66929  0.02051  Biso   1.000  He
  Ne602    1.0000 0.95508  0.64893  0.01328  Biso   1.000  Ne
  Ne603    1.0000 0.10582  0.80826  0.88006  Biso   1.000  Ne
  He603    1.0000 0.09069  0.82857  0.90017  Biso   1.000  He
  He604    1.0000 0.10836  0.83155  0.92811  Biso   1.000  He
  Ne604    1.0000 0.10308  0.85518  0.94934  Biso   1.000  Ne
  Ne605    1.0000 0.90531  0.56033  0.40098  Biso   1.000  Ne
  He605    1.0000 0.92790  0.55972  0.37689  Biso   1.000  He
  He606    1.0000 0.92290  0.53600  0.35454  Biso   1.000  He
  Ne606    1.0000 0.94000  0.53744  0.32588  Biso   1.000  Ne
  Ne607    1.0000 0.95020  0.89875  0.04770  Biso   1.000  Ne
  He607    1.0000 0.94141  0.93102  0.05575  Biso   1.000  He
  He608    1.0000 0.96351  0.93966  0.07963  Biso   1.000  He
  Ne608    1.0000 0.95907  0.97223  0.09171  Biso   1.000  Ne
  Ne609    1.0000 0.72988  0.08474  0.85749  Biso   1.000  Ne
  He609    1.0000 0.72460  0.04850  0.85610  Biso   1.000  He
  He610    1.0000 0.72494  0.03453  0.88685  Biso   1.000  He
  Ne610    1.0000 0.71373  0.99965  0.89037  Biso   1.000  Ne
  Ne611    1.0000 0.43214  0.27482  0.54026  Biso   1.000  Ne
  He611    1.0000 0.45147  0.26614  0.56428  Biso   1.000  He
  He612    1.0000 0.48162  0.25972  0.55561  Biso   1.000  He
  Ne612    1.0000 0.50267  0.25225  0.58153  Biso   1.000  Ne
  Ne613    1.0000 0.59679  0.01596  0.20427  Biso   1.000  Ne
  He613    1.0000 0.60832  0.04591  0.19615  Biso   1.000  He
  He614    1.0000 0.59132  0.07359  0.20898  Biso   1.000  He
  Ne614    1.0000 0.60489  0.10186  0.19800  Biso   1.000  Ne
  Ne615    1.0000 0.35503  0.96985  0.15927  Biso   1.000  Ne
  He615    1.0000 0.34087  0.97069  0.12985  Biso   1.000  He
  He616    1.0000 0.31742  0.95027  0.12483  Biso   1.000  He
  Ne616    1.0000 0.31002  0.95208  0.09426  Biso   1.000  Ne
  Ne617    1.0000 0.08927  0.88022  0.08275  Biso   1.000  Ne
  He617    1.0000 0.10296  0.90523  0.10075  Biso   1.000  He
  He618    1.0000 0.12720  0.92064  0.08737  Biso   1.000  He
  Ne618    1.0000 0.15788  0.91681  0.10342  Biso   1.000  Ne
  Ne619    1.0000 0.94828  0.38238  0.49239  Biso   1.000  Ne
  He619    1.0000 0.96642  0.37733  0.46725  Biso   1.000  He
  He620    1.0000 0.98486  0.40350  0.45927  Biso   1.000  He
  Ne620    1.0000 0.00096  0.39948  0.42756  Biso   1.000  Ne
  Ne621    1.0000 0.09688  0.70813  0.14146  Biso   1.000  Ne
  He621    1.0000 0.07187  0.68919  0.12948  Biso   1.000  He
  He622    1.0000 0.08072  0.66020  0.11778  Biso   1.000  He
  Ne622    1.0000 0.05533  0.64341  0.10792  Biso   1.000  Ne
  Ne623    1.0000 0.35772  0.90008  0.63722  Biso   1.000  Ne
  He623    1.0000 0.33125  0.89391  0.62118  Biso   1.000  He
  He624    1.0000 0.33686  0.88324  0.59198  Biso   1.000  He
  Ne624    1.0000 0.31184  0.87489  0.57305  Biso   1.000  Ne
  Ne625    1.0000 0.01522  0.61222  0.89360  Biso   1.000  Ne
  He625    1.0000 0.02264  0.62335  0.86269  Biso   1.000  He
  He626    1.0000 0.01827  0.60075  0.83903  Biso   1.000  He
  Ne626    1.0000 0.01902  0.61406  0.80679  Biso   1.000  Ne
  Ne627    1.0000 0.82831  0.54597  0.69332  Biso   1.000  Ne
  He627    1.0000 0.84184  0.55810  0.72011  Biso   1.000  He
  He628    1.0000 0.86394  0.53676  0.73833  Biso   1.000  He
  Ne628    1.0000 0.87835  0.55373  0.76166  Biso   1.000  Ne
  Ne629    1.0000 0.91727  0.88083  0.30767  Biso   1.000  Ne
  He629    1.0000 0.92696  0.90182  0.28354  Biso   1.000  He
  He630    1.0000 0.93079  0.88459  0.25529  Biso   1.000  He
  Ne630    1.0000 0.95705  0.89698  0.23870  Biso   1.000  Ne
  Ne631    1.0000 0.93411  0.02741  0.29991  Biso   1.000  Ne
  He631    1.0000 0.93422  0.04561  0.27101  Biso   1.000  He
  He632    1.0000 0.95459  0.07198  0.27785  Biso   1.000  He
  Ne632    1.0000 0.95156  0.09704  0.25550  Biso   1.000  Ne
  Ne633    1.0000 0.56181  0.81790  0.80182  Biso   1.000  Ne
  He633    1.0000 0.53701  0.84219  0.79928  Biso   1.000  He
  He634    1.0000 0.51062  0.82860  0.80674  Biso   1.000  He
  Ne634    1.0000 0.48284  0.84611  0.80375  Biso   1.000  Ne
  Ne635    1.0000 0.66261  0.86913  0.02846  Biso   1.000  Ne
  He635    1.0000 0.64832  0.88956  0.00757  Biso   1.000  He
  He636    1.0000 0.63887  0.87669  0.98024  Biso   1.000  He
  Ne636    1.0000 0.62829  0.90055  0.95986  Biso   1.000  Ne
  Ne637    1.0000 0.55762  0.68881  0.45400  Biso   1.000  Ne
  He637    1.0000 0.53867  0.67246  0.43379  Biso   1.000  He
  He638    1.0000 0.53793  0.64119  0.44309  Biso   1.000  He
  Ne638    1.0000 0.50906  0.62252  0.43856  Biso   1.000  Ne
  Ne639    1.0000 0.76342  0.81457  0.08722  Biso   1.000  Ne
  He639    1.0000 0.77070  0.82638  0.11938  Biso   1.000  He
  He640    1.0000 0.75635  0.85481  0.12391  Biso   1.000  He
  Ne640    1.0000 0.76698  0.87359  0.14943  Biso   1.000  Ne
  Ne641    1.0000 0.75860  0.15878  0.70802  Biso   1.000  Ne
  He641    1.0000 0.78792  0.15563  0.72225  Biso   1.000  He
  He642    1.0000 0.78951  0.16877  0.75158  Biso   1.000  He
  Ne642    1.0000 0.81768  0.16381  0.76957  Biso   1.000  Ne
  Ne643    1.0000 0.77861  0.20824  0.43671  Biso   1.000  Ne
  He643    1.0000 0.80509  0.21227  0.41974  Biso   1.000  He
  He644    1.0000 0.82009  0.23840  0.43280  Biso   1.000  He
  Ne644    1.0000 0.85181  0.24502  0.42487  Biso   1.000  Ne
  Ne645    1.0000 0.81267  0.29026  0.11562  Biso   1.000  Ne
  He645    1.0000 0.83313  0.30240  0.09379  Biso   1.000  He
  He646    1.0000 0.83043  0.29437  0.06102  Biso   1.000  He
  Ne646    1.0000 0.85338  0.30891  0.04174  Biso   1.000  Ne
  Ne647    1.0000 0.43736  0.07901  0.61154  Biso   1.000  Ne
  He647    1.0000 0.40579  0.07605  0.60484  Biso   1.000  He
  He648    1.0000 0.39505  0.04627  0.59451  Biso   1.000  He
  Ne648    1.0000 0.36227  0.04492  0.58690  Biso   1.000  Ne
  Ne649    1.0000 0.43557  0.76606  0.16338  Biso   1.000  Ne
  He649    1.0000 0.41045  0.77345  0.18461  Biso   1.000  He
  He650    1.0000 0.41812  0.79456  0.20802  Biso   1.000  He
  Ne650    1.0000 0.39171  0.80365  0.22777  Biso   1.000  Ne
  Ne651    1.0000 0.80304  0.12754  0.84904  Biso   1.000  Ne
  He651    1.0000 0.80698  0.13857  0.87909  Biso   1.000  He
  He652    1.0000 0.83939  0.14144  0.89024  Biso   1.000  He
  Ne652    1.0000 0.84261  0.16101  0.91807  Biso   1.000  Ne
  Ne653    1.0000 0.32560  0.58591  0.48165  Biso   1.000  Ne
  He653    1.0000 0.30621  0.59537  0.45522  Biso   1.000  He
  He654    1.0000 0.31872  0.58912  0.42502  Biso   1.000  He
  Ne654    1.0000 0.30030  0.59626  0.39740  Biso   1.000  Ne
  Ne655    1.0000 0.99151  0.41264  0.25305  Biso   1.000  Ne
  He655    1.0000 0.00028  0.38235  0.23550  Biso   1.000  He
  He656    1.0000 0.97613  0.35858  0.23575  Biso   1.000  He
  Ne656    1.0000 0.98525  0.32869  0.22109  Biso   1.000  Ne
  Ne657    1.0000 0.09884  0.69649  0.62320  Biso   1.000  Ne
  He657    1.0000 0.09923  0.72873  0.62205  Biso   1.000  He
  He658    1.0000 0.07072  0.74310  0.60916  Biso   1.000  He
  Ne658    1.0000 0.05185  0.75990  0.63126  Biso   1.000  Ne
  Ne659    1.0000 0.32105  0.31006  0.46924  Biso   1.000  Ne
  He659    1.0000 0.29543  0.30341  0.45118  Biso   1.000  He
  He660    1.0000 0.29979  0.28891  0.42316  Biso   1.000  He
  Ne660    1.0000 0.30498  0.25703  0.42420  Biso   1.000  Ne
  Ne661    1.0000 0.77140  0.05968  0.22535  Biso   1.000  Ne
  He661    1.0000 0.78268  0.08988  0.22753  Biso   1.000  He
  He662    1.0000 0.76179  0.11319  0.21265  Biso   1.000  He
  Ne662    1.0000 0.77144  0.14406  0.20882  Biso   1.000  Ne
  Ne663    1.0000 0.50161  0.56567  0.97011  Biso   1.000  Ne
  He663    1.0000 0.47570  0.57455  0.94719  Biso   1.000  He
  He664    1.0000 0.44493  0.56501  0.95292  Biso   1.000  He
  Ne664    1.0000 0.42211  0.57699  0.93180  Biso   1.000  Ne
  Ne665    1.0000 0.42532  0.72890  0.08749  Biso   1.000  Ne
  He665    1.0000 0.43622  0.70148  0.07163  Biso   1.000  He
  He666    1.0000 0.42745  0.67172  0.08717  Biso   1.000  He
  Ne666    1.0000 0.44198  0.64758  0.07423  Biso   1.000  Ne
  Ne667    1.0000 0.11269  0.83711  0.51480  Biso   1.000  Ne
  He667    1.0000 0.12979  0.81911  0.48897  Biso   1.000  He
  He668    1.0000 0.11684  0.78902  0.48032  Biso   1.000  He
  Ne668    1.0000 0.13420  0.77358  0.45759  Biso   1.000  Ne
  Ne669    1.0000 0.37184  0.33705  0.31371  Biso   1.000  Ne
  He669    1.0000 0.35489  0.32490  0.28789  Biso   1.000  He
  He670    1.0000 0.37084  0.33066  0.26304  Biso   1.000  He
  Ne670    1.0000 0.35702  0.32054  0.23907  Biso   1.000  Ne
  Ne671    1.0000 0.57566  0.49707  0.08284  Biso   1.000  Ne
  He671    1.0000 0.56615  0.52668  0.07503  Biso   1.000  He
  He672    1.0000 0.58940  0.54940  0.07357  Biso   1.000  He
  Ne672    1.0000 0.57643  0.58034  0.06813  Biso   1.000  Ne
  Ne673    1.0000 0.45304  0.48399  0.02836  Biso   1.000  Ne
  He673    1.0000 0.46980  0.51507  0.03070  Biso   1.000  He
  He674    1.0000 0.45567  0.53492  0.05239  Biso   1.000  He
  Ne674    1.0000 0.46873  0.56485  0.04946  Biso   1.000  Ne
  Ne675    1.0000 0.50696  0.32173  0.38300  Biso   1.000  Ne
  He675    1.0000 0.52760  0.29711  0.38012  Biso   1.000  He
  He676    1.0000 0.54260  0.29754  0.35092  Biso   1.000  He
  Ne676    1.0000 0.56355  0.27175  0.34739  Biso   1.000  Ne
  Ne677    1.0000 0.40037  0.51890  0.73050  Biso   1.000  Ne
  He677    1.0000 0.36912  0.53498  0.72313  Biso   1.000  He
  He678    1.0000 0.35537  0.52369  0.69359  Biso   1.000  He
  Ne678    1.0000 0.32349  0.53051  0.68902  Biso   1.000  Ne
  Ne679    1.0000 0.66737  0.21664  0.60908  Biso   1.000  Ne
  He679    1.0000 0.70177  0.21681  0.60487  Biso   1.000  He
  He680    1.0000 0.72143  0.19952  0.62638  Biso   1.000  He
  Ne680    1.0000 0.75436  0.20018  0.61844  Biso   1.000  Ne
  Ne681    1.0000 0.46295  0.16083  0.31711  Biso   1.000  Ne
  He681    1.0000 0.45387  0.13403  0.33171  Biso   1.000  He
  He682    1.0000 0.46134  0.10684  0.31445  Biso   1.000  He
  Ne682    1.0000 0.45094  0.07944  0.32971  Biso   1.000  Ne
  Ne683    1.0000 0.06776  0.39000  0.05555  Biso   1.000  Ne
  He683    1.0000 0.04241  0.41281  0.05978  Biso   1.000  He
  He684    1.0000 0.04839  0.43228  0.08328  Biso   1.000  He
  Ne684    1.0000 0.01891  0.45053  0.09110  Biso   1.000  Ne
  Ne685    1.0000 0.48553  0.63264  0.34685  Biso   1.000  Ne
  He685    1.0000 0.50442  0.61649  0.32296  Biso   1.000  He
  He686    1.0000 0.50210  0.58440  0.32539  Biso   1.000  He
  Ne686    1.0000 0.51823  0.56933  0.30516  Biso   1.000  Ne
  Ne687    1.0000 0.30652  0.70859  0.20600  Biso   1.000  Ne
  He687    1.0000 0.31355  0.73821  0.19134  Biso   1.000  He
  He688    1.0000 0.29338  0.74993  0.16405  Biso   1.000  He
  Ne688    1.0000 0.30551  0.77831  0.15020  Biso   1.000  Ne
  Ne689    1.0000 0.73569  0.54905  0.08364  Biso   1.000  Ne
  He689    1.0000 0.76349  0.54305  0.09924  Biso   1.000  He
  He690    1.0000 0.79023  0.53214  0.08005  Biso   1.000  He
  Ne690    1.0000 0.81339  0.51776  0.09823  Biso   1.000  Ne
  Ne691    1.0000 0.84564  0.37451  0.30297  Biso   1.000  Ne
  He691    1.0000 0.81442  0.37157  0.29072  Biso   1.000  He
  He692    1.0000 0.79147  0.38582  0.30961  Biso   1.000  He
  Ne692    1.0000 0.76196  0.37918  0.30319  Biso   1.000  Ne
  Ne693    1.0000 0.31712  0.29047  0.90447  Biso   1.000  Ne
  He693    1.0000 0.28649  0.30579  0.90750  Biso   1.000  He
  He694    1.0000 0.28266  0.31729  0.94019  Biso   1.000  He
  Ne694    1.0000 0.25355  0.33084  0.94874  Biso   1.000  Ne
  Ne695    1.0000 0.11880  0.63435  0.40815  Biso   1.000  Ne
  He695    1.0000 0.13657  0.66255  0.41715  Biso   1.000  He
  He696    1.0000 0.12123  0.68573  0.43700  Biso   1.000  He
  Ne696    1.0000 0.10662  0.70943  0.41812  Biso   1.000  Ne
  Ne697    1.0000 0.45142  0.18415  0.60353  Biso   1.000  Ne
  He697    1.0000 0.46377  0.16141  0.62837  Biso   1.000  He
  He698    1.0000 0.44237  0.16032  0.65508  Biso   1.000  He
  Ne698    1.0000 0.45549  0.13887  0.67960  Biso   1.000  Ne
  Ne699    1.0000 0.42376  0.37009  0.41501  Biso   1.000  Ne
  He699    1.0000 0.42235  0.37774  0.38299  Biso   1.000  He
  He700    1.0000 0.39768  0.39939  0.37273  Biso   1.000  He
  Ne700    1.0000 0.40357  0.41115  0.34086  Biso   1.000  Ne
  Ne701    1.0000 0.91154  0.75814  0.55361  Biso   1.000  Ne
  He701    1.0000 0.92965  0.78481  0.55877  Biso   1.000  He
  He702    1.0000 0.93220  0.79700  0.52883  Biso   1.000  He
  Ne702    1.0000 0.95464  0.82047  0.52935  Biso   1.000  Ne
  Ne703    1.0000 0.66353  0.91491  0.21193  Biso   1.000  Ne
  He703    1.0000 0.67701  0.89510  0.23619  Biso   1.000  He
  He704    1.0000 0.70987  0.88735  0.23172  Biso   1.000  He
  Ne704    1.0000 0.72689  0.87364  0.25623  Biso   1.000  Ne
  Ne705    1.0000 0.65811  0.78946  0.59260  Biso   1.000  Ne
  He705    1.0000 0.67130  0.80579  0.61944  Biso   1.000  He
  He706    1.0000 0.67920  0.78126  0.64199  Biso   1.000  He
  Ne706    1.0000 0.70040  0.78870  0.66925  Biso   1.000  Ne
  Ne707    1.0000 0.49696  0.13890  0.24172  Biso   1.000  Ne
  He707    1.0000 0.49106  0.11103  0.22501  Biso   1.000  He
  He708    1.0000 0.51407  0.09139  0.23597  Biso   1.000  He
  Ne708    1.0000 0.51229  0.06271  0.22243  Biso   1.000  Ne
  Ne709    1.0000 0.86171  0.65012  0.14748  Biso   1.000  Ne
  He709    1.0000 0.87000  0.62548  0.16808  Biso   1.000  He
  He710    1.0000 0.88000  0.63328  0.19868  Biso   1.000  He
  Ne710    1.0000 0.89351  0.60857  0.21727  Biso   1.000  Ne
  Ne711    1.0000 0.29420  0.06722  0.68827  Biso   1.000  Ne
  He711    1.0000 0.27034  0.05342  0.67249  Biso   1.000  He
  He712    1.0000 0.24705  0.04408  0.69257  Biso   1.000  He
  Ne712    1.0000 0.22151  0.03018  0.67638  Biso   1.000  Ne
  Ne713    1.0000 0.27554  0.67473  0.62754  Biso   1.000  Ne
  He713    1.0000 0.29432  0.66568  0.60342  Biso   1.000  He
  He714    1.0000 0.27777  0.64602  0.58190  Biso   1.000  He
  Ne714    1.0000 0.29474  0.63704  0.55542  Biso   1.000  Ne
  Ne715    1.0000 0.65299  0.53796  0.78167  Biso   1.000  Ne
  He715    1.0000 0.68228  0.54425  0.76626  Biso   1.000  He
  He716    1.0000 0.71068  0.53562  0.78208  Biso   1.000  He
  Ne716    1.0000 0.73852  0.54035  0.76814  Biso   1.000  Ne
  Ne717    1.0000 0.93805  0.78579  0.75204  Biso   1.000  Ne
  He717    1.0000 0.94160  0.79824  0.78299  Biso   1.000  He
  He718    1.0000 0.91988  0.78946  0.80448  Biso   1.000  He
  Ne718    1.0000 0.92574  0.80527  0.83376  Biso   1.000  Ne
  Ne719    1.0000 0.73089  0.52058  0.35974  Biso   1.000  Ne
  He719    1.0000 0.70065  0.50512  0.35876  Biso   1.000  He
  He720    1.0000 0.69030  0.49833  0.38754  Biso   1.000  He
  Ne720    1.0000 0.66144  0.48493  0.38685  Biso   1.000  Ne
  Ne721    1.0000 0.14545  0.56533  0.05977  Biso   1.000  Ne
  He721    1.0000 0.13215  0.59562  0.06475  Biso   1.000  He
  He722    1.0000 0.15198  0.61898  0.05624  Biso   1.000  He
  Ne722    1.0000 0.13851  0.65150  0.05887  Biso   1.000  Ne
  Ne723    1.0000 0.74121  0.94350  0.08159  Biso   1.000  Ne
  He723    1.0000 0.73320  0.93021  0.10915  Biso   1.000  He
  He724    1.0000 0.70033  0.91961  0.11114  Biso   1.000  He
  Ne724    1.0000 0.69164  0.90326  0.13759  Biso   1.000  Ne
  Ne725    1.0000 0.40087  0.72222  0.30344  Biso   1.000  Ne
  He725    1.0000 0.39456  0.71918  0.27029  Biso   1.000  He
  He726    1.0000 0.38905  0.68901  0.25848  Biso   1.000  He
  Ne726    1.0000 0.38648  0.68820  0.22689  Biso   1.000  Ne
  Ne727    1.0000 0.07980  0.51628  0.42887  Biso   1.000  Ne
  He727    1.0000 0.08845  0.54035  0.44842  Biso   1.000  He
  He728    1.0000 0.06838  0.56561  0.44490  Biso   1.000  He
  Ne728    1.0000 0.08303  0.59346  0.45502  Biso   1.000  Ne
  Ne729    1.0000 0.37444  0.17635  0.70382  Biso   1.000  Ne
  He729    1.0000 0.35646  0.20599  0.69898  Biso   1.000  He
  He730    1.0000 0.32192  0.20704  0.69909  Biso   1.000  He
  Ne730    1.0000 0.30772  0.23816  0.69198  Biso   1.000  Ne
  Ne731    1.0000 0.33230  0.70258  0.89978  Biso   1.000  Ne
  He731    1.0000 0.34827  0.72841  0.91286  Biso   1.000  He
  He732    1.0000 0.36891  0.74460  0.89188  Biso   1.000  He
  Ne732    1.0000 0.35658  0.77194  0.87453  Biso   1.000  Ne
  Ne733    1.0000 0.38760  0.06420  0.43762  Biso   1.000  Ne
  He733    1.0000 0.39489  0.07251  0.40643  Biso   1.000  He
  He734    1.0000 0.36885  0.07405  0.38602  Biso   1.000  He
  Ne734    1.0000 0.37949  0.08365  0.35459  Biso   1.000  Ne
  Ne735    1.0000 0.15361  0.09930  0.69046  Biso   1.000  Ne
  He735    1.0000 0.13847  0.07135  0.67396  Biso   1.000  He
  He736    1.0000 0.13028  0.07780  0.64208  Biso   1.000  He
  Ne736    1.0000 0.11724  0.05160  0.62666  Biso   1.000  Ne
  Ne737    1.0000 0.36359  0.70417  0.62664  Biso   1.000  Ne
  He737    1.0000 0.36008  0.71632  0.59676  Biso   1.000  He
  He738    1.0000 0.33845  0.73991  0.59425  Biso   1.000  He
  Ne738    1.0000 0.32922  0.75519  0.56536  Biso   1.000  Ne
  Ne739    1.0000 0.20151  0.03321  0.38693  Biso   1.000  Ne
  He739    1.0000 0.17602  0.05426  0.38995  Biso   1.000  He
  He740    1.0000 0.14891  0.04470  0.40380  Biso   1.000  He
  Ne740    1.0000 0.13065  0.07143  0.41338  Biso   1.000  Ne
  Ne741    1.0000 0.47415  0.40260  0.01406  Biso   1.000  Ne
  He741    1.0000 0.45780  0.41265  0.98715  Biso   1.000  He
  He742    1.0000 0.47763  0.40948  0.95918  Biso   1.000  He
  Ne742    1.0000 0.46526  0.41742  0.93022  Biso   1.000  Ne
  Ne743    1.0000 0.86717  0.22483  0.12689  Biso   1.000  Ne
  He743    1.0000 0.88510  0.22320  0.09753  Biso   1.000  He
  He744    1.0000 0.91731  0.21527  0.10296  Biso   1.000  He
  Ne744    1.0000 0.93213  0.20967  0.07477  Biso   1.000  Ne
  Ne745    1.0000 0.73175  0.17572  0.86787  Biso   1.000  Ne
  He745    1.0000 0.74228  0.20402  0.85492  Biso   1.000  He
  He746    1.0000 0.76506  0.19969  0.82938  Biso   1.000  He
  Ne746    1.0000 0.77722  0.22844  0.81993  Biso   1.000  Ne
  Ne747    1.0000 0.68502  0.78817  0.34227  Biso   1.000  Ne
  He747    1.0000 0.68838  0.76585  0.31847  Biso   1.000  He
  He748    1.0000 0.66308  0.76879  0.29474  Biso   1.000  He
  Ne748    1.0000 0.66509  0.74765  0.27118  Biso   1.000  Ne
  Ne749    1.0000 0.70251  0.09739  0.02924  Biso   1.000  Ne
  He749    1.0000 0.66939  0.10360  0.01730  Biso   1.000  He
  He750    1.0000 0.64448  0.08022  0.02104  Biso   1.000  He
  Ne750    1.0000 0.61460  0.09262  0.01122  Biso   1.000  Ne
  Ne751    1.0000 0.53004  0.10184  0.14429  Biso   1.000  Ne
  He751    1.0000 0.55397  0.09656  0.12161  Biso   1.000  He
  He752    1.0000 0.57726  0.11770  0.12248  Biso   1.000  He
  Ne752    1.0000 0.59928  0.10880  0.10228  Biso   1.000  Ne
  Ne753    1.0000 0.61935  0.06762  0.46198  Biso   1.000  Ne
  He753    1.0000 0.58922  0.06220  0.45014  Biso   1.000  He
  He754    1.0000 0.58356  0.03061  0.43833  Biso   1.000  He
  Ne754    1.0000 0.55034  0.03020  0.43375  Biso   1.000  Ne
  Ne755    1.0000 0.64636  0.18566  0.98728  Biso   1.000  Ne
  He755    1.0000 0.63207  0.19625  0.96061  Biso   1.000  He
  He756    1.0000 0.61747  0.22438  0.96788  Biso   1.000  He
  Ne756    1.0000 0.60353  0.23955  0.94037  Biso   1.000  Ne
  Ne757    1.0000 0.61282  0.39939  0.24156  Biso   1.000  Ne
  He757    1.0000 0.62729  0.40658  0.27047  Biso   1.000  He
  He758    1.0000 0.61665  0.43632  0.28019  Biso   1.000  He
  Ne758    1.0000 0.62557  0.43876  0.31244  Biso   1.000  Ne
  Ne759    1.0000 0.75532  0.59370  0.20249  Biso   1.000  Ne
  He759    1.0000 0.78239  0.61067  0.21127  Biso   1.000  He
  He760    1.0000 0.77936  0.64309  0.21100  Biso   1.000  He
  Ne760    1.0000 0.80863  0.65999  0.21188  Biso   1.000  Ne
  Ne761    1.0000 0.80718  0.67139  0.60649  Biso   1.000  Ne
  He761    1.0000 0.79228  0.66125  0.63289  Biso   1.000  He
  He762    1.0000 0.80657  0.67007  0.66212  Biso   1.000  He
  Ne762    1.0000 0.79205  0.65912  0.69158  Biso   1.000  Ne
  Ne763    1.0000 0.16561  0.04250  0.49036  Biso   1.000  Ne
  He763    1.0000 0.17067  0.01386  0.47311  Biso   1.000  He
  He764    1.0000 0.18049  0.98601  0.48968  Biso   1.000  He
  Ne764    1.0000 0.18560  0.95968  0.46960  Biso   1.000  Ne
  Ne765    1.0000 0.95557  0.81096  0.62996  Biso   1.000  Ne
  He765    1.0000 0.93156  0.80496  0.65301  Biso   1.000  He
  He766    1.0000 0.92604  0.77240  0.65761  Biso   1.000  He
  Ne766    1.0000 0.90528  0.76382  0.67864  Biso   1.000  Ne
  Ne767    1.0000 0.83452  0.16434  0.27787  Biso   1.000  Ne
  He767    1.0000 0.84885  0.15809  0.24768  Biso   1.000  He
  He768    1.0000 0.86923  0.13057  0.24851  Biso   1.000  He
  Ne768    1.0000 0.88240  0.12094  0.22020  Biso   1.000  Ne
  Ne769    1.0000 0.23545  0.02245  0.54982  Biso   1.000  Ne
  He769    1.0000 0.22756  0.05031  0.56595  Biso   1.000  He
  He770    1.0000 0.21391  0.04080  0.59247  Biso   1.000  He
  Ne770    1.0000 0.20212  0.06706  0.60754  Biso   1.000  Ne
  Ne771    1.0000 0.01507  0.80352  0.43146  Biso   1.000  Ne
  He771    1.0000 0.02723  0.79366  0.46058  Biso   1.000  He
  He772    1.0000 0.00966  0.76731  0.47299  Biso   1.000  He
  Ne772    1.0000 0.02039  0.75882  0.50468  Biso   1.000  Ne
  Ne773    1.0000 0.77532  0.08276  0.78489  Biso   1.000  Ne
  He773    1.0000 0.79474  0.05693  0.78827  Biso   1.000  He
  He774    1.0000 0.82004  0.05395  0.76836  Biso   1.000  He
  Ne774    1.0000 0.83105  0.02048  0.76582  Biso   1.000  Ne
  Ne775    1.0000 0.71673  0.90949  0.93295  Biso   1.000  Ne
  He775    1.0000 0.71613  0.92685  0.96093  Biso   1.000  He
  He776    1.0000 0.74727  0.92156  0.97792  Biso   1.000  He
  Ne776    1.0000 0.74754  0.93697  0.00718  Biso   1.000  Ne
  Ne777    1.0000 0.25741  0.88216  0.10925  Biso   1.000  Ne
  He777    1.0000 0.24303  0.86809  0.13445  Biso   1.000  He
  He778    1.0000 0.22162  0.88811  0.14720  Biso   1.000  He
  Ne778    1.0000 0.20997  0.87869  0.17688  Biso   1.000  Ne
  Ne779    1.0000 0.02090  0.96483  0.52861  Biso   1.000  Ne
  He779    1.0000 0.99875  0.94692  0.51109  Biso   1.000  He
  He780    1.0000 0.01380  0.92790  0.48663  Biso   1.000  He
  Ne780    1.0000 0.99492  0.90834  0.47364  Biso   1.000  Ne
  Ne781    1.0000 0.28921  0.88629  0.29857  Biso   1.000  Ne
  He781    1.0000 0.31604  0.87429  0.27926  Biso   1.000  He
  He782    1.0000 0.34419  0.89400  0.28552  Biso   1.000  He
  Ne782    1.0000 0.37078  0.88480  0.26712  Biso   1.000  Ne
  Ne783    1.0000 0.32167  0.10246  0.29035  Biso   1.000  Ne
  He783    1.0000 0.30436  0.09715  0.32034  Biso   1.000  He
  He784    1.0000 0.28109  0.07216  0.31969  Biso   1.000  He
  Ne784    1.0000 0.26558  0.07073  0.34636  Biso   1.000  Ne
  Ne785    1.0000 0.84898  0.56821  0.59339  Biso   1.000  Ne
  He785    1.0000 0.82860  0.55723  0.61547  Biso   1.000  He
  He786    1.0000 0.80492  0.54120  0.60007  Biso   1.000  He
  Ne786    1.0000 0.77800  0.53828  0.61776  Biso   1.000  Ne
  Ne787    1.0000 0.36173  0.92723  0.92050  Biso   1.000  Ne
  He787    1.0000 0.38195  0.95383  0.91688  Biso   1.000  He
  He788    1.0000 0.40084  0.95469  0.89234  Biso   1.000  He
  Ne788    1.0000 0.42271  0.98072  0.89404  Biso   1.000  Ne
  Ne789    1.0000 0.35666  0.62740  0.86483  Biso   1.000  Ne
  He789    1.0000 0.33725  0.62262  0.89012  Biso   1.000  He
  He790    1.0000 0.33843  0.59010  0.90073  Biso   1.000  He
  Ne790    1.0000 0.31683  0.58107  0.92501  Biso   1.000  Ne
  Ne791    1.0000 0.94777  0.73963  0.42032  Biso   1.000  Ne
  He791    1.0000 0.95613  0.71213  0.43307  Biso   1.000  He
  He792    1.0000 0.94911  0.68437  0.41168  Biso   1.000  He
  Ne792    1.0000 0.95352  0.65335  0.42764  Biso   1.000  Ne
  Ne793    1.0000 0.43144  0.33165  0.17658  Biso   1.000  Ne
  He793    1.0000 0.44542  0.34144  0.20753  Biso   1.000  He
  He794    1.0000 0.43898  0.37408  0.21455  Biso   1.000  He
  Ne794    1.0000 0.45062  0.38551  0.24535  Biso   1.000  Ne
  Ne795    1.0000 0.52313  0.77456  0.87630  Biso   1.000  Ne
  He795    1.0000 0.50693  0.78557  0.90411  Biso   1.000  He
  He796    1.0000 0.48077  0.76541  0.91125  Biso   1.000  He
  Ne796    1.0000 0.46809  0.76948  0.94016  Biso   1.000  Ne
  Ne797    1.0000 0.44092  0.88325  0.63685  Biso   1.000  Ne
  He797    1.0000 0.43859  0.90050  0.60935  Biso   1.000  He
  He798    1.0000 0.41213  0.89857  0.59047  Biso   1.000  He
  Ne798    1.0000 0.41334  0.91749  0.56298  Biso   1.000  Ne
  Ne799    1.0000 0.67826  0.69779  0.59638  Biso   1.000  Ne
  He799    1.0000 0.64670  0.70013  0.58971  Biso   1.000  He
  He800    1.0000 0.63975  0.71842  0.56271  Biso   1.000  He
  Ne800    1.0000 0.60632  0.71719  0.55198  Biso   1.000  Ne
  Ne801    1.0000 0.69934  0.54121  0.86136  Biso   1.000  Ne
  He801    1.0000 0.70723  0.53662  0.89434  Biso   1.000  He
  He802    1.0000 0.74163  0.53309  0.90124  Biso   1.000  He
  Ne802    1.0000 0.74776  0.52006  0.93203  Biso   1.000  Ne
  Ne803    1.0000 0.29857  0.12615  0.13666  Biso   1.000  Ne
  He803    1.0000 0.31391  0.09993  0.15165  Biso   1.000  He
  He804    1.0000 0.30146  0.09100  0.17895  Biso   1.000  He
  Ne804    1.0000 0.32408  0.06899  0.19487  Biso   1.000  Ne
  Ne805    1.0000 0.91565  0.24702  0.24733  Biso   1.000  Ne
  He805    1.0000 0.93441  0.22005  0.23716  Biso   1.000  He
  He806    1.0000 0.92367  0.20186  0.21087  Biso   1.000  He
  Ne806    1.0000 0.94268  0.17759  0.20531  Biso   1.000  Ne
  Ne807    1.0000 0.59501  0.77255  0.62819  Biso   1.000  Ne
  He807    1.0000 0.58937  0.74615  0.64892  Biso   1.000  He
  He808    1.0000 0.59559  0.71690  0.63381  Biso   1.000  He
  Ne808    1.0000 0.58989  0.69204  0.65383  Biso   1.000  Ne
  Ne809    1.0000 0.05718  0.56219  0.99977  Biso   1.000  Ne
  He809    1.0000 0.03690  0.54217  0.01821  Biso   1.000  He
  He810    1.0000 0.04471  0.54629  0.05121  Biso   1.000  He
  Ne810    1.0000 0.02891  0.52805  0.07092  Biso   1.000  Ne
  Ne811    1.0000 0.84411  0.87235  0.10266  Biso   1.000  Ne
  He811    1.0000 0.85261  0.86052  0.13096  Biso   1.000  He
  He812    1.0000 0.87951  0.87381  0.14358  Biso   1.000  He
  Ne812    1.0000 0.88252  0.86479  0.17354  Biso   1.000  Ne
  Ne813    1.0000 0.96641  0.28524  0.77619  Biso   1.000  Ne
  He813    1.0000 0.95492  0.31173  0.79232  Biso   1.000  He
  He814    1.0000 0.94342  0.30397  0.82519  Biso   1.000  He
  Ne814    1.0000 0.93036  0.32628  0.84185  Biso   1.000  Ne
  Ne815    1.0000 0.79456  0.90333  0.58614  Biso   1.000  Ne
  He815    1.0000 0.79148  0.93673  0.58454  Biso   1.000  He
  He816    1.0000 0.81744  0.95498  0.57980  Biso   1.000  He
  Ne816    1.0000 0.80668  0.98530  0.57658  Biso   1.000  Ne
  Ne817    1.0000 0.06520  0.81792  0.36193  Biso   1.000  Ne
  He817    1.0000 0.03618  0.81413  0.33999  Biso   1.000  He
  He818    1.0000 0.01741  0.84183  0.33675  Biso   1.000  He
  Ne818    1.0000 0.98941  0.84254  0.31714  Biso   1.000  Ne
  Ne819    1.0000 0.10653  0.50251  0.11529  Biso   1.000  Ne
  He819    1.0000 0.12944  0.48454  0.13517  Biso   1.000  He
  He820    1.0000 0.11557  0.47275  0.15990  Biso   1.000  He
  Ne820    1.0000 0.12899  0.44696  0.17589  Biso   1.000  Ne
  Ne821    1.0000 0.52145  0.13897  0.85280  Biso   1.000  Ne
  He821    1.0000 0.53315  0.15271  0.88200  Biso   1.000  He
  He822    1.0000 0.52193  0.13679  0.90792  Biso   1.000  He
  Ne822    1.0000 0.53553  0.14660  0.93620  Biso   1.000  Ne
  Ne823    1.0000 0.29918  0.45957  0.65198  Biso   1.000  Ne
  He823    1.0000 0.30910  0.46033  0.61825  Biso   1.000  He
  He824    1.0000 0.29466  0.43544  0.59964  Biso   1.000  He
  Ne824    1.0000 0.30825  0.43104  0.57054  Biso   1.000  Ne
  Ne825    1.0000 0.42770  0.57474  0.23218  Biso   1.000  Ne
  He825    1.0000 0.41895  0.59865  0.21313  Biso   1.000  He
  He826    1.0000 0.44469  0.61682  0.20413  Biso   1.000  He
  Ne826    1.0000 0.43585  0.64244  0.18462  Biso   1.000  Ne
  Ne827    1.0000 0.61533  0.69739  0.93218  Biso   1.000  Ne
  He827    1.0000 0.62474  0.68410  0.90064  Biso   1.000  He
  He828    1.0000 0.63856  0.65189  0.90155  Biso   1.000  He
  Ne828    1.0000 0.64429  0.63937  0.87107  Biso   1.000  Ne
  Ne829    1.0000 0.82637  0.90655  0.50661  Biso   1.000  Ne
  He829    1.0000 0.79820  0.91113  0.49011  Biso   1.000  He
  He830    1.0000 0.77206  0.89317  0.49747  Biso   1.000  He
  Ne830    1.0000 0.74724  0.88736  0.47519  Biso   1.000  Ne
  Ne831    1.0000 0.65871  0.64733  0.24855  Biso   1.000  Ne
  He831    1.0000 0.63925  0.67309  0.23776  Biso   1.000  He
  He832    1.0000 0.61694  0.66421  0.21591  Biso   1.000  He
  Ne832    1.0000 0.60281  0.68860  0.20359  Biso   1.000  Ne
  Ne833    1.0000 0.45733  0.74609  0.81462  Biso   1.000  Ne
  He833    1.0000 0.42554  0.75481  0.81376  Biso   1.000  He
  He834    1.0000 0.41080  0.75987  0.78412  Biso   1.000  He
  Ne834    1.0000 0.37885  0.76436  0.78625  Biso   1.000  Ne
  Ne835    1.0000 0.00933  0.54007  0.58669  Biso   1.000  Ne
  He835    1.0000 0.03008  0.53832  0.56280  Biso   1.000  He
  He836    1.0000 0.06118  0.54104  0.57338  Biso   1.000  He
  Ne836    1.0000 0.08323  0.54511  0.54668  Biso   1.000  Ne
  Ne837    1.0000 0.93847  0.13263  0.10376  Biso   1.000  Ne
  He837    1.0000 0.92968  0.10279  0.09357  Biso   1.000  He
  He838    1.0000 0.95162  0.07894  0.10555  Biso   1.000  He
  Ne838    1.0000 0.94800  0.05033  0.08990  Biso   1.000  Ne
  Ne839    1.0000 0.54343  0.17428  0.01560  Biso   1.000  Ne
  He839    1.0000 0.52957  0.19192  0.04044  Biso   1.000  He
  He840    1.0000 0.54039  0.18064  0.06842  Biso   1.000  He
  Ne840    1.0000 0.52431  0.19404  0.09411  Biso   1.000  Ne
  Ne841    1.0000 0.93972  0.38657  0.70596  Biso   1.000  Ne
  He841    1.0000 0.91013  0.37180  0.69880  Biso   1.000  He
  He842    1.0000 0.89609  0.35682  0.72681  Biso   1.000  He
  Ne842    1.0000 0.86832  0.34140  0.71741  Biso   1.000  Ne
  Ne843    1.0000 0.64433  0.17258  0.12098  Biso   1.000  Ne
  He843    1.0000 0.65355  0.18116  0.15125  Biso   1.000  He
  He844    1.0000 0.64548  0.21599  0.15932  Biso   1.000  He
  Ne844    1.0000 0.65598  0.22561  0.18900  Biso   1.000  Ne
  Ne845    1.0000 0.44080  0.67634  0.92209  Biso   1.000  Ne
  He845    1.0000 0.45004  0.67161  0.89061  Biso   1.000  He
  He846    1.0000 0.42573  0.67572  0.86789  Biso   1.000  He
  Ne846    1.0000 0.43679  0.67544  0.83661  Biso   1.000  Ne
  Ne847    1.0000 0.18151  0.83096  0.09212  Biso   1.000  Ne
  He847    1.0000 0.15011  0.82507  0.10384  Biso   1.000  He
  He848    1.0000 0.14696  0.79367  0.10972  Biso   1.000  He
  Ne848    1.0000 0.11756  0.78221  0.12009  Biso   1.000  Ne
  Ne849    1.0000 0.95831  0.55558  0.77341  Biso   1.000  Ne
  He849    1.0000 0.96736  0.52298  0.77692  Biso   1.000  He
  He850    1.0000 0.99150  0.51779  0.79935  Biso   1.000  He
  Ne850    1.0000 0.99553  0.48428  0.80488  Biso   1.000  Ne
  Ne851    1.0000 0.11730  0.55633  0.78609  Biso   1.000  Ne
  He851    1.0000 0.12671  0.57835  0.81198  Biso   1.000  He
  He852    1.0000 0.10248  0.59764  0.82318  Biso   1.000  He
  Ne852    1.0000 0.10278  0.61734  0.85033  Biso   1.000  Ne
  Ne853    1.0000 0.84425  0.82829  0.50038  Biso   1.000  Ne
  He853    1.0000 0.84178  0.79867  0.48270  Biso   1.000  He
  He854    1.0000 0.87016  0.78751  0.46872  Biso   1.000  He
  Ne854    1.0000 0.86742  0.75813  0.45659  Biso   1.000  Ne
  Ne855    1.0000 0.43944  0.83833  0.09626  Biso   1.000  Ne
  He855    1.0000 0.42928  0.86782  0.08384  Biso   1.000  He
  He856    1.0000 0.41787  0.89046  0.10527  Biso   1.000  He
  Ne856    1.0000 0.40575  0.91702  0.08912  Biso   1.000  Ne
  Ne857    1.0000 0.04755  0.27729  0.02830  Biso   1.000  Ne
  He857    1.0000 0.02176  0.25876  0.02096  Biso   1.000  He
  He858    1.0000 0.99051  0.27458  0.02297  Biso   1.000  He
  Ne858    1.0000 0.96586  0.25482  0.01302  Biso   1.000  Ne
  Ne859    1.0000 0.15782  0.37247  0.98538  Biso   1.000  Ne
  He859    1.0000 0.13342  0.34911  0.99508  Biso   1.000  He
  He860    1.0000 0.13732  0.34047  0.02745  Biso   1.000  He
  Ne860    1.0000 0.11748  0.31411  0.03534  Biso   1.000  Ne
  Ne861    1.0000 0.30122  0.56670  0.32561  Biso   1.000  Ne
  He861    1.0000 0.32920  0.55130  0.32592  Biso   1.000  He
  He862    1.0000 0.34483  0.55228  0.29569  Biso   1.000  He
  Ne862    1.0000 0.37500  0.53690  0.29478  Biso   1.000  Ne
  Ne863    1.0000 0.95953  0.95425  0.74304  Biso   1.000  Ne
  He863    1.0000 0.93007  0.97159  0.73849  Biso   1.000  He
  He864    1.0000 0.93548  0.99981  0.71888  Biso   1.000  He
  Ne864    1.0000 0.90760  0.01920  0.71057  Biso   1.000  Ne
  Ne865    1.0000 0.50210  0.41535  0.30961  Biso   1.000  Ne
  He865    1.0000 0.49810  0.44348  0.29804  Biso   1.000  He
  He866    1.0000 0.49130  0.46367  0.31941  Biso   1.000  He
  Ne866    1.0000 0.48589  0.49562  0.30937  Biso   1.000  Ne
  Ne867    1.0000 0.17957  0.70630  0.87410  Biso   1.000  Ne
  He867    1.0000 0.18667  0.70338  0.84245  Biso   1.000  He
  He868    1.0000 0.17416  0.67534  0.82842  Biso   1.000  He
  Ne868    1.0000 0.18470  0.67050  0.79867  Biso   1.000  Ne
  Ne869    1.0000 0.06428  0.05605  0.46480  Biso   1.000  Ne
  He869    1.0000 0.06287  0.02468  0.47274  Biso   1.000  He
  He870    1.0000 0.09219  0.00975  0.46758  Biso   1.000  He
  Ne870    1.0000 0.09236  0.97732  0.46959  Biso   1.000  Ne
  Ne871    1.0000 0.23834  0.15768  0.28111  Biso   1.000  Ne
  He871    1.0000 0.21173  0.14182  0.28207  Biso   1.000  He
  He872    1.0000 0.19429  0.15234  0.30852  Biso   1.000  He
  Ne872    1.0000 0.16500  0.13765  0.31225  Biso   1.000  Ne
  Ne873    1.0000 0.11544  0.20971  0.27724  Biso   1.000  Ne
  He873    1.0000 0.11385  0.19084  0.24944  Biso   1.000  He
  He874    1.0000 0.10898  0.15976  0.25827  Biso   1.000  He
  Ne874    1.0000 0.10621  0.13813  0.23332  Biso   1.000  Ne
  Ne875    1.0000 0.69571  0.64299  0.08180  Biso   1.000  Ne
  He875    1.0000 0.69982  0.63260  0.11266  Biso   1.000  He
  He876    1.0000 0.70615  0.65646  0.13202  Biso   1.000  He
  Ne876    1.0000 0.71206  0.64795  0.16604  Biso   1.000  Ne
  Ne877    1.0000 0.71171  0.81000  0.21821  Biso   1.000  Ne
  He877    1.0000 0.73998  0.79641  0.21252  Biso   1.000  He
  He878    1.0000 0.76213  0.80031  0.23373  Biso   1.000  He
  Ne878    1.0000 0.76069  0.78168  0.26143  Biso   1.000  Ne
  Ne879    1.0000 0.36701  0.64710  0.14916  Biso   1.000  Ne
  He879    1.0000 0.36145  0.67266  0.12941  Biso   1.000  He
  He880    1.0000 0.34185  0.66341  0.10309  Biso   1.000  He
  Ne880    1.0000 0.33642  0.68668  0.08227  Biso   1.000  Ne
  Ne881    1.0000 0.87304  0.87976  0.66820  Biso   1.000  Ne
  He881    1.0000 0.87735  0.88858  0.63816  Biso   1.000  He
  He882    1.0000 0.88039  0.86499  0.61468  Biso   1.000  He
  Ne882    1.0000 0.88707  0.87874  0.58244  Biso   1.000  Ne
  Ne883    1.0000 0.07268  0.41641  0.86501  Biso   1.000  Ne
  He883    1.0000 0.05916  0.40654  0.83476  Biso   1.000  He
  He884    1.0000 0.03513  0.38114  0.83712  Biso   1.000  He
  Ne884    1.0000 0.02288  0.36996  0.80743  Biso   1.000  Ne
  Ne885    1.0000 0.11148  0.00781  0.30191  Biso   1.000  Ne
  He885    1.0000 0.11524  0.03691  0.28550  Biso   1.000  He
  He886    1.0000 0.14326  0.05264  0.29611  Biso   1.000  He
  Ne886    1.0000 0.15131  0.07706  0.27617  Biso   1.000  Ne
  Ne887    1.0000 0.66410  0.46293  0.66484  Biso   1.000  Ne
  He887    1.0000 0.64725  0.49332  0.66851  Biso   1.000  He
  He888    1.0000 0.62615  0.50001  0.64395  Biso   1.000  He
  Ne888    1.0000 0.61293  0.52836  0.64663  Biso   1.000  Ne
  Ne889    1.0000 0.94577  0.79202  0.09291  Biso   1.000  Ne
  He889    1.0000 0.94211  0.82287  0.10504  Biso   1.000  He
  He890    1.0000 0.95773  0.82343  0.13636  Biso   1.000  He
  Ne890    1.0000 0.96014  0.85316  0.15270  Biso   1.000  Ne
  Ne891    1.0000 0.39863  0.06321  0.24843  Biso   1.000  Ne
  He891    1.0000 0.41630  0.05327  0.22341  Biso   1.000  He
  He892    1.0000 0.43249  0.02283  0.23123  Biso   1.000  He
  Ne892    1.0000 0.44812  0.00729  0.20529  Biso   1.000  Ne
  Ne893    1.0000 0.38244  0.19478  0.00032  Biso   1.000  Ne
  He893    1.0000 0.36073  0.17619  0.01769  Biso   1.000  He
  He894    1.0000 0.33173  0.17007  0.00072  Biso   1.000  He
  Ne894    1.0000 0.30830  0.15995  0.01806  Biso   1.000  Ne
  Ne895    1.0000 0.37943  0.56099  0.10693  Biso   1.000  Ne
  He895    1.0000 0.40609  0.57908  0.10153  Biso   1.000  He
  He896    1.0000 0.42933  0.57188  0.12582  Biso   1.000  He
  Ne896    1.0000 0.45703  0.59196  0.12376  Biso   1.000  Ne
  Ne897    1.0000 0.11160  0.26481  0.11575  Biso   1.000  Ne
  He897    1.0000 0.11510  0.23137  0.11847  Biso   1.000  He
  He898    1.0000 0.09304  0.21682  0.13945  Biso   1.000  He
  Ne898    1.0000 0.09548  0.18288  0.13723  Biso   1.000  Ne
  Ne899    1.0000 0.72596  0.64944  0.44126  Biso   1.000  Ne
  He899    1.0000 0.69880  0.66775  0.43446  Biso   1.000  He
  He900    1.0000 0.67714  0.66958  0.45736  Biso   1.000  He
  Ne900    1.0000 0.65077  0.68857  0.44990  Biso   1.000  Ne
