data_image0
_cell_length_a       46.5829
_cell_length_b       46.9142
_cell_length_c       46.6478
_cell_angle_alpha    90
_cell_angle_beta     90
_cell_angle_gamma    90

_symmetry_space_group_name_H-M    "P 1"
_symmetry_int_tables_number       1

loop_
  _symmetry_equiv_pos_as_xyz
  'x, y, z'

loop_
  _atom_site_label
  _atom_site_occupancy
  _atom_site_fract_x
  _atom_site_fract_y
  _atom_site_fract_z
  _atom_site_thermal_displace_type
  _atom_site_B_iso_or_equiv
  _atom_site_type_symbol
  Ne1      1.0000 0.14817  0.90140  0.58104  Biso   1.000  Ne
  He1      1.0000 0.17656  0.88760  0.57635  Biso   1.000  He
  He2      1.0000 0.19929  0.91055  0.57498  Biso   1.000  He
  Ne2      1.0000 0.22828  0.89605  0.57573  Biso   1.000  Ne
  Ne3      1.0000 0.03925  0.50028  0.22310  Biso   1.000  Ne
  He3      1.0000 0.01037  0.51268  0.21627  Biso   1.000  He
  He4      1.0000 0.99228  0.49685  0.19074  Biso   1.000  He
  Ne4      1.0000 0.96193  0.51167  0.18207  Biso   1.000  Ne
  Ne5      1.0000 0.00781  0.83968  0.61189  Biso   1.000  Ne
  He5      1.0000 0.01168  0.83786  0.64575  Biso   1.000  He
  He6      1.0000 0.99684  0.81378  0.65885  Biso   1.000  He
  Ne6      1.0000 0.00375  0.81278  0.69281  Biso   1.000  Ne
  Ne7      1.0000 0.57061  0.87758  0.29064  Biso   1.000  Ne
  He7      1.0000 0.58922  0.88886  0.26418  Biso   1.000  He
  He8      1.0000 0.57835  0.91627  0.24697  Biso   1.000  He
  Ne8      1.0000 0.59638  0.92708  0.22304  Biso   1.000  Ne
  Ne9      1.0000 0.40111  0.71984  0.62614  Biso   1.000  Ne
  He9      1.0000 0.41757  0.70221  0.64550  Biso   1.000  He
  He10     1.0000 0.40905  0.67046  0.64527  Biso   1.000  He
  Ne10     1.0000 0.39568  0.65674  0.67263  Biso   1.000  Ne
  Ne11     1.0000 0.52376  0.08183  0.56634  Biso   1.000  Ne
  He11     1.0000 0.54479  0.10038  0.58274  Biso   1.000  He
  He12     1.0000 0.53272  0.12958  0.59203  Biso   1.000  He
  Ne12     1.0000 0.55317  0.15359  0.60389  Biso   1.000  Ne
  Ne13     1.0000 0.79732  0.20532  0.37738  Biso   1.000  Ne
  He13     1.0000 0.78506  0.18377  0.35469  Biso   1.000  He
  He14     1.0000 0.77196  0.15781  0.36973  Biso   1.000  He
  Ne14     1.0000 0.75543  0.13721  0.34788  Biso   1.000  Ne
  Ne15     1.0000 0.06867  0.51788  0.85567  Biso   1.000  Ne
  He15     1.0000 0.03642  0.50948  0.87137  Biso   1.000  He
  He16     1.0000 0.03032  0.47895  0.87184  Biso   1.000  He
  Ne16     1.0000 0.00860  0.46983  0.89396  Biso   1.000  Ne
  Ne17     1.0000 0.88643  0.86147  0.65610  Biso   1.000  Ne
  He17     1.0000 0.88505  0.82789  0.65332  Biso   1.000  He
  He18     1.0000 0.87724  0.81026  0.68268  Biso   1.000  He
  Ne18     1.0000 0.87137  0.77775  0.68104  Biso   1.000  Ne
  Ne19     1.0000 0.29175  0.47402  0.68892  Biso   1.000  Ne
  He19     1.0000 0.30253  0.45967  0.66227  Biso   1.000  He
  He20     1.0000 0.27930  0.45781  0.64104  Biso   1.000  He
  Ne20     1.0000 0.28805  0.44338  0.61355  Biso   1.000  Ne
  Ne21     1.0000 0.61647  0.94594  0.12428  Biso   1.000  Ne
  He21     1.0000 0.62549  0.95867  0.09502  Biso   1.000  He
  He22     1.0000 0.65450  0.97565  0.09546  Biso   1.000  He
  Ne22     1.0000 0.66474  0.98843  0.06561  Biso   1.000  Ne
  Ne23     1.0000 0.84405  0.36753  0.78727  Biso   1.000  Ne
  He23     1.0000 0.83897  0.33279  0.78433  Biso   1.000  He
  He24     1.0000 0.80934  0.32235  0.79569  Biso   1.000  He
  Ne24     1.0000 0.80042  0.29240  0.78778  Biso   1.000  Ne
  Ne25     1.0000 0.61343  0.80914  0.82500  Biso   1.000  Ne
  He25     1.0000 0.62072  0.78598  0.80273  Biso   1.000  He
  He26     1.0000 0.63125  0.79865  0.77277  Biso   1.000  He
  Ne26     1.0000 0.62987  0.77417  0.74886  Biso   1.000  Ne
  Ne27     1.0000 0.50164  0.04494  0.84818  Biso   1.000  Ne
  He27     1.0000 0.53361  0.04482  0.86075  Biso   1.000  He
  He28     1.0000 0.55255  0.02422  0.84529  Biso   1.000  He
  Ne28     1.0000 0.58324  0.02912  0.85523  Biso   1.000  Ne
  Ne29     1.0000 0.44343  0.07254  0.52599  Biso   1.000  Ne
  He29     1.0000 0.42546  0.06389  0.55383  Biso   1.000  He
  He30     1.0000 0.40951  0.08911  0.56760  Biso   1.000  He
  Ne30     1.0000 0.39341  0.08088  0.59688  Biso   1.000  Ne
  Ne31     1.0000 0.85149  0.79793  0.12812  Biso   1.000  Ne
  He31     1.0000 0.86689  0.79050  0.10096  Biso   1.000  He
  He32     1.0000 0.89776  0.77615  0.10933  Biso   1.000  He
  Ne32     1.0000 0.91291  0.75906  0.08406  Biso   1.000  Ne
  Ne33     1.0000 0.25655  0.94470  0.18266  Biso   1.000  Ne
  He33     1.0000 0.28121  0.96025  0.16371  Biso   1.000  He
  He34     1.0000 0.28338  0.94973  0.13270  Biso   1.000  He
  Ne34     1.0000 0.30628  0.96257  0.11396  Biso   1.000  Ne
  Ne35     1.0000 0.68871  0.77860  0.32444  Biso   1.000  Ne
  He35     1.0000 0.66099  0.77203  0.33824  Biso   1.000  He
  He36     1.0000 0.63882  0.76468  0.31628  Biso   1.000  He
  Ne36     1.0000 0.60706  0.75544  0.32662  Biso   1.000  Ne
  Ne37     1.0000 0.60556  0.09250  0.93414  Biso   1.000  Ne
  He37     1.0000 0.63639  0.10534  0.92956  Biso   1.000  He
  He38     1.0000 0.64076  0.11752  0.89679  Biso   1.000  He
  Ne38     1.0000 0.66832  0.13427  0.89367  Biso   1.000  Ne
  Ne39     1.0000 0.88747  0.78440  0.25864  Biso   1.000  Ne
  He39     1.0000 0.87469  0.77011  0.23010  Biso   1.000  He
  He40     1.0000 0.84346  0.75883  0.23529  Biso   1.000  He
  Ne40     1.0000 0.83052  0.74239  0.20762  Biso   1.000  Ne
  Ne41     1.0000 0.89389  0.49240  0.09761  Biso   1.000  Ne
  He41     1.0000 0.91643  0.50716  0.07672  Biso   1.000  He
  He42     1.0000 0.93495  0.48363  0.06644  Biso   1.000  He
  Ne42     1.0000 0.95861  0.49394  0.04632  Biso   1.000  Ne
  Ne43     1.0000 0.13886  0.07924  0.23376  Biso   1.000  Ne
  He43     1.0000 0.11713  0.10404  0.24314  Biso   1.000  He
  He44     1.0000 0.12669  0.12121  0.27064  Biso   1.000  He
  Ne44     1.0000 0.10092  0.14474  0.27830  Biso   1.000  Ne
  Ne45     1.0000 0.37561  0.76358  0.26627  Biso   1.000  Ne
  He45     1.0000 0.39354  0.77264  0.29335  Biso   1.000  He
  He46     1.0000 0.39311  0.75177  0.31639  Biso   1.000  He
  Ne46     1.0000 0.41142  0.76048  0.34080  Biso   1.000  Ne
  Ne47     1.0000 0.57850  0.23961  0.92190  Biso   1.000  Ne
  He47     1.0000 0.56997  0.27278  0.91574  Biso   1.000  He
  He48     1.0000 0.53894  0.28340  0.92595  Biso   1.000  He
  Ne48     1.0000 0.53334  0.31418  0.92575  Biso   1.000  Ne
  Ne49     1.0000 0.09197  0.78390  0.82364  Biso   1.000  Ne
  He49     1.0000 0.07404  0.80459  0.80592  Biso   1.000  He
  He50     1.0000 0.08790  0.81507  0.77862  Biso   1.000  He
  Ne50     1.0000 0.06484  0.83258  0.76085  Biso   1.000  Ne
  Ne51     1.0000 0.06464  0.05644  0.34055  Biso   1.000  Ne
  He51     1.0000 0.07003  0.08943  0.33772  Biso   1.000  He
  He52     1.0000 0.05271  0.10961  0.35623  Biso   1.000  He
  Ne52     1.0000 0.05688  0.14181  0.34773  Biso   1.000  Ne
  Ne53     1.0000 0.72332  0.75530  0.92545  Biso   1.000  Ne
  He53     1.0000 0.69555  0.75751  0.94024  Biso   1.000  He
  He54     1.0000 0.67771  0.72864  0.94052  Biso   1.000  He
  Ne54     1.0000 0.64707  0.73298  0.95283  Biso   1.000  Ne
  Ne55     1.0000 0.35824  0.90102  0.09796  Biso   1.000  Ne
  He55     1.0000 0.36120  0.89482  0.06324  Biso   1.000  He
  He56     1.0000 0.36901  0.92298  0.04617  Biso   1.000  He
  Ne56     1.0000 0.36328  0.91846  0.01260  Biso   1.000  Ne
  Ne57     1.0000 0.05050  0.17035  0.88735  Biso   1.000  Ne
  He57     1.0000 0.05070  0.18493  0.91667  Biso   1.000  He
  He58     1.0000 0.04169  0.21845  0.91690  Biso   1.000  He
  Ne58     1.0000 0.04532  0.23292  0.94452  Biso   1.000  Ne
  Ne59     1.0000 0.95939  0.89416  0.70805  Biso   1.000  Ne
  He59     1.0000 0.95019  0.90994  0.67948  Biso   1.000  He
  He60     1.0000 0.96159  0.89818  0.65116  Biso   1.000  He
  Ne60     1.0000 0.95262  0.91570  0.62523  Biso   1.000  Ne
  Ne61     1.0000 0.05790  0.62956  0.67407  Biso   1.000  Ne
  He61     1.0000 0.08960  0.63365  0.66527  Biso   1.000  He
  He62     1.0000 0.10363  0.66572  0.66382  Biso   1.000  He
  Ne62     1.0000 0.13574  0.66612  0.65997  Biso   1.000  Ne
  Ne63     1.0000 0.35622  0.05145  0.67004  Biso   1.000  Ne
  He63     1.0000 0.37457  0.05674  0.69657  Biso   1.000  He
  He64     1.0000 0.39213  0.08553  0.69647  Biso   1.000  He
  Ne64     1.0000 0.41015  0.08814  0.72286  Biso   1.000  Ne
  Ne65     1.0000 0.94268  0.00179  0.28098  Biso   1.000  Ne
  He65     1.0000 0.95002  0.96829  0.27463  Biso   1.000  He
  He66     1.0000 0.94768  0.95212  0.30257  Biso   1.000  He
  Ne66     1.0000 0.95206  0.91731  0.30649  Biso   1.000  Ne
  Ne67     1.0000 0.05238  0.56273  0.38340  Biso   1.000  Ne
  He67     1.0000 0.06850  0.54807  0.36280  Biso   1.000  He
  He68     1.0000 0.09634  0.56643  0.35071  Biso   1.000  He
  Ne68     1.0000 0.11735  0.54979  0.33157  Biso   1.000  Ne
  Ne69     1.0000 0.91662  0.83798  0.91776  Biso   1.000  Ne
  He69     1.0000 0.89492  0.81301  0.92584  Biso   1.000  He
  He70     1.0000 0.91125  0.78296  0.92179  Biso   1.000  He
  Ne70     1.0000 0.88975  0.75565  0.92576  Biso   1.000  Ne
  Ne71     1.0000 0.33028  0.72540  0.66800  Biso   1.000  Ne
  He71     1.0000 0.32069  0.73646  0.69792  Biso   1.000  He
  He72     1.0000 0.34697  0.73420  0.71748  Biso   1.000  He
  Ne72     1.0000 0.34166  0.74078  0.75032  Biso   1.000  Ne
  Ne73     1.0000 0.30167  0.58639  0.83868  Biso   1.000  Ne
  He73     1.0000 0.32975  0.56721  0.83480  Biso   1.000  He
  He74     1.0000 0.35623  0.58278  0.85064  Biso   1.000  He
  Ne74     1.0000 0.37919  0.56156  0.85865  Biso   1.000  Ne
  Ne75     1.0000 0.46768  0.86765  0.81175  Biso   1.000  Ne
  He75     1.0000 0.46709  0.90168  0.81135  Biso   1.000  He
  He76     1.0000 0.49746  0.91390  0.80771  Biso   1.000  He
  Ne76     1.0000 0.50008  0.94827  0.80689  Biso   1.000  Ne
  Ne77     1.0000 0.11543  0.46179  0.80022  Biso   1.000  Ne
  He77     1.0000 0.11592  0.43354  0.81904  Biso   1.000  He
  He78     1.0000 0.13142  0.40740  0.80505  Biso   1.000  He
  Ne78     1.0000 0.12542  0.37848  0.82061  Biso   1.000  Ne
  Ne79     1.0000 0.07489  0.91205  0.14772  Biso   1.000  Ne
  He79     1.0000 0.06718  0.87877  0.15580  Biso   1.000  He
  He80     1.0000 0.06170  0.87084  0.18734  Biso   1.000  He
  Ne80     1.0000 0.05781  0.83720  0.19501  Biso   1.000  Ne
  Ne81     1.0000 0.35446  0.51195  0.60813  Biso   1.000  Ne
  He81     1.0000 0.36910  0.53640  0.62617  Biso   1.000  He
  He82     1.0000 0.35968  0.56690  0.61714  Biso   1.000  He
  Ne82     1.0000 0.37911  0.59042  0.62777  Biso   1.000  Ne
  Ne83     1.0000 0.95551  0.18825  0.51563  Biso   1.000  Ne
  He83     1.0000 0.95438  0.15904  0.50363  Biso   1.000  He
  He84     1.0000 0.93576  0.13629  0.52035  Biso   1.000  He
  Ne84     1.0000 0.94106  0.10521  0.51194  Biso   1.000  Ne
  Ne85     1.0000 0.74525  0.21983  0.24004  Biso   1.000  Ne
  He85     1.0000 0.74401  0.19744  0.21619  Biso   1.000  He
  He86     1.0000 0.77400  0.19244  0.20277  Biso   1.000  He
  Ne86     1.0000 0.77376  0.17078  0.17758  Biso   1.000  Ne
  Ne87     1.0000 0.03807  0.49026  0.06402  Biso   1.000  Ne
  He87     1.0000 0.05177  0.49050  0.03425  Biso   1.000  He
  He88     1.0000 0.08519  0.49216  0.03211  Biso   1.000  He
  Ne88     1.0000 0.09344  0.49050  0.00250  Biso   1.000  Ne
  Ne89     1.0000 0.16599  0.17039  0.65833  Biso   1.000  Ne
  He89     1.0000 0.19794  0.17285  0.65934  Biso   1.000  He
  He90     1.0000 0.20520  0.19699  0.67856  Biso   1.000  He
  Ne90     1.0000 0.23950  0.20431  0.68380  Biso   1.000  Ne
  Ne91     1.0000 0.84063  0.70673  0.12917  Biso   1.000  Ne
  He91     1.0000 0.86126  0.69989  0.10224  Biso   1.000  He
  He92     1.0000 0.87095  0.67009  0.10231  Biso   1.000  He
  Ne92     1.0000 0.88512  0.66294  0.07261  Biso   1.000  Ne
  Ne93     1.0000 0.50731  0.61028  0.29261  Biso   1.000  Ne
  He93     1.0000 0.53782  0.62430  0.28892  Biso   1.000  He
  He94     1.0000 0.56174  0.61300  0.31071  Biso   1.000  He
  Ne94     1.0000 0.59224  0.62186  0.30425  Biso   1.000  Ne
  Ne95     1.0000 0.08407  0.07453  0.89255  Biso   1.000  Ne
  He95     1.0000 0.10811  0.09507  0.89667  Biso   1.000  He
  He96     1.0000 0.10653  0.10865  0.92588  Biso   1.000  He
  Ne96     1.0000 0.12121  0.13673  0.92276  Biso   1.000  Ne
  Ne97     1.0000 0.15161  0.16126  0.81620  Biso   1.000  Ne
  He97     1.0000 0.16032  0.19003  0.80478  Biso   1.000  He
  He98     1.0000 0.16151  0.21333  0.82566  Biso   1.000  He
  Ne98     1.0000 0.16929  0.24142  0.80986  Biso   1.000  Ne
  Ne99     1.0000 0.46103  0.80996  0.95145  Biso   1.000  Ne
  He99     1.0000 0.46640  0.83563  0.93160  Biso   1.000  He
  He100    1.0000 0.49697  0.84471  0.93211  Biso   1.000  He
  Ne100    1.0000 0.50613  0.87080  0.91095  Biso   1.000  Ne
  Ne101    1.0000 0.19912  0.93893  0.49100  Biso   1.000  Ne
  He101    1.0000 0.19314  0.97025  0.49941  Biso   1.000  He
  He102    1.0000 0.20086  0.99220  0.47500  Biso   1.000  He
  Ne102    1.0000 0.20429  0.02451  0.48625  Biso   1.000  Ne
  Ne103    1.0000 0.60795  0.54886  0.57553  Biso   1.000  Ne
  He103    1.0000 0.58394  0.52744  0.57898  Biso   1.000  He
  He104    1.0000 0.58537  0.50061  0.56068  Biso   1.000  He
  Ne104    1.0000 0.56181  0.47815  0.56443  Biso   1.000  Ne
  Ne105    1.0000 0.04223  0.36373  0.78559  Biso   1.000  Ne
  He105    1.0000 0.05114  0.39354  0.79000  Biso   1.000  He
  He106    1.0000 0.02524  0.41293  0.78624  Biso   1.000  He
  Ne106    1.0000 0.03365  0.44460  0.79036  Biso   1.000  Ne
  Ne107    1.0000 0.99499  0.58883  0.85821  Biso   1.000  Ne
  He107    1.0000 0.99775  0.62230  0.84730  Biso   1.000  He
  He108    1.0000 0.99839  0.62201  0.81529  Biso   1.000  He
  Ne108    1.0000 0.99513  0.65286  0.80426  Biso   1.000  Ne
  Ne109    1.0000 0.60162  0.02729  0.00583  Biso   1.000  Ne
  He109    1.0000 0.62383  0.05004  0.01864  Biso   1.000  He
  He110    1.0000 0.64573  0.05651  0.99577  Biso   1.000  He
  Ne110    1.0000 0.66829  0.08005  0.00702  Biso   1.000  Ne
  Ne111    1.0000 0.18899  0.81368  0.09038  Biso   1.000  Ne
  He111    1.0000 0.18291  0.84557  0.08627  Biso   1.000  He
  He112    1.0000 0.15407  0.85901  0.09674  Biso   1.000  He
  Ne112    1.0000 0.14972  0.89070  0.09050  Biso   1.000  Ne
  Ne113    1.0000 0.29667  0.14171  0.41412  Biso   1.000  Ne
  He113    1.0000 0.33055  0.13777  0.41297  Biso   1.000  He
  He114    1.0000 0.34638  0.16648  0.40315  Biso   1.000  He
  Ne114    1.0000 0.37781  0.16326  0.40026  Biso   1.000  Ne
  Ne115    1.0000 0.80504  0.73343  0.73937  Biso   1.000  Ne
  He115    1.0000 0.79480  0.70599  0.72215  Biso   1.000  He
  He116    1.0000 0.80645  0.67692  0.72994  Biso   1.000  He
  Ne116    1.0000 0.79689  0.65545  0.70616  Biso   1.000  Ne
  Ne117    1.0000 0.40118  0.50977  0.31534  Biso   1.000  Ne
  He117    1.0000 0.41692  0.50467  0.34519  Biso   1.000  He
  He118    1.0000 0.44341  0.48589  0.34901  Biso   1.000  He
  Ne118    1.0000 0.45263  0.48558  0.38184  Biso   1.000  Ne
  Ne119    1.0000 0.86528  0.80614  0.33761  Biso   1.000  Ne
  He119    1.0000 0.84196  0.78840  0.35843  Biso   1.000  He
  He120    1.0000 0.84411  0.75596  0.35894  Biso   1.000  He
  Ne120    1.0000 0.81987  0.74374  0.37700  Biso   1.000  Ne
  Ne121    1.0000 0.61520  0.76477  0.40243  Biso   1.000  Ne
  He121    1.0000 0.58896  0.78381  0.41514  Biso   1.000  He
  He122    1.0000 0.59682  0.81612  0.41975  Biso   1.000  He
  Ne122    1.0000 0.57111  0.83690  0.43132  Biso   1.000  Ne
  Ne123    1.0000 0.58592  0.56280  0.47962  Biso   1.000  Ne
  He123    1.0000 0.56299  0.57683  0.49607  Biso   1.000  He
  He124    1.0000 0.55712  0.60833  0.48655  Biso   1.000  He
  Ne124    1.0000 0.53248  0.62333  0.50050  Biso   1.000  Ne
  Ne125    1.0000 0.77153  0.40280  0.87943  Biso   1.000  Ne
  He125    1.0000 0.77899  0.37173  0.86977  Biso   1.000  He
  He126    1.0000 0.75534  0.34853  0.87757  Biso   1.000  He
  Ne126    1.0000 0.75886  0.31789  0.86518  Biso   1.000  Ne
  Ne127    1.0000 0.66220  0.73473  0.10427  Biso   1.000  Ne
  He127    1.0000 0.64853  0.73808  0.13504  Biso   1.000  He
  He128    1.0000 0.66047  0.71810  0.15612  Biso   1.000  He
  Ne128    1.0000 0.64359  0.72186  0.18430  Biso   1.000  Ne
  Ne129    1.0000 0.31248  0.39680  0.72711  Biso   1.000  Ne
  He129    1.0000 0.32488  0.40118  0.75654  Biso   1.000  He
  He130    1.0000 0.31860  0.37620  0.77576  Biso   1.000  He
  Ne130    1.0000 0.32719  0.38320  0.80868  Biso   1.000  Ne
  Ne131    1.0000 0.63912  0.84871  0.18485  Biso   1.000  Ne
  He131    1.0000 0.65076  0.87807  0.17586  Biso   1.000  He
  He132    1.0000 0.68093  0.87804  0.16323  Biso   1.000  He
  Ne132    1.0000 0.68684  0.90832  0.15366  Biso   1.000  Ne
  Ne133    1.0000 0.25319  0.27733  0.35964  Biso   1.000  Ne
  He133    1.0000 0.24852  0.25596  0.38774  Biso   1.000  He
  He134    1.0000 0.27056  0.23084  0.38819  Biso   1.000  He
  Ne134    1.0000 0.27314  0.21752  0.41853  Biso   1.000  Ne
  Ne135    1.0000 0.99485  0.02053  0.59204  Biso   1.000  Ne
  He135    1.0000 0.97880  0.99011  0.58538  Biso   1.000  He
  He136    1.0000 0.98173  0.97969  0.55359  Biso   1.000  He
  Ne136    1.0000 0.96630  0.95313  0.54813  Biso   1.000  Ne
  Ne137    1.0000 0.10875  0.64700  0.24246  Biso   1.000  Ne
  He137    1.0000 0.08703  0.65226  0.26594  Biso   1.000  He
  He138    1.0000 0.08200  0.62567  0.28592  Biso   1.000  He
  Ne138    1.0000 0.06206  0.63384  0.31250  Biso   1.000  Ne
  Ne139    1.0000 0.95769  0.39775  0.56069  Biso   1.000  Ne
  He139    1.0000 0.93158  0.41674  0.56517  Biso   1.000  He
  He140    1.0000 0.90322  0.40137  0.56747  Biso   1.000  He
  Ne140    1.0000 0.87345  0.41727  0.57567  Biso   1.000  Ne
  Ne141    1.0000 0.78532  0.97607  0.61920  Biso   1.000  Ne
  He141    1.0000 0.76690  0.97362  0.59157  Biso   1.000  He
  He142    1.0000 0.75268  0.94201  0.58884  Biso   1.000  He
  Ne142    1.0000 0.72745  0.93987  0.56682  Biso   1.000  Ne
  Ne143    1.0000 0.73440  0.05256  0.87975  Biso   1.000  Ne
  He143    1.0000 0.76622  0.05837  0.88588  Biso   1.000  He
  He144    1.0000 0.77508  0.06168  0.91960  Biso   1.000  He
  Ne144    1.0000 0.80566  0.06873  0.92721  Biso   1.000  Ne
  Ne145    1.0000 0.68822  0.51330  0.34812  Biso   1.000  Ne
  He145    1.0000 0.66981  0.54236  0.33919  Biso   1.000  He
  He146    1.0000 0.67173  0.56354  0.36398  Biso   1.000  He
  Ne146    1.0000 0.66168  0.59342  0.35807  Biso   1.000  Ne
  Ne147    1.0000 0.66889  0.45162  0.57499  Biso   1.000  Ne
  He147    1.0000 0.67394  0.44594  0.60752  Biso   1.000  He
  He148    1.0000 0.69977  0.42397  0.61656  Biso   1.000  He
  Ne148    1.0000 0.70795  0.42232  0.64774  Biso   1.000  Ne
  Ne149    1.0000 0.17710  0.66942  0.98129  Biso   1.000  Ne
  He149    1.0000 0.16429  0.65049  0.95844  Biso   1.000  He
  He150    1.0000 0.18582  0.63598  0.93999  Biso   1.000  He
  Ne150    1.0000 0.17112  0.61445  0.92009  Biso   1.000  Ne
  Ne151    1.0000 0.55575  0.16885  0.10767  Biso   1.000  Ne
  He151    1.0000 0.53574  0.18496  0.12477  Biso   1.000  He
  He152    1.0000 0.51014  0.16589  0.13831  Biso   1.000  He
  Ne152    1.0000 0.48692  0.18143  0.15391  Biso   1.000  Ne
  Ne153    1.0000 0.24244  0.31381  0.12104  Biso   1.000  Ne
  He153    1.0000 0.23100  0.34212  0.11314  Biso   1.000  He
  He154    1.0000 0.21344  0.35601  0.13806  Biso   1.000  He
  Ne154    1.0000 0.19547  0.38219  0.13063  Biso   1.000  Ne
  Ne155    1.0000 0.31863  0.97616  0.83641  Biso   1.000  Ne
  He155    1.0000 0.33136  0.98356  0.80673  Biso   1.000  He
  He156    1.0000 0.34930  0.01214  0.80572  Biso   1.000  He
  Ne156    1.0000 0.35874  0.02202  0.77797  Biso   1.000  Ne
  Ne157    1.0000 0.89460  0.91817  0.97125  Biso   1.000  Ne
  He157    1.0000 0.90798  0.93844  0.95064  Biso   1.000  He
  He158    1.0000 0.94037  0.93487  0.94678  Biso   1.000  He
  Ne158    1.0000 0.95520  0.95134  0.92378  Biso   1.000  Ne
  Ne159    1.0000 0.86494  0.21851  0.90251  Biso   1.000  Ne
  He159    1.0000 0.85578  0.19327  0.87919  Biso   1.000  He
  He160    1.0000 0.87623  0.16870  0.88361  Biso   1.000  He
  Ne160    1.0000 0.86856  0.14515  0.86305  Biso   1.000  Ne
  Ne161    1.0000 0.66866  0.55630  0.62592  Biso   1.000  Ne
  He161    1.0000 0.67974  0.55189  0.59621  Biso   1.000  He
  He162    1.0000 0.70266  0.52865  0.59400  Biso   1.000  He
  Ne162    1.0000 0.70920  0.52732  0.56066  Biso   1.000  Ne
  Ne163    1.0000 0.15757  0.75286  0.56607  Biso   1.000  Ne
  He163    1.0000 0.12859  0.74241  0.55678  Biso   1.000  He
  He164    1.0000 0.10829  0.74137  0.58313  Biso   1.000  He
  Ne164    1.0000 0.07652  0.73386  0.57618  Biso   1.000  Ne
  Ne165    1.0000 0.17801  0.07513  0.08995  Biso   1.000  Ne
  He165    1.0000 0.15264  0.08776  0.10759  Biso   1.000  He
  He166    1.0000 0.12861  0.06805  0.11569  Biso   1.000  He
  Ne166    1.0000 0.10653  0.08145  0.13679  Biso   1.000  Ne
  Ne167    1.0000 0.04747  0.72351  0.23449  Biso   1.000  Ne
  He167    1.0000 0.05076  0.71389  0.20508  Biso   1.000  He
  He168    1.0000 0.02875  0.72821  0.18343  Biso   1.000  He
  Ne168    1.0000 0.03468  0.72114  0.15166  Biso   1.000  Ne
  Ne169    1.0000 0.80703  0.01552  0.70976  Biso   1.000  Ne
  He169    1.0000 0.83774  0.01080  0.70700  Biso   1.000  He
  He170    1.0000 0.85114  0.03236  0.72914  Biso   1.000  He
  Ne170    1.0000 0.88297  0.04066  0.72688  Biso   1.000  Ne
  Ne171    1.0000 0.44038  0.42578  0.08673  Biso   1.000  Ne
  He171    1.0000 0.41620  0.43897  0.06502  Biso   1.000  He
  He172    1.0000 0.40788  0.47154  0.06666  Biso   1.000  He
  Ne172    1.0000 0.38420  0.48195  0.04479  Biso   1.000  Ne
  Ne173    1.0000 0.33423  0.90444  0.26956  Biso   1.000  Ne
  He173    1.0000 0.31097  0.90831  0.29399  Biso   1.000  He
  He174    1.0000 0.30406  0.87960  0.30608  Biso   1.000  He
  Ne174    1.0000 0.28476  0.88257  0.33186  Biso   1.000  Ne
  Ne175    1.0000 0.12726  0.83495  0.33590  Biso   1.000  Ne
  He175    1.0000 0.10129  0.81827  0.35171  Biso   1.000  He
  He176    1.0000 0.09340  0.83169  0.38060  Biso   1.000  He
  Ne176    1.0000 0.06480  0.81788  0.39204  Biso   1.000  Ne
  Ne177    1.0000 0.73465  0.27064  0.68115  Biso   1.000  Ne
  He177    1.0000 0.72370  0.30034  0.69571  Biso   1.000  He
  He178    1.0000 0.71900  0.30165  0.72695  Biso   1.000  He
  Ne178    1.0000 0.70541  0.33021  0.73814  Biso   1.000  Ne
  Ne179    1.0000 0.69512  0.14421  0.21033  Biso   1.000  Ne
  He179    1.0000 0.66584  0.12884  0.21608  Biso   1.000  He
  He180    1.0000 0.64055  0.13837  0.19485  Biso   1.000  He
  Ne180    1.0000 0.61181  0.12062  0.19818  Biso   1.000  Ne
  Ne181    1.0000 0.32757  0.68999  0.38551  Biso   1.000  Ne
  He181    1.0000 0.35290  0.68241  0.40799  Biso   1.000  He
  He182    1.0000 0.34479  0.69139  0.43848  Biso   1.000  He
  Ne182    1.0000 0.37099  0.68833  0.45661  Biso   1.000  Ne
  Ne183    1.0000 0.29655  0.90006  0.79007  Biso   1.000  Ne
  He183    1.0000 0.27932  0.89981  0.76283  Biso   1.000  He
  He184    1.0000 0.24977  0.88581  0.76279  Biso   1.000  He
  Ne184    1.0000 0.23211  0.89203  0.73432  Biso   1.000  Ne
  Ne185    1.0000 0.87923  0.04753  0.17542  Biso   1.000  Ne
  He185    1.0000 0.86698  0.07415  0.16804  Biso   1.000  He
  He186    1.0000 0.87265  0.09869  0.18977  Biso   1.000  He
  Ne186    1.0000 0.86827  0.12849  0.17369  Biso   1.000  Ne
  Ne187    1.0000 0.55727  0.22963  0.69827  Biso   1.000  Ne
  He187    1.0000 0.55689  0.20900  0.72417  Biso   1.000  He
  He188    1.0000 0.54129  0.18212  0.71961  Biso   1.000  He
  Ne188    1.0000 0.53780  0.16437  0.74649  Biso   1.000  Ne
  Ne189    1.0000 0.00638  0.15467  0.70022  Biso   1.000  Ne
  He189    1.0000 0.00994  0.12140  0.69090  Biso   1.000  He
  He190    1.0000 0.97898  0.10381  0.68729  Biso   1.000  He
  Ne190    1.0000 0.98653  0.07128  0.67730  Biso   1.000  Ne
  Ne191    1.0000 0.26689  0.27518  0.58266  Biso   1.000  Ne
  He191    1.0000 0.25592  0.30118  0.56651  Biso   1.000  He
  He192    1.0000 0.27686  0.32844  0.56394  Biso   1.000  He
  Ne192    1.0000 0.27058  0.34892  0.53916  Biso   1.000  Ne
  Ne193    1.0000 0.71591  0.63835  0.11855  Biso   1.000  Ne
  He193    1.0000 0.73728  0.64915  0.09794  Biso   1.000  He
  He194    1.0000 0.76225  0.62721  0.09316  Biso   1.000  He
  Ne194    1.0000 0.78669  0.63795  0.07275  Biso   1.000  Ne
  Ne195    1.0000 0.88122  0.12225  0.07375  Biso   1.000  Ne
  He195    1.0000 0.85960  0.13812  0.09768  Biso   1.000  He
  He196    1.0000 0.82882  0.13491  0.09033  Biso   1.000  He
  Ne196    1.0000 0.80775  0.14430  0.11539  Biso   1.000  Ne
  Ne197    1.0000 0.66253  0.25978  0.21101  Biso   1.000  Ne
  He197    1.0000 0.66890  0.23478  0.18746  Biso   1.000  He
  He198    1.0000 0.64319  0.22688  0.17120  Biso   1.000  He
  Ne198    1.0000 0.64732  0.20313  0.14720  Biso   1.000  Ne
  Ne199    1.0000 0.41075  0.12767  0.88593  Biso   1.000  Ne
  He199    1.0000 0.41653  0.15773  0.89963  Biso   1.000  He
  He200    1.0000 0.40917  0.16133  0.93191  Biso   1.000  He
  Ne200    1.0000 0.41593  0.19190  0.94237  Biso   1.000  Ne
  Ne201    1.0000 0.55596  0.38996  0.06928  Biso   1.000  Ne
  He201    1.0000 0.54277  0.38912  0.09845  Biso   1.000  He
  He202    1.0000 0.56580  0.39476  0.12268  Biso   1.000  He
  Ne202    1.0000 0.55163  0.39482  0.15316  Biso   1.000  Ne
  Ne203    1.0000 0.27055  0.82258  0.22476  Biso   1.000  Ne
  He203    1.0000 0.30187  0.82601  0.21088  Biso   1.000  He
  He204    1.0000 0.30514  0.85062  0.18781  Biso   1.000  He
  Ne204    1.0000 0.33818  0.85487  0.18065  Biso   1.000  Ne
  Ne205    1.0000 0.22186  0.89008  0.85043  Biso   1.000  Ne
  He205    1.0000 0.20988  0.89555  0.88089  Biso   1.000  He
  He206    1.0000 0.18095  0.91194  0.87922  Biso   1.000  He
  Ne206    1.0000 0.16528  0.92133  0.90842  Biso   1.000  Ne
  Ne207    1.0000 0.33207  0.10523  0.11802  Biso   1.000  Ne
  He207    1.0000 0.34164  0.11047  0.08791  Biso   1.000  He
  He208    1.0000 0.37276  0.10607  0.08361  Biso   1.000  He
  Ne208    1.0000 0.38020  0.10840  0.05128  Biso   1.000  Ne
  Ne209    1.0000 0.68647  0.26992  0.31039  Biso   1.000  Ne
  He209    1.0000 0.65805  0.28802  0.31488  Biso   1.000  He
  He210    1.0000 0.64909  0.31080  0.28981  Biso   1.000  He
  Ne210    1.0000 0.62015  0.32933  0.29679  Biso   1.000  Ne
  Ne211    1.0000 0.98352  0.04598  0.41618  Biso   1.000  Ne
  He211    1.0000 0.99170  0.01444  0.41228  Biso   1.000  He
  He212    1.0000 0.99647  0.00537  0.38102  Biso   1.000  He
  Ne212    1.0000 0.99357  0.97155  0.37605  Biso   1.000  Ne
  Ne213    1.0000 0.90192  0.99533  0.04819  Biso   1.000  Ne
  He213    1.0000 0.91567  0.96801  0.06272  Biso   1.000  He
  He214    1.0000 0.94669  0.96498  0.05507  Biso   1.000  He
  Ne214    1.0000 0.96284  0.93600  0.06678  Biso   1.000  Ne
  Ne215    1.0000 0.90944  0.88627  0.15545  Biso   1.000  Ne
  He215    1.0000 0.88367  0.89398  0.17857  Biso   1.000  He
  He216    1.0000 0.88914  0.88591  0.20824  Biso   1.000  He
  Ne216    1.0000 0.86440  0.89083  0.22775  Biso   1.000  Ne
  Ne217    1.0000 0.52883  0.65648  0.40746  Biso   1.000  Ne
  He217    1.0000 0.50083  0.67122  0.41983  Biso   1.000  He
  He218    1.0000 0.47560  0.64969  0.42399  Biso   1.000  He
  Ne218    1.0000 0.44969  0.66122  0.44090  Biso   1.000  Ne
  Ne219    1.0000 0.04212  0.42364  0.57655  Biso   1.000  Ne
  He219    1.0000 0.03209  0.45597  0.57085  Biso   1.000  He
  He220    1.0000 0.05720  0.47912  0.56397  Biso   1.000  He
  Ne220    1.0000 0.05142  0.51203  0.55678  Biso   1.000  Ne
  Ne221    1.0000 0.56469  0.53712  0.28929  Biso   1.000  Ne
  He221    1.0000 0.53240  0.52659  0.29089  Biso   1.000  He
  He222    1.0000 0.52156  0.51350  0.26276  Biso   1.000  He
  Ne222    1.0000 0.49132  0.50142  0.26558  Biso   1.000  Ne
  Ne223    1.0000 0.74539  0.30577  0.96628  Biso   1.000  Ne
  He223    1.0000 0.74363  0.27778  0.95070  Biso   1.000  He
  He224    1.0000 0.77274  0.27275  0.93817  Biso   1.000  He
  Ne224    1.0000 0.77349  0.24447  0.92257  Biso   1.000  Ne
  Ne225    1.0000 0.78680  0.76852  0.29267  Biso   1.000  Ne
  He225    1.0000 0.76273  0.78968  0.30337  Biso   1.000  He
  He226    1.0000 0.77703  0.81878  0.31717  Biso   1.000  He
  Ne226    1.0000 0.75702  0.84448  0.32426  Biso   1.000  Ne
  Ne227    1.0000 0.19972  0.86123  0.44845  Biso   1.000  Ne
  He227    1.0000 0.19099  0.84725  0.41831  Biso   1.000  He
  He228    1.0000 0.21444  0.83706  0.39768  Biso   1.000  He
  Ne228    1.0000 0.19766  0.82301  0.37203  Biso   1.000  Ne
  Ne229    1.0000 0.77946  0.08210  0.18751  Biso   1.000  Ne
  He229    1.0000 0.79041  0.09270  0.21957  Biso   1.000  He
  He230    1.0000 0.76885  0.11281  0.23490  Biso   1.000  He
  Ne230    1.0000 0.77712  0.12188  0.26348  Biso   1.000  Ne
  Ne231    1.0000 0.87888  0.27032  0.60156  Biso   1.000  Ne
  He231    1.0000 0.88314  0.29501  0.61884  Biso   1.000  He
  He232    1.0000 0.87250  0.29314  0.65047  Biso   1.000  He
  Ne232    1.0000 0.88201  0.31750  0.67033  Biso   1.000  Ne
  Ne233    1.0000 0.03496  0.42686  0.48744  Biso   1.000  Ne
  He233    1.0000 0.04593  0.41596  0.45748  Biso   1.000  He
  He234    1.0000 0.02285  0.42639  0.43557  Biso   1.000  He
  Ne234    1.0000 0.02917  0.41841  0.40249  Biso   1.000  Ne
  Ne235    1.0000 0.34442  0.11263  0.31599  Biso   1.000  Ne
  He235    1.0000 0.36716  0.08872  0.32503  Biso   1.000  He
  He236    1.0000 0.37248  0.08754  0.35850  Biso   1.000  He
  Ne236    1.0000 0.39803  0.06930  0.36460  Biso   1.000  Ne
  Ne237    1.0000 0.55403  0.54564  0.86304  Biso   1.000  Ne
  He237    1.0000 0.56000  0.54664  0.89648  Biso   1.000  He
  He238    1.0000 0.59088  0.55593  0.90596  Biso   1.000  He
  Ne238    1.0000 0.59989  0.55526  0.93876  Biso   1.000  Ne
  Ne239    1.0000 0.10486  0.24717  0.29446  Biso   1.000  Ne
  He239    1.0000 0.12639  0.23428  0.31670  Biso   1.000  He
  He240    1.0000 0.14102  0.25709  0.33568  Biso   1.000  He
  Ne240    1.0000 0.15628  0.24601  0.36123  Biso   1.000  Ne
  Ne241    1.0000 0.88379  0.40888  0.67495  Biso   1.000  Ne
  He241    1.0000 0.85683  0.41281  0.69374  Biso   1.000  He
  He242    1.0000 0.84039  0.38751  0.69016  Biso   1.000  He
  Ne242    1.0000 0.81455  0.38902  0.70848  Biso   1.000  Ne
  Ne243    1.0000 0.06853  0.94939  0.04654  Biso   1.000  Ne
  He243    1.0000 0.07163  0.91810  0.05599  Biso   1.000  He
  He244    1.0000 0.04214  0.90544  0.06506  Biso   1.000  He
  Ne244    1.0000 0.04405  0.87356  0.07307  Biso   1.000  Ne
  Ne245    1.0000 0.11812  0.39195  0.42817  Biso   1.000  Ne
  He245    1.0000 0.11445  0.35909  0.43364  Biso   1.000  He
  He246    1.0000 0.08460  0.34869  0.42134  Biso   1.000  He
  Ne246    1.0000 0.07993  0.31708  0.42618  Biso   1.000  Ne
  Ne247    1.0000 0.27728  0.44267  0.38506  Biso   1.000  Ne
  He247    1.0000 0.28548  0.41082  0.37819  Biso   1.000  He
  He248    1.0000 0.26556  0.39196  0.35640  Biso   1.000  He
  Ne248    1.0000 0.27801  0.36172  0.35195  Biso   1.000  Ne
  Ne249    1.0000 0.34495  0.54995  0.45768  Biso   1.000  Ne
  He249    1.0000 0.36616  0.53941  0.48115  Biso   1.000  He
  He250    1.0000 0.39638  0.53715  0.47129  Biso   1.000  He
  Ne250    1.0000 0.41871  0.52144  0.49420  Biso   1.000  Ne
  Ne251    1.0000 0.23580  0.10035  0.94889  Biso   1.000  Ne
  He251    1.0000 0.21915  0.09746  0.92161  Biso   1.000  He
  He252    1.0000 0.21656  0.12180  0.90043  Biso   1.000  He
  Ne252    1.0000 0.19585  0.11305  0.87858  Biso   1.000  Ne
  Ne253    1.0000 0.68180  0.08943  0.11736  Biso   1.000  Ne
  He253    1.0000 0.69023  0.12113  0.12540  Biso   1.000  He
  He254    1.0000 0.71560  0.13271  0.10943  Biso   1.000  He
  Ne254    1.0000 0.72346  0.16326  0.10951  Biso   1.000  Ne
  Ne255    1.0000 0.53945  0.44525  0.48506  Biso   1.000  Ne
  He255    1.0000 0.54822  0.47476  0.47378  Biso   1.000  He
  He256    1.0000 0.52094  0.48803  0.45732  Biso   1.000  He
  Ne256    1.0000 0.52782  0.51924  0.44332  Biso   1.000  Ne
  Ne257    1.0000 0.55706  0.24820  0.07868  Biso   1.000  Ne
  He257    1.0000 0.54476  0.26534  0.10540  Biso   1.000  He
  He258    1.0000 0.54974  0.29938  0.10171  Biso   1.000  He
  Ne258    1.0000 0.53915  0.31477  0.12934  Biso   1.000  Ne
  Ne259    1.0000 0.64863  0.20118  0.07294  Biso   1.000  Ne
  He259    1.0000 0.62120  0.18332  0.05993  Biso   1.000  He
  He260    1.0000 0.63580  0.15589  0.04457  Biso   1.000  He
  Ne260    1.0000 0.61462  0.13732  0.02929  Biso   1.000  Ne
  Ne261    1.0000 0.80464  0.38271  0.60745  Biso   1.000  Ne
  He261    1.0000 0.78157  0.35789  0.61076  Biso   1.000  He
  He262    1.0000 0.79510  0.32858  0.61685  Biso   1.000  He
  Ne262    1.0000 0.79223  0.30915  0.58939  Biso   1.000  Ne
  Ne263    1.0000 0.93462  0.44881  0.82744  Biso   1.000  Ne
  He263    1.0000 0.92373  0.44462  0.79517  Biso   1.000  He
  He264    1.0000 0.89484  0.42787  0.79033  Biso   1.000  He
  Ne264    1.0000 0.88920  0.42814  0.75671  Biso   1.000  Ne
  Ne265    1.0000 0.13682  0.92670  0.79442  Biso   1.000  Ne
  He265    1.0000 0.16453  0.90882  0.78406  Biso   1.000  He
  He266    1.0000 0.15727  0.87745  0.77163  Biso   1.000  He
  Ne266    1.0000 0.15928  0.85278  0.79216  Biso   1.000  Ne
  Ne267    1.0000 0.52922  0.80725  0.86979  Biso   1.000  Ne
  He267    1.0000 0.50127  0.80368  0.85219  Biso   1.000  He
  He268    1.0000 0.48932  0.77288  0.85555  Biso   1.000  He
  Ne268    1.0000 0.45953  0.76951  0.84192  Biso   1.000  Ne
  Ne269    1.0000 0.79412  0.86127  0.53178  Biso   1.000  Ne
  He269    1.0000 0.77959  0.85926  0.55979  Biso   1.000  He
  He270    1.0000 0.79602  0.87474  0.58535  Biso   1.000  He
  Ne270    1.0000 0.78292  0.86868  0.61419  Biso   1.000  Ne
  Ne271    1.0000 0.59309  0.85726  0.70874  Biso   1.000  Ne
  He271    1.0000 0.58022  0.88322  0.69087  Biso   1.000  He
  He272    1.0000 0.56933  0.88039  0.66002  Biso   1.000  He
  Ne272    1.0000 0.55478  0.90740  0.64687  Biso   1.000  Ne
  Ne273    1.0000 0.81178  0.79205  0.48682  Biso   1.000  Ne
  He273    1.0000 0.79345  0.81224  0.46910  Biso   1.000  He
  He274    1.0000 0.77127  0.79434  0.45179  Biso   1.000  He
  Ne274    1.0000 0.75239  0.81043  0.43047  Biso   1.000  Ne
  Ne275    1.0000 0.44953  0.33474  0.39129  Biso   1.000  Ne
  He275    1.0000 0.43339  0.35600  0.41208  Biso   1.000  He
  He276    1.0000 0.40112  0.36507  0.40001  Biso   1.000  He
  Ne276    1.0000 0.38427  0.38497  0.42307  Biso   1.000  Ne
  Ne277    1.0000 0.47096  0.33443  0.72309  Biso   1.000  Ne
  He277    1.0000 0.46699  0.33681  0.69087  Biso   1.000  He
  He278    1.0000 0.46583  0.30658  0.67703  Biso   1.000  He
  Ne278    1.0000 0.47118  0.30611  0.64370  Biso   1.000  Ne
  Ne279    1.0000 0.32682  0.15698  0.97475  Biso   1.000  Ne
  He279    1.0000 0.29244  0.16247  0.97493  Biso   1.000  He
  He280    1.0000 0.27950  0.17251  0.00326  Biso   1.000  He
  Ne280    1.0000 0.24521  0.17596  0.00230  Biso   1.000  Ne
  Ne281    1.0000 0.46571  0.03037  0.44740  Biso   1.000  Ne
  He281    1.0000 0.43328  0.04360  0.44353  Biso   1.000  He
  He282    1.0000 0.41027  0.02378  0.45576  Biso   1.000  He
  Ne282    1.0000 0.37946  0.03751  0.45679  Biso   1.000  Ne
  Ne283    1.0000 0.05510  0.55554  0.64195  Biso   1.000  Ne
  He283    1.0000 0.04460  0.56752  0.61180  Biso   1.000  He
  He284    1.0000 0.06406  0.59349  0.60104  Biso   1.000  He
  Ne284    1.0000 0.06144  0.60123  0.56975  Biso   1.000  Ne
  Ne285    1.0000 0.20415  0.40094  0.59712  Biso   1.000  Ne
  He285    1.0000 0.19262  0.39744  0.62935  Biso   1.000  He
  He286    1.0000 0.15986  0.39590  0.62710  Biso   1.000  He
  Ne286    1.0000 0.14430  0.39617  0.65487  Biso   1.000  Ne
  Ne287    1.0000 0.47860  0.12716  0.80297  Biso   1.000  Ne
  He287    1.0000 0.45616  0.10711  0.81213  Biso   1.000  He
  He288    1.0000 0.42603  0.11465  0.80084  Biso   1.000  He
  Ne288    1.0000 0.39915  0.09903  0.80956  Biso   1.000  Ne
  Ne289    1.0000 0.36801  0.33345  0.55145  Biso   1.000  Ne
  He289    1.0000 0.37748  0.34972  0.57833  Biso   1.000  He
  He290    1.0000 0.36432  0.34199  0.60672  Biso   1.000  He
  Ne290    1.0000 0.37753  0.36172  0.63318  Biso   1.000  Ne
  Ne291    1.0000 0.31197  0.51476  0.37223  Biso   1.000  Ne
  He291    1.0000 0.34128  0.50116  0.37780  Biso   1.000  He
  He292    1.0000 0.34639  0.48942  0.40986  Biso   1.000  He
  Ne292    1.0000 0.37508  0.47447  0.41337  Biso   1.000  Ne
  Ne293    1.0000 0.53463  0.00510  0.51007  Biso   1.000  Ne
  He293    1.0000 0.54905  0.02330  0.48854  Biso   1.000  He
  He294    1.0000 0.53301  0.05298  0.48394  Biso   1.000  He
  Ne294    1.0000 0.54786  0.07428  0.46258  Biso   1.000  Ne
  Ne295    1.0000 0.18098  0.76133  0.67505  Biso   1.000  Ne
  He295    1.0000 0.19579  0.73738  0.65769  Biso   1.000  He
  He296    1.0000 0.22701  0.73579  0.66273  Biso   1.000  He
  Ne296    1.0000 0.24052  0.71046  0.64811  Biso   1.000  Ne
  Ne297    1.0000 0.11468  0.01578  0.41769  Biso   1.000  Ne
  He297    1.0000 0.09856  0.03057  0.44240  Biso   1.000  He
  He298    1.0000 0.07384  0.04969  0.43188  Biso   1.000  He
  Ne298    1.0000 0.05525  0.06741  0.45655  Biso   1.000  Ne
  Ne299    1.0000 0.13643  0.22010  0.70389  Biso   1.000  Ne
  He299    1.0000 0.11066  0.23133  0.72150  Biso   1.000  He
  He300    1.0000 0.09772  0.20459  0.73867  Biso   1.000  He
  Ne300    1.0000 0.06900  0.21053  0.75311  Biso   1.000  Ne
  Ne301    1.0000 0.73123  0.29693  0.21628  Biso   1.000  Ne
  He301    1.0000 0.72154  0.32995  0.21310  Biso   1.000  He
  He302    1.0000 0.71752  0.34391  0.24019  Biso   1.000  He
  Ne302    1.0000 0.70807  0.37471  0.23545  Biso   1.000  Ne
  Ne303    1.0000 0.93961  0.57403  0.02260  Biso   1.000  Ne
  He303    1.0000 0.92501  0.55436  0.00281  Biso   1.000  He
  He304    1.0000 0.88984  0.55156  0.00688  Biso   1.000  He
  Ne304    1.0000 0.87542  0.53413  0.98402  Biso   1.000  Ne
  Ne305    1.0000 0.90126  0.87391  0.53734  Biso   1.000  Ne
  He305    1.0000 0.88065  0.85441  0.51941  Biso   1.000  He
  He306    1.0000 0.89168  0.83870  0.49249  Biso   1.000  He
  Ne306    1.0000 0.88692  0.85913  0.46429  Biso   1.000  Ne
  Ne307    1.0000 0.53553  0.37683  0.39623  Biso   1.000  Ne
  He307    1.0000 0.53736  0.38006  0.42855  Biso   1.000  He
  He308    1.0000 0.52043  0.35344  0.44139  Biso   1.000  He
  Ne308    1.0000 0.52121  0.35207  0.47271  Biso   1.000  Ne
  Ne309    1.0000 0.55156  0.54509  0.72754  Biso   1.000  Ne
  He309    1.0000 0.55110  0.55565  0.76095  Biso   1.000  He
  He310    1.0000 0.54539  0.58755  0.76146  Biso   1.000  He
  Ne310    1.0000 0.54747  0.59443  0.79229  Biso   1.000  Ne
  Ne311    1.0000 0.94135  0.53894  0.89958  Biso   1.000  Ne
  He311    1.0000 0.93489  0.57113  0.90280  Biso   1.000  He
  He312    1.0000 0.91368  0.57966  0.92782  Biso   1.000  He
  Ne312    1.0000 0.90692  0.61254  0.92921  Biso   1.000  Ne
  Ne313    1.0000 0.98249  0.59586  0.19949  Biso   1.000  Ne
  He313    1.0000 0.00802  0.61005  0.18687  Biso   1.000  He
  He314    1.0000 0.03847  0.61185  0.20189  Biso   1.000  He
  Ne314    1.0000 0.05943  0.63272  0.18547  Biso   1.000  Ne
  Ne315    1.0000 0.55470  0.63300  0.89998  Biso   1.000  Ne
  He315    1.0000 0.58393  0.64902  0.89373  Biso   1.000  He
  He316    1.0000 0.60208  0.64610  0.91996  Biso   1.000  He
  Ne316    1.0000 0.63120  0.66246  0.91793  Biso   1.000  Ne
  Ne317    1.0000 0.40532  0.43608  0.26779  Biso   1.000  Ne
  He317    1.0000 0.37463  0.43419  0.27240  Biso   1.000  He
  He318    1.0000 0.36431  0.42738  0.30192  Biso   1.000  He
  Ne318    1.0000 0.33225  0.42398  0.30268  Biso   1.000  Ne
  Ne319    1.0000 0.76591  0.32141  0.04953  Biso   1.000  Ne
  He319    1.0000 0.74495  0.34049  0.06318  Biso   1.000  He
  He320    1.0000 0.75686  0.36116  0.08699  Biso   1.000  He
  Ne320    1.0000 0.73370  0.37478  0.10290  Biso   1.000  Ne
  Ne321    1.0000 0.66482  0.29364  0.91441  Biso   1.000  Ne
  He321    1.0000 0.67158  0.26241  0.90731  Biso   1.000  He
  He322    1.0000 0.65311  0.24767  0.88343  Biso   1.000  He
  Ne322    1.0000 0.66459  0.21813  0.87599  Biso   1.000  Ne
  Ne323    1.0000 0.04094  0.70179  0.86443  Biso   1.000  Ne
  He323    1.0000 0.06956  0.71553  0.86846  Biso   1.000  He
  He324    1.0000 0.07639  0.72723  0.90182  Biso   1.000  He
  Ne324    1.0000 0.10486  0.74019  0.90850  Biso   1.000  Ne
  Ne325    1.0000 0.85631  0.62836  0.00105  Biso   1.000  Ne
  He325    1.0000 0.85603  0.65611  0.98892  Biso   1.000  He
  He326    1.0000 0.83430  0.66001  0.96273  Biso   1.000  He
  Ne326    1.0000 0.83202  0.69314  0.95371  Biso   1.000  Ne
  Ne327    1.0000 0.25884  0.52640  0.47114  Biso   1.000  Ne
  He327    1.0000 0.24890  0.53629  0.43997  Biso   1.000  He
  He328    1.0000 0.25437  0.56829  0.43710  Biso   1.000  He
  Ne328    1.0000 0.24950  0.58290  0.40840  Biso   1.000  Ne
  Ne329    1.0000 0.78362  0.36504  0.18394  Biso   1.000  Ne
  He329    1.0000 0.80460  0.35791  0.16022  Biso   1.000  He
  He330    1.0000 0.82389  0.38441  0.15167  Biso   1.000  He
  Ne330    1.0000 0.83882  0.38258  0.12483  Biso   1.000  Ne
  Ne331    1.0000 0.25834  0.36892  0.45228  Biso   1.000  Ne
  He331    1.0000 0.24127  0.34934  0.43349  Biso   1.000  He
  He332    1.0000 0.20865  0.35317  0.43814  Biso   1.000  He
  Ne332    1.0000 0.18900  0.33175  0.42078  Biso   1.000  Ne
  Ne333    1.0000 0.04722  0.15349  0.46680  Biso   1.000  Ne
  He333    1.0000 0.07474  0.17171  0.47661  Biso   1.000  He
  He334    1.0000 0.09556  0.15387  0.49426  Biso   1.000  He
  Ne334    1.0000 0.12236  0.17021  0.50132  Biso   1.000  Ne
  Ne335    1.0000 0.03712  0.37826  0.01448  Biso   1.000  Ne
  He335    1.0000 0.02098  0.34808  0.00220  Biso   1.000  He
  He336    1.0000 0.03071  0.32187  0.01860  Biso   1.000  He
  Ne336    1.0000 0.01493  0.29523  0.00714  Biso   1.000  Ne
  Ne337    1.0000 0.36263  0.42759  0.55259  Biso   1.000  Ne
  He337    1.0000 0.38554  0.42413  0.52988  Biso   1.000  He
  He338    1.0000 0.37551  0.42895  0.49888  Biso   1.000  He
  Ne338    1.0000 0.39824  0.44396  0.47625  Biso   1.000  Ne
  Ne339    1.0000 0.42996  0.25567  0.40415  Biso   1.000  Ne
  He339    1.0000 0.39828  0.24569  0.39970  Biso   1.000  He
  He340    1.0000 0.38774  0.25674  0.37106  Biso   1.000  He
  Ne340    1.0000 0.37312  0.23535  0.35417  Biso   1.000  Ne
  Ne341    1.0000 0.27887  0.77604  0.78032  Biso   1.000  Ne
  He341    1.0000 0.24562  0.78005  0.77322  Biso   1.000  He
  He342    1.0000 0.24133  0.80354  0.75053  Biso   1.000  He
  Ne342    1.0000 0.21016  0.80265  0.73660  Biso   1.000  Ne
  Ne343    1.0000 0.36281  0.37853  0.10727  Biso   1.000  Ne
  He343    1.0000 0.34321  0.40471  0.10616  Biso   1.000  He
  He344    1.0000 0.31171  0.39855  0.10027  Biso   1.000  He
  Ne344    1.0000 0.29382  0.42613  0.10378  Biso   1.000  Ne
  Ne345    1.0000 0.54962  0.02611  0.12696  Biso   1.000  Ne
  He345    1.0000 0.56453  0.05504  0.12707  Biso   1.000  He
  He346    1.0000 0.58335  0.06104  0.10184  Biso   1.000  He
  Ne346    1.0000 0.59731  0.09317  0.10313  Biso   1.000  Ne
  Ne347    1.0000 0.18092  0.61601  0.09897  Biso   1.000  Ne
  He347    1.0000 0.17747  0.60322  0.07011  Biso   1.000  He
  He348    1.0000 0.19352  0.57127  0.07116  Biso   1.000  He
  Ne348    1.0000 0.18838  0.55779  0.04271  Biso   1.000  Ne
  Ne349    1.0000 0.18611  0.16090  0.57190  Biso   1.000  Ne
  He349    1.0000 0.21996  0.15711  0.56678  Biso   1.000  He
  He350    1.0000 0.23808  0.15455  0.59342  Biso   1.000  He
  Ne350    1.0000 0.26959  0.15327  0.58933  Biso   1.000  Ne
  Ne351    1.0000 0.91369  0.13042  0.29329  Biso   1.000  Ne
  He351    1.0000 0.90080  0.15237  0.27007  Biso   1.000  He
  He352    1.0000 0.86821  0.14762  0.26205  Biso   1.000  He
  Ne352    1.0000 0.85308  0.17150  0.24167  Biso   1.000  Ne
  Ne353    1.0000 0.42339  0.63016  0.35205  Biso   1.000  Ne
  He353    1.0000 0.41367  0.60477  0.37226  Biso   1.000  He
  He354    1.0000 0.44104  0.58724  0.38659  Biso   1.000  He
  Ne354    1.0000 0.43317  0.56630  0.40932  Biso   1.000  Ne
  Ne355    1.0000 0.39525  0.19615  0.08588  Biso   1.000  Ne
  He355    1.0000 0.42257  0.18617  0.07064  Biso   1.000  He
  He356    1.0000 0.44651  0.20853  0.06917  Biso   1.000  He
  Ne356    1.0000 0.47395  0.19653  0.05711  Biso   1.000  Ne
  Ne357    1.0000 0.07433  0.79141  0.08686  Biso   1.000  Ne
  He357    1.0000 0.08320  0.80380  0.11895  Biso   1.000  He
  He358    1.0000 0.11547  0.79238  0.12847  Biso   1.000  He
  Ne358    1.0000 0.12663  0.80673  0.15530  Biso   1.000  Ne
  Ne359    1.0000 0.70218  0.41691  0.82210  Biso   1.000  Ne
  He359    1.0000 0.72654  0.40667  0.80378  Biso   1.000  He
  He360    1.0000 0.72126  0.40965  0.77138  Biso   1.000  He
  Ne360    1.0000 0.74331  0.39853  0.75229  Biso   1.000  Ne
  Ne361    1.0000 0.38636  0.57268  0.18703  Biso   1.000  Ne
  He361    1.0000 0.40233  0.59925  0.18499  Biso   1.000  He
  He362    1.0000 0.38543  0.62653  0.18707  Biso   1.000  He
  Ne362    1.0000 0.40097  0.65745  0.18601  Biso   1.000  Ne
  Ne363    1.0000 0.85636  0.48402  0.16887  Biso   1.000  Ne
  He363    1.0000 0.83025  0.47160  0.15475  Biso   1.000  He
  He364    1.0000 0.80234  0.47279  0.17050  Biso   1.000  He
  Ne364    1.0000 0.77960  0.45590  0.15290  Biso   1.000  Ne
  Ne365    1.0000 0.26809  0.05137  0.68349  Biso   1.000  Ne
  He365    1.0000 0.27157  0.08264  0.66757  Biso   1.000  He
  He366    1.0000 0.29534  0.10349  0.67995  Biso   1.000  He
  Ne366    1.0000 0.29477  0.13295  0.66059  Biso   1.000  Ne
  Ne367    1.0000 0.70653  0.21941  0.59888  Biso   1.000  Ne
  He367    1.0000 0.68096  0.23503  0.60825  Biso   1.000  He
  He368    1.0000 0.66345  0.24790  0.58314  Biso   1.000  He
  Ne368    1.0000 0.63707  0.26791  0.59137  Biso   1.000  Ne
  Ne369    1.0000 0.88523  0.35095  0.86052  Biso   1.000  Ne
  He369    1.0000 0.88685  0.37254  0.88361  Biso   1.000  He
  He370    1.0000 0.91445  0.38855  0.87857  Biso   1.000  He
  Ne370    1.0000 0.92229  0.41036  0.90034  Biso   1.000  Ne
  Ne371    1.0000 0.32963  0.87699  0.66285  Biso   1.000  Ne
  He371    1.0000 0.32761  0.89219  0.63379  Biso   1.000  He
  He372    1.0000 0.32347  0.87182  0.60644  Biso   1.000  He
  Ne372    1.0000 0.32333  0.88856  0.57419  Biso   1.000  Ne
  Ne373    1.0000 0.98518  0.24902  0.08669  Biso   1.000  Ne
  He373    1.0000 0.98072  0.25391  0.11752  Biso   1.000  He
  He374    1.0000 0.96559  0.28192  0.12499  Biso   1.000  He
  Ne374    1.0000 0.96540  0.28861  0.15689  Biso   1.000  Ne
  Ne375    1.0000 0.35159  0.42124  0.19606  Biso   1.000  Ne
  He375    1.0000 0.33550  0.39283  0.20614  Biso   1.000  He
  He376    1.0000 0.30820  0.39049  0.19037  Biso   1.000  He
  Ne376    1.0000 0.29262  0.36558  0.20275  Biso   1.000  Ne
  Ne377    1.0000 0.40929  0.13904  0.18133  Biso   1.000  Ne
  He377    1.0000 0.41240  0.10877  0.16699  Biso   1.000  He
  He378    1.0000 0.44430  0.10545  0.15389  Biso   1.000  He
  Ne378    1.0000 0.44598  0.07536  0.13924  Biso   1.000  Ne
  Ne379    1.0000 0.90268  0.51671  0.44034  Biso   1.000  Ne
  He379    1.0000 0.93339  0.50175  0.43309  Biso   1.000  He
  He380    1.0000 0.95431  0.52154  0.41595  Biso   1.000  He
  Ne380    1.0000 0.98241  0.50460  0.41028  Biso   1.000  Ne
  Ne381    1.0000 0.41436  0.61261  0.51152  Biso   1.000  Ne
  He381    1.0000 0.41915  0.64200  0.52163  Biso   1.000  He
  He382    1.0000 0.43883  0.64365  0.54832  Biso   1.000  He
  Ne382    1.0000 0.44589  0.67255  0.55848  Biso   1.000  Ne
  Ne383    1.0000 0.41432  0.80523  0.17455  Biso   1.000  Ne
  He383    1.0000 0.43122  0.83431  0.17090  Biso   1.000  He
  He384    1.0000 0.42291  0.84881  0.14342  Biso   1.000  He
  Ne384    1.0000 0.43727  0.87803  0.13950  Biso   1.000  Ne
  Ne385    1.0000 0.88338  0.80654  0.82965  Biso   1.000  Ne
  He385    1.0000 0.88698  0.83536  0.81327  Biso   1.000  He
  He386    1.0000 0.89468  0.83110  0.78221  Biso   1.000  He
  Ne386    1.0000 0.89961  0.86027  0.76624  Biso   1.000  Ne
  Ne387    1.0000 0.73394  0.59835  0.41400  Biso   1.000  Ne
  He387    1.0000 0.74735  0.62461  0.42555  Biso   1.000  He
  He388    1.0000 0.76706  0.64291  0.40326  Biso   1.000  He
  Ne388    1.0000 0.77870  0.67221  0.41457  Biso   1.000  Ne
  Ne389    1.0000 0.83288  0.89220  0.90120  Biso   1.000  Ne
  He389    1.0000 0.85937  0.88336  0.88270  Biso   1.000  He
  He390    1.0000 0.87476  0.91124  0.87031  Biso   1.000  He
  Ne390    1.0000 0.90288  0.90438  0.85310  Biso   1.000  Ne
  Ne391    1.0000 0.83541  0.40598  0.23257  Biso   1.000  Ne
  He391    1.0000 0.80598  0.41835  0.24441  Biso   1.000  He
  He392    1.0000 0.78940  0.40076  0.26651  Biso   1.000  He
  Ne392    1.0000 0.80102  0.40343  0.29992  Biso   1.000  Ne
  Ne393    1.0000 0.37847  0.33676  0.28920  Biso   1.000  Ne
  He393    1.0000 0.34913  0.32654  0.27467  Biso   1.000  He
  He394    1.0000 0.32224  0.34543  0.28350  Biso   1.000  He
  Ne394    1.0000 0.29323  0.33262  0.27498  Biso   1.000  Ne
  Ne395    1.0000 0.30786  0.65569  0.61442  Biso   1.000  Ne
  He395    1.0000 0.30772  0.67765  0.59207  Biso   1.000  He
  He396    1.0000 0.33787  0.69140  0.58834  Biso   1.000  He
  Ne396    1.0000 0.33938  0.71253  0.56197  Biso   1.000  Ne
  Ne397    1.0000 0.61528  0.29525  0.46336  Biso   1.000  Ne
  He397    1.0000 0.61671  0.30931  0.43332  Biso   1.000  He
  He398    1.0000 0.61740  0.28895  0.40868  Biso   1.000  He
  Ne398    1.0000 0.61470  0.30643  0.37983  Biso   1.000  Ne
  Ne399    1.0000 0.32105  0.06378  0.98885  Biso   1.000  Ne
  He399    1.0000 0.29208  0.06786  0.00168  Biso   1.000  He
  He400    1.0000 0.29284  0.06841  0.03420  Biso   1.000  He
  Ne400    1.0000 0.26729  0.08133  0.04752  Biso   1.000  Ne
  Ne401    1.0000 0.82930  0.57386  0.77453  Biso   1.000  Ne
  He401    1.0000 0.79924  0.56757  0.76540  Biso   1.000  He
  He402    1.0000 0.77714  0.58815  0.77940  Biso   1.000  He
  Ne402    1.0000 0.76071  0.57249  0.80692  Biso   1.000  Ne
  Ne403    1.0000 0.05547  0.63762  0.90192  Biso   1.000  Ne
  He403    1.0000 0.06970  0.61367  0.91875  Biso   1.000  He
  He404    1.0000 0.07977  0.62160  0.95013  Biso   1.000  He
  Ne404    1.0000 0.09586  0.59644  0.96573  Biso   1.000  Ne
  Ne405    1.0000 0.75999  0.14992  0.84242  Biso   1.000  Ne
  He405    1.0000 0.78272  0.16086  0.86074  Biso   1.000  He
  He406    1.0000 0.78248  0.14585  0.89055  Biso   1.000  He
  Ne406    1.0000 0.80128  0.15832  0.91552  Biso   1.000  Ne
  Ne407    1.0000 0.17135  0.71780  0.17135  Biso   1.000  Ne
  He407    1.0000 0.15078  0.69704  0.18830  Biso   1.000  He
  He408    1.0000 0.13560  0.67358  0.16769  Biso   1.000  He
  Ne408    1.0000 0.14313  0.64333  0.17402  Biso   1.000  Ne
  Ne409    1.0000 0.54188  0.38461  0.60210  Biso   1.000  Ne
  He409    1.0000 0.56094  0.38591  0.57605  Biso   1.000  He
  He410    1.0000 0.59040  0.40203  0.57897  Biso   1.000  He
  Ne410    1.0000 0.61199  0.39564  0.55201  Biso   1.000  Ne
  Ne411    1.0000 0.10730  0.07813  0.69405  Biso   1.000  Ne
  He411    1.0000 0.08843  0.09845  0.67694  Biso   1.000  He
  He412    1.0000 0.10110  0.13028  0.67321  Biso   1.000  He
  Ne412    1.0000 0.08023  0.14863  0.65590  Biso   1.000  Ne
  Ne413    1.0000 0.36198  0.91976  0.44382  Biso   1.000  Ne
  He413    1.0000 0.39196  0.93321  0.45454  Biso   1.000  He
  He414    1.0000 0.41868  0.91153  0.45381  Biso   1.000  He
  Ne414    1.0000 0.44855  0.92653  0.46286  Biso   1.000  Ne
  Ne415    1.0000 0.76928  0.99953  0.39034  Biso   1.000  Ne
  He415    1.0000 0.77536  0.01361  0.36237  Biso   1.000  He
  He416    1.0000 0.76507  0.04652  0.35909  Biso   1.000  He
  Ne416    1.0000 0.76101  0.05375  0.32763  Biso   1.000  Ne
  Ne417    1.0000 0.21701  0.86171  0.28841  Biso   1.000  Ne
  He417    1.0000 0.18821  0.86926  0.30147  Biso   1.000  He
  He418    1.0000 0.17881  0.89400  0.28459  Biso   1.000  He
  Ne418    1.0000 0.14880  0.90572  0.29310  Biso   1.000  Ne
  Ne419    1.0000 0.29865  0.78902  0.35282  Biso   1.000  Ne
  He419    1.0000 0.31544  0.79429  0.37962  Biso   1.000  He
  He420    1.0000 0.31533  0.82619  0.38533  Biso   1.000  He
  Ne420    1.0000 0.33511  0.83894  0.41333  Biso   1.000  Ne
  Ne421    1.0000 0.38521  0.33363  0.94623  Biso   1.000  Ne
  He421    1.0000 0.36216  0.31444  0.93905  Biso   1.000  He
  He422    1.0000 0.36993  0.28243  0.94950  Biso   1.000  He
  Ne422    1.0000 0.34174  0.26286  0.94664  Biso   1.000  Ne
  Ne423    1.0000 0.18910  0.07718  0.80908  Biso   1.000  Ne
  He423    1.0000 0.22185  0.08367  0.80819  Biso   1.000  He
  He424    1.0000 0.24078  0.05694  0.80928  Biso   1.000  He
  Ne424    1.0000 0.27481  0.06366  0.80178  Biso   1.000  Ne
  Ne425    1.0000 0.85087  0.21338  0.08894  Biso   1.000  Ne
  He425    1.0000 0.84367  0.22524  0.12043  Biso   1.000  He
  He426    1.0000 0.85610  0.20632  0.14578  Biso   1.000  He
  Ne426    1.0000 0.85515  0.21989  0.17589  Biso   1.000  Ne
  Ne427    1.0000 0.12712  0.79769  0.47817  Biso   1.000  Ne
  He427    1.0000 0.11859  0.77678  0.45453  Biso   1.000  He
  He428    1.0000 0.14267  0.75930  0.44275  Biso   1.000  He
  Ne428    1.0000 0.13539  0.74152  0.41751  Biso   1.000  Ne
  Ne429    1.0000 0.62967  0.97329  0.79450  Biso   1.000  Ne
  He429    1.0000 0.60094  0.95834  0.78707  Biso   1.000  He
  He430    1.0000 0.60618  0.92742  0.77743  Biso   1.000  He
  Ne430    1.0000 0.58228  0.91120  0.76598  Biso   1.000  Ne
  Ne431    1.0000 0.28979  0.83781  0.08087  Biso   1.000  Ne
  He431    1.0000 0.26688  0.85539  0.06896  Biso   1.000  He
  He432    1.0000 0.26827  0.88835  0.07407  Biso   1.000  He
  Ne432    1.0000 0.25345  0.90908  0.05304  Biso   1.000  Ne
  Ne433    1.0000 0.75406  0.87485  0.93244  Biso   1.000  Ne
  He433    1.0000 0.72889  0.87263  0.91400  Biso   1.000  He
  He434    1.0000 0.70884  0.84520  0.92265  Biso   1.000  He
  Ne434    1.0000 0.68292  0.84178  0.90185  Biso   1.000  Ne
  Ne435    1.0000 0.23738  0.55219  0.33549  Biso   1.000  Ne
  He435    1.0000 0.26053  0.53292  0.32304  Biso   1.000  He
  He436    1.0000 0.27624  0.54753  0.30091  Biso   1.000  He
  Ne436    1.0000 0.29907  0.52901  0.28557  Biso   1.000  Ne
  Ne437    1.0000 0.35819  0.17238  0.59628  Biso   1.000  Ne
  He437    1.0000 0.36428  0.20271  0.58865  Biso   1.000  He
  He438    1.0000 0.33921  0.21965  0.57757  Biso   1.000  He
  Ne438    1.0000 0.34597  0.25056  0.56369  Biso   1.000  Ne
  Ne439    1.0000 0.16807  0.74079  0.09112  Biso   1.000  Ne
  He439    1.0000 0.18000  0.71135  0.08964  Biso   1.000  He
  He440    1.0000 0.19712  0.70515  0.06173  Biso   1.000  He
  Ne440    1.0000 0.21587  0.67960  0.05901  Biso   1.000  Ne
  Ne441    1.0000 0.19958  0.17816  0.22643  Biso   1.000  Ne
  He441    1.0000 0.19650  0.21002  0.23107  Biso   1.000  He
  He442    1.0000 0.21614  0.22145  0.25497  Biso   1.000  He
  Ne442    1.0000 0.21023  0.25312  0.26411  Biso   1.000  Ne
  Ne443    1.0000 0.70404  0.90489  0.29287  Biso   1.000  Ne
  He443    1.0000 0.68200  0.88724  0.27355  Biso   1.000  He
  He444    1.0000 0.68083  0.85720  0.28130  Biso   1.000  He
  Ne444    1.0000 0.65541  0.84062  0.26847  Biso   1.000  Ne
  Ne445    1.0000 0.33774  0.92278  0.91246  Biso   1.000  Ne
  He445    1.0000 0.36563  0.91361  0.92528  Biso   1.000  He
  He446    1.0000 0.36524  0.88079  0.93274  Biso   1.000  He
  Ne446    1.0000 0.39406  0.87021  0.94703  Biso   1.000  Ne
  Ne447    1.0000 0.41202  0.83955  0.40745  Biso   1.000  Ne
  He447    1.0000 0.42122  0.85906  0.38064  Biso   1.000  He
  He448    1.0000 0.39966  0.86650  0.35470  Biso   1.000  He
  Ne448    1.0000 0.41608  0.88424  0.33121  Biso   1.000  Ne
  Ne449    1.0000 0.89591  0.21791  0.45670  Biso   1.000  Ne
  He449    1.0000 0.86696  0.19993  0.45756  Biso   1.000  He
  He450    1.0000 0.84692  0.20569  0.48351  Biso   1.000  He
  Ne450    1.0000 0.81816  0.18828  0.48338  Biso   1.000  Ne
  Ne451    1.0000 0.24229  0.97372  0.95969  Biso   1.000  Ne
  He451    1.0000 0.25266  0.97267  0.99260  Biso   1.000  He
  He452    1.0000 0.28386  0.96807  0.99612  Biso   1.000  He
  Ne452    1.0000 0.29847  0.97144  0.02578  Biso   1.000  Ne
  Ne453    1.0000 0.84516  0.04804  0.08058  Biso   1.000  Ne
  He453    1.0000 0.81329  0.04270  0.07742  Biso   1.000  He
  He454    1.0000 0.79711  0.06061  0.09655  Biso   1.000  He
  Ne454    1.0000 0.76298  0.06098  0.09054  Biso   1.000  Ne
  Ne455    1.0000 0.22302  0.30377  0.80637  Biso   1.000  Ne
  He455    1.0000 0.24594  0.28556  0.79286  Biso   1.000  He
  He456    1.0000 0.24998  0.25729  0.80990  Biso   1.000  He
  Ne456    1.0000 0.27083  0.23627  0.79449  Biso   1.000  Ne
  Ne457    1.0000 0.27499  0.21089  0.10285  Biso   1.000  Ne
  He457    1.0000 0.26176  0.18570  0.11978  Biso   1.000  He
  He458    1.0000 0.23040  0.18466  0.11131  Biso   1.000  He
  Ne458    1.0000 0.21129  0.16037  0.12696  Biso   1.000  Ne
  Ne459    1.0000 0.48838  0.58305  0.69643  Biso   1.000  Ne
  He459    1.0000 0.47588  0.59944  0.66947  Biso   1.000  He
  He460    1.0000 0.49297  0.62506  0.66034  Biso   1.000  He
  Ne460    1.0000 0.48119  0.64473  0.63300  Biso   1.000  Ne
  Ne461    1.0000 0.36625  0.66631  0.26983  Biso   1.000  Ne
  He461    1.0000 0.37114  0.63452  0.28100  Biso   1.000  He
  He462    1.0000 0.39839  0.62207  0.26944  Biso   1.000  He
  Ne462    1.0000 0.40194  0.59083  0.27632  Biso   1.000  Ne
  Ne463    1.0000 0.39661  0.95215  0.54215  Biso   1.000  Ne
  He463    1.0000 0.41445  0.94244  0.56703  Biso   1.000  He
  He464    1.0000 0.41574  0.91044  0.57133  Biso   1.000  He
  Ne464    1.0000 0.43139  0.89669  0.59717  Biso   1.000  Ne
  Ne465    1.0000 0.96542  0.69946  0.85034  Biso   1.000  Ne
  He465    1.0000 0.95268  0.71148  0.88020  Biso   1.000  He
  He466    1.0000 0.95985  0.69041  0.90517  Biso   1.000  He
  Ne466    1.0000 0.95294  0.69990  0.93635  Biso   1.000  Ne
  Ne467    1.0000 0.65378  0.14595  0.41287  Biso   1.000  Ne
  He467    1.0000 0.67010  0.17042  0.41885  Biso   1.000  He
  He468    1.0000 0.65431  0.20007  0.41165  Biso   1.000  He
  Ne468    1.0000 0.67793  0.22621  0.41358  Biso   1.000  Ne
  Ne469    1.0000 0.52582  0.83590  0.76178  Biso   1.000  Ne
  He469    1.0000 0.53609  0.80767  0.77578  Biso   1.000  He
  He470    1.0000 0.51791  0.77956  0.76842  Biso   1.000  He
  Ne470    1.0000 0.52688  0.75306  0.78201  Biso   1.000  Ne
  Ne471    1.0000 0.21362  0.06522  0.40667  Biso   1.000  Ne
  He471    1.0000 0.24660  0.06630  0.41367  Biso   1.000  He
  He472    1.0000 0.26722  0.06044  0.39009  Biso   1.000  He
  Ne472    1.0000 0.30106  0.06247  0.39723  Biso   1.000  Ne
  Ne473    1.0000 0.03959  0.28557  0.32986  Biso   1.000  Ne
  He473    1.0000 0.04952  0.31650  0.33359  Biso   1.000  He
  He474    1.0000 0.04376  0.33711  0.31009  Biso   1.000  He
  Ne474    1.0000 0.05828  0.36503  0.31267  Biso   1.000  Ne
  Ne475    1.0000 0.63139  0.01144  0.92921  Biso   1.000  Ne
  He475    1.0000 0.64814  0.98426  0.94064  Biso   1.000  He
  He476    1.0000 0.67159  0.98520  0.96379  Biso   1.000  He
  Ne476    1.0000 0.68976  0.95677  0.96641  Biso   1.000  Ne
  Ne477    1.0000 0.24729  0.43073  0.18391  Biso   1.000  Ne
  He477    1.0000 0.22176  0.43368  0.20447  Biso   1.000  He
  He478    1.0000 0.19610  0.45011  0.19149  Biso   1.000  He
  Ne478    1.0000 0.16721  0.45427  0.20774  Biso   1.000  Ne
  Ne479    1.0000 0.35402  0.32105  0.85971  Biso   1.000  Ne
  He479    1.0000 0.35825  0.28760  0.86170  Biso   1.000  He
  He480    1.0000 0.37570  0.27387  0.83847  Biso   1.000  He
  Ne480    1.0000 0.38725  0.24094  0.83942  Biso   1.000  Ne
  Ne481    1.0000 0.23089  0.39220  0.71387  Biso   1.000  Ne
  He481    1.0000 0.22650  0.36336  0.72156  Biso   1.000  He
  He482    1.0000 0.21340  0.34739  0.69624  Biso   1.000  He
  Ne482    1.0000 0.20173  0.31599  0.70662  Biso   1.000  Ne
  Ne483    1.0000 0.76202  0.69327  0.33282  Biso   1.000  Ne
  He483    1.0000 0.73816  0.71120  0.34739  Biso   1.000  He
  He484    1.0000 0.72116  0.69256  0.36898  Biso   1.000  He
  Ne484    1.0000 0.69333  0.70840  0.37762  Biso   1.000  Ne
  Ne485    1.0000 0.61910  0.00530  0.18793  Biso   1.000  Ne
  He485    1.0000 0.63857  0.03028  0.18852  Biso   1.000  He
  He486    1.0000 0.66409  0.02722  0.21108  Biso   1.000  He
  Ne486    1.0000 0.68883  0.04974  0.21312  Biso   1.000  Ne
  Ne487    1.0000 0.75705  0.77834  0.08233  Biso   1.000  Ne
  He487    1.0000 0.77479  0.75910  0.10427  Biso   1.000  He
  He488    1.0000 0.75594  0.73121  0.11136  Biso   1.000  He
  Ne488    1.0000 0.76838  0.71348  0.13554  Biso   1.000  Ne
  Ne489    1.0000 0.57891  0.79872  0.26260  Biso   1.000  Ne
  He489    1.0000 0.57453  0.78553  0.23226  Biso   1.000  He
  He490    1.0000 0.54866  0.79402  0.22152  Biso   1.000  He
  Ne490    1.0000 0.54178  0.78629  0.19047  Biso   1.000  Ne
  Ne491    1.0000 0.71442  0.92044  0.05506  Biso   1.000  Ne
  He491    1.0000 0.70516  0.89047  0.05267  Biso   1.000  He
  He492    1.0000 0.71019  0.87134  0.08224  Biso   1.000  He
  Ne492    1.0000 0.69766  0.84122  0.08303  Biso   1.000  Ne
  Ne493    1.0000 0.07647  0.62395  0.42611  Biso   1.000  Ne
  He493    1.0000 0.07640  0.64128  0.39992  Biso   1.000  He
  He494    1.0000 0.10475  0.65697  0.39515  Biso   1.000  He
  Ne494    1.0000 0.11010  0.66722  0.36396  Biso   1.000  Ne
  Ne495    1.0000 0.88256  0.25364  0.79856  Biso   1.000  Ne
  He495    1.0000 0.88512  0.22666  0.78006  Biso   1.000  He
  He496    1.0000 0.88606  0.19825  0.79592  Biso   1.000  He
  Ne496    1.0000 0.89245  0.17154  0.77655  Biso   1.000  Ne
  Ne497    1.0000 0.63514  0.58671  0.84692  Biso   1.000  Ne
  He497    1.0000 0.66708  0.58934  0.86176  Biso   1.000  He
  He498    1.0000 0.68508  0.56149  0.86458  Biso   1.000  He
  Ne498    1.0000 0.71440  0.56405  0.88336  Biso   1.000  Ne
  Ne499    1.0000 0.91925  0.03276  0.96223  Biso   1.000  Ne
  He499    1.0000 0.89834  0.05170  0.95012  Biso   1.000  He
  He500    1.0000 0.90772  0.08193  0.95010  Biso   1.000  He
  Ne500    1.0000 0.88926  0.10393  0.92948  Biso   1.000  Ne
  Ne501    1.0000 0.16777  0.24388  0.62638  Biso   1.000  Ne
  He501    1.0000 0.18174  0.27529  0.62783  Biso   1.000  He
  He502    1.0000 0.18065  0.28874  0.59803  Biso   1.000  He
  Ne502    1.0000 0.18403  0.32162  0.59729  Biso   1.000  Ne
  Ne503    1.0000 0.87007  0.29134  0.06050  Biso   1.000  Ne
  He503    1.0000 0.90355  0.28924  0.05599  Biso   1.000  He
  He504    1.0000 0.91178  0.26603  0.03320  Biso   1.000  He
  Ne504    1.0000 0.94562  0.26511  0.02698  Biso   1.000  Ne
  Ne505    1.0000 0.55226  0.47148  0.99756  Biso   1.000  Ne
  He505    1.0000 0.53238  0.44829  0.00909  Biso   1.000  He
  He506    1.0000 0.51900  0.42964  0.98613  Biso   1.000  He
  Ne506    1.0000 0.49947  0.40417  0.99659  Biso   1.000  Ne
  Ne507    1.0000 0.03820  0.13133  0.09212  Biso   1.000  Ne
  He507    1.0000 0.03724  0.15760  0.11285  Biso   1.000  He
  He508    1.0000 0.04210  0.15006  0.14599  Biso   1.000  He
  Ne508    1.0000 0.04212  0.17478  0.16764  Biso   1.000  Ne
  Ne509    1.0000 0.36372  0.43601  0.96416  Biso   1.000  Ne
  He509    1.0000 0.38467  0.44808  0.94301  Biso   1.000  He
  He510    1.0000 0.40725  0.42611  0.92857  Biso   1.000  He
  Ne510    1.0000 0.42881  0.44094  0.90879  Biso   1.000  Ne
  Ne511    1.0000 0.91570  0.61232  0.42856  Biso   1.000  Ne
  He511    1.0000 0.88742  0.59253  0.43775  Biso   1.000  He
  He512    1.0000 0.86186  0.60242  0.42399  Biso   1.000  He
  Ne512    1.0000 0.83561  0.58304  0.43017  Biso   1.000  Ne
  Ne513    1.0000 0.60530  0.14485  0.67382  Biso   1.000  Ne
  He513    1.0000 0.59063  0.11633  0.66203  Biso   1.000  He
  He514    1.0000 0.58688  0.09413  0.68457  Biso   1.000  He
  Ne514    1.0000 0.57237  0.06431  0.67401  Biso   1.000  Ne
  Ne515    1.0000 0.03370  0.23314  0.57454  Biso   1.000  Ne
  He515    1.0000 0.06181  0.22296  0.58792  Biso   1.000  He
  He516    1.0000 0.08390  0.21038  0.56985  Biso   1.000  He
  Ne516    1.0000 0.10837  0.20078  0.58810  Biso   1.000  Ne
  Ne517    1.0000 0.60038  0.64321  0.09416  Biso   1.000  Ne
  He517    1.0000 0.56914  0.65028  0.10143  Biso   1.000  He
  He518    1.0000 0.56177  0.68095  0.11129  Biso   1.000  He
  Ne518    1.0000 0.56050  0.68376  0.14516  Biso   1.000  Ne
  Ne519    1.0000 0.87471  0.61557  0.72837  Biso   1.000  Ne
  He519    1.0000 0.88749  0.59225  0.70810  Biso   1.000  He
  He520    1.0000 0.88776  0.60094  0.67462  Biso   1.000  He
  Ne520    1.0000 0.89802  0.57460  0.65574  Biso   1.000  Ne
  Ne521    1.0000 0.11754  0.55805  0.25407  Biso   1.000  Ne
  He521    1.0000 0.12776  0.55536  0.22239  Biso   1.000  He
  He522    1.0000 0.11776  0.52749  0.20739  Biso   1.000  He
  Ne522    1.0000 0.13141  0.52353  0.17800  Biso   1.000  Ne
  Ne523    1.0000 0.06749  0.25989  0.08642  Biso   1.000  Ne
  He523    1.0000 0.07283  0.28042  0.11104  Biso   1.000  He
  He524    1.0000 0.04781  0.30521  0.11161  Biso   1.000  He
  Ne524    1.0000 0.04485  0.32576  0.13889  Biso   1.000  Ne
  Ne525    1.0000 0.80484  0.81901  0.78276  Biso   1.000  Ne
  He525    1.0000 0.81046  0.84672  0.80058  Biso   1.000  He
  He526    1.0000 0.78254  0.85983  0.81819  Biso   1.000  He
  Ne526    1.0000 0.78509  0.88902  0.83373  Biso   1.000  Ne
  Ne527    1.0000 0.44698  0.27815  0.56202  Biso   1.000  Ne
  He527    1.0000 0.43196  0.28277  0.53357  Biso   1.000  He
  He528    1.0000 0.45339  0.28599  0.50713  Biso   1.000  He
  Ne528    1.0000 0.43444  0.29727  0.47731  Biso   1.000  Ne
  Ne529    1.0000 0.84925  0.92441  0.71383  Biso   1.000  Ne
  He529    1.0000 0.83250  0.89587  0.71765  Biso   1.000  He
  He530    1.0000 0.82294  0.88519  0.68920  Biso   1.000  He
  Ne530    1.0000 0.80242  0.85665  0.69343  Biso   1.000  Ne
  Ne531    1.0000 0.70978  0.07907  0.66077  Biso   1.000  Ne
  He531    1.0000 0.73951  0.09539  0.66958  Biso   1.000  He
  He532    1.0000 0.75799  0.10641  0.64384  Biso   1.000  He
  Ne532    1.0000 0.79053  0.10669  0.64926  Biso   1.000  Ne
  Ne533    1.0000 0.04953  0.54649  0.14874  Biso   1.000  Ne
  He533    1.0000 0.06219  0.57140  0.13199  Biso   1.000  He
  He534    1.0000 0.08929  0.55952  0.11484  Biso   1.000  He
  Ne534    1.0000 0.10106  0.57916  0.09021  Biso   1.000  Ne
  Ne535    1.0000 0.52387  0.96081  0.58652  Biso   1.000  Ne
  He535    1.0000 0.50843  0.93856  0.56724  Biso   1.000  He
  He536    1.0000 0.52297  0.92680  0.54026  Biso   1.000  He
  Ne536    1.0000 0.50384  0.90615  0.52339  Biso   1.000  Ne
  Ne537    1.0000 0.60396  0.40819  0.35241  Biso   1.000  Ne
  He537    1.0000 0.61858  0.41259  0.32258  Biso   1.000  He
  He538    1.0000 0.64987  0.42187  0.32175  Biso   1.000  He
  Ne538    1.0000 0.66392  0.42562  0.29267  Biso   1.000  Ne
  Ne539    1.0000 0.57080  0.90988  0.94963  Biso   1.000  Ne
  He539    1.0000 0.58139  0.90381  0.97767  Biso   1.000  He
  He540    1.0000 0.56017  0.88093  0.99617  Biso   1.000  He
  Ne540    1.0000 0.55922  0.88602  0.02909  Biso   1.000  Ne
  Ne541    1.0000 0.47688  0.51445  0.91610  Biso   1.000  Ne
  He541    1.0000 0.44941  0.53377  0.92868  Biso   1.000  He
  He542    1.0000 0.42229  0.52086  0.91691  Biso   1.000  He
  Ne542    1.0000 0.39687  0.53736  0.92934  Biso   1.000  Ne
  Ne543    1.0000 0.03380  0.71075  0.05831  Biso   1.000  Ne
  He543    1.0000 0.06589  0.70099  0.05287  Biso   1.000  He
  He544    1.0000 0.07640  0.67303  0.06822  Biso   1.000  He
  Ne544    1.0000 0.11017  0.66345  0.06362  Biso   1.000  Ne
  Ne545    1.0000 0.86332  0.62077  0.57977  Biso   1.000  Ne
  He545    1.0000 0.87797  0.63197  0.60902  Biso   1.000  He
  He546    1.0000 0.89290  0.66233  0.60671  Biso   1.000  He
  Ne546    1.0000 0.90668  0.67844  0.63252  Biso   1.000  Ne
  Ne547    1.0000 0.07195  0.24174  0.21096  Biso   1.000  Ne
  He547    1.0000 0.04079  0.23370  0.21897  Biso   1.000  He
  He548    1.0000 0.02770  0.24914  0.24463  Biso   1.000  He
  Ne548    1.0000 0.00746  0.27309  0.23613  Biso   1.000  Ne
  Ne549    1.0000 0.57585  0.15595  0.43209  Biso   1.000  Ne
  He549    1.0000 0.56053  0.18276  0.42583  Biso   1.000  He
  He550    1.0000 0.56669  0.20426  0.44877  Biso   1.000  He
  Ne550    1.0000 0.55268  0.23540  0.44370  Biso   1.000  Ne
  Ne551    1.0000 0.28189  0.41855  0.89778  Biso   1.000  Ne
  He551    1.0000 0.26414  0.39121  0.90998  Biso   1.000  He
  He552    1.0000 0.28032  0.37733  0.93442  Biso   1.000  He
  Ne552    1.0000 0.26477  0.34956  0.94546  Biso   1.000  Ne
  Ne553    1.0000 0.77778  0.85513  0.20160  Biso   1.000  Ne
  He553    1.0000 0.78596  0.88088  0.17688  Biso   1.000  He
  He554    1.0000 0.77458  0.87560  0.14570  Biso   1.000  He
  Ne554    1.0000 0.78109  0.89814  0.12355  Biso   1.000  Ne
  Ne555    1.0000 0.22933  0.65622  0.55852  Biso   1.000  Ne
  He555    1.0000 0.20629  0.65362  0.58158  Biso   1.000  He
  He556    1.0000 0.18018  0.64064  0.57096  Biso   1.000  He
  Ne556    1.0000 0.15625  0.63892  0.59315  Biso   1.000  Ne
  Ne557    1.0000 0.14412  0.11993  0.35343  Biso   1.000  Ne
  He557    1.0000 0.15736  0.12327  0.38492  Biso   1.000  He
  He558    1.0000 0.13719  0.11729  0.40753  Biso   1.000  He
  Ne558    1.0000 0.14578  0.12625  0.43959  Biso   1.000  Ne
  Ne559    1.0000 0.89926  0.66024  0.86729  Biso   1.000  Ne
  He559    1.0000 0.88410  0.65873  0.83818  Biso   1.000  He
  He560    1.0000 0.85108  0.66727  0.83542  Biso   1.000  He
  Ne560    1.0000 0.83314  0.66515  0.80464  Biso   1.000  Ne
  Ne561    1.0000 0.54182  0.28051  0.25443  Biso   1.000  Ne
  He561    1.0000 0.55878  0.29624  0.23397  Biso   1.000  He
  He562    1.0000 0.56281  0.28238  0.20591  Biso   1.000  He
  Ne562    1.0000 0.59211  0.29359  0.19228  Biso   1.000  Ne
  Ne563    1.0000 0.63338  0.16497  0.33156  Biso   1.000  Ne
  He563    1.0000 0.65787  0.18431  0.31738  Biso   1.000  He
  He564    1.0000 0.67754  0.16911  0.29602  Biso   1.000  He
  Ne564    1.0000 0.70845  0.18406  0.29189  Biso   1.000  Ne
  Ne565    1.0000 0.39274  0.62229  0.93174  Biso   1.000  Ne
  He565    1.0000 0.41151  0.64860  0.92647  Biso   1.000  He
  He566    1.0000 0.40276  0.66311  0.89866  Biso   1.000  He
  Ne566    1.0000 0.41426  0.69225  0.89492  Biso   1.000  Ne
  Ne567    1.0000 0.11695  0.98946  0.70375  Biso   1.000  Ne
  He567    1.0000 0.13422  0.96061  0.70304  Biso   1.000  He
  He568    1.0000 0.15256  0.95676  0.67591  Biso   1.000  He
  Ne568    1.0000 0.16732  0.92849  0.67103  Biso   1.000  Ne
  Ne569    1.0000 0.66103  0.66930  0.55822  Biso   1.000  Ne
  He569    1.0000 0.67560  0.69898  0.56611  Biso   1.000  He
  He570    1.0000 0.65438  0.72067  0.56036  Biso   1.000  He
  Ne570    1.0000 0.66516  0.74978  0.57474  Biso   1.000  Ne
  Ne571    1.0000 0.71652  0.09042  0.56676  Biso   1.000  Ne
  He571    1.0000 0.69088  0.10151  0.58818  Biso   1.000  He
  He572    1.0000 0.66637  0.11503  0.57354  Biso   1.000  He
  Ne572    1.0000 0.63828  0.12077  0.59329  Biso   1.000  Ne
  Ne573    1.0000 0.18156  0.24809  0.91037  Biso   1.000  Ne
  He573    1.0000 0.20360  0.26572  0.92696  Biso   1.000  He
  He574    1.0000 0.23027  0.24869  0.93759  Biso   1.000  He
  Ne574    1.0000 0.25618  0.26794  0.95058  Biso   1.000  Ne
  Ne575    1.0000 0.25561  0.71386  0.11689  Biso   1.000  Ne
  He575    1.0000 0.25263  0.69448  0.14452  Biso   1.000  He
  He576    1.0000 0.24042  0.66712  0.14142  Biso   1.000  He
  Ne576    1.0000 0.23721  0.65001  0.16752  Biso   1.000  Ne
  Ne577    1.0000 0.36660  0.78706  0.55398  Biso   1.000  Ne
  He577    1.0000 0.37714  0.81233  0.57375  Biso   1.000  He
  He578    1.0000 0.38280  0.80258  0.60451  Biso   1.000  He
  Ne578    1.0000 0.39368  0.82664  0.62569  Biso   1.000  Ne
  Ne579    1.0000 0.57947  0.30718  0.64897  Biso   1.000  Ne
  He579    1.0000 0.55460  0.33004  0.65925  Biso   1.000  He
  He580    1.0000 0.56228  0.34975  0.68491  Biso   1.000  He
  Ne580    1.0000 0.54011  0.37217  0.69613  Biso   1.000  Ne
  Ne581    1.0000 0.20048  0.85464  0.65628  Biso   1.000  Ne
  He581    1.0000 0.21772  0.82730  0.65516  Biso   1.000  He
  He582    1.0000 0.24757  0.83016  0.67206  Biso   1.000  He
  Ne582    1.0000 0.26808  0.80080  0.67329  Biso   1.000  Ne
  Ne583    1.0000 0.02681  0.42135  0.12857  Biso   1.000  Ne
  He583    1.0000 0.05487  0.43782  0.13477  Biso   1.000  He
  He584    1.0000 0.07727  0.44065  0.11109  Biso   1.000  He
  Ne584    1.0000 0.10212  0.46255  0.12060  Biso   1.000  Ne
  Ne585    1.0000 0.03797  0.95303  0.72189  Biso   1.000  Ne
  He585    1.0000 0.05514  0.93075  0.74121  Biso   1.000  He
  He586    1.0000 0.04492  0.92755  0.77496  Biso   1.000  He
  Ne586    1.0000 0.05435  0.90193  0.79139  Biso   1.000  Ne
  Ne587    1.0000 0.69454  0.28181  0.82252  Biso   1.000  Ne
  He587    1.0000 0.68735  0.31577  0.82336  Biso   1.000  He
  He588    1.0000 0.65457  0.32133  0.82518  Biso   1.000  He
  Ne588    1.0000 0.64850  0.35444  0.82532  Biso   1.000  Ne
  Ne589    1.0000 0.33747  0.79690  0.89396  Biso   1.000  Ne
  He589    1.0000 0.34121  0.76488  0.90062  Biso   1.000  He
  He590    1.0000 0.31141  0.74922  0.90615  Biso   1.000  He
  Ne590    1.0000 0.31370  0.71996  0.92209  Biso   1.000  Ne
  Ne591    1.0000 0.23229  0.59854  0.23472  Biso   1.000  Ne
  He591    1.0000 0.21971  0.60225  0.26392  Biso   1.000  He
  He592    1.0000 0.18729  0.60010  0.26342  Biso   1.000  He
  Ne592    1.0000 0.17049  0.60942  0.29019  Biso   1.000  Ne
  Ne593    1.0000 0.96053  0.55992  0.56676  Biso   1.000  Ne
  He593    1.0000 0.92771  0.54956  0.57455  Biso   1.000  He
  He594    1.0000 0.90723  0.53810  0.55022  Biso   1.000  He
  Ne594    1.0000 0.87628  0.52758  0.55973  Biso   1.000  Ne
  Ne595    1.0000 0.50646  0.31754  0.32635  Biso   1.000  Ne
  He595    1.0000 0.51140  0.29428  0.35134  Biso   1.000  He
  He596    1.0000 0.53278  0.26862  0.34247  Biso   1.000  He
  Ne596    1.0000 0.53793  0.24604  0.36675  Biso   1.000  Ne
  Ne597    1.0000 0.13631  0.56141  0.57519  Biso   1.000  Ne
  He597    1.0000 0.13495  0.56746  0.60903  Biso   1.000  He
  He598    1.0000 0.16472  0.55732  0.62570  Biso   1.000  He
  Ne598    1.0000 0.16699  0.56854  0.65875  Biso   1.000  Ne
  Ne599    1.0000 0.60636  0.56561  0.21481  Biso   1.000  Ne
  He599    1.0000 0.61559  0.59684  0.20725  Biso   1.000  He
  He600    1.0000 0.63857  0.59750  0.18147  Biso   1.000  He
  Ne600    1.0000 0.63882  0.62753  0.16453  Biso   1.000  Ne
  Ne601    1.0000 0.30136  0.71603  0.19925  Biso   1.000  Ne
  He601    1.0000 0.31101  0.73826  0.22223  Biso   1.000  He
  He602    1.0000 0.29200  0.73415  0.25001  Biso   1.000  He
  Ne602    1.0000 0.29738  0.75698  0.27068  Biso   1.000  Ne
  Ne603    1.0000 0.72320  0.40686  0.36036  Biso   1.000  Ne
  He603    1.0000 0.69595  0.39936  0.38016  Biso   1.000  He
  He604    1.0000 0.69976  0.37586  0.40250  Biso   1.000  He
  Ne604    1.0000 0.67321  0.37461  0.42166  Biso   1.000  Ne
  Ne605    1.0000 0.63104  0.53506  0.10054  Biso   1.000  Ne
  He605    1.0000 0.61686  0.55897  0.11665  Biso   1.000  He
  He606    1.0000 0.58755  0.54811  0.12507  Biso   1.000  He
  Ne606    1.0000 0.56401  0.56494  0.14037  Biso   1.000  Ne
  Ne607    1.0000 0.35873  0.52755  0.70143  Biso   1.000  Ne
  He607    1.0000 0.35791  0.53055  0.73229  Biso   1.000  He
  He608    1.0000 0.38202  0.54944  0.74346  Biso   1.000  He
  Ne608    1.0000 0.38359  0.55188  0.77693  Biso   1.000  Ne
  Ne609    1.0000 0.24328  0.69498  0.78277  Biso   1.000  Ne
  He609    1.0000 0.23174  0.68303  0.81226  Biso   1.000  He
  He610    1.0000 0.22739  0.64997  0.81411  Biso   1.000  He
  Ne610    1.0000 0.21161  0.63851  0.84024  Biso   1.000  Ne
  Ne611    1.0000 0.70780  0.90292  0.80876  Biso   1.000  Ne
  He611    1.0000 0.70658  0.92443  0.83229  Biso   1.000  He
  He612    1.0000 0.67643  0.93638  0.84004  Biso   1.000  He
  Ne612    1.0000 0.67669  0.95362  0.86671  Biso   1.000  Ne
  Ne613    1.0000 0.38064  0.30606  0.17870  Biso   1.000  Ne
  He613    1.0000 0.36775  0.30894  0.15002  Biso   1.000  He
  He614    1.0000 0.36982  0.28151  0.13108  Biso   1.000  He
  Ne614    1.0000 0.35040  0.28430  0.10392  Biso   1.000  Ne
  Ne615    1.0000 0.31166  0.13424  0.19778  Biso   1.000  Ne
  He615    1.0000 0.28516  0.11753  0.21282  Biso   1.000  He
  He616    1.0000 0.27683  0.09031  0.19814  Biso   1.000  He
  Ne616    1.0000 0.24598  0.07785  0.20656  Biso   1.000  Ne
  Ne617    1.0000 0.87678  0.32988  0.31238  Biso   1.000  Ne
  He617    1.0000 0.88160  0.35876  0.30192  Biso   1.000  He
  He618    1.0000 0.88541  0.38114  0.32595  Biso   1.000  He
  Ne618    1.0000 0.88937  0.41187  0.31592  Biso   1.000  Ne
  Ne619    1.0000 0.15228  0.00839  0.61075  Biso   1.000  Ne
  He619    1.0000 0.12402  0.02611  0.60493  Biso   1.000  He
  He620    1.0000 0.11547  0.02902  0.57292  Biso   1.000  He
  Ne620    1.0000 0.08776  0.04587  0.56657  Biso   1.000  Ne
  Ne621    1.0000 0.34276  0.06226  0.24374  Biso   1.000  Ne
  He621    1.0000 0.33874  0.03701  0.22042  Biso   1.000  He
  He622    1.0000 0.36082  0.03077  0.19627  Biso   1.000  He
  Ne622    1.0000 0.34908  0.01026  0.17419  Biso   1.000  Ne
  Ne623    1.0000 0.20543  0.06254  0.31511  Biso   1.000  Ne
  He623    1.0000 0.18457  0.04186  0.32879  Biso   1.000  He
  He624    1.0000 0.17448  0.01540  0.31242  Biso   1.000  He
  Ne624    1.0000 0.15327  0.99763  0.32812  Biso   1.000  Ne
  Ne625    1.0000 0.76777  0.49595  0.84205  Biso   1.000  Ne
  He625    1.0000 0.79387  0.50453  0.82564  Biso   1.000  He
  He626    1.0000 0.81646  0.47955  0.82226  Biso   1.000  He
  Ne626    1.0000 0.83998  0.48727  0.79933  Biso   1.000  Ne
  Ne627    1.0000 0.78385  0.57477  0.32385  Biso   1.000  Ne
  He627    1.0000 0.75639  0.57857  0.30727  Biso   1.000  He
  He628    1.0000 0.75127  0.60922  0.29736  Biso   1.000  He
  Ne628    1.0000 0.71972  0.61290  0.28768  Biso   1.000  Ne
  Ne629    1.0000 0.25256  0.72113  0.39130  Biso   1.000  Ne
  He629    1.0000 0.23163  0.73242  0.37257  Biso   1.000  He
  He630    1.0000 0.20712  0.71000  0.36859  Biso   1.000  He
  Ne630    1.0000 0.18137  0.72213  0.35152  Biso   1.000  Ne
  Ne631    1.0000 0.81218  0.56781  0.11425  Biso   1.000  Ne
  He631    1.0000 0.80722  0.54129  0.09463  Biso   1.000  He
  He632    1.0000 0.79928  0.55030  0.06279  Biso   1.000  He
  Ne632    1.0000 0.79500  0.52517  0.04532  Biso   1.000  Ne
  Ne633    1.0000 0.17699  0.29751  0.20447  Biso   1.000  Ne
  He633    1.0000 0.16795  0.30631  0.17476  Biso   1.000  He
  He634    1.0000 0.16061  0.28098  0.15414  Biso   1.000  He
  Ne634    1.0000 0.15185  0.29068  0.12105  Biso   1.000  Ne
  Ne635    1.0000 0.18083  0.62129  0.39331  Biso   1.000  Ne
  He635    1.0000 0.16060  0.59187  0.39381  Biso   1.000  He
  He636    1.0000 0.16146  0.57540  0.42437  Biso   1.000  He
  Ne636    1.0000 0.14113  0.54956  0.42739  Biso   1.000  Ne
  Ne637    1.0000 0.50708  0.19610  0.92195  Biso   1.000  Ne
  He637    1.0000 0.50673  0.16272  0.92674  Biso   1.000  He
  He638    1.0000 0.53789  0.14713  0.92447  Biso   1.000  He
  Ne638    1.0000 0.53356  0.11459  0.91772  Biso   1.000  Ne
  Ne639    1.0000 0.16760  0.42155  0.97570  Biso   1.000  Ne
  He639    1.0000 0.18686  0.43881  0.95366  Biso   1.000  He
  He640    1.0000 0.18443  0.42082  0.92573  Biso   1.000  He
  Ne640    1.0000 0.19664  0.43324  0.89953  Biso   1.000  Ne
  Ne641    1.0000 0.30848  0.58570  0.14517  Biso   1.000  Ne
  He641    1.0000 0.30627  0.61223  0.12554  Biso   1.000  He
  He642    1.0000 0.28581  0.60650  0.10295  Biso   1.000  He
  Ne642    1.0000 0.28191  0.63123  0.08263  Biso   1.000  Ne
  Ne643    1.0000 0.63417  0.40643  0.69260  Biso   1.000  Ne
  He643    1.0000 0.62378  0.42636  0.66548  Biso   1.000  He
  He644    1.0000 0.59313  0.43595  0.67152  Biso   1.000  He
  Ne644    1.0000 0.58669  0.46085  0.65199  Biso   1.000  Ne
  Ne645    1.0000 0.30867  0.25388  0.26576  Biso   1.000  Ne
  He645    1.0000 0.29576  0.25266  0.23490  Biso   1.000  He
  He646    1.0000 0.31050  0.22821  0.21559  Biso   1.000  He
  Ne646    1.0000 0.29479  0.22283  0.18636  Biso   1.000  Ne
  Ne647    1.0000 0.76638  0.14579  0.57290  Biso   1.000  Ne
  He647    1.0000 0.79852  0.13186  0.56903  Biso   1.000  He
  He648    1.0000 0.79693  0.10595  0.55017  Biso   1.000  He
  Ne648    1.0000 0.82358  0.08606  0.54768  Biso   1.000  Ne
  Ne649    1.0000 0.90774  0.20140  0.67573  Biso   1.000  Ne
  He649    1.0000 0.88936  0.22764  0.68493  Biso   1.000  He
  He650    1.0000 0.85986  0.22245  0.70161  Biso   1.000  He
  Ne650    1.0000 0.84352  0.25313  0.70729  Biso   1.000  Ne
  Ne651    1.0000 0.64530  0.23704  0.68287  Biso   1.000  Ne
  He651    1.0000 0.65712  0.22375  0.71223  Biso   1.000  He
  He652    1.0000 0.68143  0.19964  0.71163  Biso   1.000  He
  Ne652    1.0000 0.69583  0.18901  0.73980  Biso   1.000  Ne
  Ne653    1.0000 0.80924  0.81910  0.93716  Biso   1.000  Ne
  He653    1.0000 0.80224  0.78963  0.92025  Biso   1.000  He
  He654    1.0000 0.80386  0.79255  0.88870  Biso   1.000  He
  Ne654    1.0000 0.80399  0.76214  0.87647  Biso   1.000  Ne
  Ne655    1.0000 0.54190  0.72093  0.55302  Biso   1.000  Ne
  He655    1.0000 0.55485  0.69721  0.56974  Biso   1.000  He
  He656    1.0000 0.53464  0.67104  0.56949  Biso   1.000  He
  Ne656    1.0000 0.54890  0.64454  0.57683  Biso   1.000  Ne
  Ne657    1.0000 0.55984  0.91864  0.46218  Biso   1.000  Ne
  He657    1.0000 0.54940  0.92885  0.43326  Biso   1.000  He
  He658    1.0000 0.52870  0.95301  0.43981  Biso   1.000  He
  Ne658    1.0000 0.51622  0.97272  0.41449  Biso   1.000  Ne
  Ne659    1.0000 0.51201  0.54574  0.61793  Biso   1.000  Ne
  He659    1.0000 0.49052  0.55908  0.59467  Biso   1.000  He
  He660    1.0000 0.46051  0.55652  0.60190  Biso   1.000  He
  Ne660    1.0000 0.44137  0.56539  0.57983  Biso   1.000  Ne
  Ne661    1.0000 0.56519  0.86839  0.83868  Biso   1.000  Ne
  He661    1.0000 0.56271  0.89837  0.85116  Biso   1.000  He
  He662    1.0000 0.59465  0.90370  0.86778  Biso   1.000  He
  Ne662    1.0000 0.59646  0.93240  0.88422  Biso   1.000  Ne
  Ne663    1.0000 0.38238  0.78743  0.80815  Biso   1.000  Ne
  He663    1.0000 0.39637  0.81767  0.80328  Biso   1.000  He
  He664    1.0000 0.37104  0.84364  0.80357  Biso   1.000  He
  Ne664    1.0000 0.38076  0.87433  0.80061  Biso   1.000  Ne
  Ne665    1.0000 0.54387  0.09373  0.26647  Biso   1.000  Ne
  He665    1.0000 0.52621  0.06631  0.25706  Biso   1.000  He
  He666    1.0000 0.54079  0.04662  0.23453  Biso   1.000  He
  Ne666    1.0000 0.52552  0.02113  0.22574  Biso   1.000  Ne
  Ne667    1.0000 0.44621  0.99537  0.05405  Biso   1.000  Ne
  He667    1.0000 0.42113  0.01291  0.06440  Biso   1.000  He
  He668    1.0000 0.39902  0.99811  0.08252  Biso   1.000  He
  Ne668    1.0000 0.37219  0.01674  0.09420  Biso   1.000  Ne
  Ne669    1.0000 0.58023  0.77336  0.61497  Biso   1.000  Ne
  He669    1.0000 0.57006  0.79234  0.58938  Biso   1.000  He
  He670    1.0000 0.56399  0.82209  0.59612  Biso   1.000  He
  Ne670    1.0000 0.55530  0.83836  0.57093  Biso   1.000  Ne
  Ne671    1.0000 0.80690  0.23153  0.58630  Biso   1.000  Ne
  He671    1.0000 0.81493  0.21311  0.61181  Biso   1.000  He
  He672    1.0000 0.79137  0.21262  0.63318  Biso   1.000  He
  Ne672    1.0000 0.79793  0.19351  0.66006  Biso   1.000  Ne
  Ne673    1.0000 0.32832  0.08822  0.89415  Biso   1.000  Ne
  He673    1.0000 0.30701  0.06479  0.88345  Biso   1.000  He
  He674    1.0000 0.29415  0.04460  0.90616  Biso   1.000  He
  Ne674    1.0000 0.26451  0.03462  0.89856  Biso   1.000  Ne
  Ne675    1.0000 0.72946  0.73218  0.23852  Biso   1.000  Ne
  He675    1.0000 0.71223  0.75261  0.22273  Biso   1.000  He
  He676    1.0000 0.72936  0.77636  0.20554  Biso   1.000  He
  Ne676    1.0000 0.71254  0.79684  0.18453  Biso   1.000  Ne
  Ne677    1.0000 0.75968  0.68136  0.89816  Biso   1.000  Ne
  He677    1.0000 0.73380  0.67129  0.91820  Biso   1.000  He
  He678    1.0000 0.71956  0.64243  0.90719  Biso   1.000  He
  Ne678    1.0000 0.69708  0.62933  0.92741  Biso   1.000  Ne
  Ne679    1.0000 0.17357  0.39148  0.34706  Biso   1.000  Ne
  He679    1.0000 0.18076  0.37061  0.31897  Biso   1.000  He
  He680    1.0000 0.20311  0.38035  0.29802  Biso   1.000  He
  Ne680    1.0000 0.20831  0.35915  0.27181  Biso   1.000  Ne
  Ne681    1.0000 0.74506  0.42390  0.00032  Biso   1.000  Ne
  He681    1.0000 0.74565  0.43075  0.03212  Biso   1.000  He
  He682    1.0000 0.77487  0.43947  0.04415  Biso   1.000  He
  Ne682    1.0000 0.77720  0.44766  0.07472  Biso   1.000  Ne
  Ne683    1.0000 0.58060  0.37317  0.22088  Biso   1.000  Ne
  He683    1.0000 0.59131  0.40104  0.23586  Biso   1.000  He
  He684    1.0000 0.56653  0.42124  0.24264  Biso   1.000  He
  Ne684    1.0000 0.58198  0.44490  0.25901  Biso   1.000  Ne
  Ne685    1.0000 0.26922  0.88658  0.96581  Biso   1.000  Ne
  He685    1.0000 0.28996  0.86323  0.97128  Biso   1.000  He
  He686    1.0000 0.30368  0.86511  0.00123  Biso   1.000  He
  Ne686    1.0000 0.32867  0.84099  0.00328  Biso   1.000  Ne
  Ne687    1.0000 0.14679  0.83463  0.90374  Biso   1.000  Ne
  He687    1.0000 0.12105  0.82647  0.92344  Biso   1.000  He
  He688    1.0000 0.08815  0.82963  0.91142  Biso   1.000  He
  Ne688    1.0000 0.06503  0.82166  0.93539  Biso   1.000  Ne
  Ne689    1.0000 0.51995  0.22139  0.62462  Biso   1.000  Ne
  He689    1.0000 0.53385  0.23327  0.59838  Biso   1.000  He
  He690    1.0000 0.53270  0.26661  0.59110  Biso   1.000  He
  Ne690    1.0000 0.54700  0.27896  0.56221  Biso   1.000  Ne
  Ne691    1.0000 0.64766  0.82218  0.63245  Biso   1.000  Ne
  He691    1.0000 0.67433  0.83884  0.61889  Biso   1.000  He
  He692    1.0000 0.67220  0.84312  0.58568  Biso   1.000  He
  Ne692    1.0000 0.69644  0.86228  0.57385  Biso   1.000  Ne
  Ne693    1.0000 0.07312  0.89925  0.96244  Biso   1.000  Ne
  He693    1.0000 0.07471  0.90254  0.93035  Biso   1.000  He
  He694    1.0000 0.08185  0.93211  0.91997  Biso   1.000  He
  Ne694    1.0000 0.08925  0.92992  0.88766  Biso   1.000  Ne
  Ne695    1.0000 0.06931  0.10771  0.80662  Biso   1.000  Ne
  He695    1.0000 0.06260  0.07945  0.79155  Biso   1.000  He
  He696    1.0000 0.05999  0.07993  0.75856  Biso   1.000  He
  Ne696    1.0000 0.04555  0.05423  0.74394  Biso   1.000  Ne
  Ne697    1.0000 0.60579  0.90634  0.34753  Biso   1.000  Ne
  He697    1.0000 0.63057  0.90124  0.36833  Biso   1.000  He
  He698    1.0000 0.62187  0.90378  0.40047  Biso   1.000  He
  Ne698    1.0000 0.64304  0.90040  0.42542  Biso   1.000  Ne
  Ne699    1.0000 0.89041  0.68467  0.39090  Biso   1.000  Ne
  He699    1.0000 0.88706  0.66467  0.36669  Biso   1.000  He
  He700    1.0000 0.88065  0.68086  0.33826  Biso   1.000  He
  Ne700    1.0000 0.87792  0.66170  0.31399  Biso   1.000  Ne
  Ne701    1.0000 0.67649  0.67195  0.25391  Biso   1.000  Ne
  He701    1.0000 0.64536  0.66966  0.25503  Biso   1.000  He
  He702    1.0000 0.62940  0.69784  0.26440  Biso   1.000  He
  Ne702    1.0000 0.59439  0.69881  0.26907  Biso   1.000  Ne
  Ne703    1.0000 0.38437  0.21114  0.24993  Biso   1.000  Ne
  He703    1.0000 0.37803  0.17734  0.25101  Biso   1.000  He
  He704    1.0000 0.40598  0.16117  0.25526  Biso   1.000  He
  Ne704    1.0000 0.40113  0.12781  0.25726  Biso   1.000  Ne
  Ne705    1.0000 0.32294  0.19149  0.31513  Biso   1.000  Ne
  He705    1.0000 0.29509  0.17802  0.30870  Biso   1.000  He
  He706    1.0000 0.28119  0.16347  0.33268  Biso   1.000  He
  Ne706    1.0000 0.25050  0.15179  0.32281  Biso   1.000  Ne
  Ne707    1.0000 0.85754  0.25740  0.37850  Biso   1.000  Ne
  He707    1.0000 0.86658  0.26416  0.34813  Biso   1.000  He
  He708    1.0000 0.85273  0.24368  0.32358  Biso   1.000  He
  Ne708    1.0000 0.85797  0.25317  0.29034  Biso   1.000  Ne
  Ne709    1.0000 0.91684  0.72889  0.78781  Biso   1.000  Ne
  He709    1.0000 0.91456  0.71731  0.75723  Biso   1.000  He
  He710    1.0000 0.88502  0.70676  0.74543  Biso   1.000  He
  Ne710    1.0000 0.88814  0.69718  0.71487  Biso   1.000  Ne
  Ne711    1.0000 0.96747  0.59777  0.12243  Biso   1.000  Ne
  He711    1.0000 0.94888  0.62555  0.12810  Biso   1.000  He
  He712    1.0000 0.96934  0.65614  0.12265  Biso   1.000  He
  Ne712    1.0000 0.95598  0.68510  0.13430  Biso   1.000  Ne
  Ne713    1.0000 0.08546  0.32110  0.23890  Biso   1.000  Ne
  He713    1.0000 0.10765  0.34776  0.24101  Biso   1.000  He
  He714    1.0000 0.09304  0.37430  0.22588  Biso   1.000  He
  Ne714    1.0000 0.10638  0.40380  0.23019  Biso   1.000  Ne
  Ne715    1.0000 0.11677  0.74827  0.30131  Biso   1.000  Ne
  He715    1.0000 0.10264  0.72863  0.32518  Biso   1.000  He
  He716    1.0000 0.06935  0.73046  0.32469  Biso   1.000  He
  Ne716    1.0000 0.05167  0.71278  0.34871  Biso   1.000  Ne
  Ne717    1.0000 0.63270  0.92045  0.57981  Biso   1.000  Ne
  He717    1.0000 0.64910  0.91802  0.60798  Biso   1.000  He
  He718    1.0000 0.63241  0.92022  0.63619  Biso   1.000  He
  Ne718    1.0000 0.64917  0.91159  0.66568  Biso   1.000  Ne
  Ne719    1.0000 0.63337  0.31236  0.07232  Biso   1.000  Ne
  He719    1.0000 0.63405  0.32651  0.10376  Biso   1.000  He
  He720    1.0000 0.64190  0.35813  0.10100  Biso   1.000  He
  Ne720    1.0000 0.64098  0.37390  0.13013  Biso   1.000  Ne
  Ne721    1.0000 0.66194  0.86434  0.98792  Biso   1.000  Ne
  He721    1.0000 0.64799  0.84394  0.01069  Biso   1.000  He
  He722    1.0000 0.66734  0.81586  0.01605  Biso   1.000  He
  Ne722    1.0000 0.65732  0.79359  0.03634  Biso   1.000  Ne
  Ne723    1.0000 0.30117  0.64352  0.49715  Biso   1.000  Ne
  He723    1.0000 0.31221  0.61497  0.50619  Biso   1.000  He
  He724    1.0000 0.30618  0.60521  0.53729  Biso   1.000  He
  Ne724    1.0000 0.31451  0.57317  0.54404  Biso   1.000  Ne
  Ne725    1.0000 0.84901  0.89690  0.07383  Biso   1.000  Ne
  He725    1.0000 0.87061  0.87178  0.07216  Biso   1.000  He
  He726    1.0000 0.90328  0.88056  0.06156  Biso   1.000  He
  Ne726    1.0000 0.92461  0.85356  0.05464  Biso   1.000  Ne
  Ne727    1.0000 0.46334  0.68977  0.30205  Biso   1.000  Ne
  He727    1.0000 0.48367  0.70092  0.32329  Biso   1.000  He
  He728    1.0000 0.51420  0.68976  0.32434  Biso   1.000  He
  Ne728    1.0000 0.53465  0.70643  0.34517  Biso   1.000  Ne
  Ne729    1.0000 0.81178  0.99232  0.46317  Biso   1.000  Ne
  He729    1.0000 0.79628  0.01530  0.48006  Biso   1.000  He
  He730    1.0000 0.77729  0.00306  0.50196  Biso   1.000  He
  Ne730    1.0000 0.76156  0.02434  0.52129  Biso   1.000  Ne
  Ne731    1.0000 0.33358  0.30644  0.69543  Biso   1.000  Ne
  He731    1.0000 0.34704  0.28890  0.66996  Biso   1.000  He
  He732    1.0000 0.36677  0.26075  0.67849  Biso   1.000  He
  Ne732    1.0000 0.38370  0.24519  0.65560  Biso   1.000  Ne
  Ne733    1.0000 0.91874  0.64634  0.21476  Biso   1.000  Ne
  He733    1.0000 0.89705  0.63518  0.19373  Biso   1.000  He
  He734    1.0000 0.88388  0.60548  0.20411  Biso   1.000  He
  Ne734    1.0000 0.86409  0.59042  0.18229  Biso   1.000  Ne
  Ne735    1.0000 0.81523  0.56007  0.59636  Biso   1.000  Ne
  He735    1.0000 0.78565  0.56815  0.61071  Biso   1.000  He
  He736    1.0000 0.78222  0.56836  0.64387  Biso   1.000  He
  Ne736    1.0000 0.75095  0.57375  0.65298  Biso   1.000  Ne
  Ne737    1.0000 0.25471  0.91608  0.43149  Biso   1.000  Ne
  He737    1.0000 0.23974  0.91587  0.40247  Biso   1.000  He
  He738    1.0000 0.21405  0.93387  0.39559  Biso   1.000  He
  Ne738    1.0000 0.20448  0.93208  0.36438  Biso   1.000  Ne
  Ne739    1.0000 0.03778  0.95759  0.48738  Biso   1.000  Ne
  He739    1.0000 0.04561  0.95751  0.45689  Biso   1.000  He
  He740    1.0000 0.04579  0.92740  0.44441  Biso   1.000  He
  Ne740    1.0000 0.05212  0.92629  0.41151  Biso   1.000  Ne
  Ne741    1.0000 0.83494  0.97072  0.33601  Biso   1.000  Ne
  He741    1.0000 0.81630  0.97094  0.30756  Biso   1.000  He
  He742    1.0000 0.81720  0.94024  0.29119  Biso   1.000  He
  Ne742    1.0000 0.80079  0.93835  0.26389  Biso   1.000  Ne
  Ne743    1.0000 0.33237  0.66286  0.85353  Biso   1.000  Ne
  He743    1.0000 0.35467  0.67372  0.82985  Biso   1.000  He
  He744    1.0000 0.36454  0.65269  0.80512  Biso   1.000  He
  Ne744    1.0000 0.39136  0.66623  0.78779  Biso   1.000  Ne
  Ne745    1.0000 0.80872  0.18504  0.78292  Biso   1.000  Ne
  He745    1.0000 0.80393  0.16151  0.75861  Biso   1.000  He
  He746    1.0000 0.82934  0.14657  0.74853  Biso   1.000  He
  Ne746    1.0000 0.82466  0.12847  0.72238  Biso   1.000  Ne
  Ne747    1.0000 0.12686  0.15783  0.08898  Biso   1.000  Ne
  He747    1.0000 0.13730  0.16983  0.11830  Biso   1.000  He
  He748    1.0000 0.11587  0.16451  0.14449  Biso   1.000  He
  Ne748    1.0000 0.12710  0.17735  0.17329  Biso   1.000  Ne
  Ne749    1.0000 0.04910  0.38329  0.69360  Biso   1.000  Ne
  He749    1.0000 0.07466  0.36472  0.68765  Biso   1.000  He
  He750    1.0000 0.09389  0.34915  0.71122  Biso   1.000  He
  Ne750    1.0000 0.11855  0.32938  0.70017  Biso   1.000  Ne
  Ne751    1.0000 0.90412  0.11039  0.61637  Biso   1.000  Ne
  He751    1.0000 0.93168  0.12869  0.62684  Biso   1.000  He
  He752    1.0000 0.95654  0.13748  0.60472  Biso   1.000  He
  Ne752    1.0000 0.98077  0.15352  0.61864  Biso   1.000  Ne
  Ne753    1.0000 0.40754  0.63308  0.07415  Biso   1.000  Ne
  He753    1.0000 0.39252  0.60426  0.08700  Biso   1.000  He
  He754    1.0000 0.38689  0.57748  0.06600  Biso   1.000  He
  Ne754    1.0000 0.36990  0.55403  0.08021  Biso   1.000  Ne
  Ne755    1.0000 0.91455  0.38689  0.20359  Biso   1.000  Ne
  He755    1.0000 0.94345  0.38964  0.18955  Biso   1.000  He
  He756    1.0000 0.96961  0.38459  0.20763  Biso   1.000  He
  Ne756    1.0000 0.99905  0.38684  0.19178  Biso   1.000  Ne
  Ne757    1.0000 0.98081  0.51350  0.51046  Biso   1.000  Ne
  He757    1.0000 0.99316  0.53407  0.48640  Biso   1.000  He
  He758    1.0000 0.00653  0.56061  0.49624  Biso   1.000  He
  Ne758    1.0000 0.02672  0.57729  0.47590  Biso   1.000  Ne
  Ne759    1.0000 0.64224  0.70905  0.83843  Biso   1.000  Ne
  He759    1.0000 0.61306  0.70863  0.85419  Biso   1.000  He
  He760    1.0000 0.58771  0.70285  0.83286  Biso   1.000  He
  Ne760    1.0000 0.55751  0.70967  0.84757  Biso   1.000  Ne
  Ne761    1.0000 0.96363  0.32380  0.93782  Biso   1.000  Ne
  He761    1.0000 0.95527  0.31539  0.90758  Biso   1.000  He
  He762    1.0000 0.94072  0.28627  0.91263  Biso   1.000  He
  Ne762    1.0000 0.92347  0.27551  0.88757  Biso   1.000  Ne
  Ne763    1.0000 0.68206  0.91093  0.73943  Biso   1.000  Ne
  He763    1.0000 0.68951  0.87721  0.73810  Biso   1.000  He
  He764    1.0000 0.71755  0.87141  0.72339  Biso   1.000  He
  Ne764    1.0000 0.72289  0.83974  0.72093  Biso   1.000  Ne
  Ne765    1.0000 0.65221  0.09068  0.29126  Biso   1.000  Ne
  He765    1.0000 0.63850  0.07250  0.31707  Biso   1.000  He
  He766    1.0000 0.65142  0.08201  0.34683  Biso   1.000  He
  Ne766    1.0000 0.63613  0.06754  0.37275  Biso   1.000  Ne
  Ne767    1.0000 0.08299  0.35350  0.93709  Biso   1.000  Ne
  He767    1.0000 0.08052  0.38798  0.93942  Biso   1.000  He
  He768    1.0000 0.09808  0.40573  0.91807  Biso   1.000  He
  Ne768    1.0000 0.09958  0.43896  0.92106  Biso   1.000  Ne
  Ne769    1.0000 0.63809  0.68454  0.46254  Biso   1.000  Ne
  He769    1.0000 0.63394  0.65950  0.44284  Biso   1.000  He
  He770    1.0000 0.60263  0.64880  0.43768  Biso   1.000  He
  Ne770    1.0000 0.59919  0.62477  0.41556  Biso   1.000  Ne
  Ne771    1.0000 0.63221  0.49107  0.42145  Biso   1.000  Ne
  He771    1.0000 0.65447  0.48781  0.44706  Biso   1.000  He
  He772    1.0000 0.68715  0.50082  0.44280  Biso   1.000  He
  Ne772    1.0000 0.70371  0.49848  0.47076  Biso   1.000  Ne
  Ne773    1.0000 0.30175  0.42324  0.49086  Biso   1.000  Ne
  He773    1.0000 0.28267  0.44901  0.50013  Biso   1.000  He
  He774    1.0000 0.28650  0.45628  0.53253  Biso   1.000  He
  Ne774    1.0000 0.27156  0.48270  0.54364  Biso   1.000  Ne
  Ne775    1.0000 0.23021  0.86265  0.15677  Biso   1.000  Ne
  He775    1.0000 0.19868  0.86634  0.16254  Biso   1.000  He
  He776    1.0000 0.18772  0.87999  0.18798  Biso   1.000  He
  Ne776    1.0000 0.15531  0.88436  0.18458  Biso   1.000  Ne
  Ne777    1.0000 0.07073  0.94008  0.64906  Biso   1.000  Ne
  He777    1.0000 0.07157  0.97205  0.65300  Biso   1.000  He
  He778    1.0000 0.04424  0.98852  0.65528  Biso   1.000  He
  Ne778    1.0000 0.04775  0.02158  0.65737  Biso   1.000  Ne
  Ne779    1.0000 0.44947  0.38414  0.31335  Biso   1.000  Ne
  He779    1.0000 0.48127  0.39606  0.30585  Biso   1.000  He
  He780    1.0000 0.49366  0.41956  0.32746  Biso   1.000  He
  Ne780    1.0000 0.52322  0.43270  0.32200  Biso   1.000  Ne
  Ne781    1.0000 0.81859  0.09312  0.42247  Biso   1.000  Ne
  He781    1.0000 0.79210  0.09670  0.44463  Biso   1.000  He
  He782    1.0000 0.78385  0.12892  0.44121  Biso   1.000  He
  Ne782    1.0000 0.75520  0.13598  0.45276  Biso   1.000  Ne
  Ne783    1.0000 0.12163  0.61388  0.83537  Biso   1.000  Ne
  He783    1.0000 0.13578  0.64114  0.84847  Biso   1.000  He
  He784    1.0000 0.13618  0.66465  0.82507  Biso   1.000  He
  Ne784    1.0000 0.15072  0.69251  0.83094  Biso   1.000  Ne
  Ne785    1.0000 0.57622  0.62492  0.67019  Biso   1.000  Ne
  He785    1.0000 0.60447  0.63697  0.66276  Biso   1.000  He
  He786    1.0000 0.63022  0.61572  0.67526  Biso   1.000  He
  Ne786    1.0000 0.66308  0.62412  0.66629  Biso   1.000  Ne
  Ne787    1.0000 0.72354  0.77594  0.67880  Biso   1.000  Ne
  He787    1.0000 0.72593  0.79088  0.65006  Biso   1.000  He
  He788    1.0000 0.74336  0.77146  0.62563  Biso   1.000  He
  Ne788    1.0000 0.74987  0.78492  0.59481  Biso   1.000  Ne
  Ne789    1.0000 0.21341  0.56083  0.81061  Biso   1.000  Ne
  He789    1.0000 0.19257  0.56639  0.78282  Biso   1.000  He
  He790    1.0000 0.16997  0.54115  0.77485  Biso   1.000  He
  Ne790    1.0000 0.15261  0.54526  0.74773  Biso   1.000  Ne
  Ne791    1.0000 0.90827  0.54776  0.80918  Biso   1.000  Ne
  He791    1.0000 0.94134  0.54700  0.80392  Biso   1.000  He
  He792    1.0000 0.94859  0.51823  0.78481  Biso   1.000  He
  Ne792    1.0000 0.97903  0.52336  0.77238  Biso   1.000  Ne
  Ne793    1.0000 0.88672  0.30282  0.96945  Biso   1.000  Ne
  He793    1.0000 0.86853  0.32935  0.96829  Biso   1.000  He
  He794    1.0000 0.83770  0.32501  0.97574  Biso   1.000  He
  Ne794    1.0000 0.81809  0.35219  0.97378  Biso   1.000  Ne
  Ne795    1.0000 0.82403  0.60981  0.89645  Biso   1.000  Ne
  He795    1.0000 0.82026  0.58443  0.87701  Biso   1.000  He
  He796    1.0000 0.84653  0.56536  0.86983  Biso   1.000  He
  Ne796    1.0000 0.84970  0.53678  0.88750  Biso   1.000  Ne
  Ne797    1.0000 0.09108  0.34762  0.57882  Biso   1.000  Ne
  He797    1.0000 0.07857  0.32223  0.59610  Biso   1.000  He
  He798    1.0000 0.09837  0.30358  0.61551  Biso   1.000  He
  Ne798    1.0000 0.08031  0.28100  0.63252  Biso   1.000  Ne
  Ne799    1.0000 0.31647  0.62380  0.92924  Biso   1.000  Ne
  He799    1.0000 0.28301  0.61617  0.92860  Biso   1.000  He
  He800    1.0000 0.27762  0.58467  0.93022  Biso   1.000  He
  Ne800    1.0000 0.24542  0.57828  0.92512  Biso   1.000  Ne
  Ne801    1.0000 0.55341  0.25603  0.82409  Biso   1.000  Ne
  He801    1.0000 0.54977  0.26111  0.79083  Biso   1.000  He
  He802    1.0000 0.54246  0.29298  0.78183  Biso   1.000  He
  Ne802    1.0000 0.54105  0.29664  0.74985  Biso   1.000  Ne
  Ne803    1.0000 0.04064  0.22902  0.82366  Biso   1.000  Ne
  He803    1.0000 0.06380  0.24136  0.83983  Biso   1.000  He
  He804    1.0000 0.06497  0.27407  0.83906  Biso   1.000  He
  Ne804    1.0000 0.08851  0.28647  0.85795  Biso   1.000  Ne
  Ne805    1.0000 0.56389  0.09880  0.79667  Biso   1.000  Ne
  He805    1.0000 0.55325  0.08612  0.76721  Biso   1.000  He
  He806    1.0000 0.55031  0.05170  0.76918  Biso   1.000  He
  Ne806    1.0000 0.54649  0.03579  0.74008  Biso   1.000  Ne
  Ne807    1.0000 0.60531  0.15722  0.81668  Biso   1.000  Ne
  He807    1.0000 0.62226  0.18461  0.81466  Biso   1.000  He
  He808    1.0000 0.61229  0.20737  0.79140  Biso   1.000  He
  Ne808    1.0000 0.63066  0.23521  0.78746  Biso   1.000  Ne
  Ne809    1.0000 0.40788  0.01788  0.87682  Biso   1.000  Ne
  He809    1.0000 0.39981  0.01045  0.90720  Biso   1.000  He
  He810    1.0000 0.41100  0.03066  0.92829  Biso   1.000  He
  Ne810    1.0000 0.40575  0.02231  0.95862  Biso   1.000  Ne
  Ne811    1.0000 0.20374  0.62683  0.74218  Biso   1.000  Ne
  He811    1.0000 0.21251  0.63662  0.70962  Biso   1.000  He
  He812    1.0000 0.23204  0.61678  0.69217  Biso   1.000  He
  Ne812    1.0000 0.25045  0.63345  0.66626  Biso   1.000  Ne
  Ne813    1.0000 0.92323  0.43700  0.39147  Biso   1.000  Ne
  He813    1.0000 0.93358  0.42680  0.42025  Biso   1.000  He
  He814    1.0000 0.91249  0.43034  0.44266  Biso   1.000  He
  Ne814    1.0000 0.92372  0.41797  0.47254  Biso   1.000  Ne
  Ne815    1.0000 0.45798  0.38700  0.54642  Biso   1.000  Ne
  He815    1.0000 0.47884  0.41144  0.54580  Biso   1.000  He
  He816    1.0000 0.46897  0.44103  0.55954  Biso   1.000  He
  Ne816    1.0000 0.45644  0.46290  0.53923  Biso   1.000  Ne
  Ne817    1.0000 0.47502  0.98755  0.16753  Biso   1.000  Ne
  He817    1.0000 0.44963  0.98697  0.18761  Biso   1.000  He
  He818    1.0000 0.43059  0.96033  0.18750  Biso   1.000  He
  Ne818    1.0000 0.41009  0.95978  0.20933  Biso   1.000  Ne
  Ne819    1.0000 0.65499  0.38578  0.90319  Biso   1.000  Ne
  He819    1.0000 0.63570  0.40427  0.92137  Biso   1.000  He
  He820    1.0000 0.60624  0.39030  0.92581  Biso   1.000  He
  Ne820    1.0000 0.58295  0.41358  0.93371  Biso   1.000  Ne
  Ne821    1.0000 0.22736  0.81349  0.89681  Biso   1.000  Ne
  He821    1.0000 0.22126  0.80231  0.86531  Biso   1.000  He
  He822    1.0000 0.18989  0.79675  0.85623  Biso   1.000  He
  Ne822    1.0000 0.18492  0.78266  0.82770  Biso   1.000  Ne
  Ne823    1.0000 0.25359  0.73436  0.56084  Biso   1.000  Ne
  He823    1.0000 0.26204  0.76389  0.56855  Biso   1.000  He
  He824    1.0000 0.24649  0.78851  0.55226  Biso   1.000  He
  Ne824    1.0000 0.26311  0.81773  0.56107  Biso   1.000  Ne
  Ne825    1.0000 0.43813  0.45220  0.70730  Biso   1.000  Ne
  He825    1.0000 0.43898  0.44896  0.67457  Biso   1.000  He
  He826    1.0000 0.42322  0.42555  0.66486  Biso   1.000  He
  Ne826    1.0000 0.42899  0.42158  0.63124  Biso   1.000  Ne
  Ne827    1.0000 0.34208  0.79953  0.12748  Biso   1.000  Ne
  He827    1.0000 0.35965  0.80629  0.10379  Biso   1.000  He
  He828    1.0000 0.37909  0.77958  0.09583  Biso   1.000  He
  Ne828    1.0000 0.40555  0.78309  0.07959  Biso   1.000  Ne
  Ne829    1.0000 0.34492  0.62448  0.70948  Biso   1.000  Ne
  He829    1.0000 0.32688  0.62329  0.73477  Biso   1.000  He
  He830    1.0000 0.29908  0.60258  0.73217  Biso   1.000  He
  Ne830    1.0000 0.28248  0.59780  0.76046  Biso   1.000  Ne
  Ne831    1.0000 0.18222  0.77661  0.22048  Biso   1.000  Ne
  He831    1.0000 0.17024  0.80547  0.23292  Biso   1.000  He
  He832    1.0000 0.13817  0.80688  0.23686  Biso   1.000  He
  Ne832    1.0000 0.12848  0.83495  0.25176  Biso   1.000  Ne
  Ne833    1.0000 0.53221  0.87033  0.21010  Biso   1.000  Ne
  He833    1.0000 0.53051  0.87719  0.17688  Biso   1.000  He
  He834    1.0000 0.53285  0.90854  0.16969  Biso   1.000  He
  Ne834    1.0000 0.52691  0.91780  0.13854  Biso   1.000  Ne
  Ne835    1.0000 0.05973  0.53906  0.75492  Biso   1.000  Ne
  He835    1.0000 0.06036  0.56707  0.77194  Biso   1.000  He
  He836    1.0000 0.06821  0.59319  0.75144  Biso   1.000  He
  Ne836    1.0000 0.06691  0.62190  0.76634  Biso   1.000  Ne
  Ne837    1.0000 0.31795  0.06388  0.58590  Biso   1.000  Ne
  He837    1.0000 0.28582  0.06794  0.57938  Biso   1.000  He
  He838    1.0000 0.26600  0.04200  0.58432  Biso   1.000  He
  Ne838    1.0000 0.23616  0.04462  0.57050  Biso   1.000  Ne
  Ne839    1.0000 0.44325  0.92595  0.88706  Biso   1.000  Ne
  He839    1.0000 0.45608  0.94460  0.90802  Biso   1.000  He
  He840    1.0000 0.48865  0.95492  0.90307  Biso   1.000  He
  Ne840    1.0000 0.50063  0.97273  0.92570  Biso   1.000  Ne
  Ne841    1.0000 0.53390  0.77137  0.97622  Biso   1.000  Ne
  He841    1.0000 0.55206  0.77921  0.95066  Biso   1.000  He
  He842    1.0000 0.58189  0.79699  0.95899  Biso   1.000  He
  Ne842    1.0000 0.60192  0.79838  0.93233  Biso   1.000  Ne
  Ne843    1.0000 0.32031  0.28129  0.41557  Biso   1.000  Ne
  He843    1.0000 0.32280  0.28874  0.45014  Biso   1.000  He
  He844    1.0000 0.30219  0.27140  0.46839  Biso   1.000  He
  Ne844    1.0000 0.30391  0.27679  0.50141  Biso   1.000  Ne
  Ne845    1.0000 0.85934  0.35223  0.43599  Biso   1.000  Ne
  He845    1.0000 0.85881  0.37751  0.41259  Biso   1.000  He
  He846    1.0000 0.82875  0.38657  0.40163  Biso   1.000  He
  Ne846    1.0000 0.83022  0.40903  0.37820  Biso   1.000  Ne
  Ne847    1.0000 0.75496  0.89889  0.44104  Biso   1.000  Ne
  He847    1.0000 0.77068  0.91105  0.41654  Biso   1.000  He
  He848    1.0000 0.75931  0.89609  0.38638  Biso   1.000  He
  Ne848    1.0000 0.77282  0.91514  0.36010  Biso   1.000  Ne
  Ne849    1.0000 0.70339  0.26668  0.08553  Biso   1.000  Ne
  He849    1.0000 0.72702  0.26106  0.11050  Biso   1.000  He
  He850    1.0000 0.74558  0.28654  0.11859  Biso   1.000  He
  Ne850    1.0000 0.76728  0.27766  0.14318  Biso   1.000  Ne
  Ne851    1.0000 0.75223  0.49566  0.95920  Biso   1.000  Ne
  He851    1.0000 0.77632  0.47907  0.94297  Biso   1.000  He
  He852    1.0000 0.80403  0.47502  0.95991  Biso   1.000  He
  Ne852    1.0000 0.82598  0.45261  0.94585  Biso   1.000  Ne
  Ne853    1.0000 0.06444  0.03063  0.06554  Biso   1.000  Ne
  He853    1.0000 0.03324  0.02296  0.07042  Biso   1.000  He
  He854    1.0000 0.01099  0.04817  0.06877  Biso   1.000  He
  Ne854    1.0000 0.97801  0.03542  0.07167  Biso   1.000  Ne
  Ne855    1.0000 0.53673  0.59454  0.06941  Biso   1.000  Ne
  He855    1.0000 0.52912  0.56131  0.06061  Biso   1.000  He
  He856    1.0000 0.49757  0.55272  0.06642  Biso   1.000  He
  Ne856    1.0000 0.48870  0.52413  0.05824  Biso   1.000  Ne
  Ne857    1.0000 0.59747  0.74153  0.05556  Biso   1.000  Ne
  He857    1.0000 0.57672  0.76069  0.07472  Biso   1.000  He
  He858    1.0000 0.58921  0.77922  0.09767  Biso   1.000  He
  Ne858    1.0000 0.56894  0.78510  0.12266  Biso   1.000  Ne
  Ne859    1.0000 0.16262  0.37006  0.03957  Biso   1.000  Ne
  He859    1.0000 0.14476  0.34538  0.05275  Biso   1.000  He
  He860    1.0000 0.11667  0.35172  0.07047  Biso   1.000  He
  Ne860    1.0000 0.11874  0.35522  0.10309  Biso   1.000  Ne
  Ne861    1.0000 0.71569  0.09420  0.80538  Biso   1.000  Ne
  He861    1.0000 0.69626  0.08953  0.77994  Biso   1.000  He
  He862    1.0000 0.67669  0.11680  0.77526  Biso   1.000  He
  Ne862    1.0000 0.65654  0.11566  0.75109  Biso   1.000  Ne
  Ne863    1.0000 0.08563  0.72027  0.74923  Biso   1.000  Ne
  He863    1.0000 0.07571  0.72354  0.71854  Biso   1.000  He
  He864    1.0000 0.07225  0.75425  0.70714  Biso   1.000  He
  Ne864    1.0000 0.06918  0.75350  0.67212  Biso   1.000  Ne
  Ne865    1.0000 0.80637  0.31979  0.27192  Biso   1.000  Ne
  He865    1.0000 0.81725  0.30051  0.24661  Biso   1.000  He
  He866    1.0000 0.84733  0.31005  0.23398  Biso   1.000  He
  Ne866    1.0000 0.86209  0.28940  0.21351  Biso   1.000  Ne
  Ne867    1.0000 0.93938  0.76343  0.62423  Biso   1.000  Ne
  He867    1.0000 0.91598  0.76059  0.60094  Biso   1.000  He
  He868    1.0000 0.88183  0.75948  0.60545  Biso   1.000  He
  Ne868    1.0000 0.86465  0.76234  0.57559  Biso   1.000  Ne
  Ne869    1.0000 0.05248  0.92878  0.24629  Biso   1.000  Ne
  He869    1.0000 0.06231  0.91829  0.27636  Biso   1.000  He
  He870    1.0000 0.04630  0.89139  0.28582  Biso   1.000  He
  Ne870    1.0000 0.06204  0.86374  0.27644  Biso   1.000  Ne
  Ne871    1.0000 0.01749  0.02002  0.98056  Biso   1.000  Ne
  He871    1.0000 0.02392  0.04292  0.95759  Biso   1.000  He
  He872    1.0000 0.00955  0.07199  0.96463  Biso   1.000  He
  Ne872    1.0000 0.01769  0.09830  0.94754  Biso   1.000  Ne
  Ne873    1.0000 0.15894  0.50866  0.88552  Biso   1.000  Ne
  He873    1.0000 0.16563  0.52771  0.91075  Biso   1.000  He
  He874    1.0000 0.14859  0.52031  0.93577  Biso   1.000  He
  Ne874    1.0000 0.15243  0.54236  0.95838  Biso   1.000  Ne
  Ne875    1.0000 0.71101  0.54121  0.12838  Biso   1.000  Ne
  He875    1.0000 0.72043  0.56114  0.15418  Biso   1.000  He
  He876    1.0000 0.74284  0.54735  0.17338  Biso   1.000  He
  Ne876    1.0000 0.74996  0.56477  0.19956  Biso   1.000  Ne
  Ne877    1.0000 0.59231  0.21788  0.28066  Biso   1.000  Ne
  He877    1.0000 0.58988  0.20070  0.25232  Biso   1.000  He
  He878    1.0000 0.56237  0.20646  0.23460  Biso   1.000  He
  Ne878    1.0000 0.56221  0.19277  0.20642  Biso   1.000  Ne
  Ne879    1.0000 0.90478  0.55867  0.26239  Biso   1.000  Ne
  He879    1.0000 0.90401  0.55080  0.29530  Biso   1.000  He
  He880    1.0000 0.89769  0.57532  0.31249  Biso   1.000  He
  Ne880    1.0000 0.90252  0.56806  0.34340  Biso   1.000  Ne
  Ne881    1.0000 0.55444  0.08382  0.34604  Biso   1.000  Ne
  He881    1.0000 0.55750  0.11603  0.35520  Biso   1.000  He
  He882    1.0000 0.54606  0.14079  0.33483  Biso   1.000  He
  Ne882    1.0000 0.55914  0.16951  0.33985  Biso   1.000  Ne
  Ne883    1.0000 0.82721  0.06209  0.82789  Biso   1.000  Ne
  He883    1.0000 0.85079  0.04949  0.84801  Biso   1.000  He
  He884    1.0000 0.87929  0.06413  0.84566  Biso   1.000  He
  Ne884    1.0000 0.89538  0.04952  0.86733  Biso   1.000  Ne
  Ne885    1.0000 0.57229  0.38961  0.77636  Biso   1.000  Ne
  He885    1.0000 0.57412  0.40073  0.80603  Biso   1.000  He
  He886    1.0000 0.55537  0.38704  0.82690  Biso   1.000  He
  Ne886    1.0000 0.55740  0.39672  0.85888  Biso   1.000  Ne
  Ne887    1.0000 0.62690  0.67133  0.76691  Biso   1.000  Ne
  He887    1.0000 0.65972  0.66767  0.77195  Biso   1.000  He
  He888    1.0000 0.66984  0.64116  0.75891  Biso   1.000  He
  Ne888    1.0000 0.70423  0.64110  0.75896  Biso   1.000  Ne
  Ne889    1.0000 0.81957  0.69518  0.61058  Biso   1.000  Ne
  He889    1.0000 0.78741  0.69617  0.61032  Biso   1.000  He
  He890    1.0000 0.77434  0.66634  0.60134  Biso   1.000  He
  Ne890    1.0000 0.74272  0.66485  0.59234  Biso   1.000  Ne
  Ne891    1.0000 0.11115  0.87915  0.70673  Biso   1.000  Ne
  He891    1.0000 0.11871  0.85328  0.68547  Biso   1.000  He
  He892    1.0000 0.09893  0.84962  0.65896  Biso   1.000  He
  Ne892    1.0000 0.11060  0.82888  0.63731  Biso   1.000  Ne
  Ne893    1.0000 0.87101  0.07566  0.33571  Biso   1.000  Ne
  He893    1.0000 0.86282  0.05064  0.31580  Biso   1.000  He
  He894    1.0000 0.85791  0.05922  0.28363  Biso   1.000  He
  Ne894    1.0000 0.84928  0.03661  0.26008  Biso   1.000  Ne
  Ne895    1.0000 0.27205  0.54534  0.63689  Biso   1.000  Ne
  He895    1.0000 0.25908  0.55747  0.60598  Biso   1.000  He
  He896    1.0000 0.23541  0.53767  0.59215  Biso   1.000  He
  Ne896    1.0000 0.22031  0.55268  0.56626  Biso   1.000  Ne
  Ne897    1.0000 0.37796  0.21580  0.76162  Biso   1.000  Ne
  He897    1.0000 0.34867  0.20323  0.75493  Biso   1.000  He
  He898    1.0000 0.33708  0.18324  0.77470  Biso   1.000  He
  Ne898    1.0000 0.30591  0.17201  0.76720  Biso   1.000  Ne
  Ne899    1.0000 0.44799  0.11522  0.00701  Biso   1.000  Ne
  He899    1.0000 0.47353  0.12295  0.02574  Biso   1.000  He
  He900    1.0000 0.47335  0.10573  0.05614  Biso   1.000  He
  Ne900    1.0000 0.49472  0.11336  0.07734  Biso   1.000  Ne
