data_image0
_cell_length_a       46.9911
_cell_length_b       46.6328
_cell_length_c       46.5974
_cell_angle_alpha    90
_cell_angle_beta     90
_cell_angle_gamma    90

_symmetry_space_group_name_H-M    "P 1"
_symmetry_int_tables_number       1

loop_
  _symmetry_equiv_pos_as_xyz
  'x, y, z'

loop_
  _atom_site_label
  _atom_site_occupancy
  _atom_site_fract_x
  _atom_site_fract_y
  _atom_site_fract_z
  _atom_site_thermal_displace_type
  _atom_site_B_iso_or_equiv
  _atom_site_type_symbol
  Ne1      1.0000 0.58745  0.60905  0.07749  Biso   1.000  Ne
  He1      1.0000 0.58979  0.63528  0.09561  Biso   1.000  He
  He2      1.0000 0.61226  0.65719  0.08855  Biso   1.000  He
  Ne2      1.0000 0.60650  0.68553  0.10469  Biso   1.000  Ne
  Ne3      1.0000 0.43841  0.28037  0.18415  Biso   1.000  Ne
  He3      1.0000 0.42181  0.26093  0.20577  Biso   1.000  He
  He4      1.0000 0.44110  0.23505  0.21537  Biso   1.000  He
  Ne4      1.0000 0.42558  0.21845  0.23898  Biso   1.000  Ne
  Ne5      1.0000 0.34206  0.89890  0.41222  Biso   1.000  Ne
  He5      1.0000 0.32055  0.91163  0.38754  Biso   1.000  He
  He6      1.0000 0.28813  0.90940  0.39373  Biso   1.000  He
  Ne6      1.0000 0.26981  0.92392  0.36955  Biso   1.000  Ne
  Ne7      1.0000 0.11210  0.43336  0.46740  Biso   1.000  Ne
  He7      1.0000 0.09859  0.40579  0.45480  Biso   1.000  He
  He8      1.0000 0.07631  0.40466  0.43113  Biso   1.000  He
  Ne8      1.0000 0.06850  0.37399  0.42382  Biso   1.000  Ne
  Ne9      1.0000 0.37820  0.29483  0.07001  Biso   1.000  Ne
  He9      1.0000 0.38590  0.29184  0.10246  Biso   1.000  He
  He10     1.0000 0.41704  0.28317  0.10877  Biso   1.000  He
  Ne10     1.0000 0.43560  0.30783  0.10917  Biso   1.000  Ne
  Ne11     1.0000 0.58587  0.41612  0.91667  Biso   1.000  Ne
  He11     1.0000 0.57715  0.41397  0.94648  Biso   1.000  He
  He12     1.0000 0.58068  0.43998  0.96525  Biso   1.000  He
  Ne12     1.0000 0.57366  0.43421  0.99802  Biso   1.000  Ne
  Ne13     1.0000 0.09804  0.60907  0.72045  Biso   1.000  Ne
  He13     1.0000 0.09424  0.61240  0.68666  Biso   1.000  He
  He14     1.0000 0.09909  0.58169  0.67368  Biso   1.000  He
  Ne14     1.0000 0.09796  0.57925  0.64073  Biso   1.000  Ne
  Ne15     1.0000 0.77830  0.19980  0.39787  Biso   1.000  Ne
  He15     1.0000 0.78645  0.17518  0.41640  Biso   1.000  He
  He16     1.0000 0.76499  0.15164  0.41072  Biso   1.000  He
  Ne16     1.0000 0.77325  0.12363  0.42619  Biso   1.000  Ne
  Ne17     1.0000 0.80995  0.36331  0.41960  Biso   1.000  Ne
  He17     1.0000 0.80937  0.38050  0.39547  Biso   1.000  He
  He18     1.0000 0.83915  0.38345  0.38386  Biso   1.000  He
  Ne18     1.0000 0.84370  0.39994  0.35584  Biso   1.000  Ne
  Ne19     1.0000 0.43011  0.05063  0.70214  Biso   1.000  Ne
  He19     1.0000 0.41059  0.07534  0.69174  Biso   1.000  He
  He20     1.0000 0.42305  0.10627  0.69713  Biso   1.000  He
  Ne20     1.0000 0.40644  0.13192  0.68354  Biso   1.000  Ne
  Ne21     1.0000 0.88048  0.65002  0.42048  Biso   1.000  Ne
  He21     1.0000 0.91016  0.65985  0.40569  Biso   1.000  He
  He22     1.0000 0.91653  0.64268  0.37937  Biso   1.000  He
  Ne22     1.0000 0.94450  0.65098  0.36388  Biso   1.000  Ne
  Ne23     1.0000 0.04128  0.80782  0.70886  Biso   1.000  Ne
  He23     1.0000 0.06134  0.78185  0.71170  Biso   1.000  He
  He24     1.0000 0.05971  0.75746  0.68674  Biso   1.000  He
  Ne24     1.0000 0.08367  0.73380  0.69019  Biso   1.000  Ne
  Ne25     1.0000 0.58063  0.90489  0.42751  Biso   1.000  Ne
  He25     1.0000 0.57670  0.91002  0.39532  Biso   1.000  He
  He26     1.0000 0.57904  0.88316  0.37711  Biso   1.000  He
  Ne26     1.0000 0.58098  0.88662  0.34644  Biso   1.000  Ne
  Ne27     1.0000 0.49991  0.55817  0.97275  Biso   1.000  Ne
  He27     1.0000 0.47183  0.54310  0.96114  Biso   1.000  He
  He28     1.0000 0.45924  0.52148  0.98364  Biso   1.000  He
  Ne28     1.0000 0.42991  0.51294  0.97411  Biso   1.000  Ne
  Ne29     1.0000 0.05898  0.02416  0.03708  Biso   1.000  Ne
  He29     1.0000 0.08181  0.03784  0.05809  Biso   1.000  He
  He30     1.0000 0.10566  0.05427  0.04322  Biso   1.000  He
  Ne30     1.0000 0.12738  0.07013  0.06471  Biso   1.000  Ne
  Ne31     1.0000 0.34769  0.37696  0.07775  Biso   1.000  Ne
  He31     1.0000 0.31492  0.37987  0.07193  Biso   1.000  He
  He32     1.0000 0.30276  0.40514  0.08920  Biso   1.000  He
  Ne32     1.0000 0.27160  0.41221  0.08340  Biso   1.000  Ne
  Ne33     1.0000 0.78208  0.38602  0.25234  Biso   1.000  Ne
  He33     1.0000 0.77325  0.38025  0.22165  Biso   1.000  He
  He34     1.0000 0.79613  0.39319  0.20193  Biso   1.000  He
  Ne34     1.0000 0.78598  0.39451  0.16906  Biso   1.000  Ne
  Ne35     1.0000 0.24291  0.54561  0.84080  Biso   1.000  Ne
  He35     1.0000 0.27177  0.54663  0.82839  Biso   1.000  He
  He36     1.0000 0.28829  0.57780  0.83268  Biso   1.000  He
  Ne36     1.0000 0.31835  0.57868  0.82031  Biso   1.000  Ne
  Ne37     1.0000 0.96028  0.52990  0.60837  Biso   1.000  Ne
  He37     1.0000 0.97065  0.52612  0.57861  Biso   1.000  He
  He38     1.0000 0.94828  0.51696  0.55709  Biso   1.000  He
  Ne38     1.0000 0.95643  0.51139  0.52764  Biso   1.000  Ne
  Ne39     1.0000 0.15866  0.85865  0.15575  Biso   1.000  Ne
  He39     1.0000 0.14214  0.88516  0.14745  Biso   1.000  He
  He40     1.0000 0.10881  0.88791  0.15687  Biso   1.000  He
  Ne40     1.0000 0.09906  0.91695  0.15100  Biso   1.000  Ne
  Ne41     1.0000 0.29278  0.44816  0.47056  Biso   1.000  Ne
  He41     1.0000 0.32691  0.45112  0.46977  Biso   1.000  He
  He42     1.0000 0.34338  0.42244  0.46352  Biso   1.000  He
  Ne42     1.0000 0.37436  0.43124  0.45952  Biso   1.000  Ne
  Ne43     1.0000 0.63049  0.23078  0.38132  Biso   1.000  Ne
  He43     1.0000 0.61253  0.20310  0.38995  Biso   1.000  He
  He44     1.0000 0.62872  0.18109  0.41025  Biso   1.000  He
  Ne44     1.0000 0.61155  0.15792  0.42493  Biso   1.000  Ne
  Ne45     1.0000 0.22197  0.40194  0.43493  Biso   1.000  Ne
  He45     1.0000 0.24767  0.38754  0.41936  Biso   1.000  He
  He46     1.0000 0.26097  0.40950  0.39988  Biso   1.000  He
  Ne46     1.0000 0.28168  0.39814  0.37785  Biso   1.000  Ne
  Ne47     1.0000 0.91390  0.71362  0.27322  Biso   1.000  Ne
  He47     1.0000 0.92217  0.73897  0.29206  Biso   1.000  He
  He48     1.0000 0.94303  0.75986  0.28049  Biso   1.000  He
  Ne48     1.0000 0.95574  0.78172  0.30128  Biso   1.000  Ne
  Ne49     1.0000 0.59385  0.79845  0.41769  Biso   1.000  Ne
  He49     1.0000 0.62360  0.78364  0.41349  Biso   1.000  He
  He50     1.0000 0.61974  0.75217  0.40406  Biso   1.000  He
  Ne50     1.0000 0.64995  0.73814  0.39553  Biso   1.000  Ne
  Ne51     1.0000 0.16876  0.38305  0.72036  Biso   1.000  Ne
  He51     1.0000 0.17467  0.37244  0.68942  Biso   1.000  He
  He52     1.0000 0.20048  0.38818  0.67598  Biso   1.000  He
  Ne52     1.0000 0.20693  0.37664  0.64640  Biso   1.000  Ne
  Ne53     1.0000 0.14170  0.25014  0.21178  Biso   1.000  Ne
  He53     1.0000 0.13229  0.22204  0.22005  Biso   1.000  He
  He54     1.0000 0.11998  0.20936  0.19169  Biso   1.000  He
  Ne54     1.0000 0.10552  0.17812  0.19299  Biso   1.000  Ne
  Ne55     1.0000 0.59047  0.42286  0.76938  Biso   1.000  Ne
  He55     1.0000 0.60943  0.40306  0.78612  Biso   1.000  He
  He56     1.0000 0.61120  0.40537  0.81763  Biso   1.000  He
  Ne56     1.0000 0.63816  0.39038  0.83256  Biso   1.000  Ne
  Ne57     1.0000 0.69410  0.58289  0.83816  Biso   1.000  Ne
  He57     1.0000 0.69858  0.58868  0.87063  Biso   1.000  He
  He58     1.0000 0.68445  0.57126  0.89395  Biso   1.000  He
  Ne58     1.0000 0.68912  0.58410  0.92335  Biso   1.000  Ne
  Ne59     1.0000 0.89791  0.36390  0.61776  Biso   1.000  Ne
  He59     1.0000 0.91939  0.38621  0.60440  Biso   1.000  He
  He60     1.0000 0.94636  0.37183  0.59267  Biso   1.000  He
  Ne60     1.0000 0.97119  0.39175  0.58249  Biso   1.000  Ne
  Ne61     1.0000 0.96557  0.67453  0.81285  Biso   1.000  Ne
  He61     1.0000 0.94478  0.68717  0.79195  Biso   1.000  He
  He62     1.0000 0.91572  0.67366  0.79218  Biso   1.000  He
  Ne62     1.0000 0.89518  0.68198  0.76873  Biso   1.000  Ne
  Ne63     1.0000 0.32482  0.07241  0.39299  Biso   1.000  Ne
  He63     1.0000 0.34785  0.08481  0.41135  Biso   1.000  He
  He64     1.0000 0.36434  0.06248  0.42660  Biso   1.000  He
  Ne64     1.0000 0.38867  0.07249  0.44493  Biso   1.000  Ne
  Ne65     1.0000 0.10259  0.26327  0.41464  Biso   1.000  Ne
  He65     1.0000 0.11256  0.29545  0.41401  Biso   1.000  He
  He66     1.0000 0.14442  0.29930  0.42440  Biso   1.000  He
  Ne66     1.0000 0.15635  0.33154  0.42992  Biso   1.000  Ne
  Ne67     1.0000 0.60598  0.37661  0.16058  Biso   1.000  Ne
  He67     1.0000 0.61828  0.37013  0.19056  Biso   1.000  He
  He68     1.0000 0.64269  0.39206  0.19987  Biso   1.000  He
  Ne68     1.0000 0.67395  0.38066  0.19591  Biso   1.000  Ne
  Ne69     1.0000 0.23982  0.30301  0.89699  Biso   1.000  Ne
  He69     1.0000 0.22418  0.33121  0.89597  Biso   1.000  He
  He70     1.0000 0.21332  0.34275  0.92372  Biso   1.000  He
  Ne70     1.0000 0.19630  0.37232  0.92317  Biso   1.000  Ne
  Ne71     1.0000 0.90683  0.83798  0.78420  Biso   1.000  Ne
  He71     1.0000 0.90314  0.85672  0.81136  Biso   1.000  He
  He72     1.0000 0.88894  0.88668  0.80714  Biso   1.000  He
  Ne72     1.0000 0.88419  0.90536  0.83340  Biso   1.000  Ne
  Ne73     1.0000 0.43216  0.64219  0.86767  Biso   1.000  Ne
  He73     1.0000 0.43743  0.61471  0.88885  Biso   1.000  He
  He74     1.0000 0.43846  0.58331  0.87478  Biso   1.000  He
  Ne74     1.0000 0.44694  0.55656  0.89590  Biso   1.000  Ne
  Ne75     1.0000 0.88801  0.12991  0.15879  Biso   1.000  Ne
  He75     1.0000 0.91112  0.10781  0.16220  Biso   1.000  He
  He76     1.0000 0.90309  0.07914  0.17435  Biso   1.000  He
  Ne76     1.0000 0.92760  0.05592  0.17008  Biso   1.000  Ne
  Ne77     1.0000 0.61034  0.51843  0.03647  Biso   1.000  Ne
  He77     1.0000 0.58035  0.52483  0.04602  Biso   1.000  He
  He78     1.0000 0.56923  0.50331  0.06828  Biso   1.000  He
  Ne78     1.0000 0.53697  0.50098  0.07422  Biso   1.000  Ne
  Ne79     1.0000 0.52144  0.01076  0.42331  Biso   1.000  Ne
  He79     1.0000 0.55172  0.02350  0.43123  Biso   1.000  He
  He80     1.0000 0.54661  0.05616  0.43999  Biso   1.000  He
  Ne80     1.0000 0.57611  0.06898  0.44393  Biso   1.000  Ne
  Ne81     1.0000 0.91495  0.24595  0.65743  Biso   1.000  Ne
  He81     1.0000 0.93001  0.25602  0.62817  Biso   1.000  He
  He82     1.0000 0.92940  0.28807  0.62118  Biso   1.000  He
  Ne82     1.0000 0.93589  0.29291  0.58922  Biso   1.000  Ne
  Ne83     1.0000 0.82637  0.16063  0.88855  Biso   1.000  Ne
  He83     1.0000 0.83429  0.13037  0.87619  Biso   1.000  He
  He84     1.0000 0.81015  0.10738  0.87714  Biso   1.000  He
  Ne84     1.0000 0.82092  0.07742  0.86847  Biso   1.000  Ne
  Ne85     1.0000 0.14585  0.39592  0.58442  Biso   1.000  Ne
  He85     1.0000 0.12134  0.40476  0.60462  Biso   1.000  He
  He86     1.0000 0.12288  0.39250  0.63414  Biso   1.000  He
  Ne86     1.0000 0.09938  0.40494  0.65580  Biso   1.000  Ne
  Ne87     1.0000 0.07036  0.01276  0.94557  Biso   1.000  Ne
  He87     1.0000 0.03849  0.01628  0.94604  Biso   1.000  He
  He88     1.0000 0.02501  0.00394  0.91791  Biso   1.000  He
  Ne88     1.0000 0.99098  0.00644  0.91843  Biso   1.000  Ne
  Ne89     1.0000 0.11714  0.70386  0.61182  Biso   1.000  Ne
  He89     1.0000 0.12051  0.67481  0.59880  Biso   1.000  He
  He90     1.0000 0.09292  0.65988  0.58738  Biso   1.000  He
  Ne90     1.0000 0.09576  0.62997  0.57269  Biso   1.000  Ne
  Ne91     1.0000 0.34599  0.88092  0.63168  Biso   1.000  Ne
  He91     1.0000 0.36702  0.88841  0.60367  Biso   1.000  He
  He92     1.0000 0.37899  0.86325  0.58380  Biso   1.000  He
  Ne92     1.0000 0.39739  0.87809  0.56008  Biso   1.000  Ne
  Ne93     1.0000 0.60584  0.76193  0.58351  Biso   1.000  Ne
  He93     1.0000 0.60071  0.79379  0.58901  Biso   1.000  He
  He94     1.0000 0.62305  0.81102  0.57654  Biso   1.000  He
  Ne94     1.0000 0.61786  0.84276  0.58289  Biso   1.000  Ne
  Ne95     1.0000 0.61689  0.06429  0.64414  Biso   1.000  Ne
  He95     1.0000 0.59861  0.09086  0.65193  Biso   1.000  He
  He96     1.0000 0.61621  0.11521  0.66800  Biso   1.000  He
  Ne96     1.0000 0.60004  0.14421  0.67682  Biso   1.000  Ne
  Ne97     1.0000 0.07514  0.08423  0.88915  Biso   1.000  Ne
  He97     1.0000 0.10051  0.07260  0.87107  Biso   1.000  He
  He98     1.0000 0.10936  0.09342  0.84653  Biso   1.000  He
  Ne98     1.0000 0.13547  0.08300  0.82807  Biso   1.000  Ne
  Ne99     1.0000 0.89545  0.17286  0.08746  Biso   1.000  Ne
  He99     1.0000 0.90953  0.19038  0.10879  Biso   1.000  He
  He100    1.0000 0.94155  0.20215  0.10347  Biso   1.000  He
  Ne100    1.0000 0.95151  0.21716  0.12977  Biso   1.000  Ne
  Ne101    1.0000 0.27649  0.81967  0.39616  Biso   1.000  Ne
  He101    1.0000 0.28958  0.78979  0.40250  Biso   1.000  He
  He102    1.0000 0.27817  0.76826  0.38218  Biso   1.000  He
  Ne102    1.0000 0.29579  0.74063  0.37958  Biso   1.000  Ne
  Ne103    1.0000 0.52072  0.83544  0.82874  Biso   1.000  Ne
  He103    1.0000 0.49759  0.85178  0.81137  Biso   1.000  He
  He104    1.0000 0.46797  0.85064  0.82697  Biso   1.000  He
  Ne104    1.0000 0.44701  0.87122  0.81376  Biso   1.000  Ne
  Ne105    1.0000 0.85946  0.81458  0.07129  Biso   1.000  Ne
  He105    1.0000 0.84335  0.84595  0.06297  Biso   1.000  He
  He106    1.0000 0.84627  0.87303  0.08467  Biso   1.000  He
  Ne106    1.0000 0.83479  0.90278  0.07487  Biso   1.000  Ne
  Ne107    1.0000 0.81735  0.29080  0.94372  Biso   1.000  Ne
  He107    1.0000 0.80450  0.26045  0.93293  Biso   1.000  He
  He108    1.0000 0.77685  0.26682  0.91638  Biso   1.000  He
  Ne108    1.0000 0.75843  0.24100  0.90549  Biso   1.000  Ne
  Ne109    1.0000 0.29391  0.13764  0.63055  Biso   1.000  Ne
  He109    1.0000 0.30797  0.14654  0.59932  Biso   1.000  He
  He110    1.0000 0.33998  0.14060  0.59495  Biso   1.000  He
  Ne110    1.0000 0.35823  0.15924  0.57137  Biso   1.000  Ne
  Ne111    1.0000 0.45124  0.03936  0.39566  Biso   1.000  Ne
  He111    1.0000 0.44647  0.06440  0.37656  Biso   1.000  He
  He112    1.0000 0.46184  0.09202  0.38709  Biso   1.000  He
  Ne112    1.0000 0.44975  0.11887  0.37023  Biso   1.000  Ne
  Ne113    1.0000 0.90853  0.91356  0.91440  Biso   1.000  Ne
  He113    1.0000 0.92479  0.88684  0.92432  Biso   1.000  He
  He114    1.0000 0.92032  0.86333  0.90450  Biso   1.000  He
  Ne114    1.0000 0.93230  0.83504  0.91702  Biso   1.000  Ne
  Ne115    1.0000 0.35390  0.04868  0.60113  Biso   1.000  Ne
  He115    1.0000 0.37741  0.07043  0.60540  Biso   1.000  He
  He116    1.0000 0.40639  0.06252  0.59157  Biso   1.000  He
  Ne116    1.0000 0.43031  0.08439  0.59756  Biso   1.000  Ne
  Ne117    1.0000 0.41016  0.08207  0.31409  Biso   1.000  Ne
  He117    1.0000 0.38494  0.10255  0.31048  Biso   1.000  He
  He118    1.0000 0.35527  0.08982  0.31998  Biso   1.000  He
  Ne118    1.0000 0.32998  0.10575  0.31018  Biso   1.000  Ne
  Ne119    1.0000 0.10924  0.32546  0.58803  Biso   1.000  Ne
  He119    1.0000 0.11045  0.29557  0.60306  Biso   1.000  He
  He120    1.0000 0.12092  0.27025  0.58483  Biso   1.000  He
  Ne120    1.0000 0.12211  0.24308  0.60046  Biso   1.000  Ne
  Ne121    1.0000 0.06352  0.39114  0.55082  Biso   1.000  Ne
  He121    1.0000 0.04657  0.40908  0.53152  Biso   1.000  He
  He122    1.0000 0.01968  0.39292  0.51937  Biso   1.000  He
  Ne122    1.0000 0.00139  0.41228  0.49824  Biso   1.000  Ne
  Ne123    1.0000 0.83047  0.54481  0.11617  Biso   1.000  Ne
  He123    1.0000 0.80117  0.55517  0.10551  Biso   1.000  He
  He124    1.0000 0.78826  0.53826  0.07848  Biso   1.000  He
  Ne124    1.0000 0.75853  0.54858  0.06292  Biso   1.000  Ne
  Ne125    1.0000 0.61006  0.68045  0.85427  Biso   1.000  Ne
  He125    1.0000 0.60231  0.66813  0.88405  Biso   1.000  He
  He126    1.0000 0.62219  0.67848  0.90743  Biso   1.000  He
  Ne126    1.0000 0.62521  0.65589  0.93172  Biso   1.000  Ne
  Ne127    1.0000 0.08485  0.16467  0.90691  Biso   1.000  Ne
  He127    1.0000 0.09253  0.17235  0.87641  Biso   1.000  He
  He128    1.0000 0.12328  0.16611  0.86851  Biso   1.000  He
  Ne128    1.0000 0.13029  0.17265  0.83561  Biso   1.000  Ne
  Ne129    1.0000 0.19431  0.16142  0.20313  Biso   1.000  Ne
  He129    1.0000 0.20927  0.13483  0.21509  Biso   1.000  He
  He130    1.0000 0.19462  0.12801  0.24161  Biso   1.000  He
  Ne130    1.0000 0.20489  0.10095  0.25793  Biso   1.000  Ne
  Ne131    1.0000 0.49069  0.06511  0.54855  Biso   1.000  Ne
  He131    1.0000 0.47500  0.04515  0.52831  Biso   1.000  He
  He132    1.0000 0.47514  0.05564  0.49725  Biso   1.000  He
  Ne132    1.0000 0.46139  0.03417  0.47389  Biso   1.000  Ne
  Ne133    1.0000 0.13881  0.19549  0.28743  Biso   1.000  Ne
  He133    1.0000 0.13835  0.22174  0.30479  Biso   1.000  He
  He134    1.0000 0.10907  0.23933  0.30275  Biso   1.000  He
  Ne134    1.0000 0.10792  0.26642  0.32006  Biso   1.000  Ne
  Ne135    1.0000 0.81019  0.07877  0.17292  Biso   1.000  Ne
  He135    1.0000 0.80524  0.07325  0.14181  Biso   1.000  He
  He136    1.0000 0.83000  0.06012  0.12418  Biso   1.000  He
  Ne136    1.0000 0.82529  0.05945  0.09340  Biso   1.000  Ne
  Ne137    1.0000 0.33483  0.29732  0.82742  Biso   1.000  Ne
  He137    1.0000 0.34565  0.28397  0.85567  Biso   1.000  He
  He138    1.0000 0.33906  0.30034  0.88093  Biso   1.000  He
  Ne138    1.0000 0.34870  0.28633  0.90920  Biso   1.000  Ne
  Ne139    1.0000 0.23747  0.86759  0.81228  Biso   1.000  Ne
  He139    1.0000 0.23152  0.86802  0.84356  Biso   1.000  He
  He140    1.0000 0.20814  0.89099  0.84822  Biso   1.000  He
  Ne140    1.0000 0.19943  0.89542  0.87904  Biso   1.000  Ne
  Ne141    1.0000 0.58677  0.55921  0.87085  Biso   1.000  Ne
  He141    1.0000 0.60976  0.56841  0.85018  Biso   1.000  He
  He142    1.0000 0.60189  0.59650  0.83588  Biso   1.000  He
  Ne142    1.0000 0.58987  0.59189  0.80463  Biso   1.000  Ne
  Ne143    1.0000 0.59558  0.54510  0.12595  Biso   1.000  Ne
  He143    1.0000 0.61350  0.56670  0.14610  Biso   1.000  He
  He144    1.0000 0.59606  0.58259  0.16734  Biso   1.000  He
  Ne144    1.0000 0.61443  0.60219  0.18730  Biso   1.000  Ne
  Ne145    1.0000 0.10080  0.51173  0.54438  Biso   1.000  Ne
  He145    1.0000 0.07693  0.53578  0.53891  Biso   1.000  He
  He146    1.0000 0.05733  0.54552  0.56536  Biso   1.000  He
  Ne146    1.0000 0.03514  0.56786  0.55720  Biso   1.000  Ne
  Ne147    1.0000 0.46154  0.71067  0.93343  Biso   1.000  Ne
  He147    1.0000 0.44259  0.71999  0.90837  Biso   1.000  He
  He148    1.0000 0.42150  0.74090  0.92101  Biso   1.000  He
  Ne148    1.0000 0.39576  0.75058  0.89971  Biso   1.000  Ne
  Ne149    1.0000 0.10870  0.32077  0.69166  Biso   1.000  Ne
  He149    1.0000 0.11187  0.28836  0.68747  Biso   1.000  He
  He150    1.0000 0.10806  0.26891  0.71180  Biso   1.000  He
  Ne150    1.0000 0.11779  0.24054  0.70538  Biso   1.000  Ne
  Ne151    1.0000 0.43231  0.24977  0.57074  Biso   1.000  Ne
  He151    1.0000 0.41920  0.26940  0.54959  Biso   1.000  He
  He152    1.0000 0.38559  0.26380  0.55015  Biso   1.000  He
  Ne152    1.0000 0.36981  0.28442  0.53630  Biso   1.000  Ne
  Ne153    1.0000 0.79011  0.57727  0.39033  Biso   1.000  Ne
  He153    1.0000 0.80085  0.60952  0.39241  Biso   1.000  He
  He154    1.0000 0.80871  0.62385  0.36216  Biso   1.000  He
  Ne154    1.0000 0.82102  0.65561  0.36202  Biso   1.000  Ne
  Ne155    1.0000 0.24228  0.93725  0.29557  Biso   1.000  Ne
  He155    1.0000 0.26366  0.92834  0.26869  Biso   1.000  He
  He156    1.0000 0.29170  0.91232  0.27456  Biso   1.000  He
  Ne156    1.0000 0.31323  0.90731  0.25045  Biso   1.000  Ne
  Ne157    1.0000 0.60281  0.25904  0.89412  Biso   1.000  Ne
  He157    1.0000 0.60371  0.29296  0.89225  Biso   1.000  He
  He158    1.0000 0.61242  0.30688  0.91960  Biso   1.000  He
  Ne158    1.0000 0.61205  0.34088  0.92056  Biso   1.000  Ne
  Ne159    1.0000 0.95150  0.39695  0.42214  Biso   1.000  Ne
  He159    1.0000 0.95485  0.42983  0.43075  Biso   1.000  He
  He160    1.0000 0.93180  0.43995  0.45429  Biso   1.000  He
  Ne160    1.0000 0.94211  0.46918  0.46461  Biso   1.000  Ne
  Ne161    1.0000 0.69271  0.31168  0.08492  Biso   1.000  Ne
  He161    1.0000 0.69069  0.33898  0.10544  Biso   1.000  He
  He162    1.0000 0.69673  0.36814  0.09053  Biso   1.000  He
  Ne162    1.0000 0.69608  0.39628  0.10721  Biso   1.000  Ne
  Ne163    1.0000 0.04229  0.57324  0.78992  Biso   1.000  Ne
  He163    1.0000 0.06181  0.54971  0.80548  Biso   1.000  He
  He164    1.0000 0.07142  0.55517  0.83576  Biso   1.000  He
  Ne164    1.0000 0.08914  0.52873  0.84752  Biso   1.000  Ne
  Ne165    1.0000 0.69926  0.15141  0.57957  Biso   1.000  Ne
  He165    1.0000 0.70478  0.11879  0.57684  Biso   1.000  He
  He166    1.0000 0.68124  0.09879  0.59007  Biso   1.000  He
  Ne166    1.0000 0.68396  0.06893  0.58145  Biso   1.000  Ne
  Ne167    1.0000 0.10789  0.91636  0.82625  Biso   1.000  Ne
  He167    1.0000 0.11630  0.88365  0.81773  Biso   1.000  He
  He168    1.0000 0.09208  0.86761  0.80136  Biso   1.000  He
  Ne168    1.0000 0.09493  0.86521  0.76773  Biso   1.000  Ne
  Ne169    1.0000 0.69927  0.57956  0.15210  Biso   1.000  Ne
  He169    1.0000 0.69413  0.55969  0.12226  Biso   1.000  He
  He170    1.0000 0.68403  0.58006  0.09624  Biso   1.000  He
  Ne170    1.0000 0.67745  0.55906  0.06949  Biso   1.000  Ne
  Ne171    1.0000 0.49636  0.40762  0.98406  Biso   1.000  Ne
  He171    1.0000 0.49296  0.43014  0.96190  Biso   1.000  He
  He172    1.0000 0.50048  0.41827  0.93252  Biso   1.000  He
  Ne172    1.0000 0.49911  0.44140  0.90936  Biso   1.000  Ne
  Ne173    1.0000 0.07617  0.89225  0.89079  Biso   1.000  Ne
  He173    1.0000 0.09742  0.86734  0.89693  Biso   1.000  He
  He174    1.0000 0.08555  0.85015  0.92461  Biso   1.000  He
  Ne174    1.0000 0.10903  0.83183  0.93406  Biso   1.000  Ne
  Ne175    1.0000 0.93399  0.71715  0.90564  Biso   1.000  Ne
  He175    1.0000 0.90673  0.70968  0.92477  Biso   1.000  He
  He176    1.0000 0.90842  0.68315  0.94463  Biso   1.000  He
  Ne176    1.0000 0.88211  0.68294  0.96512  Biso   1.000  Ne
  Ne177    1.0000 0.71064  0.05905  0.36148  Biso   1.000  Ne
  He177    1.0000 0.70175  0.07673  0.38713  Biso   1.000  He
  He178    1.0000 0.67132  0.06914  0.39801  Biso   1.000  He
  Ne178    1.0000 0.66031  0.08579  0.42514  Biso   1.000  Ne
  Ne179    1.0000 0.09295  0.10746  0.24498  Biso   1.000  Ne
  He179    1.0000 0.09185  0.08741  0.21877  Biso   1.000  He
  He180    1.0000 0.11486  0.09381  0.19687  Biso   1.000  He
  Ne180    1.0000 0.11054  0.08017  0.16601  Biso   1.000  Ne
  Ne181    1.0000 0.09369  0.94481  0.25911  Biso   1.000  Ne
  He181    1.0000 0.10658  0.91516  0.24894  Biso   1.000  He
  He182    1.0000 0.13630  0.91044  0.24974  Biso   1.000  He
  Ne182    1.0000 0.14637  0.87913  0.24630  Biso   1.000  Ne
  Ne183    1.0000 0.32983  0.80369  0.56837  Biso   1.000  Ne
  He183    1.0000 0.35375  0.78329  0.58122  Biso   1.000  He
  He184    1.0000 0.35567  0.75218  0.57036  Biso   1.000  He
  Ne184    1.0000 0.38310  0.73668  0.58061  Biso   1.000  Ne
  Ne185    1.0000 0.42046  0.85691  0.41527  Biso   1.000  Ne
  He185    1.0000 0.40964  0.82902  0.39938  Biso   1.000  He
  He186    1.0000 0.43339  0.80939  0.38632  Biso   1.000  He
  Ne186    1.0000 0.41936  0.78712  0.36711  Biso   1.000  Ne
  Ne187    1.0000 0.61525  0.02201  0.55490  Biso   1.000  Ne
  He187    1.0000 0.60537  0.00529  0.52912  Biso   1.000  He
  He188    1.0000 0.59136  0.97408  0.53615  Biso   1.000  He
  Ne188    1.0000 0.58087  0.95779  0.50878  Biso   1.000  Ne
  Ne189    1.0000 0.18177  0.22275  0.40259  Biso   1.000  Ne
  He189    1.0000 0.21344  0.21669  0.40243  Biso   1.000  He
  He190    1.0000 0.23656  0.24427  0.39918  Biso   1.000  He
  Ne190    1.0000 0.26794  0.23227  0.39778  Biso   1.000  Ne
  Ne191    1.0000 0.33208  0.64776  0.51932  Biso   1.000  Ne
  He191    1.0000 0.35391  0.67278  0.50870  Biso   1.000  He
  He192    1.0000 0.38463  0.66564  0.51707  Biso   1.000  He
  Ne192    1.0000 0.40882  0.68424  0.50411  Biso   1.000  Ne
  Ne193    1.0000 0.92569  0.32119  0.35528  Biso   1.000  Ne
  He193    1.0000 0.91193  0.33981  0.37651  Biso   1.000  He
  He194    1.0000 0.90239  0.32282  0.40387  Biso   1.000  He
  Ne194    1.0000 0.89481  0.34317  0.42825  Biso   1.000  Ne
  Ne195    1.0000 0.41962  0.91480  0.34223  Biso   1.000  Ne
  He195    1.0000 0.41358  0.90725  0.31145  Biso   1.000  He
  He196    1.0000 0.41746  0.87631  0.30031  Biso   1.000  He
  Ne196    1.0000 0.42857  0.87341  0.26755  Biso   1.000  Ne
  Ne197    1.0000 0.60148  0.91390  0.60248  Biso   1.000  Ne
  He197    1.0000 0.59202  0.89868  0.63020  Biso   1.000  He
  He198    1.0000 0.60603  0.91400  0.65684  Biso   1.000  He
  Ne198    1.0000 0.59632  0.90052  0.68433  Biso   1.000  Ne
  Ne199    1.0000 0.88820  0.58310  0.33653  Biso   1.000  Ne
  He199    1.0000 0.88462  0.57944  0.30224  Biso   1.000  He
  He200    1.0000 0.85821  0.56134  0.29785  Biso   1.000  He
  Ne200    1.0000 0.84849  0.56029  0.26893  Biso   1.000  Ne
  Ne201    1.0000 0.66892  0.84291  0.36118  Biso   1.000  Ne
  He201    1.0000 0.67038  0.86506  0.38721  Biso   1.000  He
  He202    1.0000 0.69053  0.89313  0.38623  Biso   1.000  He
  Ne202    1.0000 0.71879  0.89197  0.40197  Biso   1.000  Ne
  Ne203    1.0000 0.55152  0.40848  0.07345  Biso   1.000  Ne
  He203    1.0000 0.58204  0.41177  0.08048  Biso   1.000  He
  He204    1.0000 0.59830  0.39362  0.06129  Biso   1.000  He
  Ne204    1.0000 0.62947  0.39276  0.06854  Biso   1.000  Ne
  Ne205    1.0000 0.49108  0.19058  0.00278  Biso   1.000  Ne
  He205    1.0000 0.46208  0.19094  0.01617  Biso   1.000  He
  He206    1.0000 0.45498  0.21665  0.03824  Biso   1.000  He
  Ne206    1.0000 0.42363  0.21654  0.04953  Biso   1.000  Ne
  Ne207    1.0000 0.38888  0.72359  0.41123  Biso   1.000  Ne
  He207    1.0000 0.40805  0.69773  0.42122  Biso   1.000  He
  He208    1.0000 0.41157  0.67397  0.40111  Biso   1.000  He
  Ne208    1.0000 0.42591  0.64579  0.41359  Biso   1.000  Ne
  Ne209    1.0000 0.23010  0.05822  0.88333  Biso   1.000  Ne
  He209    1.0000 0.20717  0.06209  0.90593  Biso   1.000  He
  He210    1.0000 0.19291  0.09258  0.90223  Biso   1.000  He
  Ne210    1.0000 0.16505  0.09692  0.92209  Biso   1.000  Ne
  Ne211    1.0000 0.42641  0.39579  0.77399  Biso   1.000  Ne
  He211    1.0000 0.44796  0.39618  0.80020  Biso   1.000  He
  He212    1.0000 0.43201  0.38679  0.82825  Biso   1.000  He
  Ne212    1.0000 0.45093  0.38366  0.85652  Biso   1.000  Ne
  Ne213    1.0000 0.01812  0.90939  0.94681  Biso   1.000  Ne
  He213    1.0000 0.01031  0.92579  0.97496  Biso   1.000  He
  He214    1.0000 0.97810  0.93486  0.97834  Biso   1.000  He
  Ne214    1.0000 0.97027  0.95735  0.00353  Biso   1.000  Ne
  Ne215    1.0000 0.85809  0.76344  0.85933  Biso   1.000  Ne
  He215    1.0000 0.88171  0.76363  0.83406  Biso   1.000  He
  He216    1.0000 0.91075  0.74464  0.83524  Biso   1.000  He
  Ne216    1.0000 0.93588  0.76193  0.84465  Biso   1.000  Ne
  Ne217    1.0000 0.41319  0.40352  0.94525  Biso   1.000  Ne
  He217    1.0000 0.38598  0.40393  0.92677  Biso   1.000  He
  He218    1.0000 0.37597  0.37430  0.91549  Biso   1.000  He
  Ne218    1.0000 0.34629  0.37507  0.90071  Biso   1.000  Ne
  Ne219    1.0000 0.79846  0.80693  0.31880  Biso   1.000  Ne
  He219    1.0000 0.77998  0.81146  0.34596  Biso   1.000  He
  He220    1.0000 0.75986  0.78811  0.36178  Biso   1.000  He
  Ne220    1.0000 0.73976  0.80061  0.38805  Biso   1.000  Ne
  Ne221    1.0000 0.41536  0.23279  0.70908  Biso   1.000  Ne
  He221    1.0000 0.44803  0.24496  0.70295  Biso   1.000  He
  He222    1.0000 0.45241  0.25782  0.67306  Biso   1.000  He
  Ne222    1.0000 0.48081  0.26810  0.66554  Biso   1.000  Ne
  Ne223    1.0000 0.94567  0.89196  0.13853  Biso   1.000  Ne
  He223    1.0000 0.94430  0.89118  0.10630  Biso   1.000  He
  He224    1.0000 0.95129  0.85967  0.09079  Biso   1.000  He
  Ne224    1.0000 0.94563  0.86026  0.05948  Biso   1.000  Ne
  Ne225    1.0000 0.92582  0.08640  0.93693  Biso   1.000  Ne
  He225    1.0000 0.94124  0.11357  0.93606  Biso   1.000  He
  He226    1.0000 0.92531  0.13484  0.91325  Biso   1.000  He
  Ne226    1.0000 0.93662  0.16500  0.90868  Biso   1.000  Ne
  Ne227    1.0000 0.86870  0.75617  0.74360  Biso   1.000  Ne
  He227    1.0000 0.84242  0.77568  0.74413  Biso   1.000  He
  He228    1.0000 0.82546  0.77137  0.71574  Biso   1.000  He
  Ne228    1.0000 0.79352  0.78282  0.71929  Biso   1.000  Ne
  Ne229    1.0000 0.80600  0.57048  0.57967  Biso   1.000  Ne
  He229    1.0000 0.83914  0.56758  0.58687  Biso   1.000  He
  He230    1.0000 0.85949  0.59262  0.58235  Biso   1.000  He
  Ne230    1.0000 0.89205  0.58607  0.59189  Biso   1.000  Ne
  Ne231    1.0000 0.43900  0.69076  0.16346  Biso   1.000  Ne
  He231    1.0000 0.42595  0.68761  0.13272  Biso   1.000  He
  He232    1.0000 0.42676  0.65763  0.11618  Biso   1.000  He
  Ne232    1.0000 0.41714  0.65956  0.08336  Biso   1.000  Ne
  Ne233    1.0000 0.02779  0.95244  0.05829  Biso   1.000  Ne
  He233    1.0000 0.04736  0.93614  0.03361  Biso   1.000  He
  He234    1.0000 0.08098  0.93263  0.04111  Biso   1.000  He
  Ne234    1.0000 0.10049  0.95675  0.02944  Biso   1.000  Ne
  Ne235    1.0000 0.36798  0.54056  0.68770  Biso   1.000  Ne
  He235    1.0000 0.37776  0.55546  0.71805  Biso   1.000  He
  He236    1.0000 0.41174  0.56024  0.72302  Biso   1.000  He
  Ne236    1.0000 0.42129  0.57591  0.75119  Biso   1.000  Ne
  Ne237    1.0000 0.59937  0.03038  0.25351  Biso   1.000  Ne
  He237    1.0000 0.61535  0.04453  0.27758  Biso   1.000  He
  He238    1.0000 0.59587  0.06772  0.29680  Biso   1.000  He
  Ne238    1.0000 0.61345  0.08060  0.32184  Biso   1.000  Ne
  Ne239    1.0000 0.69870  0.88868  0.25716  Biso   1.000  Ne
  He239    1.0000 0.71956  0.87576  0.23561  Biso   1.000  He
  He240    1.0000 0.72565  0.84345  0.23955  Biso   1.000  He
  Ne240    1.0000 0.74923  0.83162  0.21893  Biso   1.000  Ne
  Ne241    1.0000 0.22927  0.93224  0.58425  Biso   1.000  Ne
  He241    1.0000 0.24349  0.90220  0.58628  Biso   1.000  He
  He242    1.0000 0.26356  0.89022  0.56120  Biso   1.000  He
  Ne242    1.0000 0.28020  0.86368  0.57079  Biso   1.000  Ne
  Ne243    1.0000 0.45801  0.58176  0.27593  Biso   1.000  Ne
  He243    1.0000 0.44923  0.61101  0.29091  Biso   1.000  He
  He244    1.0000 0.47233  0.62286  0.31039  Biso   1.000  He
  Ne244    1.0000 0.46253  0.64873  0.32863  Biso   1.000  Ne
  Ne245    1.0000 0.45046  0.53767  0.11984  Biso   1.000  Ne
  He245    1.0000 0.44922  0.56592  0.09927  Biso   1.000  He
  He246    1.0000 0.45587  0.55807  0.06550  Biso   1.000  He
  Ne246    1.0000 0.46851  0.58188  0.04589  Biso   1.000  Ne
  Ne247    1.0000 0.35707  0.83054  0.74221  Biso   1.000  Ne
  He247    1.0000 0.38684  0.82413  0.76082  Biso   1.000  He
  He248    1.0000 0.41215  0.82220  0.73963  Biso   1.000  He
  Ne248    1.0000 0.44024  0.81137  0.75265  Biso   1.000  Ne
  Ne249    1.0000 0.10323  0.77576  0.86518  Biso   1.000  Ne
  He249    1.0000 0.12460  0.78520  0.84269  Biso   1.000  He
  He250    1.0000 0.15047  0.80010  0.85592  Biso   1.000  He
  Ne250    1.0000 0.17009  0.81357  0.83632  Biso   1.000  Ne
  Ne251    1.0000 0.41905  0.30652  0.76615  Biso   1.000  Ne
  He251    1.0000 0.44140  0.29969  0.78838  Biso   1.000  He
  He252    1.0000 0.43040  0.30013  0.82028  Biso   1.000  He
  Ne252    1.0000 0.43151  0.27131  0.83766  Biso   1.000  Ne
  Ne253    1.0000 0.94761  0.06383  0.78284  Biso   1.000  Ne
  He253    1.0000 0.92160  0.07407  0.80479  Biso   1.000  He
  He254    1.0000 0.92564  0.05964  0.83472  Biso   1.000  He
  Ne254    1.0000 0.89821  0.06191  0.85374  Biso   1.000  Ne
  Ne255    1.0000 0.85134  0.56263  0.43298  Biso   1.000  Ne
  He255    1.0000 0.87367  0.54699  0.41827  Biso   1.000  He
  He256    1.0000 0.90481  0.56115  0.41400  Biso   1.000  He
  Ne256    1.0000 0.92620  0.53975  0.39963  Biso   1.000  Ne
  Ne257    1.0000 0.35347  0.65009  0.91145  Biso   1.000  Ne
  He257    1.0000 0.34705  0.61719  0.89930  Biso   1.000  He
  He258    1.0000 0.36320  0.59332  0.91251  Biso   1.000  He
  Ne258    1.0000 0.35884  0.56106  0.90136  Biso   1.000  Ne
  Ne259    1.0000 0.12125  0.55748  0.34373  Biso   1.000  Ne
  He259    1.0000 0.11497  0.54859  0.37478  Biso   1.000  He
  He260    1.0000 0.12207  0.56690  0.40016  Biso   1.000  He
  Ne260    1.0000 0.11363  0.55094  0.42829  Biso   1.000  Ne
  Ne261    1.0000 0.10491  0.13861  0.10834  Biso   1.000  Ne
  He261    1.0000 0.10708  0.15669  0.07963  Biso   1.000  He
  He262    1.0000 0.12252  0.18352  0.07975  Biso   1.000  He
  Ne262    1.0000 0.14993  0.18467  0.06231  Biso   1.000  Ne
  Ne263    1.0000 0.24942  0.54815  0.65918  Biso   1.000  Ne
  He263    1.0000 0.22789  0.54856  0.68342  Biso   1.000  He
  He264    1.0000 0.20580  0.57268  0.68083  Biso   1.000  He
  Ne264    1.0000 0.18179  0.57154  0.70458  Biso   1.000  Ne
  Ne265    1.0000 0.60493  0.50764  0.95036  Biso   1.000  Ne
  He265    1.0000 0.58549  0.53472  0.95242  Biso   1.000  He
  He266    1.0000 0.60163  0.56148  0.94443  Biso   1.000  He
  Ne266    1.0000 0.58332  0.58898  0.94812  Biso   1.000  Ne
  Ne267    1.0000 0.45046  0.61814  0.20632  Biso   1.000  Ne
  He267    1.0000 0.41948  0.62352  0.19029  Biso   1.000  He
  He268    1.0000 0.39863  0.59690  0.19315  Biso   1.000  He
  Ne268    1.0000 0.36734  0.60302  0.18271  Biso   1.000  Ne
  Ne269    1.0000 0.54292  0.68281  0.35898  Biso   1.000  Ne
  He269    1.0000 0.57069  0.70076  0.35097  Biso   1.000  He
  He270    1.0000 0.56496  0.73037  0.33447  Biso   1.000  He
  Ne270    1.0000 0.59316  0.74779  0.32928  Biso   1.000  Ne
  Ne271    1.0000 0.97884  0.28224  0.05042  Biso   1.000  Ne
  He271    1.0000 0.00686  0.29608  0.06166  Biso   1.000  He
  He272    1.0000 0.02980  0.27515  0.07043  Biso   1.000  He
  Ne272    1.0000 0.03164  0.27385  0.10425  Biso   1.000  Ne
  Ne273    1.0000 0.29514  0.59203  0.13900  Biso   1.000  Ne
  He273    1.0000 0.31608  0.58609  0.11447  Biso   1.000  He
  He274    1.0000 0.33057  0.55904  0.11187  Biso   1.000  He
  Ne274    1.0000 0.35401  0.55841  0.08702  Biso   1.000  Ne
  Ne275    1.0000 0.96729  0.01939  0.07544  Biso   1.000  Ne
  He275    1.0000 0.94790  0.04569  0.08537  Biso   1.000  He
  He276    1.0000 0.96234  0.07537  0.07880  Biso   1.000  He
  Ne276    1.0000 0.94268  0.10218  0.08528  Biso   1.000  Ne
  Ne277    1.0000 0.93722  0.57542  0.68594  Biso   1.000  Ne
  He277    1.0000 0.93371  0.60244  0.66751  Biso   1.000  He
  He278    1.0000 0.92612  0.63090  0.68647  Biso   1.000  He
  Ne278    1.0000 0.92564  0.65797  0.66840  Biso   1.000  Ne
  Ne279    1.0000 0.43463  0.95715  0.42263  Biso   1.000  Ne
  He279    1.0000 0.43761  0.95023  0.45329  Biso   1.000  He
  He280    1.0000 0.45884  0.92392  0.46214  Biso   1.000  He
  Ne280    1.0000 0.45614  0.91563  0.49387  Biso   1.000  Ne
  Ne281    1.0000 0.03740  0.51211  0.41882  Biso   1.000  Ne
  He281    1.0000 0.02297  0.53881  0.43477  Biso   1.000  He
  He282    1.0000 0.99785  0.52922  0.45646  Biso   1.000  He
  Ne282    1.0000 0.98960  0.55529  0.47401  Biso   1.000  Ne
  Ne283    1.0000 0.93786  0.33889  0.25857  Biso   1.000  Ne
  He283    1.0000 0.92739  0.36085  0.28102  Biso   1.000  He
  He284    1.0000 0.93037  0.39494  0.27664  Biso   1.000  He
  Ne284    1.0000 0.91221  0.41114  0.29779  Biso   1.000  Ne
  Ne285    1.0000 0.28893  0.36879  0.74866  Biso   1.000  Ne
  He285    1.0000 0.29827  0.38961  0.77440  Biso   1.000  He
  He286    1.0000 0.33227  0.38943  0.77370  Biso   1.000  He
  Ne286    1.0000 0.34409  0.40957  0.79586  Biso   1.000  Ne
  Ne287    1.0000 0.11426  0.83408  0.08321  Biso   1.000  Ne
  He287    1.0000 0.13063  0.80692  0.08657  Biso   1.000  He
  He288    1.0000 0.12579  0.78993  0.11709  Biso   1.000  He
  Ne288    1.0000 0.14109  0.75950  0.12021  Biso   1.000  Ne
  Ne289    1.0000 0.43699  0.37615  0.06007  Biso   1.000  Ne
  He289    1.0000 0.43757  0.40786  0.06271  Biso   1.000  He
  He290    1.0000 0.43654  0.41738  0.09479  Biso   1.000  He
  Ne290    1.0000 0.46643  0.42794  0.10768  Biso   1.000  Ne
  Ne291    1.0000 0.61721  0.26426  0.14150  Biso   1.000  Ne
  He291    1.0000 0.60179  0.29199  0.13782  Biso   1.000  He
  He292    1.0000 0.61001  0.30734  0.10982  Biso   1.000  He
  Ne292    1.0000 0.58989  0.30185  0.08328  Biso   1.000  Ne
  Ne293    1.0000 0.45727  0.17279  0.82070  Biso   1.000  Ne
  He293    1.0000 0.43994  0.18133  0.79558  Biso   1.000  He
  He294    1.0000 0.41569  0.20076  0.80161  Biso   1.000  He
  Ne294    1.0000 0.39246  0.20426  0.77578  Biso   1.000  Ne
  Ne295    1.0000 0.32275  0.91132  0.83545  Biso   1.000  Ne
  He295    1.0000 0.33122  0.89884  0.80661  Biso   1.000  He
  He296    1.0000 0.31582  0.91328  0.77894  Biso   1.000  He
  Ne296    1.0000 0.32838  0.90552  0.75065  Biso   1.000  Ne
  Ne297    1.0000 0.34537  0.44329  0.61596  Biso   1.000  Ne
  He297    1.0000 0.35024  0.44814  0.64899  Biso   1.000  He
  He298    1.0000 0.38185  0.44922  0.65820  Biso   1.000  He
  Ne298    1.0000 0.38195  0.44915  0.69149  Biso   1.000  Ne
  Ne299    1.0000 0.17457  0.55509  0.58201  Biso   1.000  Ne
  He299    1.0000 0.18040  0.58281  0.60142  Biso   1.000  He
  He300    1.0000 0.19122  0.61101  0.58950  Biso   1.000  He
  Ne300    1.0000 0.19380  0.63521  0.61416  Biso   1.000  Ne
  Ne301    1.0000 0.82105  0.85963  0.16939  Biso   1.000  Ne
  He301    1.0000 0.80403  0.88727  0.15884  Biso   1.000  He
  He302    1.0000 0.77281  0.88023  0.14816  Biso   1.000  He
  Ne302    1.0000 0.75620  0.90318  0.13163  Biso   1.000  Ne
  Ne303    1.0000 0.66100  0.80466  0.65049  Biso   1.000  Ne
  He303    1.0000 0.65298  0.79161  0.67676  Biso   1.000  He
  He304    1.0000 0.62643  0.80431  0.68995  Biso   1.000  He
  Ne304    1.0000 0.61775  0.78980  0.71655  Biso   1.000  Ne
  Ne305    1.0000 0.76977  0.38290  0.90173  Biso   1.000  Ne
  He305    1.0000 0.73819  0.37378  0.90035  Biso   1.000  He
  He306    1.0000 0.73542  0.33979  0.90233  Biso   1.000  He
  Ne306    1.0000 0.70480  0.32847  0.90843  Biso   1.000  Ne
  Ne307    1.0000 0.40289  0.76206  0.65511  Biso   1.000  Ne
  He307    1.0000 0.40384  0.79586  0.65307  Biso   1.000  He
  He308    1.0000 0.43561  0.80922  0.64911  Biso   1.000  He
  Ne308    1.0000 0.43449  0.83996  0.63748  Biso   1.000  Ne
  Ne309    1.0000 0.73360  0.16159  0.93092  Biso   1.000  Ne
  He309    1.0000 0.72669  0.13155  0.93764  Biso   1.000  He
  He310    1.0000 0.73022  0.12743  0.97222  Biso   1.000  He
  Ne310    1.0000 0.71993  0.09646  0.98253  Biso   1.000  Ne
  Ne311    1.0000 0.15434  0.39626  0.38095  Biso   1.000  Ne
  He311    1.0000 0.14864  0.37743  0.35705  Biso   1.000  He
  He312    1.0000 0.15431  0.39003  0.32710  Biso   1.000  He
  Ne312    1.0000 0.14905  0.37015  0.30066  Biso   1.000  Ne
  Ne313    1.0000 0.50632  0.91906  0.56631  Biso   1.000  Ne
  He313    1.0000 0.52117  0.94687  0.58180  Biso   1.000  He
  He314    1.0000 0.52082  0.97789  0.56536  Biso   1.000  He
  Ne314    1.0000 0.53516  0.00385  0.58287  Biso   1.000  Ne
  Ne315    1.0000 0.18313  0.07738  0.12632  Biso   1.000  Ne
  He315    1.0000 0.18715  0.09835  0.10429  Biso   1.000  He
  He316    1.0000 0.21916  0.10156  0.09298  Biso   1.000  He
  Ne316    1.0000 0.23060  0.13097  0.08433  Biso   1.000  Ne
  Ne317    1.0000 0.12673  0.65022  0.39666  Biso   1.000  Ne
  He317    1.0000 0.12097  0.67962  0.40475  Biso   1.000  He
  He318    1.0000 0.09243  0.69219  0.39191  Biso   1.000  He
  Ne318    1.0000 0.08404  0.72239  0.40075  Biso   1.000  Ne
  Ne319    1.0000 0.42184  0.34597  0.24944  Biso   1.000  Ne
  He319    1.0000 0.42044  0.36251  0.22135  Biso   1.000  He
  He320    1.0000 0.44682  0.36373  0.20277  Biso   1.000  He
  Ne320    1.0000 0.44693  0.38563  0.17855  Biso   1.000  Ne
