data_image0
_cell_length_a       47.2346
_cell_length_b       46.9345
_cell_length_c       46.5979
_cell_angle_alpha    90
_cell_angle_beta     90
_cell_angle_gamma    90

_symmetry_space_group_name_H-M    "P 1"
_symmetry_int_tables_number       1

loop_
  _symmetry_equiv_pos_as_xyz
  'x, y, z'

loop_
  _atom_site_label
  _atom_site_occupancy
  _atom_site_fract_x
  _atom_site_fract_y
  _atom_site_fract_z
  _atom_site_thermal_displace_type
  _atom_site_B_iso_or_equiv
  _atom_site_type_symbol
  Ne1      1.0000 0.10251  0.61746  0.40481  Biso   1.000  Ne
  He1      1.0000 0.11950  0.63563  0.42445  Biso   1.000  He
  He2      1.0000 0.12940  0.66524  0.41531  Biso   1.000  He
  Ne2      1.0000 0.15645  0.67609  0.43100  Biso   1.000  Ne
  Ne3      1.0000 0.17280  0.31767  0.43903  Biso   1.000  Ne
  He3      1.0000 0.19261  0.30186  0.46063  Biso   1.000  He
  He4      1.0000 0.22186  0.29598  0.44948  Biso   1.000  He
  Ne4      1.0000 0.23901  0.27759  0.47361  Biso   1.000  Ne
  Ne5      1.0000 0.96660  0.78133  0.58376  Biso   1.000  Ne
  He5      1.0000 0.95994  0.74966  0.59066  Biso   1.000  He
  He6      1.0000 0.95639  0.74465  0.62238  Biso   1.000  He
  Ne6      1.0000 0.94843  0.71276  0.63155  Biso   1.000  Ne
  Ne7      1.0000 0.95671  0.62766  0.46187  Biso   1.000  Ne
  He7      1.0000 0.95755  0.59322  0.46928  Biso   1.000  He
  He8      1.0000 0.96445  0.57420  0.44261  Biso   1.000  He
  Ne8      1.0000 0.96392  0.54394  0.45475  Biso   1.000  Ne
  Ne9      1.0000 0.15099  0.12383  0.55753  Biso   1.000  Ne
  He9      1.0000 0.17296  0.15022  0.55807  Biso   1.000  He
  He10     1.0000 0.17712  0.15639  0.58818  Biso   1.000  He
  Ne10     1.0000 0.20548  0.14784  0.60128  Biso   1.000  Ne
  Ne11     1.0000 0.70087  0.08940  0.44193  Biso   1.000  Ne
  He11     1.0000 0.67493  0.08728  0.42215  Biso   1.000  He
  He12     1.0000 0.67722  0.10237  0.39223  Biso   1.000  He
  Ne12     1.0000 0.65173  0.09798  0.37083  Biso   1.000  Ne
  Ne13     1.0000 0.07015  0.93524  0.05395  Biso   1.000  Ne
  He13     1.0000 0.06751  0.92484  0.02056  Biso   1.000  He
  He14     1.0000 0.03562  0.92585  0.00757  Biso   1.000  He
  Ne14     1.0000 0.03245  0.91144  0.97896  Biso   1.000  Ne
  Ne15     1.0000 0.42647  0.61813  0.61642  Biso   1.000  Ne
  He15     1.0000 0.40299  0.61022  0.63660  Biso   1.000  He
  He16     1.0000 0.41397  0.61561  0.66752  Biso   1.000  He
  Ne16     1.0000 0.39516  0.60642  0.69160  Biso   1.000  Ne
  Ne17     1.0000 0.71132  0.04371  0.99186  Biso   1.000  Ne
  He17     1.0000 0.71887  0.01346  0.99981  Biso   1.000  He
  He18     1.0000 0.69318  0.99426  0.99214  Biso   1.000  He
  Ne18     1.0000 0.69270  0.96132  0.99892  Biso   1.000  Ne
  Ne19     1.0000 0.23301  0.28717  0.30313  Biso   1.000  Ne
  He19     1.0000 0.21896  0.31450  0.32039  Biso   1.000  He
  He20     1.0000 0.18767  0.30999  0.33145  Biso   1.000  He
  Ne20     1.0000 0.17580  0.33595  0.35106  Biso   1.000  Ne
  Ne21     1.0000 0.41652  0.71477  0.80691  Biso   1.000  Ne
  He21     1.0000 0.42628  0.74050  0.79108  Biso   1.000  He
  He22     1.0000 0.42379  0.76924  0.80972  Biso   1.000  He
  Ne22     1.0000 0.43101  0.79954  0.79346  Biso   1.000  Ne
  Ne23     1.0000 0.87758  0.86459  0.35648  Biso   1.000  Ne
  He23     1.0000 0.85322  0.84533  0.34874  Biso   1.000  He
  He24     1.0000 0.86168  0.82617  0.32411  Biso   1.000  He
  Ne24     1.0000 0.84362  0.80180  0.31117  Biso   1.000  Ne
  Ne25     1.0000 0.15498  0.27721  0.08033  Biso   1.000  Ne
  He25     1.0000 0.18470  0.28878  0.09502  Biso   1.000  He
  He26     1.0000 0.21063  0.28155  0.08149  Biso   1.000  He
  Ne26     1.0000 0.23631  0.29341  0.09719  Biso   1.000  Ne
  Ne27     1.0000 0.75062  0.81079  0.81822  Biso   1.000  Ne
  He27     1.0000 0.77981  0.82457  0.83285  Biso   1.000  He
  He28     1.0000 0.80326  0.80523  0.84444  Biso   1.000  He
  Ne28     1.0000 0.83067  0.81953  0.85996  Biso   1.000  Ne
  Ne29     1.0000 0.20589  0.99508  0.66262  Biso   1.000  Ne
  He29     1.0000 0.19740  0.99999  0.69384  Biso   1.000  He
  He30     1.0000 0.20676  0.02898  0.70418  Biso   1.000  He
  Ne30     1.0000 0.19770  0.03518  0.73559  Biso   1.000  Ne
  Ne31     1.0000 0.78874  0.09647  0.41414  Biso   1.000  Ne
  He31     1.0000 0.80465  0.07874  0.44068  Biso   1.000  He
  He32     1.0000 0.79564  0.08516  0.47135  Biso   1.000  He
  Ne32     1.0000 0.81681  0.06633  0.49240  Biso   1.000  Ne
  Ne33     1.0000 0.03087  0.42414  0.53041  Biso   1.000  Ne
  He33     1.0000 0.01700  0.44480  0.50785  Biso   1.000  He
  He34     1.0000 0.03224  0.44252  0.47843  Biso   1.000  He
  Ne34     1.0000 0.02121  0.46556  0.45535  Biso   1.000  Ne
  Ne35     1.0000 0.07843  0.93092  0.79898  Biso   1.000  Ne
  He35     1.0000 0.07719  0.90328  0.78243  Biso   1.000  He
  He36     1.0000 0.10410  0.88282  0.78541  Biso   1.000  He
  Ne36     1.0000 0.10026  0.85275  0.76600  Biso   1.000  Ne
  Ne37     1.0000 0.23976  0.44250  0.91136  Biso   1.000  Ne
  He37     1.0000 0.22368  0.46598  0.89146  Biso   1.000  He
  He38     1.0000 0.21010  0.49180  0.90830  Biso   1.000  He
  Ne38     1.0000 0.19602  0.51595  0.88746  Biso   1.000  Ne
  Ne39     1.0000 0.30807  0.69407  0.17991  Biso   1.000  Ne
  He39     1.0000 0.31937  0.70863  0.15196  Biso   1.000  He
  He40     1.0000 0.32491  0.74152  0.15616  Biso   1.000  He
  Ne40     1.0000 0.33651  0.75942  0.13200  Biso   1.000  Ne
  Ne41     1.0000 0.20137  0.86475  0.34151  Biso   1.000  Ne
  He41     1.0000 0.18649  0.84571  0.31569  Biso   1.000  He
  He42     1.0000 0.15357  0.84506  0.32401  Biso   1.000  He
  Ne42     1.0000 0.13509  0.82425  0.30857  Biso   1.000  Ne
  Ne43     1.0000 0.65790  0.57334  0.11730  Biso   1.000  Ne
  He43     1.0000 0.66726  0.59276  0.14116  Biso   1.000  He
  He44     1.0000 0.67583  0.57194  0.16769  Biso   1.000  He
  Ne44     1.0000 0.68375  0.59023  0.19317  Biso   1.000  Ne
  Ne45     1.0000 0.40229  0.38386  0.38201  Biso   1.000  Ne
  He45     1.0000 0.37417  0.37840  0.36590  Biso   1.000  He
  He46     1.0000 0.36676  0.40403  0.34727  Biso   1.000  He
  Ne46     1.0000 0.34006  0.39763  0.33090  Biso   1.000  Ne
  Ne47     1.0000 0.85799  0.41213  0.15618  Biso   1.000  Ne
  He47     1.0000 0.84416  0.44321  0.15519  Biso   1.000  He
  He48     1.0000 0.84261  0.45813  0.18665  Biso   1.000  He
  Ne48     1.0000 0.82791  0.48626  0.18619  Biso   1.000  Ne
  Ne49     1.0000 0.77404  0.38081  0.77121  Biso   1.000  Ne
  He49     1.0000 0.75331  0.39919  0.74814  Biso   1.000  He
  He50     1.0000 0.76805  0.42383  0.73382  Biso   1.000  He
  Ne50     1.0000 0.74861  0.44350  0.71762  Biso   1.000  Ne
  Ne51     1.0000 0.43361  0.22811  0.61890  Biso   1.000  Ne
  He51     1.0000 0.43330  0.26104  0.62597  Biso   1.000  He
  He52     1.0000 0.46006  0.27112  0.64095  Biso   1.000  He
  Ne52     1.0000 0.45726  0.30417  0.64697  Biso   1.000  Ne
  Ne53     1.0000 0.92688  0.08028  0.19971  Biso   1.000  Ne
  He53     1.0000 0.92778  0.10851  0.21353  Biso   1.000  He
  He54     1.0000 0.93531  0.13416  0.19788  Biso   1.000  He
  Ne54     1.0000 0.92299  0.16121  0.21148  Biso   1.000  Ne
  Ne55     1.0000 0.09805  0.89066  0.28415  Biso   1.000  Ne
  He55     1.0000 0.09463  0.91844  0.30233  Biso   1.000  He
  He56     1.0000 0.12469  0.92813  0.31351  Biso   1.000  He
  Ne56     1.0000 0.12570  0.95703  0.33068  Biso   1.000  Ne
  Ne57     1.0000 0.06102  0.76562  0.58473  Biso   1.000  Ne
  He57     1.0000 0.05626  0.79381  0.60179  Biso   1.000  He
  He58     1.0000 0.04314  0.81860  0.58772  Biso   1.000  He
  Ne58     1.0000 0.03243  0.84231  0.60993  Biso   1.000  Ne
  Ne59     1.0000 0.83664  0.13884  0.32227  Biso   1.000  Ne
  He59     1.0000 0.86966  0.14511  0.32189  Biso   1.000  He
  He60     1.0000 0.88331  0.14455  0.35299  Biso   1.000  He
  Ne60     1.0000 0.91620  0.15091  0.35554  Biso   1.000  Ne
  Ne61     1.0000 0.20058  0.68258  0.92082  Biso   1.000  Ne
  He61     1.0000 0.20633  0.65018  0.92942  Biso   1.000  He
  He62     1.0000 0.20590  0.62942  0.90619  Biso   1.000  He
  Ne62     1.0000 0.21266  0.59799  0.91223  Biso   1.000  Ne
  Ne63     1.0000 0.65197  0.03275  0.25294  Biso   1.000  Ne
  He63     1.0000 0.67058  0.00562  0.24990  Biso   1.000  He
  He64     1.0000 0.65271  0.97853  0.24750  Biso   1.000  He
  Ne64     1.0000 0.66620  0.94880  0.24189  Biso   1.000  Ne
  Ne65     1.0000 0.66287  0.92434  0.36468  Biso   1.000  Ne
  He65     1.0000 0.65189  0.92747  0.33491  Biso   1.000  He
  He66     1.0000 0.62216  0.93757  0.33538  Biso   1.000  He
  Ne66     1.0000 0.60690  0.94036  0.30621  Biso   1.000  Ne
  Ne67     1.0000 0.64251  0.13224  0.21631  Biso   1.000  Ne
  He67     1.0000 0.63891  0.14920  0.24527  Biso   1.000  He
  He68     1.0000 0.61679  0.13774  0.26856  Biso   1.000  He
  Ne68     1.0000 0.58524  0.15035  0.25998  Biso   1.000  Ne
  Ne69     1.0000 0.95094  0.83571  0.10919  Biso   1.000  Ne
  He69     1.0000 0.92665  0.82964  0.12953  Biso   1.000  He
  He70     1.0000 0.89581  0.82473  0.11745  Biso   1.000  He
  Ne70     1.0000 0.87065  0.81976  0.13732  Biso   1.000  Ne
  Ne71     1.0000 0.46742  0.98791  0.54770  Biso   1.000  Ne
  He71     1.0000 0.45958  0.95843  0.56099  Biso   1.000  He
  He72     1.0000 0.47889  0.93442  0.55151  Biso   1.000  He
  Ne72     1.0000 0.46675  0.90579  0.56179  Biso   1.000  Ne
  Ne73     1.0000 0.09094  0.33268  0.37682  Biso   1.000  Ne
  He73     1.0000 0.08118  0.35154  0.34907  Biso   1.000  He
  He74     1.0000 0.07964  0.38562  0.35654  Biso   1.000  He
  Ne74     1.0000 0.08203  0.40544  0.32909  Biso   1.000  Ne
  Ne75     1.0000 0.32268  0.39676  0.93538  Biso   1.000  Ne
  He75     1.0000 0.33870  0.38049  0.91264  Biso   1.000  He
  He76     1.0000 0.34344  0.39676  0.88645  Biso   1.000  He
  Ne76     1.0000 0.36168  0.38381  0.86186  Biso   1.000  Ne
  Ne77     1.0000 0.41307  0.03727  0.58161  Biso   1.000  Ne
  He77     1.0000 0.41624  0.05329  0.61085  Biso   1.000  He
  He78     1.0000 0.44035  0.05140  0.63523  Biso   1.000  He
  Ne78     1.0000 0.43584  0.06859  0.66242  Biso   1.000  Ne
  Ne79     1.0000 0.89256  0.83529  0.96744  Biso   1.000  Ne
  He79     1.0000 0.89490  0.86661  0.95490  Biso   1.000  He
  He80     1.0000 0.90329  0.88992  0.97808  Biso   1.000  He
  Ne80     1.0000 0.90146  0.92045  0.96576  Biso   1.000  Ne
  Ne81     1.0000 0.41501  0.09620  0.73373  Biso   1.000  Ne
  He81     1.0000 0.42916  0.08821  0.76229  Biso   1.000  He
  He82     1.0000 0.42075  0.06041  0.77476  Biso   1.000  He
  Ne82     1.0000 0.44016  0.05508  0.80156  Biso   1.000  Ne
  Ne83     1.0000 0.84053  0.82065  0.55004  Biso   1.000  Ne
  He83     1.0000 0.86107  0.79951  0.56719  Biso   1.000  He
  He84     1.0000 0.84947  0.76847  0.57430  Biso   1.000  He
  Ne84     1.0000 0.86816  0.75075  0.59506  Biso   1.000  Ne
  Ne85     1.0000 0.69879  0.40212  0.85475  Biso   1.000  Ne
  He85     1.0000 0.73294  0.39908  0.85900  Biso   1.000  He
  He86     1.0000 0.75091  0.41764  0.83963  Biso   1.000  He
  Ne86     1.0000 0.78226  0.41334  0.84562  Biso   1.000  Ne
  Ne87     1.0000 0.45607  0.81131  0.43394  Biso   1.000  Ne
  He87     1.0000 0.44040  0.82644  0.40862  Biso   1.000  He
  He88     1.0000 0.44806  0.81810  0.38007  Biso   1.000  He
  Ne88     1.0000 0.43702  0.83921  0.35755  Biso   1.000  Ne
  Ne89     1.0000 0.03835  0.13628  0.45685  Biso   1.000  Ne
  He89     1.0000 0.06208  0.12367  0.43436  Biso   1.000  He
  He90     1.0000 0.09505  0.13411  0.43921  Biso   1.000  He
  Ne90     1.0000 0.11752  0.11969  0.41656  Biso   1.000  Ne
  Ne91     1.0000 0.13656  0.70223  0.86495  Biso   1.000  Ne
  He91     1.0000 0.11748  0.72336  0.84870  Biso   1.000  He
  He92     1.0000 0.08567  0.72061  0.85691  Biso   1.000  He
  Ne92     1.0000 0.06769  0.74338  0.83897  Biso   1.000  Ne
  Ne93     1.0000 0.42854  0.54020  0.40081  Biso   1.000  Ne
  He93     1.0000 0.44669  0.55024  0.37229  Biso   1.000  He
  He94     1.0000 0.47802  0.54719  0.37488  Biso   1.000  He
  Ne94     1.0000 0.49176  0.55969  0.34702  Biso   1.000  Ne
  Ne95     1.0000 0.32671  0.38720  0.76454  Biso   1.000  Ne
  He95     1.0000 0.31913  0.40252  0.73545  Biso   1.000  He
  He96     1.0000 0.28732  0.40615  0.72815  Biso   1.000  He
  Ne96     1.0000 0.28250  0.41762  0.69880  Biso   1.000  Ne
  Ne97     1.0000 0.53722  0.57794  0.72621  Biso   1.000  Ne
  He97     1.0000 0.54442  0.54497  0.72641  Biso   1.000  He
  He98     1.0000 0.54887  0.52991  0.75710  Biso   1.000  He
  Ne98     1.0000 0.56066  0.49653  0.75819  Biso   1.000  Ne
  Ne99     1.0000 0.20831  0.07402  0.27196  Biso   1.000  Ne
  He99     1.0000 0.23087  0.09962  0.27441  Biso   1.000  He
  He100    1.0000 0.21645  0.12999  0.26607  Biso   1.000  He
  Ne100    1.0000 0.23560  0.15520  0.27464  Biso   1.000  Ne
  Ne101    1.0000 0.35969  0.30000  0.26457  Biso   1.000  Ne
  He101    1.0000 0.35174  0.31405  0.29502  Biso   1.000  He
  He102    1.0000 0.32251  0.30329  0.30715  Biso   1.000  He
  Ne102    1.0000 0.31598  0.31539  0.33652  Biso   1.000  Ne
  Ne103    1.0000 0.78269  0.25784  0.41055  Biso   1.000  Ne
  He103    1.0000 0.80287  0.23264  0.41865  Biso   1.000  He
  He104    1.0000 0.79782  0.20687  0.39924  Biso   1.000  He
  Ne104    1.0000 0.82122  0.18040  0.40164  Biso   1.000  Ne
  Ne105    1.0000 0.80109  0.21437  0.29702  Biso   1.000  Ne
  He105    1.0000 0.78148  0.23858  0.30019  Biso   1.000  He
  He106    1.0000 0.78370  0.26576  0.27832  Biso   1.000  He
  Ne106    1.0000 0.76503  0.29232  0.28908  Biso   1.000  Ne
  Ne107    1.0000 0.57767  0.46281  0.09602  Biso   1.000  Ne
  He107    1.0000 0.59504  0.44748  0.12187  Biso   1.000  He
  He108    1.0000 0.57449  0.44356  0.14695  Biso   1.000  He
  Ne108    1.0000 0.59100  0.42786  0.17175  Biso   1.000  Ne
  Ne109    1.0000 0.33441  0.20180  0.91581  Biso   1.000  Ne
  He109    1.0000 0.32425  0.18550  0.94085  Biso   1.000  He
  He110    1.0000 0.29371  0.17882  0.93834  Biso   1.000  He
  Ne110    1.0000 0.28415  0.15752  0.96236  Biso   1.000  Ne
  Ne111    1.0000 0.33611  0.51122  0.67412  Biso   1.000  Ne
  He111    1.0000 0.36599  0.52188  0.67380  Biso   1.000  He
  He112    1.0000 0.38734  0.50377  0.65346  Biso   1.000  He
  Ne112    1.0000 0.41761  0.51387  0.65031  Biso   1.000  Ne
  Ne113    1.0000 0.44521  0.42807  0.15898  Biso   1.000  Ne
  He113    1.0000 0.43686  0.39691  0.17188  Biso   1.000  He
  He114    1.0000 0.41791  0.39766  0.19917  Biso   1.000  He
  Ne114    1.0000 0.41041  0.36929  0.21533  Biso   1.000  Ne
  Ne115    1.0000 0.12506  0.20607  0.49434  Biso   1.000  Ne
  He115    1.0000 0.10483  0.22919  0.47737  Biso   1.000  He
  He116    1.0000 0.11864  0.25804  0.46643  Biso   1.000  He
  Ne116    1.0000 0.09719  0.27968  0.44990  Biso   1.000  Ne
  Ne117    1.0000 0.36343  0.43030  0.66607  Biso   1.000  Ne
  He117    1.0000 0.36334  0.39717  0.65447  Biso   1.000  He
  He118    1.0000 0.37938  0.37233  0.67357  Biso   1.000  He
  Ne118    1.0000 0.37514  0.34205  0.66356  Biso   1.000  Ne
  Ne119    1.0000 0.58253  0.07301  0.44275  Biso   1.000  Ne
  He119    1.0000 0.59261  0.06653  0.47355  Biso   1.000  He
  He120    1.0000 0.56983  0.07461  0.49914  Biso   1.000  He
  Ne120    1.0000 0.58366  0.07111  0.52961  Biso   1.000  Ne
  Ne121    1.0000 0.86062  0.83754  0.47263  Biso   1.000  Ne
  He121    1.0000 0.87975  0.86027  0.48884  Biso   1.000  He
  He122    1.0000 0.86350  0.88117  0.51112  Biso   1.000  He
  Ne122    1.0000 0.88267  0.90037  0.52997  Biso   1.000  Ne
  Ne123    1.0000 0.09455  0.29278  0.28811  Biso   1.000  Ne
  He123    1.0000 0.11648  0.27024  0.28458  Biso   1.000  He
  He124    1.0000 0.11327  0.25267  0.31417  Biso   1.000  He
  Ne124    1.0000 0.13449  0.22950  0.31916  Biso   1.000  Ne
  Ne125    1.0000 0.34645  0.55892  0.77002  Biso   1.000  Ne
  He125    1.0000 0.35688  0.58920  0.76397  Biso   1.000  He
  He126    1.0000 0.34417  0.61476  0.78188  Biso   1.000  He
  Ne126    1.0000 0.35809  0.64392  0.77252  Biso   1.000  Ne
  Ne127    1.0000 0.57852  0.60699  0.96438  Biso   1.000  Ne
  He127    1.0000 0.60186  0.58718  0.98000  Biso   1.000  He
  He128    1.0000 0.59376  0.55398  0.98356  Biso   1.000  He
  Ne128    1.0000 0.62127  0.53519  0.99232  Biso   1.000  Ne
  Ne129    1.0000 0.42297  0.56172  0.47097  Biso   1.000  Ne
  He129    1.0000 0.41110  0.55202  0.50048  Biso   1.000  He
  He130    1.0000 0.41173  0.57511  0.52384  Biso   1.000  He
  Ne130    1.0000 0.40333  0.56445  0.55273  Biso   1.000  Ne
  Ne131    1.0000 0.22943  0.35178  0.76931  Biso   1.000  Ne
  He131    1.0000 0.20868  0.34312  0.74246  Biso   1.000  He
  He132    1.0000 0.21395  0.35412  0.71219  Biso   1.000  He
  Ne132    1.0000 0.19821  0.38077  0.70352  Biso   1.000  Ne
  Ne133    1.0000 0.57577  0.77342  0.04630  Biso   1.000  Ne
  He133    1.0000 0.56245  0.78490  0.01600  Biso   1.000  He
  He134    1.0000 0.54619  0.81425  0.02185  Biso   1.000  He
  Ne134    1.0000 0.53019  0.82732  0.99664  Biso   1.000  Ne
  Ne135    1.0000 0.60473  0.68747  0.92861  Biso   1.000  Ne
  He135    1.0000 0.60664  0.71814  0.94215  Biso   1.000  He
  He136    1.0000 0.63577  0.72500  0.96146  Biso   1.000  He
  Ne136    1.0000 0.63686  0.75670  0.97593  Biso   1.000  Ne
  Ne137    1.0000 0.09142  0.48192  0.21858  Biso   1.000  Ne
  He137    1.0000 0.09085  0.50613  0.24047  Biso   1.000  He
  He138    1.0000 0.10557  0.53389  0.23111  Biso   1.000  He
  Ne138    1.0000 0.11417  0.55650  0.25488  Biso   1.000  Ne
  Ne139    1.0000 0.39252  0.79322  0.29968  Biso   1.000  Ne
  He139    1.0000 0.36488  0.77833  0.30492  Biso   1.000  He
  He140    1.0000 0.35063  0.79147  0.32896  Biso   1.000  He
  Ne140    1.0000 0.32066  0.77824  0.33557  Biso   1.000  Ne
  Ne141    1.0000 0.28759  0.99607  0.04445  Biso   1.000  Ne
  He141    1.0000 0.31990  0.00466  0.03969  Biso   1.000  He
  He142    1.0000 0.34070  0.00230  0.06853  Biso   1.000  He
  Ne142    1.0000 0.37313  0.00077  0.06319  Biso   1.000  Ne
  Ne143    1.0000 0.39511  0.56671  0.10190  Biso   1.000  Ne
  He143    1.0000 0.40592  0.59726  0.11112  Biso   1.000  He
  He144    1.0000 0.43632  0.59989  0.10186  Biso   1.000  He
  Ne144    1.0000 0.45007  0.62601  0.11034  Biso   1.000  Ne
  Ne145    1.0000 0.80446  0.57829  0.94517  Biso   1.000  Ne
  He145    1.0000 0.82297  0.55384  0.95589  Biso   1.000  He
  He146    1.0000 0.84986  0.54838  0.93551  Biso   1.000  He
  Ne146    1.0000 0.86670  0.51948  0.94108  Biso   1.000  Ne
  Ne147    1.0000 0.57759  0.84196  0.61376  Biso   1.000  Ne
  He147    1.0000 0.60940  0.84403  0.62208  Biso   1.000  He
  He148    1.0000 0.62403  0.81229  0.62619  Biso   1.000  He
  Ne148    1.0000 0.65273  0.81231  0.64343  Biso   1.000  Ne
  Ne149    1.0000 0.05879  0.94369  0.38963  Biso   1.000  Ne
  He149    1.0000 0.04372  0.92493  0.41214  Biso   1.000  He
  He150    1.0000 0.04194  0.89265  0.40083  Biso   1.000  He
  Ne150    1.0000 0.02535  0.86910  0.42036  Biso   1.000  Ne
  Ne151    1.0000 0.14658  0.53257  0.02566  Biso   1.000  Ne
  He151    1.0000 0.15888  0.55397  0.00105  Biso   1.000  He
  He152    1.0000 0.13766  0.57373  0.98880  Biso   1.000  He
  Ne152    1.0000 0.14970  0.59126  0.96336  Biso   1.000  Ne
  Ne153    1.0000 0.65000  0.82842  0.78453  Biso   1.000  Ne
  He153    1.0000 0.64397  0.82272  0.81747  Biso   1.000  He
  He154    1.0000 0.66484  0.83730  0.83955  Biso   1.000  He
  Ne154    1.0000 0.65505  0.83630  0.87201  Biso   1.000  Ne
  Ne155    1.0000 0.24878  0.13228  0.12442  Biso   1.000  Ne
  He155    1.0000 0.26595  0.12047  0.09946  Biso   1.000  He
  He156    1.0000 0.26030  0.08619  0.09551  Biso   1.000  He
  Ne156    1.0000 0.27835  0.07398  0.07006  Biso   1.000  Ne
  Ne157    1.0000 0.57661  0.98816  0.23059  Biso   1.000  Ne
  He157    1.0000 0.55423  0.00064  0.24857  Biso   1.000  He
  He158    1.0000 0.55112  0.03212  0.24935  Biso   1.000  He
  Ne158    1.0000 0.52077  0.04367  0.26026  Biso   1.000  Ne
  Ne159    1.0000 0.26549  0.42264  0.07530  Biso   1.000  Ne
  He159    1.0000 0.23394  0.41493  0.07171  Biso   1.000  He
  He160    1.0000 0.22148  0.41572  0.03924  Biso   1.000  He
  Ne160    1.0000 0.18982  0.40920  0.03839  Biso   1.000  Ne
  Ne161    1.0000 0.07455  0.29036  0.70094  Biso   1.000  Ne
  He161    1.0000 0.06938  0.27941  0.67249  Biso   1.000  He
  He162    1.0000 0.07928  0.30169  0.64711  Biso   1.000  He
  Ne162    1.0000 0.07612  0.28961  0.61599  Biso   1.000  Ne
  Ne163    1.0000 0.34084  0.19735  0.45762  Biso   1.000  Ne
  He163    1.0000 0.34816  0.22822  0.45436  Biso   1.000  He
  He164    1.0000 0.36796  0.24510  0.47620  Biso   1.000  He
  Ne164    1.0000 0.36454  0.27753  0.47125  Biso   1.000  Ne
  Ne165    1.0000 0.85240  0.58984  0.25278  Biso   1.000  Ne
  He165    1.0000 0.83460  0.58803  0.28370  Biso   1.000  He
  He166    1.0000 0.80225  0.58388  0.28058  Biso   1.000  He
  Ne166    1.0000 0.78587  0.58809  0.30553  Biso   1.000  Ne
  Ne167    1.0000 0.01161  0.40715  0.94531  Biso   1.000  Ne
  He167    1.0000 0.02147  0.37734  0.96048  Biso   1.000  He
  He168    1.0000 0.99791  0.36323  0.97644  Biso   1.000  He
  Ne168    1.0000 0.00333  0.33309  0.98964  Biso   1.000  Ne
  Ne169    1.0000 0.42504  0.27548  0.21221  Biso   1.000  Ne
  He169    1.0000 0.44788  0.25283  0.20340  Biso   1.000  He
  He170    1.0000 0.44896  0.22290  0.21784  Biso   1.000  He
  Ne170    1.0000 0.46993  0.20177  0.20007  Biso   1.000  Ne
  Ne171    1.0000 0.66970  0.22299  0.42528  Biso   1.000  Ne
  He171    1.0000 0.65779  0.20290  0.39920  Biso   1.000  He
  He172    1.0000 0.62522  0.19662  0.39234  Biso   1.000  He
  Ne172    1.0000 0.62092  0.17915  0.36521  Biso   1.000  Ne
  Ne173    1.0000 0.97632  0.74399  0.46130  Biso   1.000  Ne
  He173    1.0000 0.96222  0.72586  0.43647  Biso   1.000  He
  He174    1.0000 0.93062  0.71563  0.44394  Biso   1.000  He
  Ne174    1.0000 0.91553  0.70101  0.42010  Biso   1.000  Ne
  Ne175    1.0000 0.45463  0.39690  0.29962  Biso   1.000  Ne
  He175    1.0000 0.46927  0.41942  0.32050  Biso   1.000  He
  He176    1.0000 0.47115  0.45217  0.30667  Biso   1.000  He
  Ne176    1.0000 0.47950  0.47487  0.32865  Biso   1.000  Ne
  Ne177    1.0000 0.90808  0.73442  0.27734  Biso   1.000  Ne
  He177    1.0000 0.93280  0.71058  0.27507  Biso   1.000  He
  He178    1.0000 0.95059  0.70796  0.24874  Biso   1.000  He
  Ne178    1.0000 0.96984  0.68182  0.24966  Biso   1.000  Ne
  Ne179    1.0000 0.55390  0.42484  0.03501  Biso   1.000  Ne
  He179    1.0000 0.55744  0.43333  0.00539  Biso   1.000  He
  He180    1.0000 0.57664  0.40966  0.98782  Biso   1.000  He
  Ne180    1.0000 0.57998  0.41695  0.95678  Biso   1.000  Ne
  Ne181    1.0000 0.15854  0.08389  0.88084  Biso   1.000  Ne
  He181    1.0000 0.17685  0.11279  0.87918  Biso   1.000  He
  He182    1.0000 0.17556  0.13179  0.90595  Biso   1.000  He
  Ne182    1.0000 0.19630  0.15926  0.90400  Biso   1.000  Ne
  Ne183    1.0000 0.28712  0.32444  0.83326  Biso   1.000  Ne
  He183    1.0000 0.27304  0.34707  0.85156  Biso   1.000  He
  He184    1.0000 0.26098  0.37063  0.83191  Biso   1.000  He
  Ne184    1.0000 0.23882  0.38887  0.84879  Biso   1.000  Ne
  Ne185    1.0000 0.85319  0.57886  0.63445  Biso   1.000  Ne
  He185    1.0000 0.84014  0.61117  0.62499  Biso   1.000  He
  He186    1.0000 0.84717  0.63550  0.64887  Biso   1.000  He
  Ne186    1.0000 0.83014  0.66522  0.64085  Biso   1.000  Ne
  Ne187    1.0000 0.17567  0.62395  0.82448  Biso   1.000  Ne
  He187    1.0000 0.14404  0.62395  0.84174  Biso   1.000  He
  He188    1.0000 0.13709  0.59254  0.85589  Biso   1.000  He
  Ne188    1.0000 0.11497  0.59467  0.87891  Biso   1.000  Ne
  Ne189    1.0000 0.09655  0.22228  0.11114  Biso   1.000  Ne
  He189    1.0000 0.08412  0.25011  0.12076  Biso   1.000  He
  He190    1.0000 0.05529  0.24873  0.14227  Biso   1.000  He
  Ne190    1.0000 0.04622  0.27585  0.15916  Biso   1.000  Ne
  Ne191    1.0000 0.79684  0.83959  0.12527  Biso   1.000  Ne
  He191    1.0000 0.77253  0.81771  0.12600  Biso   1.000  He
  He192    1.0000 0.78129  0.78747  0.11459  Biso   1.000  He
  Ne192    1.0000 0.78877  0.76273  0.13854  Biso   1.000  Ne
  Ne193    1.0000 0.97039  0.41679  0.07975  Biso   1.000  Ne
  He193    1.0000 0.99811  0.39916  0.08034  Biso   1.000  He
  He194    1.0000 0.01577  0.39828  0.10921  Biso   1.000  He
  Ne194    1.0000 0.04119  0.37479  0.10938  Biso   1.000  Ne
  Ne195    1.0000 0.67741  0.21069  0.70950  Biso   1.000  Ne
  He195    1.0000 0.69339  0.18072  0.71129  Biso   1.000  He
  He196    1.0000 0.72377  0.18312  0.72164  Biso   1.000  He
  Ne196    1.0000 0.74268  0.15592  0.71990  Biso   1.000  Ne
  Ne197    1.0000 0.00412  0.97874  0.75551  Biso   1.000  Ne
  He197    1.0000 0.03678  0.98426  0.75113  Biso   1.000  He
  He198    1.0000 0.04585  0.00304  0.72273  Biso   1.000  He
  Ne198    1.0000 0.07838  0.00188  0.71569  Biso   1.000  Ne
  Ne199    1.0000 0.91818  0.38971  0.47131  Biso   1.000  Ne
  He199    1.0000 0.93447  0.40932  0.49170  Biso   1.000  He
  He200    1.0000 0.91961  0.43940  0.49613  Biso   1.000  He
  Ne200    1.0000 0.93326  0.45881  0.51889  Biso   1.000  Ne
  Ne201    1.0000 0.54589  0.36007  0.57432  Biso   1.000  Ne
  He201    1.0000 0.57371  0.34902  0.58496  Biso   1.000  He
  He202    1.0000 0.59465  0.34424  0.56358  Biso   1.000  He
  Ne202    1.0000 0.62224  0.32855  0.57549  Biso   1.000  Ne
  Ne203    1.0000 0.03572  0.28448  0.92653  Biso   1.000  Ne
  He203    1.0000 0.05947  0.26067  0.92009  Biso   1.000  He
  He204    1.0000 0.07635  0.24392  0.94368  Biso   1.000  He
  Ne204    1.0000 0.07191  0.25214  0.97561  Biso   1.000  Ne
  Ne205    1.0000 0.06641  0.77199  0.47102  Biso   1.000  Ne
  He205    1.0000 0.07783  0.79747  0.48660  Biso   1.000  He
  He206    1.0000 0.05352  0.81476  0.49896  Biso   1.000  He
  Ne206    1.0000 0.06062  0.84473  0.51138  Biso   1.000  Ne
  Ne207    1.0000 0.43040  0.17196  0.07086  Biso   1.000  Ne
  He207    1.0000 0.41983  0.20260  0.07998  Biso   1.000  He
  He208    1.0000 0.44276  0.21585  0.09973  Biso   1.000  He
  Ne208    1.0000 0.43962  0.24823  0.10839  Biso   1.000  Ne
  Ne209    1.0000 0.72976  0.15672  0.45821  Biso   1.000  Ne
  He209    1.0000 0.75882  0.15939  0.47199  Biso   1.000  He
  He210    1.0000 0.76339  0.18257  0.49112  Biso   1.000  He
  Ne210    1.0000 0.79567  0.18320  0.50034  Biso   1.000  Ne
  Ne211    1.0000 0.40430  0.92168  0.61481  Biso   1.000  Ne
  He211    1.0000 0.37676  0.91540  0.59776  Biso   1.000  He
  He212    1.0000 0.35045  0.91249  0.61765  Biso   1.000  He
  Ne212    1.0000 0.32047  0.91043  0.60138  Biso   1.000  Ne
  Ne213    1.0000 0.45450  0.60745  0.76188  Biso   1.000  Ne
  He213    1.0000 0.44152  0.63722  0.76277  Biso   1.000  He
  He214    1.0000 0.45362  0.65790  0.74160  Biso   1.000  He
  Ne214    1.0000 0.44034  0.68684  0.74395  Biso   1.000  Ne
  Ne215    1.0000 0.22776  0.71554  0.98834  Biso   1.000  Ne
  He215    1.0000 0.21099  0.70747  0.01603  Biso   1.000  He
  He216    1.0000 0.17908  0.71161  0.00827  Biso   1.000  He
  Ne216    1.0000 0.15897  0.70184  0.03191  Biso   1.000  Ne
  Ne217    1.0000 0.37981  0.76610  0.21533  Biso   1.000  Ne
  He217    1.0000 0.40527  0.77804  0.19762  Biso   1.000  He
  He218    1.0000 0.42319  0.79956  0.21313  Biso   1.000  He
  Ne218    1.0000 0.45138  0.80619  0.20038  Biso   1.000  Ne
  Ne219    1.0000 0.60701  0.63956  0.11718  Biso   1.000  Ne
  He219    1.0000 0.62568  0.66530  0.11758  Biso   1.000  He
  He220    1.0000 0.61905  0.68835  0.13950  Biso   1.000  He
  Ne220    1.0000 0.64147  0.71195  0.13935  Biso   1.000  Ne
  Ne221    1.0000 0.79497  0.02931  0.73207  Biso   1.000  Ne
  He221    1.0000 0.81197  0.00433  0.71593  Biso   1.000  He
  He222    1.0000 0.83082  0.98580  0.73589  Biso   1.000  He
  Ne222    1.0000 0.84733  0.96146  0.72259  Biso   1.000  Ne
  Ne223    1.0000 0.77316  0.95934  0.59940  Biso   1.000  Ne
  He223    1.0000 0.78404  0.95606  0.62861  Biso   1.000  He
  He224    1.0000 0.77457  0.93004  0.64699  Biso   1.000  He
  Ne224    1.0000 0.78119  0.93108  0.68007  Biso   1.000  Ne
  Ne225    1.0000 0.81265  0.87841  0.94814  Biso   1.000  Ne
  He225    1.0000 0.80265  0.89874  0.97125  Biso   1.000  He
  He226    1.0000 0.76920  0.90051  0.97820  Biso   1.000  He
  Ne226    1.0000 0.76318  0.92122  0.00305  Biso   1.000  Ne
  Ne227    1.0000 0.08181  0.31264  0.04082  Biso   1.000  Ne
  He227    1.0000 0.09430  0.33377  0.01975  Biso   1.000  He
  He228    1.0000 0.11005  0.32150  0.99220  Biso   1.000  He
  Ne228    1.0000 0.12010  0.34668  0.97416  Biso   1.000  Ne
  Ne229    1.0000 0.04344  0.65095  0.21851  Biso   1.000  Ne
  He229    1.0000 0.05247  0.63773  0.19201  Biso   1.000  He
  He230    1.0000 0.04605  0.60785  0.18547  Biso   1.000  He
  Ne230    1.0000 0.06195  0.59522  0.16005  Biso   1.000  Ne
  Ne231    1.0000 0.69913  0.07992  0.74308  Biso   1.000  Ne
  He231    1.0000 0.71671  0.07786  0.77128  Biso   1.000  He
  He232    1.0000 0.74326  0.09951  0.77395  Biso   1.000  He
  Ne232    1.0000 0.76469  0.09571  0.79857  Biso   1.000  Ne
  Ne233    1.0000 0.70515  0.89035  0.61322  Biso   1.000  Ne
  He233    1.0000 0.67815  0.91161  0.61532  Biso   1.000  He
  He234    1.0000 0.66684  0.91057  0.64558  Biso   1.000  He
  Ne234    1.0000 0.63875  0.92863  0.65374  Biso   1.000  Ne
  Ne235    1.0000 0.51433  0.21351  0.07641  Biso   1.000  Ne
  He235    1.0000 0.52097  0.21473  0.04289  Biso   1.000  He
  He236    1.0000 0.49643  0.19885  0.02755  Biso   1.000  He
  Ne236    1.0000 0.50379  0.20144  0.99283  Biso   1.000  Ne
  Ne237    1.0000 0.78863  0.90759  0.36401  Biso   1.000  Ne
  He237    1.0000 0.81351  0.92719  0.36956  Biso   1.000  He
  He238    1.0000 0.80297  0.95861  0.36786  Biso   1.000  He
  Ne238    1.0000 0.82679  0.97914  0.37593  Biso   1.000  Ne
  Ne239    1.0000 0.25487  0.71460  0.32189  Biso   1.000  Ne
  He239    1.0000 0.23835  0.73339  0.34181  Biso   1.000  He
  He240    1.0000 0.24252  0.72540  0.37286  Biso   1.000  He
  Ne240    1.0000 0.22254  0.74356  0.39511  Biso   1.000  Ne
  Ne241    1.0000 0.66316  0.28521  0.84133  Biso   1.000  Ne
  He241    1.0000 0.65203  0.26290  0.86397  Biso   1.000  He
  He242    1.0000 0.62113  0.24944  0.85926  Biso   1.000  He
  Ne242    1.0000 0.60942  0.22605  0.87777  Biso   1.000  Ne
  Ne243    1.0000 0.80783  0.31020  0.63506  Biso   1.000  Ne
  He243    1.0000 0.84136  0.31796  0.63645  Biso   1.000  He
  He244    1.0000 0.85872  0.29245  0.63887  Biso   1.000  He
  Ne244    1.0000 0.89001  0.29946  0.63583  Biso   1.000  Ne
  Ne245    1.0000 0.37216  0.15483  0.00876  Biso   1.000  Ne
  He245    1.0000 0.36035  0.12748  0.02189  Biso   1.000  He
  He246    1.0000 0.38438  0.10383  0.02458  Biso   1.000  He
  Ne246    1.0000 0.37664  0.07836  0.04414  Biso   1.000  Ne
  Ne247    1.0000 0.04670  0.17868  0.78675  Biso   1.000  Ne
  He247    1.0000 0.04462  0.20118  0.76031  Biso   1.000  He
  He248    1.0000 0.02813  0.18951  0.73377  Biso   1.000  He
  Ne248    1.0000 0.01951  0.21145  0.70982  Biso   1.000  Ne
  Ne249    1.0000 0.21503  0.89695  0.23517  Biso   1.000  Ne
  He249    1.0000 0.18968  0.90515  0.21730  Biso   1.000  He
  He250    1.0000 0.16291  0.89575  0.23260  Biso   1.000  He
  Ne250    1.0000 0.13497  0.90568  0.21661  Biso   1.000  Ne
  Ne251    1.0000 0.61606  0.85840  0.70364  Biso   1.000  Ne
  He251    1.0000 0.60663  0.88365  0.72580  Biso   1.000  He
  He252    1.0000 0.57739  0.88129  0.73961  Biso   1.000  He
  Ne252    1.0000 0.57005  0.90391  0.76472  Biso   1.000  Ne
  Ne253    1.0000 0.80456  0.31316  0.96767  Biso   1.000  Ne
  He253    1.0000 0.81329  0.33371  0.99361  Biso   1.000  He
  He254    1.0000 0.79550  0.33702  0.02271  Biso   1.000  He
  Ne254    1.0000 0.80452  0.36513  0.03954  Biso   1.000  Ne
  Ne255    1.0000 0.61582  0.48085  0.65892  Biso   1.000  Ne
  He255    1.0000 0.64822  0.49113  0.65207  Biso   1.000  He
  He256    1.0000 0.65675  0.51212  0.67856  Biso   1.000  He
  Ne256    1.0000 0.69101  0.52104  0.67599  Biso   1.000  Ne
  Ne257    1.0000 0.33597  0.19498  0.64529  Biso   1.000  Ne
  He257    1.0000 0.36363  0.18254  0.65708  Biso   1.000  He
  He258    1.0000 0.37994  0.16673  0.63204  Biso   1.000  He
  Ne258    1.0000 0.41221  0.15122  0.63889  Biso   1.000  Ne
  Ne259    1.0000 0.11823  0.91562  0.88210  Biso   1.000  Ne
  He259    1.0000 0.12289  0.88466  0.87010  Biso   1.000  He
  He260    1.0000 0.15494  0.87582  0.86893  Biso   1.000  He
  Ne260    1.0000 0.16606  0.84333  0.86279  Biso   1.000  Ne
  Ne261    1.0000 0.79133  0.09832  0.25677  Biso   1.000  Ne
  He261    1.0000 0.78460  0.12864  0.24784  Biso   1.000  He
  He262    1.0000 0.81012  0.14009  0.23130  Biso   1.000  He
  Ne262    1.0000 0.80669  0.17211  0.21963  Biso   1.000  Ne
  Ne263    1.0000 0.60535  0.30347  0.23665  Biso   1.000  Ne
  He263    1.0000 0.60474  0.27095  0.24376  Biso   1.000  He
  He264    1.0000 0.61134  0.26358  0.27577  Biso   1.000  He
  Ne264    1.0000 0.58603  0.26848  0.29837  Biso   1.000  Ne
  Ne265    1.0000 0.97379  0.88481  0.32797  Biso   1.000  Ne
  He265    1.0000 0.94395  0.88126  0.31434  Biso   1.000  He
  He266    1.0000 0.94153  0.87239  0.28089  Biso   1.000  He
  Ne266    1.0000 0.90995  0.86757  0.27318  Biso   1.000  Ne
  Ne267    1.0000 0.97885  0.65475  0.84380  Biso   1.000  Ne
  He267    1.0000 0.00332  0.63641  0.83316  Biso   1.000  He
  He268    1.0000 0.03095  0.65400  0.83520  Biso   1.000  He
  Ne268    1.0000 0.06044  0.63979  0.82349  Biso   1.000  Ne
  Ne269    1.0000 0.42430  0.03906  0.49091  Biso   1.000  Ne
  He269    1.0000 0.44072  0.06166  0.50990  Biso   1.000  He
  He270    1.0000 0.47327  0.05109  0.51940  Biso   1.000  He
  Ne270    1.0000 0.48824  0.06793  0.54532  Biso   1.000  Ne
  Ne271    1.0000 0.28275  0.87154  0.43615  Biso   1.000  Ne
  He271    1.0000 0.30195  0.89859  0.44291  Biso   1.000  He
  He272    1.0000 0.33565  0.89285  0.44680  Biso   1.000  He
  Ne272    1.0000 0.35458  0.91950  0.45186  Biso   1.000  Ne
  Ne273    1.0000 0.00756  0.55531  0.06529  Biso   1.000  Ne
  He273    1.0000 0.00284  0.52604  0.04885  Biso   1.000  He
  He274    1.0000 0.99199  0.52959  0.01856  Biso   1.000  He
  Ne274    1.0000 0.98436  0.50022  0.00500  Biso   1.000  Ne
  Ne275    1.0000 0.95690  0.52106  0.92031  Biso   1.000  Ne
  He275    1.0000 0.96136  0.55246  0.90598  Biso   1.000  He
  He276    1.0000 0.96915  0.57634  0.92822  Biso   1.000  He
  Ne276    1.0000 0.97073  0.60918  0.91870  Biso   1.000  Ne
  Ne277    1.0000 0.69045  0.89796  0.94830  Biso   1.000  Ne
  He277    1.0000 0.70325  0.86759  0.95680  Biso   1.000  He
  He278    1.0000 0.71466  0.85125  0.92796  Biso   1.000  He
  Ne278    1.0000 0.72793  0.82246  0.93187  Biso   1.000  Ne
  Ne279    1.0000 0.78285  0.65819  0.26045  Biso   1.000  Ne
  He279    1.0000 0.80633  0.67932  0.25036  Biso   1.000  He
  He280    1.0000 0.81079  0.70697  0.26642  Biso   1.000  He
  Ne280    1.0000 0.83409  0.72947  0.25577  Biso   1.000  Ne
  Ne281    1.0000 0.87082  0.15371  0.47329  Biso   1.000  Ne
  He281    1.0000 0.90046  0.15092  0.46111  Biso   1.000  He
  He282    1.0000 0.92533  0.14593  0.48404  Biso   1.000  He
  Ne282    1.0000 0.95395  0.13427  0.47245  Biso   1.000  Ne
  Ne283    1.0000 0.33968  0.15090  0.11868  Biso   1.000  Ne
  He283    1.0000 0.35334  0.15569  0.14790  Biso   1.000  He
  He284    1.0000 0.37293  0.18009  0.14576  Biso   1.000  He
  Ne284    1.0000 0.38484  0.19372  0.17335  Biso   1.000  Ne
  Ne285    1.0000 0.09979  0.71496  0.64853  Biso   1.000  Ne
  He285    1.0000 0.11464  0.69101  0.63106  Biso   1.000  He
  He286    1.0000 0.10146  0.66256  0.63560  Biso   1.000  He
  Ne286    1.0000 0.10885  0.64020  0.61239  Biso   1.000  Ne
  Ne287    1.0000 0.51166  0.44177  0.54843  Biso   1.000  Ne
  He287    1.0000 0.53532  0.43588  0.57234  Biso   1.000  He
  He288    1.0000 0.56009  0.45576  0.57372  Biso   1.000  He
  Ne288    1.0000 0.58357  0.44355  0.59053  Biso   1.000  Ne
  Ne289    1.0000 0.59245  0.72315  0.47982  Biso   1.000  Ne
  He289    1.0000 0.61058  0.73894  0.45628  Biso   1.000  He
  He290    1.0000 0.59455  0.74233  0.42909  Biso   1.000  He
  Ne290    1.0000 0.61090  0.75074  0.40284  Biso   1.000  Ne
  Ne291    1.0000 0.33620  0.40553  0.21393  Biso   1.000  Ne
  He291    1.0000 0.30456  0.40842  0.20214  Biso   1.000  He
  He292    1.0000 0.27810  0.40702  0.22033  Biso   1.000  He
  Ne292    1.0000 0.25025  0.41556  0.20204  Biso   1.000  Ne
  Ne293    1.0000 0.97601  0.47980  0.62321  Biso   1.000  Ne
  He293    1.0000 0.96465  0.46363  0.59575  Biso   1.000  He
  He294    1.0000 0.96074  0.43095  0.60136  Biso   1.000  He
  Ne294    1.0000 0.94883  0.41025  0.57838  Biso   1.000  Ne
  Ne295    1.0000 0.60576  0.18335  0.05207  Biso   1.000  Ne
  He295    1.0000 0.61249  0.17680  0.02139  Biso   1.000  He
  He296    1.0000 0.62554  0.20171  0.00534  Biso   1.000  He
  Ne296    1.0000 0.62416  0.19917  0.97265  Biso   1.000  Ne
  Ne297    1.0000 0.47806  0.03774  0.19063  Biso   1.000  Ne
  He297    1.0000 0.45178  0.02190  0.20202  Biso   1.000  He
  He298    1.0000 0.43023  0.04217  0.21212  Biso   1.000  He
  Ne298    1.0000 0.40303  0.02861  0.22594  Biso   1.000  Ne
  Ne299    1.0000 0.57088  0.74744  0.86273  Biso   1.000  Ne
  He299    1.0000 0.57225  0.76709  0.88874  Biso   1.000  He
  He300    1.0000 0.58458  0.79671  0.88622  Biso   1.000  He
  Ne300    1.0000 0.58274  0.81920  0.91448  Biso   1.000  Ne
  Ne301    1.0000 0.08174  0.01417  0.48522  Biso   1.000  Ne
  He301    1.0000 0.09425  0.04011  0.50017  Biso   1.000  He
  He302    1.0000 0.12005  0.05173  0.47997  Biso   1.000  He
  Ne302    1.0000 0.13540  0.07730  0.49208  Biso   1.000  Ne
  Ne303    1.0000 0.23331  0.36849  0.62725  Biso   1.000  Ne
  He303    1.0000 0.21110  0.38862  0.61204  Biso   1.000  He
  He304    1.0000 0.17902  0.38818  0.62054  Biso   1.000  He
  Ne304    1.0000 0.15582  0.40818  0.60336  Biso   1.000  Ne
  Ne305    1.0000 0.93300  0.80291  0.50780  Biso   1.000  Ne
  He305    1.0000 0.95470  0.82859  0.49495  Biso   1.000  He
  He306    1.0000 0.96266  0.85308  0.51879  Biso   1.000  He
  Ne306    1.0000 0.97394  0.88134  0.50608  Biso   1.000  Ne
  Ne307    1.0000 0.73269  0.58810  0.96488  Biso   1.000  Ne
  He307    1.0000 0.70491  0.60672  0.96489  Biso   1.000  He
  He308    1.0000 0.70497  0.63859  0.95727  Biso   1.000  He
  Ne308    1.0000 0.67757  0.65375  0.96548  Biso   1.000  Ne
  Ne309    1.0000 0.50931  0.27737  0.57087  Biso   1.000  Ne
  He309    1.0000 0.49339  0.28524  0.54259  Biso   1.000  He
  He310    1.0000 0.46149  0.28310  0.54393  Biso   1.000  He
  Ne310    1.0000 0.44702  0.28830  0.51638  Biso   1.000  Ne
  Ne311    1.0000 0.10469  0.82516  0.93737  Biso   1.000  Ne
  He311    1.0000 0.11011  0.79190  0.94342  Biso   1.000  He
  He312    1.0000 0.11463  0.77613  0.91729  Biso   1.000  He
  Ne312    1.0000 0.14566  0.76648  0.90938  Biso   1.000  Ne
  Ne313    1.0000 0.62474  0.34873  0.91151  Biso   1.000  Ne
  He313    1.0000 0.62983  0.32199  0.93217  Biso   1.000  He
  He314    1.0000 0.60382  0.30476  0.94108  Biso   1.000  He
  Ne314    1.0000 0.61160  0.28287  0.96583  Biso   1.000  Ne
  Ne315    1.0000 0.29644  0.35226  0.11796  Biso   1.000  Ne
  He315    1.0000 0.32884  0.36264  0.11565  Biso   1.000  He
  He316    1.0000 0.33383  0.39485  0.11663  Biso   1.000  He
  Ne316    1.0000 0.36573  0.40360  0.11255  Biso   1.000  Ne
  Ne317    1.0000 0.93944  0.10770  0.29316  Biso   1.000  Ne
  He317    1.0000 0.94436  0.07687  0.30974  Biso   1.000  He
  He318    1.0000 0.95964  0.08186  0.33847  Biso   1.000  He
  Ne318    1.0000 0.96789  0.05271  0.35296  Biso   1.000  Ne
  Ne319    1.0000 0.24102  0.65692  0.63564  Biso   1.000  Ne
  He319    1.0000 0.24758  0.62670  0.64285  Biso   1.000  He
  He320    1.0000 0.27897  0.61594  0.63869  Biso   1.000  He
  Ne320    1.0000 0.28100  0.58372  0.64318  Biso   1.000  Ne
  Ne321    1.0000 0.77187  0.57048  0.61779  Biso   1.000  Ne
  He321    1.0000 0.74256  0.56565  0.60180  Biso   1.000  He
  He322    1.0000 0.73002  0.59231  0.58594  Biso   1.000  He
  Ne322    1.0000 0.69964  0.58651  0.56958  Biso   1.000  Ne
  Ne323    1.0000 0.40116  0.76963  0.70023  Biso   1.000  Ne
  He323    1.0000 0.39824  0.80059  0.71145  Biso   1.000  He
  He324    1.0000 0.41224  0.82408  0.69405  Biso   1.000  He
  Ne324    1.0000 0.40742  0.85326  0.70581  Biso   1.000  Ne
  Ne325    1.0000 0.85283  0.93270  0.29785  Biso   1.000  Ne
  He325    1.0000 0.83496  0.92196  0.27614  Biso   1.000  He
  He326    1.0000 0.80764  0.90625  0.28772  Biso   1.000  He
  Ne326    1.0000 0.78644  0.90193  0.26296  Biso   1.000  Ne
  Ne327    1.0000 0.68751  0.73692  0.47947  Biso   1.000  Ne
  He327    1.0000 0.70149  0.76180  0.46164  Biso   1.000  He
  He328    1.0000 0.71491  0.74740  0.43483  Biso   1.000  He
  Ne328    1.0000 0.72647  0.76675  0.41069  Biso   1.000  Ne
  Ne329    1.0000 0.45605  0.90882  0.83497  Biso   1.000  Ne
  He329    1.0000 0.47571  0.93509  0.82996  Biso   1.000  He
  He330    1.0000 0.48448  0.95064  0.85903  Biso   1.000  He
  Ne330    1.0000 0.50087  0.97939  0.85515  Biso   1.000  Ne
  Ne331    1.0000 0.01658  0.07403  0.73926  Biso   1.000  Ne
  He331    1.0000 0.99652  0.10098  0.74771  Biso   1.000  He
  He332    1.0000 0.96372  0.10007  0.74186  Biso   1.000  He
  Ne332    1.0000 0.95029  0.12813  0.75275  Biso   1.000  Ne
  Ne333    1.0000 0.02220  0.85126  0.71646  Biso   1.000  Ne
  He333    1.0000 0.04244  0.82521  0.71304  Biso   1.000  He
  He334    1.0000 0.03063  0.80545  0.69177  Biso   1.000  He
  Ne334    1.0000 0.05182  0.78080  0.68770  Biso   1.000  Ne
  Ne335    1.0000 0.37961  0.17754  0.78591  Biso   1.000  Ne
  He335    1.0000 0.35998  0.20227  0.77882  Biso   1.000  He
  He336    1.0000 0.32760  0.19511  0.78619  Biso   1.000  He
  Ne336    1.0000 0.30850  0.21754  0.77126  Biso   1.000  Ne
  Ne337    1.0000 0.26433  0.05508  0.64229  Biso   1.000  Ne
  He337    1.0000 0.28741  0.07852  0.63350  Biso   1.000  He
  He338    1.0000 0.31380  0.06878  0.61474  Biso   1.000  He
  Ne338    1.0000 0.33120  0.09433  0.60980  Biso   1.000  Ne
  Ne339    1.0000 0.71738  0.80753  0.69984  Biso   1.000  Ne
  He339    1.0000 0.73842  0.80526  0.72508  Biso   1.000  He
  He340    1.0000 0.76111  0.78253  0.72190  Biso   1.000  He
  Ne340    1.0000 0.78177  0.78653  0.74782  Biso   1.000  Ne
  Ne341    1.0000 0.63437  0.12091  0.91934  Biso   1.000  Ne
  He341    1.0000 0.66011  0.13975  0.90933  Biso   1.000  He
  He342    1.0000 0.68124  0.15057  0.93290  Biso   1.000  He
  Ne342    1.0000 0.69976  0.17715  0.92353  Biso   1.000  Ne
  Ne343    1.0000 0.07679  0.36255  0.76752  Biso   1.000  Ne
  He343    1.0000 0.08092  0.38857  0.74333  Biso   1.000  He
  He344    1.0000 0.11407  0.38861  0.73335  Biso   1.000  He
  Ne344    1.0000 0.11834  0.41427  0.71381  Biso   1.000  Ne
  Ne345    1.0000 0.24569  0.53169  0.96943  Biso   1.000  Ne
  He345    1.0000 0.22640  0.51922  0.99267  Biso   1.000  He
  He346    1.0000 0.23687  0.52791  0.02441  Biso   1.000  He
  Ne346    1.0000 0.21939  0.51183  0.04444  Biso   1.000  Ne
  Ne347    1.0000 0.75641  0.57061  0.15961  Biso   1.000  Ne
  He347    1.0000 0.77270  0.54325  0.15584  Biso   1.000  He
  He348    1.0000 0.78210  0.53976  0.12387  Biso   1.000  He
  Ne348    1.0000 0.79936  0.51350  0.11784  Biso   1.000  Ne
  Ne349    1.0000 0.43699  0.09648  0.41889  Biso   1.000  Ne
  He349    1.0000 0.42988  0.12645  0.42434  Biso   1.000  He
  He350    1.0000 0.42880  0.13245  0.45717  Biso   1.000  He
  Ne350    1.0000 0.41577  0.16192  0.46449  Biso   1.000  Ne
  Ne351    1.0000 0.76881  0.82355  0.61221  Biso   1.000  Ne
  He351    1.0000 0.78402  0.79885  0.62623  Biso   1.000  He
  He352    1.0000 0.77018  0.76965  0.63192  Biso   1.000  He
  Ne352    1.0000 0.78701  0.74948  0.65284  Biso   1.000  Ne
  Ne353    1.0000 0.51256  0.33766  0.37718  Biso   1.000  Ne
  He353    1.0000 0.53710  0.34173  0.40061  Biso   1.000  He
  He354    1.0000 0.56584  0.33986  0.38411  Biso   1.000  He
  Ne354    1.0000 0.58882  0.35116  0.40394  Biso   1.000  Ne
  Ne355    1.0000 0.07392  0.53185  0.81932  Biso   1.000  Ne
  He355    1.0000 0.04389  0.54484  0.81688  Biso   1.000  He
  He356    1.0000 0.02150  0.52183  0.81770  Biso   1.000  He
  Ne356    1.0000 0.99186  0.53482  0.81878  Biso   1.000  Ne
  Ne357    1.0000 0.33595  0.68058  0.96659  Biso   1.000  Ne
  He357    1.0000 0.30717  0.67148  0.96734  Biso   1.000  He
  He358    1.0000 0.30500  0.63852  0.96283  Biso   1.000  He
  Ne358    1.0000 0.27372  0.62779  0.96636  Biso   1.000  Ne
  Ne359    1.0000 0.96946  0.55003  0.16612  Biso   1.000  Ne
  He359    1.0000 0.98769  0.53336  0.14379  Biso   1.000  He
  He360    1.0000 0.98159  0.50252  0.14021  Biso   1.000  He
  Ne360    1.0000 0.99037  0.48367  0.11432  Biso   1.000  Ne
  Ne361    1.0000 0.87662  0.99588  0.46298  Biso   1.000  Ne
  He361    1.0000 0.90678  0.99029  0.47379  Biso   1.000  He
  He362    1.0000 0.90686  0.97684  0.50201  Biso   1.000  He
  Ne362    1.0000 0.93701  0.96446  0.50874  Biso   1.000  Ne
  Ne363    1.0000 0.11121  0.87165  0.58833  Biso   1.000  Ne
  He363    1.0000 0.12846  0.85656  0.61138  Biso   1.000  He
  He364    1.0000 0.11023  0.85084  0.63494  Biso   1.000  He
  Ne364    1.0000 0.12565  0.83129  0.65832  Biso   1.000  Ne
  Ne365    1.0000 0.68006  0.44078  0.53072  Biso   1.000  Ne
  He365    1.0000 0.69720  0.46842  0.52241  Biso   1.000  He
  He366    1.0000 0.70380  0.48679  0.54800  Biso   1.000  He
  Ne366    1.0000 0.72077  0.51563  0.53896  Biso   1.000  Ne
  Ne367    1.0000 0.71349  0.92944  0.44069  Biso   1.000  Ne
  He367    1.0000 0.70434  0.89923  0.44292  Biso   1.000  He
  He368    1.0000 0.72154  0.87780  0.42644  Biso   1.000  He
  Ne368    1.0000 0.71275  0.84620  0.43046  Biso   1.000  Ne
  Ne369    1.0000 0.36340  0.27007  0.58603  Biso   1.000  Ne
  He369    1.0000 0.34439  0.29419  0.57425  Biso   1.000  He
  He370    1.0000 0.32881  0.28785  0.54387  Biso   1.000  He
  Ne370    1.0000 0.31335  0.31425  0.53273  Biso   1.000  Ne
  Ne371    1.0000 0.64041  0.22859  0.63225  Biso   1.000  Ne
  He371    1.0000 0.61412  0.25079  0.64141  Biso   1.000  He
  He372    1.0000 0.58586  0.24679  0.62559  Biso   1.000  He
  Ne372    1.0000 0.56157  0.26674  0.63432  Biso   1.000  Ne
  Ne373    1.0000 0.43757  0.92894  0.35527  Biso   1.000  Ne
  He373    1.0000 0.40847  0.91964  0.36328  Biso   1.000  He
  He374    1.0000 0.38723  0.91000  0.33765  Biso   1.000  He
  Ne374    1.0000 0.35910  0.89582  0.34764  Biso   1.000  Ne
  Ne375    1.0000 0.42949  0.62288  0.86890  Biso   1.000  Ne
  He375    1.0000 0.42408  0.60370  0.84068  Biso   1.000  He
  He376    1.0000 0.41837  0.57114  0.84808  Biso   1.000  He
  Ne376    1.0000 0.40407  0.55107  0.81962  Biso   1.000  Ne
  Ne377    1.0000 0.91743  0.18035  0.89462  Biso   1.000  Ne
  He377    1.0000 0.90829  0.15584  0.91411  Biso   1.000  He
  He378    1.0000 0.92413  0.15587  0.94206  Biso   1.000  He
  Ne378    1.0000 0.91291  0.13077  0.96039  Biso   1.000  Ne
  Ne379    1.0000 0.60292  0.04430  0.80469  Biso   1.000  Ne
  He379    1.0000 0.61922  0.05731  0.77898  Biso   1.000  He
  He380    1.0000 0.59996  0.06596  0.75250  Biso   1.000  He
  Ne380    1.0000 0.61924  0.07698  0.72706  Biso   1.000  Ne
  Ne381    1.0000 0.62206  0.58576  0.53476  Biso   1.000  Ne
  He381    1.0000 0.63402  0.61471  0.52763  Biso   1.000  He
  He382    1.0000 0.63474  0.61782  0.49371  Biso   1.000  He
  Ne382    1.0000 0.64043  0.64952  0.48312  Biso   1.000  Ne
  Ne383    1.0000 0.74030  0.39126  0.32765  Biso   1.000  Ne
  He383    1.0000 0.71861  0.41008  0.34409  Biso   1.000  He
  He384    1.0000 0.71618  0.40329  0.37541  Biso   1.000  He
  Ne384    1.0000 0.68634  0.41082  0.38713  Biso   1.000  Ne
  Ne385    1.0000 0.91188  0.05710  0.77619  Biso   1.000  Ne
  He385    1.0000 0.92728  0.06147  0.80416  Biso   1.000  He
  He386    1.0000 0.90719  0.07043  0.82858  Biso   1.000  He
  Ne386    1.0000 0.92349  0.07585  0.85646  Biso   1.000  Ne
  Ne387    1.0000 0.89193  0.57280  0.11552  Biso   1.000  Ne
  He387    1.0000 0.87689  0.55824  0.14170  Biso   1.000  He
  He388    1.0000 0.85588  0.57880  0.15988  Biso   1.000  He
  Ne388    1.0000 0.84234  0.56031  0.18365  Biso   1.000  Ne
  Ne389    1.0000 0.77997  0.43295  0.62029  Biso   1.000  Ne
  He389    1.0000 0.79942  0.41071  0.63455  Biso   1.000  He
  He390    1.0000 0.83066  0.41571  0.63230  Biso   1.000  He
  Ne390    1.0000 0.85181  0.39198  0.64793  Biso   1.000  Ne
  Ne391    1.0000 0.68451  0.26046  0.97782  Biso   1.000  Ne
  He391    1.0000 0.71216  0.26964  0.96184  Biso   1.000  He
  He392    1.0000 0.70357  0.28198  0.93136  Biso   1.000  He
  Ne392    1.0000 0.72702  0.29836  0.91243  Biso   1.000  Ne
  Ne393    1.0000 0.20866  0.25621  0.80748  Biso   1.000  Ne
  He393    1.0000 0.21989  0.24079  0.83467  Biso   1.000  He
  He394    1.0000 0.25366  0.23440  0.83488  Biso   1.000  He
  Ne394    1.0000 0.26297  0.20843  0.85532  Biso   1.000  Ne
  Ne395    1.0000 0.85097  0.86397  0.77443  Biso   1.000  Ne
  He395    1.0000 0.87329  0.83697  0.77466  Biso   1.000  He
  He396    1.0000 0.89879  0.84343  0.79423  Biso   1.000  He
  Ne396    1.0000 0.92321  0.82131  0.79518  Biso   1.000  Ne
  Ne397    1.0000 0.45061  0.55873  0.01419  Biso   1.000  Ne
  He397    1.0000 0.46667  0.53139  0.00607  Biso   1.000  He
  He398    1.0000 0.49923  0.53179  0.00025  Biso   1.000  He
  Ne398    1.0000 0.51363  0.50117  0.99495  Biso   1.000  Ne
  Ne399    1.0000 0.35435  0.46123  0.40743  Biso   1.000  Ne
  He399    1.0000 0.33438  0.46248  0.43635  Biso   1.000  He
  He400    1.0000 0.31827  0.49060  0.44750  Biso   1.000  He
  Ne400    1.0000 0.30097  0.48765  0.47328  Biso   1.000  Ne
  Ne401    1.0000 0.34630  0.18618  0.35218  Biso   1.000  Ne
  He401    1.0000 0.37508  0.19548  0.37027  Biso   1.000  He
  He402    1.0000 0.40349  0.18900  0.35550  Biso   1.000  He
  Ne402    1.0000 0.42847  0.20181  0.37124  Biso   1.000  Ne
  Ne403    1.0000 0.82825  0.84738  0.20086  Biso   1.000  Ne
  He403    1.0000 0.81579  0.81952  0.21484  Biso   1.000  He
  He404    1.0000 0.78715  0.82494  0.23329  Biso   1.000  He
  Ne404    1.0000 0.77987  0.79885  0.25092  Biso   1.000  Ne
  Ne405    1.0000 0.98804  0.07953  0.01027  Biso   1.000  Ne
  He405    1.0000 0.98619  0.06221  0.98203  Biso   1.000  He
  He406    1.0000 0.95464  0.05717  0.97051  Biso   1.000  He
  Ne406    1.0000 0.95297  0.04148  0.93974  Biso   1.000  Ne
  Ne407    1.0000 0.35289  0.37787  0.49257  Biso   1.000  Ne
  He407    1.0000 0.32189  0.38220  0.47939  Biso   1.000  He
  He408    1.0000 0.30040  0.40636  0.49036  Biso   1.000  He
  Ne408    1.0000 0.27069  0.40927  0.47418  Biso   1.000  Ne
  Ne409    1.0000 0.39190  0.94594  0.25722  Biso   1.000  Ne
  He409    1.0000 0.39070  0.92729  0.23233  Biso   1.000  He
  He410    1.0000 0.36618  0.93380  0.21073  Biso   1.000  He
  Ne410    1.0000 0.36395  0.91101  0.18497  Biso   1.000  Ne
  Ne411    1.0000 0.73998  0.30861  0.47713  Biso   1.000  Ne
  He411    1.0000 0.71526  0.33164  0.46927  Biso   1.000  He
  He412    1.0000 0.68400  0.32493  0.48044  Biso   1.000  He
  Ne412    1.0000 0.67428  0.34092  0.50681  Biso   1.000  Ne
  Ne413    1.0000 0.02593  0.02072  0.12607  Biso   1.000  Ne
  He413    1.0000 0.04130  0.03665  0.10262  Biso   1.000  He
  He414    1.0000 0.03386  0.06877  0.10318  Biso   1.000  He
  Ne414    1.0000 0.05418  0.08684  0.08597  Biso   1.000  Ne
  Ne415    1.0000 0.08029  0.51048  0.12471  Biso   1.000  Ne
  He415    1.0000 0.08006  0.47589  0.13373  Biso   1.000  He
  He416    1.0000 0.09878  0.45797  0.11630  Biso   1.000  He
  Ne416    1.0000 0.09784  0.42537  0.12345  Biso   1.000  Ne
  Ne417    1.0000 0.48803  0.51849  0.49058  Biso   1.000  Ne
  He417    1.0000 0.51026  0.53299  0.51304  Biso   1.000  He
  He418    1.0000 0.50736  0.56653  0.51448  Biso   1.000  He
  Ne418    1.0000 0.53083  0.58547  0.53575  Biso   1.000  Ne
  Ne419    1.0000 0.16452  0.72708  0.13353  Biso   1.000  Ne
  He419    1.0000 0.14150  0.71960  0.11589  Biso   1.000  He
  He420    1.0000 0.11314  0.73266  0.12509  Biso   1.000  He
  Ne420    1.0000 0.08643  0.72418  0.10980  Biso   1.000  Ne
  Ne421    1.0000 0.69865  0.29040  0.19328  Biso   1.000  Ne
  He421    1.0000 0.73110  0.29972  0.18430  Biso   1.000  He
  He422    1.0000 0.73608  0.29208  0.15043  Biso   1.000  He
  Ne422    1.0000 0.76539  0.30048  0.13953  Biso   1.000  Ne
  Ne423    1.0000 0.15106  0.32250  0.65932  Biso   1.000  Ne
  He423    1.0000 0.16318  0.30262  0.63465  Biso   1.000  He
  He424    1.0000 0.17314  0.27205  0.64213  Biso   1.000  He
  Ne424    1.0000 0.18727  0.25707  0.61705  Biso   1.000  Ne
  Ne425    1.0000 0.64050  0.53716  0.45367  Biso   1.000  Ne
  He425    1.0000 0.63544  0.50415  0.46771  Biso   1.000  He
  He426    1.0000 0.64494  0.47961  0.44778  Biso   1.000  He
  Ne426    1.0000 0.64444  0.44611  0.45732  Biso   1.000  Ne
  Ne427    1.0000 0.27277  0.54119  0.83245  Biso   1.000  Ne
  He427    1.0000 0.24148  0.53445  0.82584  Biso   1.000  He
  He428    1.0000 0.23286  0.54811  0.79615  Biso   1.000  He
  Ne428    1.0000 0.20212  0.54290  0.78808  Biso   1.000  Ne
  Ne429    1.0000 0.89155  0.01808  0.60741  Biso   1.000  Ne
  He429    1.0000 0.89555  0.04433  0.58303  Biso   1.000  He
  He430    1.0000 0.87206  0.06696  0.58463  Biso   1.000  He
  Ne430    1.0000 0.87929  0.09012  0.56302  Biso   1.000  Ne
  Ne431    1.0000 0.46688  0.42639  0.99809  Biso   1.000  Ne
  He431    1.0000 0.44013  0.41509  0.99023  Biso   1.000  He
  He432    1.0000 0.42723  0.43196  0.96305  Biso   1.000  He
  Ne432    1.0000 0.39897  0.42181  0.95279  Biso   1.000  Ne
  Ne433    1.0000 0.13322  0.05739  0.29178  Biso   1.000  Ne
  He433    1.0000 0.12488  0.07212  0.26504  Biso   1.000  He
  He434    1.0000 0.09598  0.06522  0.25211  Biso   1.000  He
  Ne434    1.0000 0.08990  0.08411  0.22371  Biso   1.000  Ne
  Ne435    1.0000 0.52871  0.98317  0.47118  Biso   1.000  Ne
  He435    1.0000 0.54420  0.96364  0.49722  Biso   1.000  He
  He436    1.0000 0.55586  0.93257  0.49386  Biso   1.000  He
  Ne436    1.0000 0.57323  0.92355  0.51952  Biso   1.000  Ne
  Ne437    1.0000 0.88232  0.07640  0.43591  Biso   1.000  Ne
  He437    1.0000 0.88331  0.07703  0.40253  Biso   1.000  He
  He438    1.0000 0.86983  0.04692  0.39265  Biso   1.000  He
  Ne438    1.0000 0.88514  0.03377  0.36509  Biso   1.000  Ne
  Ne439    1.0000 0.12884  0.85481  0.11726  Biso   1.000  Ne
  He439    1.0000 0.14841  0.87445  0.13594  Biso   1.000  He
  He440    1.0000 0.14989  0.90620  0.12269  Biso   1.000  He
  Ne440    1.0000 0.17597  0.92645  0.13030  Biso   1.000  Ne
  Ne441    1.0000 0.03474  0.99481  0.95885  Biso   1.000  Ne
  He441    1.0000 0.05665  0.00739  0.98166  Biso   1.000  He
  He442    1.0000 0.04175  0.01431  0.01030  Biso   1.000  He
  Ne442    1.0000 0.06433  0.02854  0.03080  Biso   1.000  Ne
  Ne443    1.0000 0.34452  0.77541  0.92308  Biso   1.000  Ne
  He443    1.0000 0.31878  0.79679  0.92740  Biso   1.000  He
  He444    1.0000 0.32288  0.81386  0.95356  Biso   1.000  He
  Ne444    1.0000 0.29485  0.83064  0.96663  Biso   1.000  Ne
  Ne445    1.0000 0.58698  0.40207  0.65748  Biso   1.000  Ne
  He445    1.0000 0.59200  0.37863  0.68147  Biso   1.000  He
  He446    1.0000 0.61128  0.35355  0.67173  Biso   1.000  He
  Ne446    1.0000 0.61973  0.33124  0.69613  Biso   1.000  Ne
  Ne447    1.0000 0.17985  0.22683  0.38595  Biso   1.000  Ne
  He447    1.0000 0.18365  0.20150  0.40912  Biso   1.000  He
  He448    1.0000 0.19480  0.20817  0.44011  Biso   1.000  He
  Ne448    1.0000 0.20487  0.18218  0.45722  Biso   1.000  Ne
  Ne449    1.0000 0.36056  0.95385  0.94521  Biso   1.000  Ne
  He449    1.0000 0.35825  0.98122  0.96152  Biso   1.000  He
  He450    1.0000 0.38548  0.00286  0.95885  Biso   1.000  He
  Ne450    1.0000 0.38065  0.02795  0.93477  Biso   1.000  Ne
  Ne451    1.0000 0.09007  0.43800  0.79963  Biso   1.000  Ne
  He451    1.0000 0.11694  0.42702  0.81521  Biso   1.000  He
  He452    1.0000 0.14438  0.44262  0.80593  Biso   1.000  He
  Ne452    1.0000 0.16856  0.44013  0.82931  Biso   1.000  Ne
  Ne453    1.0000 0.44899  0.29391  0.41460  Biso   1.000  Ne
  He453    1.0000 0.43571  0.28616  0.38552  Biso   1.000  He
  He454    1.0000 0.44042  0.30994  0.36040  Biso   1.000  He
  Ne454    1.0000 0.42694  0.30070  0.33291  Biso   1.000  Ne
  Ne455    1.0000 0.84715  0.24951  0.85484  Biso   1.000  Ne
  He455    1.0000 0.87407  0.24695  0.83427  Biso   1.000  He
  He456    1.0000 0.86528  0.23364  0.80285  Biso   1.000  He
  Ne456    1.0000 0.88779  0.23338  0.78033  Biso   1.000  Ne
  Ne457    1.0000 0.93415  0.18071  0.69460  Biso   1.000  Ne
  He457    1.0000 0.92993  0.19979  0.66754  Biso   1.000  He
  He458    1.0000 0.90631  0.18986  0.64866  Biso   1.000  He
  Ne458    1.0000 0.89672  0.21211  0.62406  Biso   1.000  Ne
  Ne459    1.0000 0.71319  0.00476  0.09219  Biso   1.000  Ne
  He459    1.0000 0.72042  0.97229  0.08585  Biso   1.000  He
  He460    1.0000 0.75192  0.96474  0.08249  Biso   1.000  He
  Ne460    1.0000 0.76395  0.94513  0.10543  Biso   1.000  Ne
  Ne461    1.0000 0.72624  0.97804  0.18876  Biso   1.000  Ne
  He461    1.0000 0.74451  0.95097  0.18840  Biso   1.000  He
  He462    1.0000 0.72721  0.92224  0.18780  Biso   1.000  He
  Ne462    1.0000 0.74766  0.89768  0.18379  Biso   1.000  Ne
  Ne463    1.0000 0.86399  0.32135  0.23703  Biso   1.000  Ne
  He463    1.0000 0.89040  0.33720  0.22437  Biso   1.000  He
  He464    1.0000 0.91598  0.33275  0.24577  Biso   1.000  He
  Ne464    1.0000 0.94238  0.34842  0.23401  Biso   1.000  Ne
  Ne465    1.0000 0.32843  0.22159  0.05376  Biso   1.000  Ne
  He465    1.0000 0.34141  0.23350  0.08323  Biso   1.000  He
  He466    1.0000 0.32300  0.25655  0.09772  Biso   1.000  He
  Ne466    1.0000 0.32226  0.28516  0.08406  Biso   1.000  Ne
  Ne467    1.0000 0.43070  0.95898  0.45272  Biso   1.000  Ne
  He467    1.0000 0.44218  0.93154  0.47028  Biso   1.000  He
  He468    1.0000 0.45890  0.90880  0.45307  Biso   1.000  He
  Ne468    1.0000 0.46992  0.88148  0.46844  Biso   1.000  Ne
  Ne469    1.0000 0.19980  0.74722  0.60576  Biso   1.000  Ne
  He469    1.0000 0.19315  0.73625  0.63482  Biso   1.000  He
  He470    1.0000 0.18890  0.75817  0.66152  Biso   1.000  He
  Ne470    1.0000 0.17288  0.74610  0.68842  Biso   1.000  Ne
  Ne471    1.0000 0.09714  0.46739  0.59308  Biso   1.000  Ne
  He471    1.0000 0.08174  0.44067  0.59918  Biso   1.000  He
  He472    1.0000 0.08137  0.43582  0.62930  Biso   1.000  He
  Ne472    1.0000 0.07114  0.40542  0.63993  Biso   1.000  Ne
  Ne473    1.0000 0.12503  0.74769  0.37498  Biso   1.000  Ne
  He473    1.0000 0.09793  0.74001  0.35789  Biso   1.000  He
  He474    1.0000 0.10375  0.71358  0.33693  Biso   1.000  He
  Ne474    1.0000 0.11808  0.72392  0.30941  Biso   1.000  Ne
  Ne475    1.0000 0.35744  0.00486  0.83549  Biso   1.000  Ne
  He475    1.0000 0.37374  0.99255  0.86274  Biso   1.000  He
  He476    1.0000 0.39527  0.96702  0.85266  Biso   1.000  He
  Ne476    1.0000 0.38141  0.93583  0.85508  Biso   1.000  Ne
  Ne477    1.0000 0.32808  0.92917  0.09234  Biso   1.000  Ne
  He477    1.0000 0.31419  0.92435  0.12249  Biso   1.000  He
  He478    1.0000 0.28074  0.92214  0.12157  Biso   1.000  He
  Ne478    1.0000 0.26877  0.91965  0.15158  Biso   1.000  Ne
  Ne479    1.0000 0.13141  0.38132  0.90312  Biso   1.000  Ne
  He479    1.0000 0.13070  0.36229  0.87561  Biso   1.000  He
  He480    1.0000 0.15940  0.35417  0.86194  Biso   1.000  He
  Ne480    1.0000 0.15773  0.33969  0.83189  Biso   1.000  Ne
  Ne481    1.0000 0.71107  0.06790  0.29176  Biso   1.000  Ne
  He481    1.0000 0.71216  0.08873  0.31562  Biso   1.000  He
  He482    1.0000 0.74305  0.10383  0.31959  Biso   1.000  He
  Ne482    1.0000 0.74123  0.12937  0.34017  Biso   1.000  Ne
  Ne483    1.0000 0.83558  0.90259  0.87373  Biso   1.000  Ne
  He483    1.0000 0.86878  0.89751  0.87973  Biso   1.000  He
  He484    1.0000 0.88464  0.89195  0.85361  Biso   1.000  He
  Ne484    1.0000 0.91358  0.88263  0.85810  Biso   1.000  Ne
  Ne485    1.0000 0.38641  0.72303  0.43097  Biso   1.000  Ne
  He485    1.0000 0.37407  0.74913  0.41352  Biso   1.000  He
  He486    1.0000 0.35293  0.76975  0.43157  Biso   1.000  He
  Ne486    1.0000 0.34094  0.79558  0.41361  Biso   1.000  Ne
  Ne487    1.0000 0.65623  0.61154  0.39760  Biso   1.000  Ne
  He487    1.0000 0.67464  0.58735  0.38297  Biso   1.000  He
  He488    1.0000 0.70623  0.59596  0.38523  Biso   1.000  He
  Ne488    1.0000 0.72627  0.58824  0.35994  Biso   1.000  Ne
  Ne489    1.0000 0.48706  0.14342  0.84701  Biso   1.000  Ne
  He489    1.0000 0.49242  0.11675  0.86571  Biso   1.000  He
  He490    1.0000 0.49819  0.08900  0.84764  Biso   1.000  He
  Ne490    1.0000 0.49695  0.05930  0.86774  Biso   1.000  Ne
  Ne491    1.0000 0.85122  0.14703  0.85152  Biso   1.000  Ne
  He491    1.0000 0.81962  0.14963  0.85275  Biso   1.000  He
  He492    1.0000 0.80885  0.17096  0.82725  Biso   1.000  He
  Ne492    1.0000 0.77841  0.17987  0.82270  Biso   1.000  Ne
  Ne493    1.0000 0.88011  0.68843  0.03757  Biso   1.000  Ne
  He493    1.0000 0.90416  0.68595  0.06078  Biso   1.000  He
  He494    1.0000 0.89587  0.66959  0.08832  Biso   1.000  He
  Ne494    1.0000 0.92005  0.66003  0.10470  Biso   1.000  Ne
  Ne495    1.0000 0.20926  0.21056  0.17215  Biso   1.000  Ne
  He495    1.0000 0.19327  0.21575  0.14321  Biso   1.000  He
  He496    1.0000 0.19217  0.19022  0.12329  Biso   1.000  He
  Ne496    1.0000 0.17181  0.19663  0.09760  Biso   1.000  Ne
  Ne497    1.0000 0.38006  0.87756  0.92604  Biso   1.000  Ne
  He497    1.0000 0.39255  0.86463  0.95392  Biso   1.000  He
  He498    1.0000 0.40994  0.88431  0.97450  Biso   1.000  He
  Ne498    1.0000 0.41899  0.87009  0.00275  Biso   1.000  Ne
  Ne499    1.0000 0.01434  0.18713  0.56716  Biso   1.000  Ne
  He499    1.0000 0.03928  0.19536  0.58395  Biso   1.000  He
  He500    1.0000 0.06759  0.18405  0.57178  Biso   1.000  He
  Ne500    1.0000 0.09570  0.19580  0.58607  Biso   1.000  Ne
  Ne501    1.0000 0.27667  0.21509  0.38032  Biso   1.000  Ne
  He501    1.0000 0.27232  0.24400  0.39670  Biso   1.000  He
  He502    1.0000 0.29676  0.26540  0.39238  Biso   1.000  He
  Ne502    1.0000 0.29675  0.29102  0.41440  Biso   1.000  Ne
  Ne503    1.0000 0.41627  0.45498  0.06568  Biso   1.000  Ne
  He503    1.0000 0.44519  0.46892  0.06376  Biso   1.000  He
  He504    1.0000 0.46207  0.47088  0.09342  Biso   1.000  He
  Ne504    1.0000 0.49422  0.48028  0.09084  Biso   1.000  Ne
  Ne505    1.0000 0.98514  0.30998  0.08378  Biso   1.000  Ne
  He505    1.0000 0.96443  0.30101  0.10719  Biso   1.000  He
  He506    1.0000 0.96429  0.31659  0.13698  Biso   1.000  He
  Ne506    1.0000 0.93970  0.31147  0.15869  Biso   1.000  Ne
  Ne507    1.0000 0.12265  0.64574  0.30981  Biso   1.000  Ne
  He507    1.0000 0.12598  0.61689  0.32724  Biso   1.000  He
  He508    1.0000 0.10156  0.59707  0.31757  Biso   1.000  He
  Ne508    1.0000 0.09899  0.57042  0.33492  Biso   1.000  Ne
  Ne509    1.0000 0.66705  0.32967  0.13010  Biso   1.000  Ne
  He509    1.0000 0.63418  0.33798  0.13871  Biso   1.000  He
  He510    1.0000 0.61479  0.31246  0.13728  Biso   1.000  He
  Ne510    1.0000 0.58347  0.32099  0.14029  Biso   1.000  Ne
  Ne511    1.0000 0.33042  0.40245  0.58569  Biso   1.000  Ne
  He511    1.0000 0.32725  0.43617  0.59506  Biso   1.000  He
  He512    1.0000 0.32334  0.45665  0.56781  Biso   1.000  He
  Ne512    1.0000 0.31908  0.48686  0.57555  Biso   1.000  Ne
  Ne513    1.0000 0.78522  0.66687  0.14543  Biso   1.000  Ne
  He513    1.0000 0.76434  0.67495  0.16940  Biso   1.000  He
  He514    1.0000 0.73223  0.66283  0.16732  Biso   1.000  He
  Ne514    1.0000 0.71078  0.67267  0.18737  Biso   1.000  Ne
  Ne515    1.0000 0.27860  0.58100  0.27870  Biso   1.000  Ne
  He515    1.0000 0.28931  0.55381  0.29725  Biso   1.000  He
  He516    1.0000 0.31866  0.54100  0.29066  Biso   1.000  He
  Ne516    1.0000 0.32624  0.51766  0.31276  Biso   1.000  Ne
  Ne517    1.0000 0.17575  0.11851  0.16379  Biso   1.000  Ne
  He517    1.0000 0.17078  0.09193  0.14169  Biso   1.000  He
  He518    1.0000 0.13982  0.08629  0.14214  Biso   1.000  He
  Ne518    1.0000 0.12882  0.06672  0.11590  Biso   1.000  Ne
  Ne519    1.0000 0.21693  0.46162  0.12466  Biso   1.000  Ne
  He519    1.0000 0.19074  0.47760  0.11326  Biso   1.000  He
  He520    1.0000 0.18531  0.51007  0.11772  Biso   1.000  He
  Ne520    1.0000 0.15708  0.51979  0.10339  Biso   1.000  Ne
  Ne521    1.0000 0.90633  0.22317  0.40280  Biso   1.000  Ne
  He521    1.0000 0.90512  0.25202  0.42030  Biso   1.000  He
  He522    1.0000 0.90724  0.28120  0.40544  Biso   1.000  He
  Ne522    1.0000 0.90805  0.30776  0.42357  Biso   1.000  Ne
  Ne523    1.0000 0.12305  0.80999  0.18719  Biso   1.000  Ne
  He523    1.0000 0.13873  0.78436  0.19971  Biso   1.000  He
  He524    1.0000 0.16419  0.79504  0.21986  Biso   1.000  He
  Ne524    1.0000 0.18293  0.77358  0.23771  Biso   1.000  Ne
  Ne525    1.0000 0.55275  0.20999  0.18985  Biso   1.000  Ne
  He525    1.0000 0.56846  0.22007  0.16061  Biso   1.000  He
  He526    1.0000 0.59977  0.20639  0.15696  Biso   1.000  He
  Ne526    1.0000 0.61217  0.21961  0.12992  Biso   1.000  Ne
  Ne527    1.0000 0.88654  0.34802  0.03263  Biso   1.000  Ne
  He527    1.0000 0.89496  0.32162  0.05124  Biso   1.000  He
  He528    1.0000 0.86963  0.30238  0.06426  Biso   1.000  He
  Ne528    1.0000 0.87855  0.27852  0.08717  Biso   1.000  Ne
  Ne529    1.0000 0.94569  0.80059  0.36969  Biso   1.000  Ne
  He529    1.0000 0.97431  0.78649  0.37150  Biso   1.000  He
  He530    1.0000 0.00118  0.80679  0.37895  Biso   1.000  He
  Ne530    1.0000 0.02969  0.79100  0.37072  Biso   1.000  Ne
  Ne531    1.0000 0.59011  0.57725  0.17924  Biso   1.000  Ne
  He531    1.0000 0.58467  0.60813  0.18938  Biso   1.000  He
  He532    1.0000 0.60776  0.62119  0.20847  Biso   1.000  He
  Ne532    1.0000 0.60742  0.65325  0.21541  Biso   1.000  Ne
  Ne533    1.0000 0.01202  0.35293  0.83044  Biso   1.000  Ne
  He533    1.0000 0.98701  0.35018  0.85128  Biso   1.000  He
  He534    1.0000 0.99270  0.34455  0.88553  Biso   1.000  He
  Ne534    1.0000 0.96520  0.35377  0.90199  Biso   1.000  Ne
  Ne535    1.0000 0.71637  0.42174  0.46451  Biso   1.000  Ne
  He535    1.0000 0.74761  0.41915  0.47606  Biso   1.000  He
  He536    1.0000 0.76696  0.41503  0.45126  Biso   1.000  He
  Ne536    1.0000 0.80009  0.41182  0.45967  Biso   1.000  Ne
  Ne537    1.0000 0.45765  0.78676  0.02949  Biso   1.000  Ne
  He537    1.0000 0.45956  0.76311  0.00589  Biso   1.000  He
  He538    1.0000 0.43530  0.76767  0.98069  Biso   1.000  He
  Ne538    1.0000 0.42666  0.73918  0.96638  Biso   1.000  Ne
  Ne539    1.0000 0.32151  0.82950  0.77053  Biso   1.000  Ne
  He539    1.0000 0.33434  0.80048  0.77946  Biso   1.000  He
  He540    1.0000 0.31727  0.78438  0.80380  Biso   1.000  He
  Ne540    1.0000 0.33145  0.75379  0.80982  Biso   1.000  Ne
  Ne541    1.0000 0.66423  0.94714  0.89679  Biso   1.000  Ne
  He541    1.0000 0.65840  0.95492  0.86690  Biso   1.000  He
  He542    1.0000 0.63577  0.98142  0.86144  Biso   1.000  He
  Ne542    1.0000 0.60350  0.96920  0.85805  Biso   1.000  Ne
  Ne543    1.0000 0.31145  0.70369  0.88576  Biso   1.000  Ne
  He543    1.0000 0.28537  0.72401  0.87509  Biso   1.000  He
  He544    1.0000 0.25932  0.70614  0.86666  Biso   1.000  He
  Ne544    1.0000 0.23034  0.72639  0.85907  Biso   1.000  Ne
  Ne545    1.0000 0.11019  0.93040  0.65324  Biso   1.000  Ne
  He545    1.0000 0.11699  0.92935  0.68579  Biso   1.000  He
  He546    1.0000 0.14491  0.94575  0.69380  Biso   1.000  He
  Ne546    1.0000 0.15266  0.93681  0.72639  Biso   1.000  Ne
  Ne547    1.0000 0.68876  0.10685  0.66404  Biso   1.000  Ne
  He547    1.0000 0.71386  0.09837  0.64158  Biso   1.000  He
  He548    1.0000 0.74215  0.09843  0.65759  Biso   1.000  He
  Ne548    1.0000 0.75601  0.07199  0.67361  Biso   1.000  Ne
  Ne549    1.0000 0.82162  0.67153  0.88081  Biso   1.000  Ne
  He549    1.0000 0.83760  0.69473  0.86404  Biso   1.000  He
  He550    1.0000 0.86102  0.70438  0.88459  Biso   1.000  He
  Ne550    1.0000 0.87464  0.73468  0.87603  Biso   1.000  Ne
  Ne551    1.0000 0.42373  0.21479  0.84400  Biso   1.000  Ne
  He551    1.0000 0.40556  0.24241  0.83823  Biso   1.000  He
  He552    1.0000 0.37620  0.23640  0.85073  Biso   1.000  He
  Ne552    1.0000 0.35372  0.26091  0.84762  Biso   1.000  Ne
  Ne553    1.0000 0.08258  0.16808  0.95780  Biso   1.000  Ne
  He553    1.0000 0.09950  0.14048  0.94601  Biso   1.000  He
  He554    1.0000 0.07820  0.11852  0.94084  Biso   1.000  He
  Ne554    1.0000 0.08956  0.08788  0.93339  Biso   1.000  Ne
  Ne555    1.0000 0.25652  0.27416  0.73689  Biso   1.000  Ne
  He555    1.0000 0.23976  0.25615  0.71427  Biso   1.000  He
  He556    1.0000 0.25570  0.22920  0.70383  Biso   1.000  He
  Ne556    1.0000 0.24077  0.21126  0.68129  Biso   1.000  Ne
  Ne557    1.0000 0.63629  0.82571  0.44687  Biso   1.000  Ne
  He557    1.0000 0.63166  0.85799  0.44843  Biso   1.000  He
  He558    1.0000 0.61582  0.87284  0.42155  Biso   1.000  He
  Ne558    1.0000 0.61100  0.90455  0.42638  Biso   1.000  Ne
  Ne559    1.0000 0.83103  0.33471  0.43983  Biso   1.000  Ne
  He559    1.0000 0.82719  0.33561  0.40565  Biso   1.000  He
  He560    1.0000 0.79780  0.33192  0.39086  Biso   1.000  He
  Ne560    1.0000 0.80354  0.32565  0.35805  Biso   1.000  Ne
  Ne561    1.0000 0.08618  0.14863  0.86901  Biso   1.000  Ne
  He561    1.0000 0.07506  0.13312  0.84281  Biso   1.000  He
  He562    1.0000 0.08022  0.09774  0.84372  Biso   1.000  He
  Ne562    1.0000 0.07174  0.08431  0.81456  Biso   1.000  Ne
  Ne563    1.0000 0.42849  0.11248  0.15320  Biso   1.000  Ne
  He563    1.0000 0.40515  0.09795  0.13572  Biso   1.000  He
  He564    1.0000 0.38909  0.07306  0.15228  Biso   1.000  He
  Ne564    1.0000 0.36483  0.05968  0.13659  Biso   1.000  Ne
  Ne565    1.0000 0.45712  0.76991  0.11800  Biso   1.000  Ne
  He565    1.0000 0.46268  0.79978  0.10877  Biso   1.000  He
  He566    1.0000 0.49618  0.80691  0.10438  Biso   1.000  He
  Ne566    1.0000 0.50199  0.83344  0.08696  Biso   1.000  Ne
  Ne567    1.0000 0.89205  0.70217  0.18632  Biso   1.000  Ne
  He567    1.0000 0.90078  0.67138  0.20152  Biso   1.000  He
  He568    1.0000 0.89923  0.64523  0.18059  Biso   1.000  He
  Ne568    1.0000 0.90858  0.61639  0.19307  Biso   1.000  Ne
  Ne569    1.0000 0.07132  0.04509  0.38426  Biso   1.000  Ne
  He569    1.0000 0.06390  0.02238  0.36358  Biso   1.000  He
  He570    1.0000 0.06225  0.03099  0.33175  Biso   1.000  He
  Ne570    1.0000 0.05184  0.00768  0.31101  Biso   1.000  Ne
  Ne571    1.0000 0.61854  0.59310  0.27828  Biso   1.000  Ne
  He571    1.0000 0.64824  0.58986  0.29533  Biso   1.000  He
  He572    1.0000 0.67630  0.58706  0.27404  Biso   1.000  He
  Ne572    1.0000 0.70622  0.59162  0.28814  Biso   1.000  Ne
  Ne573    1.0000 0.39178  0.82456  0.10408  Biso   1.000  Ne
  He573    1.0000 0.37883  0.81590  0.07551  Biso   1.000  He
  He574    1.0000 0.35914  0.83915  0.06176  Biso   1.000  He
  Ne574    1.0000 0.34516  0.82764  0.03442  Biso   1.000  Ne
  Ne575    1.0000 0.01980  0.56597  0.52397  Biso   1.000  Ne
  He575    1.0000 0.03410  0.54884  0.54614  Biso   1.000  He
  He576    1.0000 0.02533  0.55569  0.57624  Biso   1.000  He
  Ne576    1.0000 0.03499  0.53268  0.59821  Biso   1.000  Ne
  Ne577    1.0000 0.91851  0.58155  0.79487  Biso   1.000  Ne
  He577    1.0000 0.91890  0.61044  0.80950  Biso   1.000  He
  He578    1.0000 0.90577  0.61072  0.83856  Biso   1.000  He
  Ne578    1.0000 0.90179  0.64065  0.85223  Biso   1.000  Ne
  Ne579    1.0000 0.34240  0.10944  0.22075  Biso   1.000  Ne
  He579    1.0000 0.33012  0.10714  0.25227  Biso   1.000  He
  He580    1.0000 0.35176  0.09371  0.27593  Biso   1.000  He
  Ne580    1.0000 0.33934  0.09079  0.30644  Biso   1.000  Ne
  Ne581    1.0000 0.66568  0.21553  0.20503  Biso   1.000  Ne
  He581    1.0000 0.68128  0.20495  0.17770  Biso   1.000  He
  He582    1.0000 0.69341  0.17251  0.17763  Biso   1.000  He
  Ne582    1.0000 0.72713  0.16862  0.16901  Biso   1.000  Ne
  Ne583    1.0000 0.60443  0.93846  0.98064  Biso   1.000  Ne
  He583    1.0000 0.61754  0.91264  0.99365  Biso   1.000  He
  He584    1.0000 0.61096  0.88578  0.97919  Biso   1.000  He
  Ne584    1.0000 0.62050  0.85665  0.99414  Biso   1.000  Ne
  Ne585    1.0000 0.59036  0.98090  0.56517  Biso   1.000  Ne
  He585    1.0000 0.56265  0.99098  0.57512  Biso   1.000  He
  He586    1.0000 0.56074  0.02138  0.59080  Biso   1.000  He
  Ne586    1.0000 0.53002  0.02820  0.60209  Biso   1.000  Ne
  Ne587    1.0000 0.20133  0.01911  0.51325  Biso   1.000  Ne
  He587    1.0000 0.21686  0.99184  0.49858  Biso   1.000  He
  He588    1.0000 0.20200  0.98225  0.46880  Biso   1.000  He
  Ne588    1.0000 0.21796  0.95465  0.45614  Biso   1.000  Ne
  Ne589    1.0000 0.13797  0.32736  0.14819  Biso   1.000  Ne
  He589    1.0000 0.16072  0.34990  0.15273  Biso   1.000  He
  He590    1.0000 0.16437  0.36771  0.12595  Biso   1.000  He
  Ne590    1.0000 0.18435  0.39304  0.12968  Biso   1.000  Ne
  Ne591    1.0000 0.23787  0.33487  0.93133  Biso   1.000  Ne
  He591    1.0000 0.26517  0.31384  0.93123  Biso   1.000  He
  He592    1.0000 0.26297  0.28580  0.91173  Biso   1.000  He
  Ne592    1.0000 0.28561  0.26331  0.91377  Biso   1.000  Ne
  Ne593    1.0000 0.61835  0.73636  0.22175  Biso   1.000  Ne
  He593    1.0000 0.58837  0.74244  0.20770  Biso   1.000  He
  He594    1.0000 0.58598  0.76392  0.18239  Biso   1.000  He
  Ne594    1.0000 0.56972  0.79259  0.19420  Biso   1.000  Ne
  Ne595    1.0000 0.80256  0.08851  0.61741  Biso   1.000  Ne
  He595    1.0000 0.80870  0.11983  0.62097  Biso   1.000  He
  He596    1.0000 0.80439  0.13928  0.59391  Biso   1.000  He
  Ne596    1.0000 0.80913  0.17149  0.59842  Biso   1.000  Ne
  Ne597    1.0000 0.66029  0.14832  0.48449  Biso   1.000  Ne
  He597    1.0000 0.63639  0.15171  0.46631  Biso   1.000  He
  He598    1.0000 0.60804  0.16565  0.47979  Biso   1.000  He
  Ne598    1.0000 0.58566  0.17414  0.45568  Biso   1.000  Ne
  Ne599    1.0000 0.58634  0.06231  0.66261  Biso   1.000  Ne
  He599    1.0000 0.61259  0.07155  0.64670  Biso   1.000  He
  He600    1.0000 0.60540  0.10065  0.62770  Biso   1.000  He
  Ne600    1.0000 0.61264  0.13127  0.63885  Biso   1.000  Ne
  Ne601    1.0000 0.49169  0.78454  0.89546  Biso   1.000  Ne
  He601    1.0000 0.46867  0.80782  0.89812  Biso   1.000  He
  He602    1.0000 0.44125  0.79656  0.88855  Biso   1.000  He
  Ne602    1.0000 0.41589  0.81804  0.88334  Biso   1.000  Ne
  Ne603    1.0000 0.48046  0.00941  0.93868  Biso   1.000  Ne
  He603    1.0000 0.46041  0.03466  0.92939  Biso   1.000  He
  He604    1.0000 0.46645  0.06258  0.94513  Biso   1.000  He
  Ne604    1.0000 0.44651  0.08739  0.93072  Biso   1.000  Ne
  Ne605    1.0000 0.33360  0.25509  0.70034  Biso   1.000  Ne
  He605    1.0000 0.36188  0.24779  0.71630  Biso   1.000  He
  He606    1.0000 0.39000  0.24958  0.69661  Biso   1.000  He
  Ne606    1.0000 0.41567  0.24169  0.71413  Biso   1.000  Ne
  Ne607    1.0000 0.19899  0.88781  0.77326  Biso   1.000  Ne
  He607    1.0000 0.18761  0.86680  0.75107  Biso   1.000  He
  He608    1.0000 0.18067  0.83716  0.76696  Biso   1.000  He
  Ne608    1.0000 0.16756  0.81490  0.74873  Biso   1.000  Ne
  Ne609    1.0000 0.44806  0.31450  0.84578  Biso   1.000  Ne
  He609    1.0000 0.43738  0.34185  0.86379  Biso   1.000  He
  He610    1.0000 0.45716  0.36824  0.86199  Biso   1.000  He
  Ne610    1.0000 0.44530  0.39787  0.87712  Biso   1.000  Ne
  Ne611    1.0000 0.82636  0.47945  0.88175  Biso   1.000  Ne
  He611    1.0000 0.85828  0.47620  0.86985  Biso   1.000  He
  He612    1.0000 0.86856  0.50503  0.86026  Biso   1.000  He
  Ne612    1.0000 0.90006  0.50756  0.85384  Biso   1.000  Ne
  Ne613    1.0000 0.41602  0.59930  0.27045  Biso   1.000  Ne
  He613    1.0000 0.41000  0.59929  0.30332  Biso   1.000  He
  He614    1.0000 0.40829  0.62818  0.31789  Biso   1.000  He
  Ne614    1.0000 0.40410  0.62711  0.34939  Biso   1.000  Ne
  Ne615    1.0000 0.68179  0.40643  0.17476  Biso   1.000  Ne
  He615    1.0000 0.67405  0.41842  0.20656  Biso   1.000  He
  He616    1.0000 0.69013  0.40158  0.23098  Biso   1.000  He
  Ne616    1.0000 0.68971  0.41153  0.26113  Biso   1.000  Ne
  Ne617    1.0000 0.29901  0.90843  0.90435  Biso   1.000  Ne
  He617    1.0000 0.28822  0.94060  0.89860  Biso   1.000  He
  He618    1.0000 0.30599  0.96165  0.87974  Biso   1.000  He
  Ne618    1.0000 0.29464  0.99462  0.88196  Biso   1.000  Ne
  Ne619    1.0000 0.12230  0.67823  0.21493  Biso   1.000  Ne
  He619    1.0000 0.15035  0.67904  0.19862  Biso   1.000  He
  He620    1.0000 0.17403  0.65414  0.20660  Biso   1.000  He
  Ne620    1.0000 0.20140  0.65811  0.18673  Biso   1.000  Ne
  Ne621    1.0000 0.83963  0.26375  0.16649  Biso   1.000  Ne
  He621    1.0000 0.84310  0.23792  0.14205  Biso   1.000  He
  He622    1.0000 0.87130  0.22000  0.14572  Biso   1.000  He
  Ne622    1.0000 0.87239  0.19351  0.12452  Biso   1.000  Ne
  Ne623    1.0000 0.93348  0.25003  0.20995  Biso   1.000  Ne
  He623    1.0000 0.92117  0.25552  0.24041  Biso   1.000  He
  He624    1.0000 0.91274  0.22700  0.25753  Biso   1.000  He
  Ne624    1.0000 0.90095  0.23396  0.28994  Biso   1.000  Ne
  Ne625    1.0000 0.84844  0.61430  0.04380  Biso   1.000  Ne
  He625    1.0000 0.85563  0.58288  0.03582  Biso   1.000  He
  He626    1.0000 0.88709  0.57559  0.02619  Biso   1.000  He
  Ne626    1.0000 0.89269  0.54481  0.02013  Biso   1.000  Ne
  Ne627    1.0000 0.15358  0.60134  0.13888  Biso   1.000  Ne
  He627    1.0000 0.12887  0.61159  0.12016  Biso   1.000  He
  He628    1.0000 0.12339  0.59455  0.09219  Biso   1.000  He
  Ne628    1.0000 0.09539  0.60386  0.07468  Biso   1.000  Ne
  Ne629    1.0000 0.55047  0.14206  0.91697  Biso   1.000  Ne
  He629    1.0000 0.54468  0.13399  0.95033  Biso   1.000  He
  He630    1.0000 0.51439  0.12467  0.95903  Biso   1.000  He
  Ne630    1.0000 0.51202  0.11338  0.99055  Biso   1.000  Ne
  Ne631    1.0000 0.39437  0.15761  0.88844  Biso   1.000  Ne
  He631    1.0000 0.37239  0.13578  0.88033  Biso   1.000  He
  He632    1.0000 0.38082  0.11310  0.85880  Biso   1.000  He
  Ne632    1.0000 0.35736  0.08933  0.85634  Biso   1.000  Ne
  Ne633    1.0000 0.24043  0.07774  0.78811  Biso   1.000  Ne
  He633    1.0000 0.24292  0.10448  0.80568  Biso   1.000  He
  He634    1.0000 0.26181  0.09393  0.83435  Biso   1.000  He
  Ne634    1.0000 0.27208  0.11614  0.85620  Biso   1.000  Ne
  Ne635    1.0000 0.12715  0.39031  0.21865  Biso   1.000  Ne
  He635    1.0000 0.14150  0.41961  0.20878  Biso   1.000  He
  He636    1.0000 0.17182  0.42439  0.22441  Biso   1.000  He
  Ne636    1.0000 0.18491  0.45021  0.21518  Biso   1.000  Ne
  Ne637    1.0000 0.54641  0.69355  0.59299  Biso   1.000  Ne
  He637    1.0000 0.57779  0.70252  0.59665  Biso   1.000  He
  He638    1.0000 0.59297  0.71255  0.56869  Biso   1.000  He
  Ne638    1.0000 0.62682  0.72060  0.57390  Biso   1.000  Ne
  Ne639    1.0000 0.85072  0.61608  0.46349  Biso   1.000  Ne
  He639    1.0000 0.82424  0.61265  0.44436  Biso   1.000  He
  He640    1.0000 0.82686  0.59530  0.41473  Biso   1.000  He
  Ne640    1.0000 0.80341  0.60341  0.39228  Biso   1.000  Ne
  Ne641    1.0000 0.33156  0.83500  0.21978  Biso   1.000  Ne
  He641    1.0000 0.30549  0.81619  0.22510  Biso   1.000  He
  He642    1.0000 0.28364  0.83020  0.24772  Biso   1.000  He
  Ne642    1.0000 0.25379  0.81700  0.25155  Biso   1.000  Ne
  Ne643    1.0000 0.63848  0.98380  0.14704  Biso   1.000  Ne
  He643    1.0000 0.63164  0.95949  0.16914  Biso   1.000  He
  He644    1.0000 0.61087  0.93785  0.15964  Biso   1.000  He
  Ne644    1.0000 0.60163  0.91341  0.18126  Biso   1.000  Ne
  Ne645    1.0000 0.83564  0.61404  0.72689  Biso   1.000  Ne
  He645    1.0000 0.83626  0.58792  0.74890  Biso   1.000  He
  He646    1.0000 0.82804  0.59518  0.78077  Biso   1.000  He
  Ne646    1.0000 0.83523  0.56910  0.80210  Biso   1.000  Ne
  Ne647    1.0000 0.51879  0.38887  0.73591  Biso   1.000  Ne
  He647    1.0000 0.52553  0.35752  0.74218  Biso   1.000  He
  He648    1.0000 0.51840  0.33410  0.71888  Biso   1.000  He
  Ne648    1.0000 0.52057  0.30380  0.72683  Biso   1.000  Ne
  Ne649    1.0000 0.19683  0.41159  0.32437  Biso   1.000  Ne
  He649    1.0000 0.22746  0.39657  0.32814  Biso   1.000  He
  He650    1.0000 0.24106  0.39751  0.35841  Biso   1.000  He
  Ne650    1.0000 0.26413  0.37297  0.36179  Biso   1.000  Ne
  Ne651    1.0000 0.96007  0.75768  0.10575  Biso   1.000  Ne
  He651    1.0000 0.95279  0.73943  0.13285  Biso   1.000  He
  He652    1.0000 0.98113  0.72310  0.14366  Biso   1.000  He
  Ne652    1.0000 0.97785  0.70362  0.17375  Biso   1.000  Ne
  Ne653    1.0000 0.68364  0.64425  0.75601  Biso   1.000  Ne
  He653    1.0000 0.70616  0.65500  0.73385  Biso   1.000  He
  He654    1.0000 0.73422  0.63884  0.73836  Biso   1.000  He
  Ne654    1.0000 0.75852  0.65501  0.75208  Biso   1.000  Ne
  Ne655    1.0000 0.40353  0.57117  0.19477  Biso   1.000  Ne
  He655    1.0000 0.37126  0.57761  0.19386  Biso   1.000  He
  He656    1.0000 0.35661  0.56866  0.21963  Biso   1.000  He
  Ne656    1.0000 0.32647  0.57538  0.21981  Biso   1.000  Ne
  Ne657    1.0000 0.60501  0.67217  0.33191  Biso   1.000  Ne
  He657    1.0000 0.57471  0.66103  0.34041  Biso   1.000  He
  He658    1.0000 0.56240  0.63962  0.31783  Biso   1.000  He
  Ne658    1.0000 0.52989  0.63282  0.32745  Biso   1.000  Ne
  Ne659    1.0000 0.63118  0.50887  0.34180  Biso   1.000  Ne
  He659    1.0000 0.63149  0.48396  0.36191  Biso   1.000  He
  He660    1.0000 0.60816  0.45985  0.35535  Biso   1.000  He
  Ne660    1.0000 0.60573  0.43484  0.37740  Biso   1.000  Ne
  Ne661    1.0000 0.19034  0.59071  0.25733  Biso   1.000  Ne
  He661    1.0000 0.19719  0.56532  0.23783  Biso   1.000  He
  He662    1.0000 0.18446  0.56471  0.20703  Biso   1.000  He
  Ne662    1.0000 0.18433  0.53269  0.19620  Biso   1.000  Ne
  Ne663    1.0000 0.58625  0.65618  0.85102  Biso   1.000  Ne
  He663    1.0000 0.58396  0.62452  0.84736  Biso   1.000  He
  He664    1.0000 0.59340  0.60717  0.87547  Biso   1.000  He
  Ne664    1.0000 0.59103  0.57186  0.87709  Biso   1.000  Ne
  Ne665    1.0000 0.83839  0.19786  0.96205  Biso   1.000  Ne
  He665    1.0000 0.82994  0.16684  0.95815  Biso   1.000  He
  He666    1.0000 0.79732  0.16614  0.95192  Biso   1.000  He
  Ne666    1.0000 0.78741  0.13746  0.93915  Biso   1.000  Ne
  Ne667    1.0000 0.46033  0.43546  0.45746  Biso   1.000  Ne
  He667    1.0000 0.44719  0.40909  0.45123  Biso   1.000  He
  He668    1.0000 0.42464  0.39548  0.47139  Biso   1.000  He
  Ne668    1.0000 0.43486  0.37172  0.49186  Biso   1.000  Ne
  Ne669    1.0000 0.86196  0.07986  0.93250  Biso   1.000  Ne
  He669    1.0000 0.83182  0.07751  0.91694  Biso   1.000  He
  He670    1.0000 0.83557  0.06895  0.88749  Biso   1.000  He
  Ne670    1.0000 0.80950  0.06400  0.86850  Biso   1.000  Ne
  Ne671    1.0000 0.64729  0.02275  0.92820  Biso   1.000  Ne
  He671    1.0000 0.62154  0.03531  0.94118  Biso   1.000  He
  He672    1.0000 0.60414  0.01307  0.95700  Biso   1.000  He
  Ne672    1.0000 0.57624  0.02502  0.97105  Biso   1.000  Ne
  Ne673    1.0000 0.91376  0.80584  0.89297  Biso   1.000  Ne
  He673    1.0000 0.93570  0.78954  0.90931  Biso   1.000  He
  He674    1.0000 0.92275  0.77585  0.93561  Biso   1.000  He
  Ne674    1.0000 0.94483  0.75758  0.95128  Biso   1.000  Ne
  Ne675    1.0000 0.21886  0.61779  0.02278  Biso   1.000  Ne
  He675    1.0000 0.22936  0.63555  0.04845  Biso   1.000  He
  He676    1.0000 0.21699  0.63386  0.07837  Biso   1.000  He
  Ne676    1.0000 0.23178  0.65228  0.10099  Biso   1.000  Ne
  Ne677    1.0000 0.66802  0.63687  0.63741  Biso   1.000  Ne
  He677    1.0000 0.64421  0.61754  0.64578  Biso   1.000  He
  He678    1.0000 0.64311  0.59359  0.62608  Biso   1.000  He
  Ne678    1.0000 0.61765  0.57115  0.63338  Biso   1.000  Ne
  Ne679    1.0000 0.98227  0.59703  0.24858  Biso   1.000  Ne
  He679    1.0000 0.95214  0.59812  0.26363  Biso   1.000  He
  He680    1.0000 0.94634  0.56913  0.28125  Biso   1.000  He
  Ne680    1.0000 0.91614  0.57254  0.29525  Biso   1.000  Ne
  Ne681    1.0000 0.59317  0.75331  0.71098  Biso   1.000  Ne
  He681    1.0000 0.58881  0.72139  0.70006  Biso   1.000  He
  He682    1.0000 0.61067  0.70088  0.71389  Biso   1.000  He
  Ne682    1.0000 0.60834  0.67012  0.69649  Biso   1.000  Ne
  Ne683    1.0000 0.57237  0.86122  0.08829  Biso   1.000  Ne
  He683    1.0000 0.57039  0.89339  0.09460  Biso   1.000  He
  He684    1.0000 0.54974  0.91007  0.07500  Biso   1.000  He
  Ne684    1.0000 0.54522  0.93886  0.08178  Biso   1.000  Ne
  Ne685    1.0000 0.46349  0.70050  0.65994  Biso   1.000  Ne
  He685    1.0000 0.45097  0.71686  0.63252  Biso   1.000  He
  He686    1.0000 0.47001  0.71444  0.60569  Biso   1.000  He
  Ne686    1.0000 0.45889  0.72643  0.57945  Biso   1.000  Ne
  Ne687    1.0000 0.93135  0.66133  0.69373  Biso   1.000  Ne
  He687    1.0000 0.94289  0.63275  0.69837  Biso   1.000  He
  He688    1.0000 0.92128  0.60938  0.70774  Biso   1.000  He
  Ne688    1.0000 0.93365  0.57940  0.71434  Biso   1.000  Ne
  Ne689    1.0000 0.83295  0.70783  0.42509  Biso   1.000  Ne
  He689    1.0000 0.81374  0.73542  0.41714  Biso   1.000  He
  He690    1.0000 0.82668  0.76549  0.42340  Biso   1.000  He
  Ne690    1.0000 0.80715  0.79083  0.41977  Biso   1.000  Ne
  Ne691    1.0000 0.74098  0.71375  0.32152  Biso   1.000  Ne
  He691    1.0000 0.73684  0.74655  0.32645  Biso   1.000  He
  He692    1.0000 0.76407  0.76352  0.31803  Biso   1.000  He
  Ne692    1.0000 0.76531  0.79823  0.32558  Biso   1.000  Ne
  Ne693    1.0000 0.14323  0.68283  0.76429  Biso   1.000  Ne
  He693    1.0000 0.12603  0.71125  0.77240  Biso   1.000  He
  He694    1.0000 0.11499  0.73263  0.74839  Biso   1.000  He
  Ne694    1.0000 0.10130  0.76113  0.75963  Biso   1.000  Ne
  Ne695    1.0000 0.02195  0.09636  0.66242  Biso   1.000  Ne
  He695    1.0000 0.00517  0.07820  0.64212  Biso   1.000  He
  He696    1.0000 0.00479  0.04679  0.65181  Biso   1.000  He
  Ne696    1.0000 0.98665  0.02656  0.63329  Biso   1.000  Ne
  Ne697    1.0000 0.88889  0.33936  0.73960  Biso   1.000  Ne
  He697    1.0000 0.87987  0.36800  0.72967  Biso   1.000  He
  He698    1.0000 0.90293  0.39206  0.72833  Biso   1.000  He
  Ne698    1.0000 0.89517  0.42624  0.71783  Biso   1.000  Ne
  Ne699    1.0000 0.49983  0.46072  0.70425  Biso   1.000  Ne
  He699    1.0000 0.47345  0.47278  0.72208  Biso   1.000  He
  He700    1.0000 0.47589  0.50724  0.73049  Biso   1.000  He
  Ne700    1.0000 0.44828  0.51785  0.74434  Biso   1.000  Ne
  Ne701    1.0000 0.33278  0.62258  0.14364  Biso   1.000  Ne
  He701    1.0000 0.30241  0.61691  0.12859  Biso   1.000  He
  He702    1.0000 0.29820  0.58287  0.12281  Biso   1.000  He
  Ne702    1.0000 0.26868  0.57294  0.10699  Biso   1.000  Ne
  Ne703    1.0000 0.08838  0.55638  0.47154  Biso   1.000  Ne
  He703    1.0000 0.10220  0.52978  0.48398  Biso   1.000  He
  He704    1.0000 0.08004  0.50752  0.49464  Biso   1.000  He
  Ne704    1.0000 0.09464  0.48455  0.51557  Biso   1.000  Ne
  Ne705    1.0000 0.48802  0.92032  0.24142  Biso   1.000  Ne
  He705    1.0000 0.48469  0.92565  0.20964  Biso   1.000  He
  He706    1.0000 0.50652  0.90828  0.19264  Biso   1.000  He
  Ne706    1.0000 0.49929  0.90504  0.16177  Biso   1.000  Ne
  Ne707    1.0000 0.71044  0.13085  0.00011  Biso   1.000  Ne
  He707    1.0000 0.70390  0.11556  0.03016  Biso   1.000  He
  He708    1.0000 0.69313  0.13953  0.05144  Biso   1.000  He
  Ne708    1.0000 0.66536  0.12852  0.06895  Biso   1.000  Ne
  Ne709    1.0000 0.66502  0.09382  0.14633  Biso   1.000  Ne
  He709    1.0000 0.68617  0.07271  0.15636  Biso   1.000  He
  He710    1.0000 0.70285  0.08095  0.18283  Biso   1.000  He
  Ne710    1.0000 0.71461  0.05338  0.19681  Biso   1.000  Ne
  Ne711    1.0000 0.36381  0.69722  0.32361  Biso   1.000  Ne
  He711    1.0000 0.36059  0.69432  0.29143  Biso   1.000  He
  He712    1.0000 0.33191  0.67754  0.28688  Biso   1.000  He
  Ne712    1.0000 0.32609  0.67001  0.25493  Biso   1.000  Ne
  Ne713    1.0000 0.30996  0.08293  0.92703  Biso   1.000  Ne
  He713    1.0000 0.28368  0.06758  0.94115  Biso   1.000  He
  He714    1.0000 0.25633  0.07659  0.92416  Biso   1.000  He
  Ne714    1.0000 0.22663  0.06559  0.93305  Biso   1.000  Ne
  Ne715    1.0000 0.70600  0.90860  0.80519  Biso   1.000  Ne
  He715    1.0000 0.68554  0.89929  0.78250  Biso   1.000  He
  He716    1.0000 0.69805  0.88604  0.75677  Biso   1.000  He
  Ne716    1.0000 0.70072  0.90599  0.72747  Biso   1.000  Ne
  Ne717    1.0000 0.79050  0.88790  0.47569  Biso   1.000  Ne
  He717    1.0000 0.80331  0.91785  0.47140  Biso   1.000  He
  He718    1.0000 0.78268  0.94464  0.47786  Biso   1.000  He
  Ne718    1.0000 0.79710  0.97465  0.47725  Biso   1.000  Ne
  Ne719    1.0000 0.12184  0.94977  0.56978  Biso   1.000  Ne
  He719    1.0000 0.09467  0.96929  0.57645  Biso   1.000  He
  He720    1.0000 0.06557  0.95651  0.56145  Biso   1.000  He
  Ne720    1.0000 0.03603  0.96634  0.57466  Biso   1.000  Ne
  Ne721    1.0000 0.93507  0.84671  0.68046  Biso   1.000  Ne
  He721    1.0000 0.92184  0.81930  0.66607  Biso   1.000  He
  He722    1.0000 0.89951  0.80118  0.68493  Biso   1.000  He
  Ne722    1.0000 0.90782  0.77293  0.69908  Biso   1.000  Ne
  Ne723    1.0000 0.84377  0.74096  0.77285  Biso   1.000  Ne
  He723    1.0000 0.87652  0.73581  0.77604  Biso   1.000  He
  He724    1.0000 0.87987  0.70372  0.78002  Biso   1.000  He
  Ne724    1.0000 0.91117  0.69049  0.77687  Biso   1.000  Ne
  Ne725    1.0000 0.93925  0.46773  0.21758  Biso   1.000  Ne
  He725    1.0000 0.97104  0.47735  0.21946  Biso   1.000  He
  He726    1.0000 0.98662  0.46421  0.24787  Biso   1.000  He
  Ne726    1.0000 0.01592  0.48175  0.25536  Biso   1.000  Ne
  Ne727    1.0000 0.30294  0.89638  0.69733  Biso   1.000  Ne
  He727    1.0000 0.33200  0.89673  0.71141  Biso   1.000  He
  He728    1.0000 0.33415  0.91362  0.74010  Biso   1.000  He
  Ne728    1.0000 0.36206  0.90947  0.75401  Biso   1.000  Ne
  Ne729    1.0000 0.00281  0.08015  0.41864  Biso   1.000  Ne
  He729    1.0000 0.00362  0.05763  0.44267  Biso   1.000  He
  He730    1.0000 0.98997  0.02863  0.43573  Biso   1.000  He
  Ne730    1.0000 0.98454  0.00666  0.46120  Biso   1.000  Ne
  Ne731    1.0000 0.21250  0.01356  0.36712  Biso   1.000  Ne
  He731    1.0000 0.21600  0.98578  0.34919  Biso   1.000  He
  He732    1.0000 0.20762  0.95579  0.36547  Biso   1.000  He
  Ne732    1.0000 0.23284  0.93625  0.37619  Biso   1.000  Ne
  Ne733    1.0000 0.69067  0.05398  0.84555  Biso   1.000  Ne
  He733    1.0000 0.71170  0.07682  0.86091  Biso   1.000  He
  He734    1.0000 0.71895  0.06507  0.89033  Biso   1.000  He
  Ne734    1.0000 0.74090  0.08143  0.90745  Biso   1.000  Ne
  Ne735    1.0000 0.42917  0.35482  0.09884  Biso   1.000  Ne
  He735    1.0000 0.40426  0.33447  0.10669  Biso   1.000  He
  He736    1.0000 0.40669  0.32351  0.13844  Biso   1.000  He
  Ne736    1.0000 0.38089  0.30434  0.14766  Biso   1.000  Ne
  Ne737    1.0000 0.93331  0.24193  0.96480  Biso   1.000  Ne
  He737    1.0000 0.90755  0.24484  0.94281  Biso   1.000  He
  He738    1.0000 0.90237  0.27305  0.93255  Biso   1.000  He
  Ne738    1.0000 0.87651  0.27848  0.91219  Biso   1.000  Ne
  Ne739    1.0000 0.15305  0.89441  0.96191  Biso   1.000  Ne
  He739    1.0000 0.18048  0.91243  0.96127  Biso   1.000  He
  He740    1.0000 0.20928  0.90031  0.97225  Biso   1.000  He
  Ne740    1.0000 0.23611  0.91905  0.96752  Biso   1.000  Ne
  Ne741    1.0000 0.99489  0.69593  0.91079  Biso   1.000  Ne
  He741    1.0000 0.02773  0.68866  0.91044  Biso   1.000  He
  He742    1.0000 0.03823  0.66205  0.92842  Biso   1.000  He
  Ne742    1.0000 0.07207  0.65713  0.92280  Biso   1.000  Ne
  Ne743    1.0000 0.47911  0.88267  0.91284  Biso   1.000  Ne
  He743    1.0000 0.48313  0.91143  0.93021  Biso   1.000  He
  He744    1.0000 0.50642  0.90958  0.95469  Biso   1.000  He
  Ne744    1.0000 0.51609  0.93803  0.96926  Biso   1.000  Ne
  Ne745    1.0000 0.64234  0.82292  0.34828  Biso   1.000  Ne
  He745    1.0000 0.61284  0.83815  0.33998  Biso   1.000  He
  He746    1.0000 0.60667  0.83713  0.30636  Biso   1.000  He
  Ne746    1.0000 0.57564  0.85609  0.30056  Biso   1.000  Ne
  Ne747    1.0000 0.25643  0.83554  0.86430  Biso   1.000  Ne
  He747    1.0000 0.25367  0.82951  0.89582  Biso   1.000  He
  He748    1.0000 0.22609  0.84195  0.90909  Biso   1.000  He
  Ne748    1.0000 0.22091  0.83193  0.94087  Biso   1.000  Ne
  Ne749    1.0000 0.51131  0.57632  0.09630  Biso   1.000  Ne
  He749    1.0000 0.54307  0.58382  0.08712  Biso   1.000  He
  He750    1.0000 0.55750  0.56049  0.06611  Biso   1.000  He
  Ne750    1.0000 0.58846  0.56502  0.06374  Biso   1.000  Ne
  Ne751    1.0000 0.22057  0.86339  0.59711  Biso   1.000  Ne
  He751    1.0000 0.20481  0.85639  0.62549  Biso   1.000  He
  He752    1.0000 0.22784  0.84723  0.65059  Biso   1.000  He
  Ne752    1.0000 0.21112  0.85012  0.67943  Biso   1.000  Ne
  Ne753    1.0000 0.60881  0.71038  0.79158  Biso   1.000  Ne
  He753    1.0000 0.63385  0.73169  0.79184  Biso   1.000  He
  He754    1.0000 0.66511  0.71940  0.79015  Biso   1.000  He
  Ne754    1.0000 0.68883  0.74172  0.78829  Biso   1.000  Ne
  Ne755    1.0000 0.45012  0.10198  0.30258  Biso   1.000  Ne
  He755    1.0000 0.44607  0.12541  0.28272  Biso   1.000  He
  He756    1.0000 0.41713  0.14431  0.28935  Biso   1.000  He
  Ne756    1.0000 0.41083  0.17074  0.26937  Biso   1.000  Ne
  Ne757    1.0000 0.43241  0.82882  0.60467  Biso   1.000  Ne
  He757    1.0000 0.42259  0.79851  0.60393  Biso   1.000  He
  He758    1.0000 0.39209  0.79806  0.60627  Biso   1.000  He
  Ne758    1.0000 0.37610  0.76662  0.60708  Biso   1.000  Ne
  Ne759    1.0000 0.61171  0.22822  0.77007  Biso   1.000  Ne
  He759    1.0000 0.61334  0.19893  0.75533  Biso   1.000  He
  He760    1.0000 0.59364  0.19512  0.72973  Biso   1.000  He
  Ne760    1.0000 0.59853  0.16532  0.71343  Biso   1.000  Ne
  Ne761    1.0000 0.82846  0.12454  0.14768  Biso   1.000  Ne
  He761    1.0000 0.80324  0.12010  0.13026  Biso   1.000  He
  He762    1.0000 0.77901  0.10091  0.14064  Biso   1.000  He
  Ne762    1.0000 0.75550  0.09197  0.11608  Biso   1.000  Ne
  Ne763    1.0000 0.21374  0.10012  0.40936  Biso   1.000  Ne
  He763    1.0000 0.20070  0.09998  0.37932  Biso   1.000  He
  He764    1.0000 0.17410  0.12120  0.37342  Biso   1.000  He
  Ne764    1.0000 0.16110  0.12136  0.34389  Biso   1.000  Ne
  Ne765    1.0000 0.27761  0.76838  0.59150  Biso   1.000  Ne
  He765    1.0000 0.27827  0.77619  0.62391  Biso   1.000  He
  He766    1.0000 0.30264  0.79775  0.63128  Biso   1.000  He
  Ne766    1.0000 0.30732  0.80589  0.66445  Biso   1.000  Ne
  Ne767    1.0000 0.71317  0.78794  0.19292  Biso   1.000  Ne
  He767    1.0000 0.68060  0.79901  0.18503  Biso   1.000  He
  He768    1.0000 0.67496  0.83092  0.17730  Biso   1.000  He
  Ne768    1.0000 0.64369  0.83867  0.16799  Biso   1.000  Ne
  Ne769    1.0000 0.53600  0.97938  0.16490  Biso   1.000  Ne
  He769    1.0000 0.53497  0.99587  0.13449  Biso   1.000  He
  He770    1.0000 0.55229  0.02589  0.13218  Biso   1.000  He
  Ne770    1.0000 0.55166  0.04174  0.09945  Biso   1.000  Ne
  Ne771    1.0000 0.88349  0.94373  0.63181  Biso   1.000  Ne
  He771    1.0000 0.86612  0.91782  0.64346  Biso   1.000  He
  He772    1.0000 0.86766  0.88895  0.62224  Biso   1.000  He
  Ne772    1.0000 0.85078  0.86342  0.63265  Biso   1.000  Ne
  Ne773    1.0000 0.94826  0.54692  0.56830  Biso   1.000  Ne
  He773    1.0000 0.92568  0.55227  0.59323  Biso   1.000  He
  He774    1.0000 0.94173  0.55789  0.62145  Biso   1.000  He
  Ne774    1.0000 0.94576  0.59171  0.62655  Biso   1.000  Ne
  Ne775    1.0000 0.35599  0.65396  0.56649  Biso   1.000  Ne
  He775    1.0000 0.37108  0.66617  0.53861  Biso   1.000  He
  He776    1.0000 0.39713  0.68528  0.54634  Biso   1.000  He
  Ne776    1.0000 0.41434  0.69799  0.51986  Biso   1.000  Ne
  Ne777    1.0000 0.73366  0.37826  0.96191  Biso   1.000  Ne
  He777    1.0000 0.70662  0.39752  0.96826  Biso   1.000  He
  He778    1.0000 0.68273  0.37741  0.97959  Biso   1.000  He
  Ne778    1.0000 0.65268  0.39353  0.98095  Biso   1.000  Ne
  Ne779    1.0000 0.28248  0.74030  0.70444  Biso   1.000  Ne
  He779    1.0000 0.26841  0.75651  0.72948  Biso   1.000  He
  He780    1.0000 0.25430  0.73416  0.75087  Biso   1.000  He
  Ne780    1.0000 0.24435  0.74962  0.77672  Biso   1.000  Ne
  Ne781    1.0000 0.75159  0.24145  0.64849  Biso   1.000  Ne
  He781    1.0000 0.74023  0.26894  0.65864  Biso   1.000  He
  He782    1.0000 0.70651  0.27214  0.65335  Biso   1.000  He
  Ne782    1.0000 0.69399  0.29895  0.66574  Biso   1.000  Ne
  Ne783    1.0000 0.20526  0.81643  0.45269  Biso   1.000  Ne
  He783    1.0000 0.20907  0.84707  0.46193  Biso   1.000  He
  He784    1.0000 0.20602  0.85312  0.49512  Biso   1.000  He
  Ne784    1.0000 0.20887  0.88579  0.50184  Biso   1.000  Ne
  Ne785    1.0000 0.57612  0.53987  0.38290  Biso   1.000  Ne
  He785    1.0000 0.56633  0.55895  0.40751  Biso   1.000  He
  He786    1.0000 0.56234  0.59063  0.40351  Biso   1.000  He
  Ne786    1.0000 0.55763  0.60944  0.43349  Biso   1.000  Ne
  Ne787    1.0000 0.29141  0.14238  0.73244  Biso   1.000  Ne
  He787    1.0000 0.25968  0.13653  0.72706  Biso   1.000  He
  He788    1.0000 0.23860  0.15527  0.74373  Biso   1.000  He
  Ne788    1.0000 0.20484  0.14917  0.74134  Biso   1.000  Ne
  Ne789    1.0000 0.79080  0.30574  0.82102  Biso   1.000  Ne
  He789    1.0000 0.76978  0.30485  0.79551  Biso   1.000  He
  He790    1.0000 0.74147  0.28790  0.80256  Biso   1.000  He
  Ne790    1.0000 0.71931  0.28298  0.77821  Biso   1.000  Ne
  Ne791    1.0000 0.91857  0.91124  0.18179  Biso   1.000  Ne
  He791    1.0000 0.89165  0.92292  0.17024  Biso   1.000  He
  He792    1.0000 0.87880  0.90198  0.14857  Biso   1.000  He
  Ne792    1.0000 0.85231  0.91490  0.13329  Biso   1.000  Ne
  Ne793    1.0000 0.69295  0.19753  0.83724  Biso   1.000  Ne
  He793    1.0000 0.67487  0.18660  0.81350  Biso   1.000  He
  He794    1.0000 0.67932  0.15412  0.81475  Biso   1.000  He
  Ne794    1.0000 0.65645  0.13977  0.79361  Biso   1.000  Ne
  Ne795    1.0000 0.58262  0.87899  0.84918  Biso   1.000  Ne
  He795    1.0000 0.55222  0.86723  0.85298  Biso   1.000  He
  He796    1.0000 0.53787  0.84651  0.82710  Biso   1.000  He
  Ne796    1.0000 0.50818  0.83499  0.83568  Biso   1.000  Ne
  Ne797    1.0000 0.29695  0.62715  0.47956  Biso   1.000  Ne
  He797    1.0000 0.28941  0.63640  0.45036  Biso   1.000  He
  He798    1.0000 0.29896  0.66672  0.44000  Biso   1.000  He
  Ne798    1.0000 0.29166  0.67564  0.40694  Biso   1.000  Ne
  Ne799    1.0000 0.95315  0.44382  0.82930  Biso   1.000  Ne
  He799    1.0000 0.92849  0.43193  0.81093  Biso   1.000  He
  He800    1.0000 0.90287  0.42311  0.82790  Biso   1.000  He
  Ne800    1.0000 0.87588  0.41173  0.80966  Biso   1.000  Ne
  Ne801    1.0000 0.83742  0.35033  0.86997  Biso   1.000  Ne
  He801    1.0000 0.85892  0.34431  0.84694  Biso   1.000  He
  He802    1.0000 0.88676  0.32970  0.86045  Biso   1.000  He
  Ne802    1.0000 0.90877  0.31555  0.84010  Biso   1.000  Ne
  Ne803    1.0000 0.41840  0.31733  0.76107  Biso   1.000  Ne
  He803    1.0000 0.41656  0.35035  0.76793  Biso   1.000  He
  He804    1.0000 0.42615  0.36773  0.73913  Biso   1.000  He
  Ne804    1.0000 0.42659  0.39971  0.74820  Biso   1.000  Ne
  Ne805    1.0000 0.42270  0.69177  0.21164  Biso   1.000  Ne
  He805    1.0000 0.41273  0.69490  0.18273  Biso   1.000  He
  He806    1.0000 0.43771  0.69431  0.15940  Biso   1.000  He
  Ne806    1.0000 0.42796  0.69351  0.12803  Biso   1.000  Ne
  Ne807    1.0000 0.07214  0.04710  0.59649  Biso   1.000  Ne
  He807    1.0000 0.09818  0.03522  0.61329  Biso   1.000  He
  He808    1.0000 0.12418  0.05610  0.61103  Biso   1.000  He
  Ne808    1.0000 0.15269  0.04698  0.62672  Biso   1.000  Ne
  Ne809    1.0000 0.11365  0.61407  0.70561  Biso   1.000  Ne
  He809    1.0000 0.12732  0.59183  0.72603  Biso   1.000  He
  He810    1.0000 0.11428  0.59171  0.75671  Biso   1.000  He
  Ne810    1.0000 0.12268  0.56767  0.77823  Biso   1.000  Ne
  Ne811    1.0000 0.63723  0.98179  0.06626  Biso   1.000  Ne
  He811    1.0000 0.62291  0.00367  0.04632  Biso   1.000  He
  He812    1.0000 0.63584  0.03453  0.05294  Biso   1.000  He
  Ne812    1.0000 0.62379  0.06008  0.03526  Biso   1.000  Ne
  Ne813    1.0000 0.80969  0.40576  0.93733  Biso   1.000  Ne
  He813    1.0000 0.83469  0.42426  0.94920  Biso   1.000  He
  He814    1.0000 0.86528  0.41413  0.93988  Biso   1.000  He
  Ne814    1.0000 0.89095  0.43390  0.95233  Biso   1.000  Ne
  Ne815    1.0000 0.87934  0.39655  0.29780  Biso   1.000  Ne
  He815    1.0000 0.90032  0.38301  0.31881  Biso   1.000  He
  He816    1.0000 0.89783  0.34901  0.31830  Biso   1.000  He
  Ne816    1.0000 0.88018  0.33380  0.34325  Biso   1.000  Ne
  Ne817    1.0000 0.60842  0.39378  0.81341  Biso   1.000  Ne
  He817    1.0000 0.62861  0.41004  0.79071  Biso   1.000  He
  He818    1.0000 0.61731  0.43524  0.77569  Biso   1.000  He
  Ne818    1.0000 0.63576  0.44825  0.75134  Biso   1.000  Ne
  Ne819    1.0000 0.39190  0.30548  0.92049  Biso   1.000  Ne
  He819    1.0000 0.40953  0.27777  0.92175  Biso   1.000  He
  He820    1.0000 0.40490  0.25887  0.94795  Biso   1.000  He
  Ne820    1.0000 0.41911  0.23067  0.95146  Biso   1.000  Ne
  Ne821    1.0000 0.70636  0.76620  0.09906  Biso   1.000  Ne
  He821    1.0000 0.68616  0.76537  0.07516  Biso   1.000  He
  He822    1.0000 0.66028  0.78346  0.07812  Biso   1.000  He
  Ne822    1.0000 0.64510  0.79337  0.04978  Biso   1.000  Ne
  Ne823    1.0000 0.07679  0.50078  0.02774  Biso   1.000  Ne
  He823    1.0000 0.06441  0.47036  0.01965  Biso   1.000  He
  He824    1.0000 0.08804  0.44753  0.01274  Biso   1.000  He
  Ne824    1.0000 0.07433  0.41784  0.00592  Biso   1.000  Ne
  Ne825    1.0000 0.08526  0.15038  0.18452  Biso   1.000  Ne
  He825    1.0000 0.09840  0.16954  0.20759  Biso   1.000  He
  He826    1.0000 0.12575  0.18482  0.19970  Biso   1.000  He
  Ne826    1.0000 0.12314  0.21706  0.19109  Biso   1.000  Ne
  Ne827    1.0000 0.39603  0.57869  0.96017  Biso   1.000  Ne
  He827    1.0000 0.40221  0.60952  0.95675  Biso   1.000  He
  He828    1.0000 0.43371  0.61966  0.96551  Biso   1.000  He
  Ne828    1.0000 0.43521  0.65383  0.96473  Biso   1.000  Ne
  Ne829    1.0000 0.71369  0.49635  0.40136  Biso   1.000  Ne
  He829    1.0000 0.70976  0.51153  0.43081  Biso   1.000  He
  He830    1.0000 0.73026  0.53742  0.43685  Biso   1.000  He
  Ne830    1.0000 0.72975  0.55524  0.46537  Biso   1.000  Ne
  Ne831    1.0000 0.68959  0.73954  0.61846  Biso   1.000  Ne
  He831    1.0000 0.68162  0.72870  0.64742  Biso   1.000  He
  He832    1.0000 0.70638  0.73171  0.66842  Biso   1.000  He
  Ne832    1.0000 0.69740  0.72949  0.70214  Biso   1.000  Ne
  Ne833    1.0000 0.30997  0.21296  0.26533  Biso   1.000  Ne
  He833    1.0000 0.29984  0.22293  0.23365  Biso   1.000  He
  He834    1.0000 0.30800  0.20102  0.21054  Biso   1.000  He
  Ne834    1.0000 0.30082  0.21188  0.17867  Biso   1.000  Ne
  Ne835    1.0000 0.20817  0.62932  0.72918  Biso   1.000  Ne
  He835    1.0000 0.23630  0.64131  0.74541  Biso   1.000  He
  He836    1.0000 0.23615  0.63437  0.77633  Biso   1.000  He
  Ne836    1.0000 0.26560  0.63937  0.79312  Biso   1.000  Ne
  Ne837    1.0000 0.46542  0.69953  0.36828  Biso   1.000  Ne
  He837    1.0000 0.45119  0.70900  0.34068  Biso   1.000  He
  He838    1.0000 0.46530  0.69760  0.31366  Biso   1.000  He
  Ne838    1.0000 0.44845  0.70403  0.28928  Biso   1.000  Ne
  Ne839    1.0000 0.07247  0.11534  0.31478  Biso   1.000  Ne
  He839    1.0000 0.08288  0.14254  0.29888  Biso   1.000  He
  He840    1.0000 0.05901  0.16526  0.29196  Biso   1.000  He
  Ne840    1.0000 0.07314  0.18943  0.27954  Biso   1.000  Ne
  Ne841    1.0000 0.84225  0.42335  0.39230  Biso   1.000  Ne
  He841    1.0000 0.87216  0.41557  0.40843  Biso   1.000  He
  He842    1.0000 0.89814  0.41297  0.38786  Biso   1.000  He
  Ne842    1.0000 0.92782  0.40512  0.39939  Biso   1.000  Ne
  Ne843    1.0000 0.79240  0.70572  0.96504  Biso   1.000  Ne
  He843    1.0000 0.80160  0.73840  0.97007  Biso   1.000  He
  He844    1.0000 0.80090  0.75929  0.94288  Biso   1.000  He
  Ne844    1.0000 0.80815  0.79172  0.95001  Biso   1.000  Ne
  Ne845    1.0000 0.34264  0.64106  0.84767  Biso   1.000  Ne
  He845    1.0000 0.33172  0.62035  0.87391  Biso   1.000  He
  He846    1.0000 0.32712  0.58623  0.86916  Biso   1.000  He
  Ne846    1.0000 0.31678  0.57055  0.89620  Biso   1.000  Ne
  Ne847    1.0000 0.01035  0.18711  0.38189  Biso   1.000  Ne
  He847    1.0000 0.03096  0.21234  0.37341  Biso   1.000  He
  He848    1.0000 0.05775  0.21689  0.39278  Biso   1.000  He
  Ne848    1.0000 0.07085  0.24549  0.38380  Biso   1.000  Ne
  Ne849    1.0000 0.11384  0.40047  0.45059  Biso   1.000  Ne
  He849    1.0000 0.14277  0.41594  0.43947  Biso   1.000  He
  He850    1.0000 0.17073  0.40035  0.45155  Biso   1.000  He
  Ne850    1.0000 0.19895  0.40940  0.44383  Biso   1.000  Ne
  Ne851    1.0000 0.88991  0.45140  0.02783  Biso   1.000  Ne
  He851    1.0000 0.89360  0.46039  0.05554  Biso   1.000  He
  He852    1.0000 0.86414  0.46707  0.07207  Biso   1.000  He
  Ne852    1.0000 0.86912  0.48149  0.10053  Biso   1.000  Ne
  Ne853    1.0000 0.06244  0.54483  0.95986  Biso   1.000  Ne
  He853    1.0000 0.07499  0.53257  0.92894  Biso   1.000  He
  He854    1.0000 0.05958  0.50331  0.91908  Biso   1.000  He
  Ne854    1.0000 0.06812  0.49181  0.89236  Biso   1.000  Ne
  Ne855    1.0000 0.96038  0.03202  0.08765  Biso   1.000  Ne
  He855    1.0000 0.94539  0.06048  0.09984  Biso   1.000  He
  He856    1.0000 0.91392  0.05314  0.11304  Biso   1.000  He
  Ne856    1.0000 0.89407  0.08139  0.11973  Biso   1.000  Ne
  Ne857    1.0000 0.22481  0.29330  0.17981  Biso   1.000  Ne
  He857    1.0000 0.23687  0.31392  0.20082  Biso   1.000  He
  He858    1.0000 0.25301  0.29785  0.22280  Biso   1.000  He
  Ne858    1.0000 0.26690  0.31817  0.24698  Biso   1.000  Ne
  Ne859    1.0000 0.06561  0.68983  0.01485  Biso   1.000  Ne
  He859    1.0000 0.06646  0.68133  0.04834  Biso   1.000  He
  He860    1.0000 0.03632  0.66688  0.06222  Biso   1.000  He
  Ne860    1.0000 0.03595  0.65774  0.09322  Biso   1.000  Ne
  Ne861    1.0000 0.75378  0.58700  0.87168  Biso   1.000  Ne
  He861    1.0000 0.72144  0.58835  0.86895  Biso   1.000  He
  He862    1.0000 0.70896  0.57745  0.84190  Biso   1.000  He
  Ne862    1.0000 0.67543  0.57947  0.84027  Biso   1.000  Ne
  Ne863    1.0000 0.12735  0.25216  0.84679  Biso   1.000  Ne
  He863    1.0000 0.13451  0.23922  0.87692  Biso   1.000  He
  He864    1.0000 0.16510  0.24940  0.89161  Biso   1.000  He
  Ne864    1.0000 0.17120  0.23253  0.92141  Biso   1.000  Ne
  Ne865    1.0000 0.37115  0.69023  0.69231  Biso   1.000  Ne
  He865    1.0000 0.34470  0.68327  0.67530  Biso   1.000  He
  He866    1.0000 0.33511  0.70479  0.65055  Biso   1.000  He
  Ne866    1.0000 0.31299  0.69419  0.62972  Biso   1.000  Ne
  Ne867    1.0000 0.11328  0.21312  0.68006  Biso   1.000  Ne
  He867    1.0000 0.12727  0.18595  0.68535  Biso   1.000  He
  He868    1.0000 0.11543  0.15951  0.66916  Biso   1.000  He
  Ne868    1.0000 0.09129  0.13904  0.68550  Biso   1.000  Ne
  Ne869    1.0000 0.28921  0.82558  0.10937  Biso   1.000  Ne
  He869    1.0000 0.25575  0.82110  0.11294  Biso   1.000  He
  He870    1.0000 0.24651  0.81769  0.14520  Biso   1.000  He
  Ne870    1.0000 0.21587  0.81461  0.15059  Biso   1.000  Ne
  Ne871    1.0000 0.70679  0.36522  0.57113  Biso   1.000  Ne
  He871    1.0000 0.70787  0.35473  0.60378  Biso   1.000  He
  He872    1.0000 0.73095  0.37172  0.61929  Biso   1.000  He
  Ne872    1.0000 0.73644  0.36150  0.65221  Biso   1.000  Ne
  Ne873    1.0000 0.93716  0.89894  0.43125  Biso   1.000  Ne
  He873    1.0000 0.94137  0.91237  0.40151  Biso   1.000  He
  He874    1.0000 0.94420  0.94448  0.40209  Biso   1.000  He
  Ne874    1.0000 0.94270  0.96403  0.37345  Biso   1.000  Ne
  Ne875    1.0000 0.81996  0.29300  0.71263  Biso   1.000  Ne
  He875    1.0000 0.82314  0.26259  0.72567  Biso   1.000  He
  He876    1.0000 0.80420  0.23954  0.71334  Biso   1.000  He
  Ne876    1.0000 0.80060  0.21542  0.73434  Biso   1.000  Ne
  Ne877    1.0000 0.87499  0.08459  0.70022  Biso   1.000  Ne
  He877    1.0000 0.86319  0.11655  0.70263  Biso   1.000  He
  He878    1.0000 0.86454  0.12665  0.73593  Biso   1.000  He
  Ne878    1.0000 0.84296  0.15205  0.74019  Biso   1.000  Ne
  Ne879    1.0000 0.13375  0.95178  0.44133  Biso   1.000  Ne
  He879    1.0000 0.13454  0.91558  0.43646  Biso   1.000  He
  He880    1.0000 0.14580  0.90650  0.40721  Biso   1.000  He
  Ne880    1.0000 0.14521  0.87485  0.40185  Biso   1.000  Ne
  Ne881    1.0000 0.52771  0.11237  0.19331  Biso   1.000  Ne
  He881    1.0000 0.55045  0.08791  0.19522  Biso   1.000  He
  He882    1.0000 0.57702  0.09176  0.17390  Biso   1.000  He
  Ne882    1.0000 0.60210  0.06994  0.17808  Biso   1.000  Ne
  Ne883    1.0000 0.18625  0.56700  0.62580  Biso   1.000  Ne
  He883    1.0000 0.15780  0.56760  0.63962  Biso   1.000  He
  He884    1.0000 0.13196  0.55902  0.62219  Biso   1.000  He
  Ne884    1.0000 0.10364  0.56491  0.63856  Biso   1.000  Ne
  Ne885    1.0000 0.17580  0.57806  0.45447  Biso   1.000  Ne
  He885    1.0000 0.18474  0.57559  0.42464  Biso   1.000  He
  He886    1.0000 0.19644  0.60230  0.40826  Biso   1.000  He
  Ne886    1.0000 0.21048  0.59513  0.37734  Biso   1.000  Ne
  Ne887    1.0000 0.62389  0.33519  0.33034  Biso   1.000  Ne
  He887    1.0000 0.59730  0.35303  0.32003  Biso   1.000  He
  He888    1.0000 0.60569  0.38472  0.30554  Biso   1.000  He
  Ne888    1.0000 0.58008  0.40036  0.29369  Biso   1.000  Ne
  Ne889    1.0000 0.50241  0.69921  0.51560  Biso   1.000  Ne
  He889    1.0000 0.48329  0.70036  0.49090  Biso   1.000  He
  He890    1.0000 0.48309  0.73091  0.47998  Biso   1.000  He
  Ne890    1.0000 0.46384  0.73772  0.45558  Biso   1.000  Ne
  Ne891    1.0000 0.42432  0.47484  0.52531  Biso   1.000  Ne
  He891    1.0000 0.42120  0.47888  0.55510  Biso   1.000  He
  He892    1.0000 0.43911  0.45653  0.57400  Biso   1.000  He
  Ne892    1.0000 0.43080  0.45377  0.60602  Biso   1.000  Ne
  Ne893    1.0000 0.77374  0.38570  0.17229  Biso   1.000  Ne
  He893    1.0000 0.77020  0.38573  0.20398  Biso   1.000  He
  He894    1.0000 0.78734  0.36058  0.21806  Biso   1.000  He
  Ne894    1.0000 0.78425  0.35871  0.25121  Biso   1.000  Ne
  Ne895    1.0000 0.95551  0.96215  0.03831  Biso   1.000  Ne
  He895    1.0000 0.95795  0.95607  0.07274  Biso   1.000  He
  He896    1.0000 0.98682  0.93816  0.07972  Biso   1.000  He
  Ne896    1.0000 0.99254  0.93396  0.11169  Biso   1.000  Ne
  Ne897    1.0000 0.89116  0.65474  0.31774  Biso   1.000  Ne
  He897    1.0000 0.90589  0.65112  0.34710  Biso   1.000  He
  He898    1.0000 0.89430  0.62525  0.36343  Biso   1.000  He
  Ne898    1.0000 0.90447  0.61505  0.39317  Biso   1.000  Ne
  Ne899    1.0000 0.90156  0.93322  0.78365  Biso   1.000  Ne
  He899    1.0000 0.93045  0.93072  0.76825  Biso   1.000  He
  He900    1.0000 0.93258  0.90623  0.74633  Biso   1.000  He
  Ne900    1.0000 0.95973  0.90608  0.72764  Biso   1.000  Ne
