data_image0
_cell_length_a       47.2342
_cell_length_b       46.952
_cell_length_c       46.6262
_cell_angle_alpha    90
_cell_angle_beta     90
_cell_angle_gamma    90

_symmetry_space_group_name_H-M    "P 1"
_symmetry_int_tables_number       1

loop_
  _symmetry_equiv_pos_as_xyz
  'x, y, z'

loop_
  _atom_site_label
  _atom_site_occupancy
  _atom_site_fract_x
  _atom_site_fract_y
  _atom_site_fract_z
  _atom_site_thermal_displace_type
  _atom_site_B_iso_or_equiv
  _atom_site_type_symbol
  Ne1      1.0000 0.42646  0.61533  0.96111  Biso   1.000  Ne
  He1      1.0000 0.40937  0.63751  0.97322  Biso   1.000  He
  He2      1.0000 0.39377  0.65645  0.95011  Biso   1.000  He
  Ne2      1.0000 0.37870  0.68600  0.95690  Biso   1.000  Ne
  Ne3      1.0000 0.32628  0.87162  0.61282  Biso   1.000  Ne
  He3      1.0000 0.33109  0.84523  0.62965  Biso   1.000  He
  He4      1.0000 0.34997  0.82454  0.60949  Biso   1.000  He
  Ne4      1.0000 0.35483  0.79707  0.62341  Biso   1.000  Ne
  Ne5      1.0000 0.41666  0.17139  0.40677  Biso   1.000  Ne
  He5      1.0000 0.38894  0.17993  0.42295  Biso   1.000  He
  He6      1.0000 0.38092  0.21072  0.42135  Biso   1.000  He
  Ne6      1.0000 0.35859  0.21764  0.44299  Biso   1.000  Ne
  Ne7      1.0000 0.96005  0.96595  0.11840  Biso   1.000  Ne
  He7      1.0000 0.95047  0.93651  0.10879  Biso   1.000  He
  He8      1.0000 0.92129  0.92538  0.11862  Biso   1.000  He
  Ne8      1.0000 0.91234  0.89454  0.10638  Biso   1.000  Ne
  Ne9      1.0000 0.16509  0.61927  0.42851  Biso   1.000  Ne
  He9      1.0000 0.17705  0.58736  0.43032  Biso   1.000  He
  He10     1.0000 0.19015  0.57602  0.40347  Biso   1.000  He
  Ne10     1.0000 0.20284  0.54559  0.40871  Biso   1.000  Ne
  Ne11     1.0000 0.58474  0.59787  0.94918  Biso   1.000  Ne
  He11     1.0000 0.59086  0.62556  0.96901  Biso   1.000  He
  He12     1.0000 0.62269  0.64102  0.96571  Biso   1.000  He
  Ne12     1.0000 0.62410  0.66708  0.98581  Biso   1.000  Ne
  Ne13     1.0000 0.18149  0.69498  0.62172  Biso   1.000  Ne
  He13     1.0000 0.19367  0.66770  0.60735  Biso   1.000  He
  He14     1.0000 0.20416  0.64354  0.62691  Biso   1.000  He
  Ne14     1.0000 0.21002  0.61509  0.61020  Biso   1.000  Ne
  Ne15     1.0000 0.68081  0.90484  0.35144  Biso   1.000  Ne
  He15     1.0000 0.70996  0.89270  0.34177  Biso   1.000  He
  He16     1.0000 0.72037  0.86708  0.36066  Biso   1.000  He
  Ne16     1.0000 0.71258  0.83628  0.35018  Biso   1.000  Ne
  Ne17     1.0000 0.72444  0.09278  0.30979  Biso   1.000  Ne
  He17     1.0000 0.74502  0.06653  0.31381  Biso   1.000  He
  He18     1.0000 0.76961  0.06530  0.28958  Biso   1.000  He
  Ne18     1.0000 0.79155  0.03899  0.29290  Biso   1.000  Ne
  Ne19     1.0000 0.59630  0.04457  0.63458  Biso   1.000  Ne
  He19     1.0000 0.59540  0.07277  0.65409  Biso   1.000  He
  He20     1.0000 0.59772  0.06923  0.68785  Biso   1.000  He
  Ne20     1.0000 0.59205  0.09715  0.70629  Biso   1.000  Ne
  Ne21     1.0000 0.61908  0.83814  0.63588  Biso   1.000  Ne
  He21     1.0000 0.59616  0.81359  0.63902  Biso   1.000  He
  He22     1.0000 0.60801  0.78280  0.63271  Biso   1.000  He
  Ne22     1.0000 0.58398  0.75522  0.63481  Biso   1.000  Ne
  Ne23     1.0000 0.69208  0.06929  0.43889  Biso   1.000  Ne
  He23     1.0000 0.67911  0.10064  0.43806  Biso   1.000  He
  He24     1.0000 0.70086  0.12393  0.44311  Biso   1.000  He
  Ne24     1.0000 0.69601  0.15272  0.43190  Biso   1.000  Ne
  Ne25     1.0000 0.43796  0.32790  0.96051  Biso   1.000  Ne
  He25     1.0000 0.41378  0.30238  0.95821  Biso   1.000  He
  He26     1.0000 0.42413  0.27456  0.94332  Biso   1.000  He
  Ne26     1.0000 0.40165  0.25068  0.94299  Biso   1.000  Ne
  Ne27     1.0000 0.18101  0.35583  0.31187  Biso   1.000  Ne
  He27     1.0000 0.16729  0.33088  0.33071  Biso   1.000  He
  He28     1.0000 0.18717  0.30538  0.33917  Biso   1.000  He
  Ne28     1.0000 0.17092  0.27582  0.34852  Biso   1.000  Ne
  Ne29     1.0000 0.09042  0.05051  0.17400  Biso   1.000  Ne
  He29     1.0000 0.05895  0.04135  0.16819  Biso   1.000  He
  He30     1.0000 0.05142  0.03599  0.13449  Biso   1.000  He
  Ne30     1.0000 0.02057  0.02689  0.12726  Biso   1.000  Ne
  Ne31     1.0000 0.81936  0.56168  0.67115  Biso   1.000  Ne
  He31     1.0000 0.85218  0.55748  0.67851  Biso   1.000  He
  He32     1.0000 0.86292  0.55917  0.71155  Biso   1.000  He
  Ne32     1.0000 0.89582  0.55307  0.71591  Biso   1.000  Ne
  Ne33     1.0000 0.67126  0.90539  0.43529  Biso   1.000  Ne
  He33     1.0000 0.70299  0.89430  0.43999  Biso   1.000  He
  He34     1.0000 0.71892  0.91039  0.46325  Biso   1.000  He
  Ne34     1.0000 0.75104  0.90167  0.46417  Biso   1.000  Ne
  Ne35     1.0000 0.60810  0.53729  0.19074  Biso   1.000  Ne
  He35     1.0000 0.59485  0.54863  0.21829  Biso   1.000  He
  He36     1.0000 0.61681  0.55900  0.23887  Biso   1.000  He
  Ne36     1.0000 0.60004  0.56825  0.26671  Biso   1.000  Ne
  Ne37     1.0000 0.41690  0.87981  0.36972  Biso   1.000  Ne
  He37     1.0000 0.38361  0.87515  0.36889  Biso   1.000  He
  He38     1.0000 0.36801  0.88332  0.33920  Biso   1.000  He
  Ne38     1.0000 0.33516  0.87969  0.34209  Biso   1.000  Ne
  Ne39     1.0000 0.08025  0.89531  0.26232  Biso   1.000  Ne
  He39     1.0000 0.09096  0.86563  0.25468  Biso   1.000  He
  He40     1.0000 0.11238  0.85260  0.27657  Biso   1.000  He
  Ne40     1.0000 0.11911  0.82031  0.26713  Biso   1.000  Ne
  Ne41     1.0000 0.30322  0.29580  0.55755  Biso   1.000  Ne
  He41     1.0000 0.30539  0.30526  0.52512  Biso   1.000  He
  He42     1.0000 0.32332  0.28315  0.50405  Biso   1.000  He
  Ne42     1.0000 0.30854  0.25945  0.48911  Biso   1.000  Ne
  Ne43     1.0000 0.49365  0.40016  0.11352  Biso   1.000  Ne
  He43     1.0000 0.48724  0.42704  0.09428  Biso   1.000  He
  He44     1.0000 0.45688  0.44142  0.10059  Biso   1.000  He
  Ne44     1.0000 0.44964  0.46431  0.07930  Biso   1.000  Ne
  Ne45     1.0000 0.94094  0.04205  0.83314  Biso   1.000  Ne
  He45     1.0000 0.91694  0.04261  0.85454  Biso   1.000  He
  He46     1.0000 0.88870  0.04508  0.84022  Biso   1.000  He
  Ne46     1.0000 0.86151  0.04354  0.86103  Biso   1.000  Ne
  Ne47     1.0000 0.43933  0.78877  0.32819  Biso   1.000  Ne
  He47     1.0000 0.40659  0.78751  0.32045  Biso   1.000  He
  He48     1.0000 0.39937  0.80874  0.29894  Biso   1.000  He
  Ne48     1.0000 0.36707  0.80702  0.29118  Biso   1.000  Ne
  Ne49     1.0000 0.26008  0.03978  0.96011  Biso   1.000  Ne
  He49     1.0000 0.24619  0.06967  0.95773  Biso   1.000  He
  He50     1.0000 0.21594  0.07121  0.94560  Biso   1.000  He
  Ne50     1.0000 0.19972  0.09861  0.95066  Biso   1.000  Ne
  Ne51     1.0000 0.70840  0.07159  0.69078  Biso   1.000  Ne
  He51     1.0000 0.68522  0.08425  0.66800  Biso   1.000  He
  He52     1.0000 0.69208  0.07639  0.63660  Biso   1.000  He
  Ne52     1.0000 0.67036  0.08286  0.61274  Biso   1.000  Ne
  Ne53     1.0000 0.91642  0.30760  0.71110  Biso   1.000  Ne
  He53     1.0000 0.91004  0.33957  0.69932  Biso   1.000  He
  He54     1.0000 0.91244  0.36508  0.72181  Biso   1.000  He
  Ne54     1.0000 0.90798  0.39308  0.70730  Biso   1.000  Ne
  Ne55     1.0000 0.25600  0.53113  0.92049  Biso   1.000  Ne
  He55     1.0000 0.22363  0.52319  0.91247  Biso   1.000  He
  He56     1.0000 0.20991  0.54073  0.88984  Biso   1.000  He
  Ne56     1.0000 0.17574  0.53398  0.89018  Biso   1.000  Ne
  Ne57     1.0000 0.12328  0.76058  0.13090  Biso   1.000  Ne
  He57     1.0000 0.11996  0.77841  0.15902  Biso   1.000  He
  He58     1.0000 0.08764  0.78200  0.17014  Biso   1.000  He
  Ne58     1.0000 0.08562  0.79750  0.19697  Biso   1.000  Ne
  Ne59     1.0000 0.19878  0.39494  0.62358  Biso   1.000  Ne
  He59     1.0000 0.20724  0.37845  0.65362  Biso   1.000  He
  He60     1.0000 0.18123  0.37048  0.67526  Biso   1.000  He
  Ne60     1.0000 0.18633  0.34942  0.69984  Biso   1.000  Ne
  Ne61     1.0000 0.36055  0.02446  0.60828  Biso   1.000  Ne
  He61     1.0000 0.39061  0.03516  0.61604  Biso   1.000  He
  He62     1.0000 0.40373  0.05489  0.59235  Biso   1.000  He
  Ne62     1.0000 0.43464  0.06853  0.59514  Biso   1.000  Ne
  Ne63     1.0000 0.08706  0.07259  0.83616  Biso   1.000  Ne
  He63     1.0000 0.08366  0.07494  0.87059  Biso   1.000  He
  He64     1.0000 0.08889  0.04492  0.88629  Biso   1.000  He
  Ne64     1.0000 0.09307  0.04568  0.91768  Biso   1.000  Ne
  Ne65     1.0000 0.14011  0.87940  0.12349  Biso   1.000  Ne
  He65     1.0000 0.13427  0.87287  0.15659  Biso   1.000  He
  He66     1.0000 0.16508  0.87119  0.17344  Biso   1.000  He
  Ne66     1.0000 0.16245  0.86513  0.20536  Biso   1.000  Ne
  Ne67     1.0000 0.78344  0.28265  0.32385  Biso   1.000  Ne
  He67     1.0000 0.78227  0.28600  0.35366  Biso   1.000  He
  He68     1.0000 0.80260  0.30856  0.36766  Biso   1.000  He
  Ne68     1.0000 0.78838  0.32025  0.39701  Biso   1.000  Ne
  Ne69     1.0000 0.26390  0.11634  0.61582  Biso   1.000  Ne
  He69     1.0000 0.28496  0.13895  0.62702  Biso   1.000  He
  He70     1.0000 0.31516  0.13119  0.62574  Biso   1.000  He
  Ne70     1.0000 0.33390  0.15346  0.64115  Biso   1.000  Ne
  Ne71     1.0000 0.89834  0.24241  0.20634  Biso   1.000  Ne
  He71     1.0000 0.91146  0.21432  0.21943  Biso   1.000  He
  He72     1.0000 0.91347  0.18879  0.19961  Biso   1.000  He
  Ne72     1.0000 0.92814  0.16044  0.21140  Biso   1.000  Ne
  Ne73     1.0000 0.28022  0.57252  0.66538  Biso   1.000  Ne
  He73     1.0000 0.26031  0.56203  0.69251  Biso   1.000  He
  He74     1.0000 0.23101  0.58040  0.69776  Biso   1.000  He
  Ne74     1.0000 0.20399  0.56739  0.68373  Biso   1.000  Ne
  Ne75     1.0000 0.56500  0.23267  0.28802  Biso   1.000  Ne
  He75     1.0000 0.55939  0.25708  0.30867  Biso   1.000  He
  He76     1.0000 0.56435  0.28743  0.29836  Biso   1.000  He
  Ne76     1.0000 0.55446  0.31046  0.32111  Biso   1.000  Ne
  Ne77     1.0000 0.98163  0.40995  0.62032  Biso   1.000  Ne
  He77     1.0000 0.99436  0.41298  0.58811  Biso   1.000  He
  He78     1.0000 0.01802  0.38843  0.57803  Biso   1.000  He
  Ne78     1.0000 0.03063  0.39062  0.54944  Biso   1.000  Ne
  Ne79     1.0000 0.51936  0.14729  0.13577  Biso   1.000  Ne
  He79     1.0000 0.53772  0.15709  0.16099  Biso   1.000  He
  He80     1.0000 0.56288  0.17664  0.14923  Biso   1.000  He
  Ne80     1.0000 0.58404  0.18961  0.17190  Biso   1.000  Ne
  Ne81     1.0000 0.92593  0.79229  0.29443  Biso   1.000  Ne
  He81     1.0000 0.91695  0.79149  0.26214  Biso   1.000  He
  He82     1.0000 0.88187  0.78837  0.26115  Biso   1.000  He
  Ne82     1.0000 0.86785  0.79313  0.23075  Biso   1.000  Ne
  Ne83     1.0000 0.70123  0.49679  0.41929  Biso   1.000  Ne
  He83     1.0000 0.71691  0.51243  0.39395  Biso   1.000  He
  He84     1.0000 0.73378  0.54021  0.40154  Biso   1.000  He
  Ne84     1.0000 0.74876  0.55977  0.38048  Biso   1.000  Ne
  Ne85     1.0000 0.90002  0.68555  0.45375  Biso   1.000  Ne
  He85     1.0000 0.91038  0.65474  0.45524  Biso   1.000  He
  He86     1.0000 0.94387  0.65326  0.45194  Biso   1.000  He
  Ne86     1.0000 0.95644  0.62201  0.45933  Biso   1.000  Ne
  Ne87     1.0000 0.37477  0.07034  0.70727  Biso   1.000  Ne
  He87     1.0000 0.40344  0.08207  0.71632  Biso   1.000  He
  He88     1.0000 0.40266  0.10855  0.73328  Biso   1.000  He
  Ne88     1.0000 0.43274  0.11668  0.74257  Biso   1.000  Ne
  Ne89     1.0000 0.29846  0.57985  0.52180  Biso   1.000  Ne
  He89     1.0000 0.30159  0.56331  0.55097  Biso   1.000  He
  He90     1.0000 0.27124  0.55730  0.56487  Biso   1.000  He
  Ne90     1.0000 0.27222  0.53855  0.59281  Biso   1.000  Ne
  Ne91     1.0000 0.15674  0.89239  0.92461  Biso   1.000  Ne
  He91     1.0000 0.15657  0.85822  0.92786  Biso   1.000  He
  He92     1.0000 0.16984  0.84501  0.95502  Biso   1.000  He
  Ne92     1.0000 0.16860  0.81144  0.94992  Biso   1.000  Ne
  Ne93     1.0000 0.51810  0.91907  0.61431  Biso   1.000  Ne
  He93     1.0000 0.54457  0.93220  0.59435  Biso   1.000  He
  He94     1.0000 0.57264  0.92922  0.61243  Biso   1.000  He
  Ne94     1.0000 0.60021  0.93790  0.59413  Biso   1.000  Ne
  Ne95     1.0000 0.57742  0.22263  0.40482  Biso   1.000  Ne
  He95     1.0000 0.57849  0.19721  0.42874  Biso   1.000  He
  He96     1.0000 0.60477  0.17662  0.42583  Biso   1.000  He
  Ne96     1.0000 0.59880  0.14848  0.44292  Biso   1.000  Ne
  Ne97     1.0000 0.27604  0.86220  0.25455  Biso   1.000  Ne
  He97     1.0000 0.28605  0.84667  0.28346  Biso   1.000  He
  He98     1.0000 0.25819  0.83395  0.30048  Biso   1.000  He
  Ne98     1.0000 0.26460  0.81566  0.32703  Biso   1.000  Ne
  Ne99     1.0000 0.58063  0.61200  0.16207  Biso   1.000  Ne
  He99     1.0000 0.59127  0.60052  0.13307  Biso   1.000  He
  He100    1.0000 0.58613  0.56868  0.12631  Biso   1.000  He
  Ne100    1.0000 0.59351  0.55988  0.09429  Biso   1.000  Ne
  Ne101    1.0000 0.87137  0.55884  0.34528  Biso   1.000  Ne
  He101    1.0000 0.90286  0.56792  0.34089  Biso   1.000  He
  He102    1.0000 0.91712  0.58479  0.36413  Biso   1.000  He
  Ne102    1.0000 0.94771  0.59420  0.35214  Biso   1.000  Ne
  Ne103    1.0000 0.32360  0.75669  0.41410  Biso   1.000  Ne
  He103    1.0000 0.32343  0.78435  0.42869  Biso   1.000  He
  He104    1.0000 0.33818  0.80895  0.41210  Biso   1.000  He
  Ne104    1.0000 0.33522  0.83922  0.42761  Biso   1.000  Ne
  Ne105    1.0000 0.65747  0.08660  0.36228  Biso   1.000  Ne
  He105    1.0000 0.62864  0.09890  0.35247  Biso   1.000  He
  He106    1.0000 0.62596  0.13227  0.36264  Biso   1.000  He
  Ne106    1.0000 0.59496  0.14517  0.35369  Biso   1.000  Ne
  Ne107    1.0000 0.61865  0.81214  0.39919  Biso   1.000  Ne
  He107    1.0000 0.61665  0.82119  0.43050  Biso   1.000  He
  He108    1.0000 0.64127  0.81165  0.44677  Biso   1.000  He
  Ne108    1.0000 0.64035  0.82469  0.47570  Biso   1.000  Ne
  Ne109    1.0000 0.30361  0.15806  0.44494  Biso   1.000  Ne
  He109    1.0000 0.27963  0.14155  0.43136  Biso   1.000  He
  He110    1.0000 0.24955  0.15509  0.43898  Biso   1.000  He
  Ne110    1.0000 0.21945  0.13847  0.42990  Biso   1.000  Ne
  Ne111    1.0000 0.34275  0.06258  0.44368  Biso   1.000  Ne
  He111    1.0000 0.37148  0.06759  0.45605  Biso   1.000  He
  He112    1.0000 0.39086  0.08686  0.43442  Biso   1.000  He
  Ne112    1.0000 0.41915  0.09916  0.44755  Biso   1.000  Ne
  Ne113    1.0000 0.10318  0.32749  0.69389  Biso   1.000  Ne
  He113    1.0000 0.09468  0.29736  0.70125  Biso   1.000  He
  He114    1.0000 0.11904  0.27937  0.70942  Biso   1.000  He
  Ne114    1.0000 0.11155  0.24972  0.71867  Biso   1.000  Ne
  Ne115    1.0000 0.67857  0.58578  0.18788  Biso   1.000  Ne
  He115    1.0000 0.69842  0.58978  0.16120  Biso   1.000  He
  He116    1.0000 0.73147  0.59122  0.16389  Biso   1.000  He
  Ne116    1.0000 0.74889  0.62113  0.16412  Biso   1.000  Ne
  Ne117    1.0000 0.09657  0.38793  0.79944  Biso   1.000  Ne
  He117    1.0000 0.11394  0.40240  0.77492  Biso   1.000  He
  He118    1.0000 0.10534  0.39402  0.74444  Biso   1.000  He
  Ne118    1.0000 0.12309  0.40923  0.72269  Biso   1.000  Ne
  Ne119    1.0000 0.07154  0.56535  0.47063  Biso   1.000  Ne
  He119    1.0000 0.08434  0.55468  0.44080  Biso   1.000  He
  He120    1.0000 0.10346  0.52975  0.44311  Biso   1.000  He
  Ne120    1.0000 0.11896  0.52234  0.41440  Biso   1.000  Ne
  Ne121    1.0000 0.48707  0.01572  0.44425  Biso   1.000  Ne
  He121    1.0000 0.45899  0.01692  0.46210  Biso   1.000  He
  He122    1.0000 0.46232  0.01723  0.49456  Biso   1.000  He
  Ne122    1.0000 0.43365  0.01886  0.51134  Biso   1.000  Ne
  Ne123    1.0000 0.67198  0.10641  0.23736  Biso   1.000  Ne
  He123    1.0000 0.66752  0.13793  0.24414  Biso   1.000  He
  He124    1.0000 0.65911  0.14628  0.27433  Biso   1.000  He
  Ne124    1.0000 0.64305  0.17302  0.27665  Biso   1.000  Ne
  Ne125    1.0000 0.32980  0.36354  0.25700  Biso   1.000  Ne
  He125    1.0000 0.32541  0.36199  0.22436  Biso   1.000  He
  He126    1.0000 0.35250  0.36823  0.20840  Biso   1.000  He
  Ne126    1.0000 0.34758  0.36915  0.17667  Biso   1.000  Ne
  Ne127    1.0000 0.09046  0.18743  0.36218  Biso   1.000  Ne
  He127    1.0000 0.08012  0.21652  0.35559  Biso   1.000  He
  He128    1.0000 0.09840  0.24019  0.37018  Biso   1.000  He
  Ne128    1.0000 0.09434  0.27188  0.35987  Biso   1.000  Ne
  Ne129    1.0000 0.86734  0.06175  0.25990  Biso   1.000  Ne
  He129    1.0000 0.84762  0.05466  0.23476  Biso   1.000  He
  He130    1.0000 0.84480  0.07645  0.21209  Biso   1.000  He
  Ne130    1.0000 0.82841  0.06514  0.18926  Biso   1.000  Ne
  Ne131    1.0000 0.79047  0.70971  0.99779  Biso   1.000  Ne
  He131    1.0000 0.76816  0.70163  0.97704  Biso   1.000  He
  He132    1.0000 0.76520  0.72057  0.94857  Biso   1.000  He
  Ne132    1.0000 0.74133  0.71617  0.92793  Biso   1.000  Ne
  Ne133    1.0000 0.40492  0.77295  0.67339  Biso   1.000  Ne
  He133    1.0000 0.41306  0.74127  0.66351  Biso   1.000  He
  He134    1.0000 0.39786  0.73341  0.63544  Biso   1.000  He
  Ne134    1.0000 0.40890  0.70425  0.62824  Biso   1.000  Ne
  Ne135    1.0000 0.00556  0.04383  0.03641  Biso   1.000  Ne
  He135    1.0000 0.97345  0.03980  0.03665  Biso   1.000  He
  He136    1.0000 0.96293  0.00821  0.04563  Biso   1.000  He
  Ne136    1.0000 0.93137  0.00288  0.04230  Biso   1.000  Ne
  Ne137    1.0000 0.85091  0.12271  0.91049  Biso   1.000  Ne
  He137    1.0000 0.88399  0.11976  0.91394  Biso   1.000  He
  He138    1.0000 0.89622  0.12802  0.94462  Biso   1.000  He
  Ne138    1.0000 0.92970  0.11775  0.94791  Biso   1.000  Ne
  Ne139    1.0000 0.92267  0.93824  0.99097  Biso   1.000  Ne
  He139    1.0000 0.95104  0.92261  0.00152  Biso   1.000  He
  He140    1.0000 0.94846  0.89512  0.01969  Biso   1.000  He
  Ne140    1.0000 0.97665  0.88872  0.03724  Biso   1.000  Ne
  Ne141    1.0000 0.97927  0.52043  0.44251  Biso   1.000  Ne
  He141    1.0000 0.98440  0.49018  0.45255  Biso   1.000  He
  He142    1.0000 0.01676  0.48272  0.45982  Biso   1.000  He
  Ne142    1.0000 0.02236  0.45215  0.46884  Biso   1.000  Ne
  Ne143    1.0000 0.83693  0.57756  0.42199  Biso   1.000  Ne
  He143    1.0000 0.86456  0.57908  0.43887  Biso   1.000  He
  He144    1.0000 0.87439  0.55077  0.45426  Biso   1.000  He
  Ne144    1.0000 0.90276  0.55058  0.47174  Biso   1.000  Ne
  Ne145    1.0000 0.04571  0.49474  0.62101  Biso   1.000  Ne
  He145    1.0000 0.04901  0.49370  0.58801  Biso   1.000  He
  He146    1.0000 0.08042  0.47974  0.57480  Biso   1.000  He
  Ne146    1.0000 0.08079  0.47620  0.54415  Biso   1.000  Ne
  Ne147    1.0000 0.83778  0.90765  0.12868  Biso   1.000  Ne
  He147    1.0000 0.81642  0.88414  0.14236  Biso   1.000  He
  He148    1.0000 0.83247  0.85591  0.14996  Biso   1.000  He
  Ne148    1.0000 0.81535  0.82707  0.15501  Biso   1.000  Ne
  Ne149    1.0000 0.85441  0.37240  0.34464  Biso   1.000  Ne
  He149    1.0000 0.88689  0.36617  0.33885  Biso   1.000  He
  He150    1.0000 0.89198  0.33780  0.31961  Biso   1.000  He
  Ne150    1.0000 0.92183  0.33207  0.31115  Biso   1.000  Ne
  Ne151    1.0000 0.74130  0.41034  0.10767  Biso   1.000  Ne
  He151    1.0000 0.73271  0.40245  0.13759  Biso   1.000  He
  He152    1.0000 0.69966  0.39823  0.14266  Biso   1.000  He
  Ne152    1.0000 0.69126  0.39261  0.17415  Biso   1.000  Ne
  Ne153    1.0000 0.43348  0.35828  0.86980  Biso   1.000  Ne
  He153    1.0000 0.44000  0.37440  0.89671  Biso   1.000  He
  He154    1.0000 0.43204  0.40645  0.89548  Biso   1.000  He
  Ne154    1.0000 0.43896  0.42519  0.92226  Biso   1.000  Ne
  Ne155    1.0000 0.17725  0.04908  0.14095  Biso   1.000  Ne
  He155    1.0000 0.20701  0.05531  0.15369  Biso   1.000  He
  He156    1.0000 0.22843  0.03058  0.15547  Biso   1.000  He
  Ne156    1.0000 0.25686  0.04184  0.16667  Biso   1.000  Ne
  Ne157    1.0000 0.75123  0.67705  0.47499  Biso   1.000  Ne
  He157    1.0000 0.78238  0.66778  0.46636  Biso   1.000  He
  He158    1.0000 0.79017  0.67388  0.43451  Biso   1.000  He
  Ne158    1.0000 0.82199  0.66642  0.42874  Biso   1.000  Ne
  Ne159    1.0000 0.17006  0.16929  0.11287  Biso   1.000  Ne
  He159    1.0000 0.14646  0.14660  0.12004  Biso   1.000  He
  He160    1.0000 0.11603  0.16033  0.12366  Biso   1.000  He
  Ne160    1.0000 0.09026  0.13716  0.12616  Biso   1.000  Ne
  Ne161    1.0000 0.02670  0.12216  0.34766  Biso   1.000  Ne
  He161    1.0000 0.03937  0.09231  0.33636  Biso   1.000  He
  He162    1.0000 0.05815  0.09460  0.30873  Biso   1.000  He
  Ne162    1.0000 0.07019  0.06647  0.29939  Biso   1.000  Ne
  Ne163    1.0000 0.07747  0.81971  0.90261  Biso   1.000  Ne
  He163    1.0000 0.09911  0.81264  0.88041  Biso   1.000  He
  He164    1.0000 0.12242  0.79196  0.89130  Biso   1.000  He
  Ne164    1.0000 0.14617  0.78564  0.86995  Biso   1.000  Ne
  Ne165    1.0000 0.24182  0.34340  0.45974  Biso   1.000  Ne
  He165    1.0000 0.21783  0.36605  0.45681  Biso   1.000  He
  He166    1.0000 0.19232  0.35751  0.43949  Biso   1.000  He
  Ne166    1.0000 0.19542  0.35940  0.40674  Biso   1.000  Ne
  Ne167    1.0000 0.10593  0.37086  0.37654  Biso   1.000  Ne
  He167    1.0000 0.08933  0.36376  0.40478  Biso   1.000  He
  He168    1.0000 0.09651  0.37851  0.43172  Biso   1.000  He
  Ne168    1.0000 0.08601  0.36027  0.45919  Biso   1.000  Ne
  Ne169    1.0000 0.89155  0.86863  0.85890  Biso   1.000  Ne
  He169    1.0000 0.91391  0.87987  0.83371  Biso   1.000  He
  He170    1.0000 0.90352  0.88019  0.80297  Biso   1.000  He
  Ne170    1.0000 0.92557  0.89073  0.77912  Biso   1.000  Ne
  Ne171    1.0000 0.43397  0.35712  0.23087  Biso   1.000  Ne
  He171    1.0000 0.43981  0.33745  0.20526  Biso   1.000  He
  He172    1.0000 0.43749  0.35432  0.17627  Biso   1.000  He
  Ne172    1.0000 0.44190  0.33069  0.15490  Biso   1.000  Ne
  Ne173    1.0000 0.34245  0.64674  0.22491  Biso   1.000  Ne
  He173    1.0000 0.37108  0.64016  0.21102  Biso   1.000  He
  He174    1.0000 0.39347  0.62306  0.22949  Biso   1.000  He
  Ne174    1.0000 0.41957  0.61520  0.21390  Biso   1.000  Ne
  Ne175    1.0000 0.59050  0.01512  0.26466  Biso   1.000  Ne
  He175    1.0000 0.57155  0.03469  0.28311  Biso   1.000  He
  He176    1.0000 0.58954  0.04307  0.31015  Biso   1.000  He
  Ne176    1.0000 0.57062  0.06133  0.32859  Biso   1.000  Ne
  Ne177    1.0000 0.57545  0.18184  0.02707  Biso   1.000  Ne
  He177    1.0000 0.54258  0.19190  0.02042  Biso   1.000  He
  He178    1.0000 0.52126  0.18483  0.04357  Biso   1.000  He
  Ne178    1.0000 0.48994  0.19154  0.03999  Biso   1.000  Ne
  Ne179    1.0000 0.35927  0.67353  0.11661  Biso   1.000  Ne
  He179    1.0000 0.33231  0.65678  0.12343  Biso   1.000  He
  He180    1.0000 0.34049  0.62485  0.12751  Biso   1.000  He
  Ne180    1.0000 0.31323  0.60769  0.12680  Biso   1.000  Ne
  Ne181    1.0000 0.76208  0.18938  0.89075  Biso   1.000  Ne
  He181    1.0000 0.78198  0.21638  0.88691  Biso   1.000  He
  He182    1.0000 0.77223  0.24577  0.90155  Biso   1.000  He
  Ne182    1.0000 0.79260  0.27198  0.89813  Biso   1.000  Ne
  Ne183    1.0000 0.65520  0.17819  0.59218  Biso   1.000  Ne
  He183    1.0000 0.62349  0.17306  0.59565  Biso   1.000  He
  He184    1.0000 0.61584  0.13940  0.59657  Biso   1.000  He
  Ne184    1.0000 0.58506  0.12933  0.60010  Biso   1.000  Ne
  Ne185    1.0000 0.36708  0.38526  0.95402  Biso   1.000  Ne
  He185    1.0000 0.34932  0.39396  0.92614  Biso   1.000  He
  He186    1.0000 0.34709  0.37380  0.90352  Biso   1.000  He
  Ne186    1.0000 0.33475  0.38841  0.87607  Biso   1.000  Ne
  Ne187    1.0000 0.27235  0.70199  0.42876  Biso   1.000  Ne
  He187    1.0000 0.26774  0.66895  0.42196  Biso   1.000  He
  He188    1.0000 0.25932  0.64906  0.44843  Biso   1.000  He
  Ne188    1.0000 0.25467  0.61817  0.43956  Biso   1.000  Ne
  Ne189    1.0000 0.74320  0.22370  0.66913  Biso   1.000  Ne
  He189    1.0000 0.72747  0.24038  0.64441  Biso   1.000  He
  He190    1.0000 0.73403  0.22847  0.61315  Biso   1.000  He
  Ne190    1.0000 0.71951  0.24505  0.59023  Biso   1.000  Ne
  Ne191    1.0000 0.06290  0.70620  0.21170  Biso   1.000  Ne
  He191    1.0000 0.04805  0.67558  0.21408  Biso   1.000  He
  He192    1.0000 0.05011  0.65776  0.18523  Biso   1.000  He
  Ne192    1.0000 0.03777  0.62782  0.18794  Biso   1.000  Ne
  Ne193    1.0000 0.81912  0.40836  0.44694  Biso   1.000  Ne
  He193    1.0000 0.85064  0.39756  0.43518  Biso   1.000  He
  He194    1.0000 0.86390  0.37344  0.45369  Biso   1.000  He
  Ne194    1.0000 0.86187  0.34085  0.44428  Biso   1.000  Ne
  Ne195    1.0000 0.06476  0.88219  0.08898  Biso   1.000  Ne
  He195    1.0000 0.05128  0.91311  0.09395  Biso   1.000  He
  He196    1.0000 0.05140  0.93289  0.06644  Biso   1.000  He
  Ne196    1.0000 0.04394  0.96299  0.07536  Biso   1.000  Ne
  Ne197    1.0000 0.43829  0.92019  0.59787  Biso   1.000  Ne
  He197    1.0000 0.43682  0.88706  0.60254  Biso   1.000  He
  He198    1.0000 0.42806  0.87969  0.63303  Biso   1.000  He
  Ne198    1.0000 0.42534  0.84816  0.64142  Biso   1.000  Ne
  Ne199    1.0000 0.27880  0.27280  0.38957  Biso   1.000  Ne
  He199    1.0000 0.26333  0.24716  0.40892  Biso   1.000  He
  He200    1.0000 0.23292  0.25671  0.41821  Biso   1.000  He
  Ne200    1.0000 0.21863  0.23800  0.44323  Biso   1.000  Ne
  Ne201    1.0000 0.45976  0.79638  0.23642  Biso   1.000  Ne
  He201    1.0000 0.46125  0.76555  0.24631  Biso   1.000  He
  He202    1.0000 0.43439  0.75010  0.24981  Biso   1.000  He
  Ne202    1.0000 0.43046  0.71936  0.26284  Biso   1.000  Ne
  Ne203    1.0000 0.57182  0.08173  0.41481  Biso   1.000  Ne
  He203    1.0000 0.57947  0.05979  0.44059  Biso   1.000  He
  He204    1.0000 0.57072  0.07053  0.47137  Biso   1.000  He
  Ne204    1.0000 0.57782  0.04875  0.49627  Biso   1.000  Ne
  Ne205    1.0000 0.35383  0.56197  0.96700  Biso   1.000  Ne
  He205    1.0000 0.35533  0.55419  0.93394  Biso   1.000  He
  He206    1.0000 0.33356  0.56591  0.91387  Biso   1.000  He
  Ne206    1.0000 0.33596  0.55178  0.88543  Biso   1.000  Ne
  Ne207    1.0000 0.49168  0.50733  0.98849  Biso   1.000  Ne
  He207    1.0000 0.48929  0.47809  0.97604  Biso   1.000  He
  He208    1.0000 0.51940  0.46693  0.96118  Biso   1.000  He
  Ne208    1.0000 0.51763  0.43755  0.94455  Biso   1.000  Ne
  Ne209    1.0000 0.16002  0.09050  0.85351  Biso   1.000  Ne
  He209    1.0000 0.18834  0.07095  0.86050  Biso   1.000  He
  He210    1.0000 0.21042  0.07544  0.83725  Biso   1.000  He
  Ne210    1.0000 0.23591  0.05500  0.83902  Biso   1.000  Ne
  Ne211    1.0000 0.26865  0.70788  0.11604  Biso   1.000  Ne
  He211    1.0000 0.28610  0.73469  0.10168  Biso   1.000  He
  He212    1.0000 0.31176  0.72347  0.08245  Biso   1.000  He
  Ne212    1.0000 0.32530  0.74613  0.06212  Biso   1.000  Ne
  Ne213    1.0000 0.07353  0.79780  0.78090  Biso   1.000  Ne
  He213    1.0000 0.07369  0.77689  0.80819  Biso   1.000  He
  He214    1.0000 0.08864  0.74831  0.79948  Biso   1.000  He
  Ne214    1.0000 0.09464  0.72825  0.82429  Biso   1.000  Ne
  Ne215    1.0000 0.12246  0.11026  0.23678  Biso   1.000  Ne
  He215    1.0000 0.13165  0.14064  0.23496  Biso   1.000  He
  He216    1.0000 0.11631  0.16328  0.25387  Biso   1.000  He
  Ne216    1.0000 0.12917  0.19450  0.24617  Biso   1.000  Ne
  Ne217    1.0000 0.42484  0.62487  0.85586  Biso   1.000  Ne
  He217    1.0000 0.42663  0.60171  0.88106  Biso   1.000  He
  He218    1.0000 0.43286  0.57140  0.86913  Biso   1.000  He
  Ne218    1.0000 0.42564  0.55215  0.89397  Biso   1.000  Ne
  Ne219    1.0000 0.84871  0.13481  0.12765  Biso   1.000  Ne
  He219    1.0000 0.81569  0.13215  0.12828  Biso   1.000  He
  He220    1.0000 0.79952  0.12728  0.10035  Biso   1.000  He
  Ne220    1.0000 0.76667  0.12427  0.10393  Biso   1.000  Ne
  Ne221    1.0000 0.36128  0.52321  0.12475  Biso   1.000  Ne
  He221    1.0000 0.39366  0.53330  0.12423  Biso   1.000  He
  He222    1.0000 0.39739  0.56110  0.14142  Biso   1.000  He
  Ne222    1.0000 0.42664  0.57280  0.14682  Biso   1.000  Ne
  Ne223    1.0000 0.60442  0.28433  0.95606  Biso   1.000  Ne
  He223    1.0000 0.59395  0.30804  0.93391  Biso   1.000  He
  He224    1.0000 0.60469  0.30294  0.90427  Biso   1.000  He
  Ne224    1.0000 0.58637  0.31926  0.88385  Biso   1.000  Ne
  Ne225    1.0000 0.69686  0.18663  0.16160  Biso   1.000  Ne
  He225    1.0000 0.70161  0.21762  0.14779  Biso   1.000  He
  He226    1.0000 0.67600  0.23569  0.14822  Biso   1.000  He
  Ne226    1.0000 0.67863  0.26536  0.13595  Biso   1.000  Ne
  Ne227    1.0000 0.39402  0.21971  0.10242  Biso   1.000  Ne
  He227    1.0000 0.39488  0.22328  0.13251  Biso   1.000  He
  He228    1.0000 0.42744  0.21483  0.14475  Biso   1.000  He
  Ne228    1.0000 0.43010  0.20965  0.17596  Biso   1.000  Ne
  Ne229    1.0000 0.96333  0.05270  0.43856  Biso   1.000  Ne
  He229    1.0000 0.96236  0.05962  0.40901  Biso   1.000  He
  He230    1.0000 0.96560  0.03501  0.38758  Biso   1.000  He
  Ne230    1.0000 0.96435  0.04972  0.35624  Biso   1.000  Ne
  Ne231    1.0000 0.42524  0.53764  0.24501  Biso   1.000  Ne
  He231    1.0000 0.39368  0.53006  0.25288  Biso   1.000  He
  He232    1.0000 0.37192  0.55247  0.24657  Biso   1.000  He
  Ne232    1.0000 0.34008  0.54462  0.25429  Biso   1.000  Ne
  Ne233    1.0000 0.48059  0.59786  0.76124  Biso   1.000  Ne
  He233    1.0000 0.46025  0.57792  0.77460  Biso   1.000  He
  He234    1.0000 0.43804  0.56958  0.75218  Biso   1.000  He
  Ne234    1.0000 0.41466  0.54909  0.76235  Biso   1.000  Ne
  Ne235    1.0000 0.46184  0.37629  0.30493  Biso   1.000  Ne
  He235    1.0000 0.45164  0.35232  0.32623  Biso   1.000  He
  He236    1.0000 0.46407  0.32190  0.31747  Biso   1.000  He
  Ne236    1.0000 0.45558  0.29725  0.33796  Biso   1.000  Ne
  Ne237    1.0000 0.37717  0.30011  0.86470  Biso   1.000  Ne
  He237    1.0000 0.39891  0.28785  0.84354  Biso   1.000  He
  He238    1.0000 0.40373  0.31506  0.82166  Biso   1.000  He
  Ne238    1.0000 0.42495  0.30856  0.79436  Biso   1.000  Ne
  Ne239    1.0000 0.25698  0.57109  0.30451  Biso   1.000  Ne
  He239    1.0000 0.26540  0.53907  0.31566  Biso   1.000  He
  He240    1.0000 0.24635  0.52902  0.34041  Biso   1.000  He
  Ne240    1.0000 0.25491  0.50007  0.35254  Biso   1.000  Ne
  Ne241    1.0000 0.15455  0.00940  0.37873  Biso   1.000  Ne
  He241    1.0000 0.16690  0.98282  0.36276  Biso   1.000  He
  He242    1.0000 0.17195  0.95905  0.38627  Biso   1.000  He
  Ne242    1.0000 0.18464  0.93090  0.37415  Biso   1.000  Ne
  Ne243    1.0000 0.91484  0.65881  0.66474  Biso   1.000  Ne
  He243    1.0000 0.91503  0.64463  0.63517  Biso   1.000  He
  He244    1.0000 0.92753  0.61463  0.63624  Biso   1.000  He
  Ne244    1.0000 0.92974  0.59984  0.60912  Biso   1.000  Ne
  Ne245    1.0000 0.59053  0.89390  0.39997  Biso   1.000  Ne
  He245    1.0000 0.60637  0.88732  0.37120  Biso   1.000  He
  He246    1.0000 0.58405  0.88231  0.34769  Biso   1.000  He
  Ne246    1.0000 0.59528  0.88204  0.31549  Biso   1.000  Ne
  Ne247    1.0000 0.42718  0.13684  0.65145  Biso   1.000  Ne
  He247    1.0000 0.42697  0.16895  0.63879  Biso   1.000  He
  He248    1.0000 0.41131  0.17255  0.60927  Biso   1.000  He
  Ne248    1.0000 0.41069  0.20311  0.60053  Biso   1.000  Ne
  Ne249    1.0000 0.52692  0.50753  0.32370  Biso   1.000  Ne
  He249    1.0000 0.55547  0.49241  0.32175  Biso   1.000  He
  He250    1.0000 0.58184  0.51021  0.32164  Biso   1.000  He
  Ne250    1.0000 0.60922  0.49586  0.32204  Biso   1.000  Ne
  Ne251    1.0000 0.60318  0.36773  0.14717  Biso   1.000  Ne
  He251    1.0000 0.59735  0.33356  0.14440  Biso   1.000  He
  He252    1.0000 0.59289  0.32303  0.11210  Biso   1.000  He
  Ne252    1.0000 0.58713  0.29038  0.11090  Biso   1.000  Ne
  Ne253    1.0000 0.03772  0.19347  0.49430  Biso   1.000  Ne
  He253    1.0000 0.06988  0.19226  0.48675  Biso   1.000  He
  He254    1.0000 0.08953  0.17961  0.50975  Biso   1.000  He
  Ne254    1.0000 0.11971  0.17706  0.49805  Biso   1.000  Ne
  Ne255    1.0000 0.93196  0.09173  0.09919  Biso   1.000  Ne
  He255    1.0000 0.93342  0.09354  0.13075  Biso   1.000  He
  He256    1.0000 0.91382  0.06983  0.14545  Biso   1.000  He
  Ne256    1.0000 0.91771  0.06618  0.17906  Biso   1.000  Ne
  Ne257    1.0000 0.88675  0.88983  0.25217  Biso   1.000  Ne
  He257    1.0000 0.90923  0.88748  0.22921  Biso   1.000  He
  He258    1.0000 0.90634  0.86146  0.21161  Biso   1.000  He
  Ne258    1.0000 0.93015  0.85845  0.18892  Biso   1.000  Ne
  Ne259    1.0000 0.47535  0.00904  0.60272  Biso   1.000  Ne
  He259    1.0000 0.48725  0.99238  0.57388  Biso   1.000  He
  He260    1.0000 0.51334  0.00963  0.55809  Biso   1.000  He
  Ne260    1.0000 0.52997  0.99445  0.53509  Biso   1.000  Ne
  Ne261    1.0000 0.42750  0.81725  0.46267  Biso   1.000  Ne
  He261    1.0000 0.43458  0.85017  0.45333  Biso   1.000  He
  He262    1.0000 0.44629  0.87109  0.47769  Biso   1.000  He
  Ne262    1.0000 0.44984  0.90212  0.46845  Biso   1.000  Ne
  Ne263    1.0000 0.74368  0.43115  0.36666  Biso   1.000  Ne
  He263    1.0000 0.75647  0.40619  0.35031  Biso   1.000  He
  He264    1.0000 0.73340  0.39169  0.33233  Biso   1.000  He
  Ne264    1.0000 0.74802  0.36816  0.31321  Biso   1.000  Ne
  Ne265    1.0000 0.49960  0.55031  0.08053  Biso   1.000  Ne
  He265    1.0000 0.48322  0.55097  0.05210  Biso   1.000  He
  He266    1.0000 0.45184  0.54750  0.05654  Biso   1.000  He
  Ne266    1.0000 0.43645  0.54545  0.02660  Biso   1.000  Ne
  Ne267    1.0000 0.15812  0.54699  0.59676  Biso   1.000  Ne
  He267    1.0000 0.12769  0.55953  0.60185  Biso   1.000  He
  He268    1.0000 0.12809  0.59157  0.61022  Biso   1.000  He
  Ne268    1.0000 0.09890  0.60388  0.61971  Biso   1.000  Ne
  Ne269    1.0000 0.04210  0.93639  0.96846  Biso   1.000  Ne
  He269    1.0000 0.05672  0.90923  0.98133  Biso   1.000  He
  He270    1.0000 0.05226  0.88166  0.96125  Biso   1.000  He
  Ne270    1.0000 0.06659  0.85727  0.97580  Biso   1.000  Ne
  Ne271    1.0000 0.47872  0.25781  0.49987  Biso   1.000  Ne
  He271    1.0000 0.45725  0.26928  0.47722  Biso   1.000  He
  He272    1.0000 0.47462  0.27709  0.45078  Biso   1.000  He
  Ne272    1.0000 0.45902  0.29274  0.42376  Biso   1.000  Ne
  Ne273    1.0000 0.10164  0.54720  0.28696  Biso   1.000  Ne
  He273    1.0000 0.13108  0.53799  0.29729  Biso   1.000  He
  He274    1.0000 0.13705  0.54557  0.32801  Biso   1.000  He
  Ne274    1.0000 0.17046  0.53831  0.33706  Biso   1.000  Ne
  Ne275    1.0000 0.44633  0.14339  0.82010  Biso   1.000  Ne
  He275    1.0000 0.47217  0.14740  0.84246  Biso   1.000  He
  He276    1.0000 0.46713  0.16622  0.87084  Biso   1.000  He
  Ne276    1.0000 0.49444  0.17020  0.89018  Biso   1.000  Ne
  Ne277    1.0000 0.96140  0.50638  0.62001  Biso   1.000  Ne
  He277    1.0000 0.97339  0.50763  0.58978  Biso   1.000  He
  He278    1.0000 0.94998  0.49719  0.56763  Biso   1.000  He
  Ne278    1.0000 0.95719  0.50258  0.53594  Biso   1.000  Ne
  Ne279    1.0000 0.94287  0.42007  0.42942  Biso   1.000  Ne
  He279    1.0000 0.92562  0.41576  0.46048  Biso   1.000  He
  He280    1.0000 0.94477  0.42495  0.48652  Biso   1.000  He
  Ne280    1.0000 0.92715  0.42121  0.51322  Biso   1.000  Ne
  Ne281    1.0000 0.33685  0.98067  0.22354  Biso   1.000  Ne
  He281    1.0000 0.34010  0.00812  0.20478  Biso   1.000  He
  He282    1.0000 0.35769  0.00574  0.17655  Biso   1.000  He
  Ne282    1.0000 0.35839  0.03523  0.15806  Biso   1.000  Ne
  Ne283    1.0000 0.91821  0.67339  0.77424  Biso   1.000  Ne
  He283    1.0000 0.89041  0.66738  0.75982  Biso   1.000  He
  He284    1.0000 0.88765  0.63962  0.74331  Biso   1.000  He
  Ne284    1.0000 0.85818  0.63383  0.72968  Biso   1.000  Ne
  Ne285    1.0000 0.10134  0.15075  0.94517  Biso   1.000  Ne
  He285    1.0000 0.08746  0.17774  0.93067  Biso   1.000  He
  He286    1.0000 0.10802  0.19493  0.90653  Biso   1.000  He
  Ne286    1.0000 0.09245  0.21810  0.88718  Biso   1.000  Ne
  Ne287    1.0000 0.59073  0.83605  0.73194  Biso   1.000  Ne
  He287    1.0000 0.57764  0.86632  0.73105  Biso   1.000  He
  He288    1.0000 0.59245  0.89045  0.71734  Biso   1.000  He
  Ne288    1.0000 0.58648  0.89047  0.68377  Biso   1.000  Ne
  Ne289    1.0000 0.73611  0.55517  0.92742  Biso   1.000  Ne
  He289    1.0000 0.72611  0.57569  0.94897  Biso   1.000  He
  He290    1.0000 0.73608  0.60704  0.94407  Biso   1.000  He
  Ne290    1.0000 0.71964  0.62391  0.96933  Biso   1.000  Ne
  Ne291    1.0000 0.17728  0.27504  0.63356  Biso   1.000  Ne
  He291    1.0000 0.15292  0.25614  0.62086  Biso   1.000  He
  He292    1.0000 0.12261  0.26869  0.62891  Biso   1.000  He
  Ne292    1.0000 0.09595  0.24968  0.61770  Biso   1.000  Ne
  Ne293    1.0000 0.57490  0.69843  0.78263  Biso   1.000  Ne
  He293    1.0000 0.59807  0.69181  0.80638  Biso   1.000  He
  He294    1.0000 0.58672  0.67988  0.83639  Biso   1.000  He
  Ne294    1.0000 0.60911  0.66796  0.85564  Biso   1.000  Ne
  Ne295    1.0000 0.12551  0.55085  0.68515  Biso   1.000  Ne
  He295    1.0000 0.12301  0.56189  0.71678  Biso   1.000  He
  He296    1.0000 0.09963  0.58564  0.72126  Biso   1.000  He
  Ne296    1.0000 0.09936  0.60068  0.75005  Biso   1.000  Ne
  Ne297    1.0000 0.56375  0.40749  0.28978  Biso   1.000  Ne
  He297    1.0000 0.59303  0.40107  0.30092  Biso   1.000  He
  He298    1.0000 0.61704  0.39647  0.27908  Biso   1.000  He
  Ne298    1.0000 0.64571  0.39007  0.28919  Biso   1.000  Ne
  Ne299    1.0000 0.39329  0.26861  0.28965  Biso   1.000  Ne
  He299    1.0000 0.39992  0.26380  0.25793  Biso   1.000  He
  He300    1.0000 0.37349  0.26904  0.23512  Biso   1.000  He
  Ne300    1.0000 0.38451  0.26875  0.20514  Biso   1.000  Ne
  Ne301    1.0000 0.95720  0.01888  0.93795  Biso   1.000  Ne
  He301    1.0000 0.92324  0.01715  0.93581  Biso   1.000  He
  He302    1.0000 0.90581  0.03010  0.95821  Biso   1.000  He
  Ne302    1.0000 0.87618  0.03411  0.94714  Biso   1.000  Ne
  Ne303    1.0000 0.60449  0.38660  0.81224  Biso   1.000  Ne
  He303    1.0000 0.60491  0.40338  0.84042  Biso   1.000  He
  He304    1.0000 0.62621  0.39606  0.86044  Biso   1.000  He
  Ne304    1.0000 0.61878  0.41344  0.88904  Biso   1.000  Ne
  Ne305    1.0000 0.45955  0.69728  0.47426  Biso   1.000  Ne
  He305    1.0000 0.45748  0.70937  0.44359  Biso   1.000  He
  He306    1.0000 0.44274  0.73905  0.44195  Biso   1.000  He
  Ne306    1.0000 0.43933  0.75034  0.41074  Biso   1.000  Ne
  Ne307    1.0000 0.73782  0.88521  0.62199  Biso   1.000  Ne
  He307    1.0000 0.72802  0.90965  0.64374  Biso   1.000  He
  He308    1.0000 0.71048  0.89588  0.67033  Biso   1.000  He
  Ne308    1.0000 0.67768  0.89258  0.66418  Biso   1.000  Ne
  Ne309    1.0000 0.09068  0.42609  0.64582  Biso   1.000  Ne
  He309    1.0000 0.08751  0.39054  0.64617  Biso   1.000  He
  He310    1.0000 0.10148  0.37460  0.61746  Biso   1.000  He
  Ne310    1.0000 0.09437  0.34213  0.61707  Biso   1.000  Ne
  Ne311    1.0000 0.98654  0.75313  0.38850  Biso   1.000  Ne
  He311    1.0000 0.97415  0.72974  0.36940  Biso   1.000  He
  He312    1.0000 0.94329  0.73490  0.35160  Biso   1.000  He
  Ne312    1.0000 0.93423  0.71385  0.32962  Biso   1.000  Ne
  Ne313    1.0000 0.69393  0.10700  0.14152  Biso   1.000  Ne
  He313    1.0000 0.70096  0.08770  0.16606  Biso   1.000  He
  He314    1.0000 0.67931  0.06199  0.17028  Biso   1.000  He
  Ne314    1.0000 0.68397  0.03593  0.19079  Biso   1.000  Ne
  Ne315    1.0000 0.40591  0.03603  0.26913  Biso   1.000  Ne
  He315    1.0000 0.40322  0.02642  0.30151  Biso   1.000  He
  He316    1.0000 0.40263  0.05211  0.32399  Biso   1.000  He
  Ne316    1.0000 0.39732  0.04375  0.35813  Biso   1.000  Ne
  Ne317    1.0000 0.93603  0.32835  0.43390  Biso   1.000  Ne
  He317    1.0000 0.93212  0.30115  0.45066  Biso   1.000  He
  He318    1.0000 0.92844  0.27189  0.43232  Biso   1.000  He
  Ne318    1.0000 0.92117  0.24815  0.45197  Biso   1.000  Ne
  Ne319    1.0000 0.66001  0.37137  0.95539  Biso   1.000  Ne
  He319    1.0000 0.65064  0.40186  0.96377  Biso   1.000  He
  He320    1.0000 0.61656  0.40119  0.97283  Biso   1.000  He
  Ne320    1.0000 0.60131  0.43022  0.98096  Biso   1.000  Ne
  Ne321    1.0000 0.75286  0.57112  0.59470  Biso   1.000  Ne
  He321    1.0000 0.73796  0.54551  0.58150  Biso   1.000  He
  He322    1.0000 0.72496  0.54912  0.55275  Biso   1.000  He
  Ne322    1.0000 0.70717  0.52333  0.54168  Biso   1.000  Ne
  Ne323    1.0000 0.65700  0.56466  0.81669  Biso   1.000  Ne
  He323    1.0000 0.62708  0.55848  0.83250  Biso   1.000  He
  He324    1.0000 0.61711  0.58031  0.85374  Biso   1.000  He
  Ne324    1.0000 0.59270  0.57057  0.87780  Biso   1.000  Ne
  Ne325    1.0000 0.43296  0.84985  0.78137  Biso   1.000  Ne
  He325    1.0000 0.41192  0.86947  0.76504  Biso   1.000  He
  He326    1.0000 0.40363  0.85649  0.73487  Biso   1.000  He
  Ne326    1.0000 0.38632  0.87487  0.71603  Biso   1.000  Ne
  Ne327    1.0000 0.85275  0.32870  0.59998  Biso   1.000  Ne
  He327    1.0000 0.87819  0.35194  0.60292  Biso   1.000  He
  He328    1.0000 0.86936  0.38128  0.61697  Biso   1.000  He
  Ne328    1.0000 0.89354  0.40072  0.62569  Biso   1.000  Ne
  Ne329    1.0000 0.91495  0.87938  0.93624  Biso   1.000  Ne
  He329    1.0000 0.89644  0.86374  0.96063  Biso   1.000  He
  He330    1.0000 0.86637  0.86447  0.95517  Biso   1.000  He
  Ne330    1.0000 0.84651  0.84922  0.97588  Biso   1.000  Ne
  Ne331    1.0000 0.37197  0.41828  0.73492  Biso   1.000  Ne
  He331    1.0000 0.35133  0.41255  0.75958  Biso   1.000  He
  He332    1.0000 0.33462  0.38422  0.76079  Biso   1.000  He
  Ne332    1.0000 0.31397  0.38095  0.78748  Biso   1.000  Ne
  Ne333    1.0000 0.53955  0.88458  0.49992  Biso   1.000  Ne
  He333    1.0000 0.56506  0.90091  0.48572  Biso   1.000  He
  He334    1.0000 0.59335  0.90488  0.50394  Biso   1.000  He
  Ne334    1.0000 0.61748  0.92463  0.48943  Biso   1.000  Ne
  Ne335    1.0000 0.92724  0.74295  0.17711  Biso   1.000  Ne
  He335    1.0000 0.92781  0.76522  0.15357  Biso   1.000  He
  He336    1.0000 0.90580  0.78721  0.15401  Biso   1.000  He
  Ne336    1.0000 0.90951  0.81342  0.12865  Biso   1.000  Ne
  Ne337    1.0000 0.71719  0.39935  0.87145  Biso   1.000  Ne
  He337    1.0000 0.73128  0.39259  0.84306  Biso   1.000  He
  He338    1.0000 0.76094  0.37879  0.84833  Biso   1.000  He
  Ne338    1.0000 0.77773  0.37043  0.81977  Biso   1.000  Ne
  Ne339    1.0000 0.28909  0.30282  0.27936  Biso   1.000  Ne
  He339    1.0000 0.30489  0.27319  0.27399  Biso   1.000  He
  He340    1.0000 0.29071  0.24865  0.25622  Biso   1.000  He
  Ne340    1.0000 0.30972  0.22279  0.25042  Biso   1.000  Ne
