data_image0
_cell_length_a       47.1063
_cell_length_b       46.5873
_cell_length_c       46.6914
_cell_angle_alpha    90
_cell_angle_beta     90
_cell_angle_gamma    90

_symmetry_space_group_name_H-M    "P 1"
_symmetry_int_tables_number       1

loop_
  _symmetry_equiv_pos_as_xyz
  'x, y, z'

loop_
  _atom_site_label
  _atom_site_occupancy
  _atom_site_fract_x
  _atom_site_fract_y
  _atom_site_fract_z
  _atom_site_thermal_displace_type
  _atom_site_B_iso_or_equiv
  _atom_site_type_symbol
  Ne1      1.0000 0.43064  0.40572  0.26401  Biso   1.000  Ne
  He1      1.0000 0.45826  0.41437  0.27778  Biso   1.000  He
  He2      1.0000 0.46691  0.44532  0.27161  Biso   1.000  He
  Ne2      1.0000 0.49393  0.45522  0.28704  Biso   1.000  Ne
  Ne3      1.0000 0.69938  0.51864  0.42805  Biso   1.000  Ne
  He3      1.0000 0.72652  0.53016  0.43918  Biso   1.000  He
  He4      1.0000 0.73217  0.55866  0.42963  Biso   1.000  He
  Ne4      1.0000 0.74794  0.58014  0.44850  Biso   1.000  Ne
  Ne5      1.0000 0.92659  0.41745  0.65354  Biso   1.000  Ne
  He5      1.0000 0.89546  0.41359  0.65626  Biso   1.000  He
  He6      1.0000 0.88240  0.40481  0.62983  Biso   1.000  He
  Ne6      1.0000 0.84933  0.40411  0.62995  Biso   1.000  Ne
  Ne7      1.0000 0.47074  0.47068  0.96615  Biso   1.000  Ne
  He7      1.0000 0.46064  0.44914  0.94500  Biso   1.000  He
  He8      1.0000 0.47173  0.41757  0.94638  Biso   1.000  He
  Ne8      1.0000 0.45410  0.40139  0.92282  Biso   1.000  Ne
  Ne9      1.0000 0.22557  0.08739  0.81000  Biso   1.000  Ne
  He9      1.0000 0.19850  0.09369  0.83069  Biso   1.000  He
  He10     1.0000 0.16749  0.09442  0.81862  Biso   1.000  He
  Ne10     1.0000 0.14504  0.09207  0.84282  Biso   1.000  Ne
  Ne11     1.0000 0.78048  0.32290  0.61193  Biso   1.000  Ne
  He11     1.0000 0.77667  0.34187  0.63746  Biso   1.000  He
  He12     1.0000 0.76606  0.37060  0.62728  Biso   1.000  He
  Ne12     1.0000 0.76443  0.39393  0.65228  Biso   1.000  Ne
  Ne13     1.0000 0.37439  0.75240  0.59445  Biso   1.000  Ne
  He13     1.0000 0.38587  0.78461  0.59259  Biso   1.000  He
  He14     1.0000 0.41662  0.78851  0.57526  Biso   1.000  He
  Ne14     1.0000 0.42932  0.82010  0.57436  Biso   1.000  Ne
  Ne15     1.0000 0.22896  0.54238  0.12644  Biso   1.000  Ne
  He15     1.0000 0.19952  0.53941  0.13952  Biso   1.000  He
  He16     1.0000 0.19528  0.54980  0.16966  Biso   1.000  He
  Ne16     1.0000 0.16538  0.55492  0.18061  Biso   1.000  Ne
  Ne17     1.0000 0.31652  0.89345  0.35864  Biso   1.000  Ne
  He17     1.0000 0.29901  0.87436  0.37833  Biso   1.000  He
  He18     1.0000 0.26789  0.88243  0.38875  Biso   1.000  He
  Ne18     1.0000 0.25308  0.86162  0.41236  Biso   1.000  Ne
  Ne19     1.0000 0.27453  0.55894  0.30346  Biso   1.000  Ne
  He19     1.0000 0.24713  0.57433  0.31306  Biso   1.000  He
  He20     1.0000 0.22306  0.55301  0.32175  Biso   1.000  He
  Ne20     1.0000 0.19412  0.56854  0.32444  Biso   1.000  Ne
  Ne21     1.0000 0.23155  0.60509  0.24108  Biso   1.000  Ne
  He21     1.0000 0.21615  0.62883  0.22441  Biso   1.000  He
  He22     1.0000 0.18264  0.63227  0.22413  Biso   1.000  He
  Ne22     1.0000 0.17499  0.65563  0.20516  Biso   1.000  Ne
  Ne23     1.0000 0.42553  0.14788  0.58035  Biso   1.000  Ne
  He23     1.0000 0.40637  0.17235  0.59303  Biso   1.000  He
  He24     1.0000 0.37760  0.16258  0.59370  Biso   1.000  He
  Ne24     1.0000 0.35665  0.18580  0.60423  Biso   1.000  Ne
  Ne25     1.0000 0.59044  0.21825  0.30367  Biso   1.000  Ne
  He25     1.0000 0.61379  0.23363  0.32091  Biso   1.000  He
  He26     1.0000 0.60051  0.25227  0.34620  Biso   1.000  He
  Ne26     1.0000 0.62320  0.26149  0.36810  Biso   1.000  Ne
  Ne27     1.0000 0.30606  0.14179  0.75932  Biso   1.000  Ne
  He27     1.0000 0.27947  0.13429  0.74012  Biso   1.000  He
  He28     1.0000 0.27517  0.10080  0.73657  Biso   1.000  He
  Ne28     1.0000 0.24721  0.09526  0.72379  Biso   1.000  Ne
  Ne29     1.0000 0.75818  0.36787  0.43114  Biso   1.000  Ne
  He29     1.0000 0.75167  0.39822  0.41585  Biso   1.000  He
  He30     1.0000 0.72878  0.40049  0.39096  Biso   1.000  He
  Ne30     1.0000 0.72812  0.42996  0.37785  Biso   1.000  Ne
  Ne31     1.0000 0.58378  0.87849  0.57828  Biso   1.000  Ne
  He31     1.0000 0.59276  0.89623  0.55100  Biso   1.000  He
  He32     1.0000 0.58975  0.92942  0.55836  Biso   1.000  He
  Ne32     1.0000 0.59889  0.95155  0.53412  Biso   1.000  Ne
  Ne33     1.0000 0.42134  0.70246  0.09810  Biso   1.000  Ne
  He33     1.0000 0.39249  0.68771  0.09095  Biso   1.000  He
  He34     1.0000 0.39490  0.66799  0.06493  Biso   1.000  He
  Ne34     1.0000 0.37935  0.64046  0.07019  Biso   1.000  Ne
  Ne35     1.0000 0.62469  0.55262  0.06581  Biso   1.000  Ne
  He35     1.0000 0.62990  0.58479  0.07776  Biso   1.000  He
  He36     1.0000 0.60659  0.59973  0.09610  Biso   1.000  He
  Ne36     1.0000 0.59020  0.62290  0.08089  Biso   1.000  Ne
  Ne37     1.0000 0.23364  0.87823  0.81718  Biso   1.000  Ne
  He37     1.0000 0.20246  0.87348  0.82292  Biso   1.000  He
  He38     1.0000 0.18552  0.89999  0.82931  Biso   1.000  He
  Ne38     1.0000 0.15037  0.89858  0.83688  Biso   1.000  Ne
  Ne39     1.0000 0.51117  0.89655  0.46959  Biso   1.000  Ne
  He39     1.0000 0.48455  0.91409  0.46928  Biso   1.000  He
  He40     1.0000 0.45592  0.90178  0.48457  Biso   1.000  He
  Ne40     1.0000 0.43208  0.92118  0.47884  Biso   1.000  Ne
  Ne41     1.0000 0.72411  0.62721  0.84201  Biso   1.000  Ne
  He41     1.0000 0.74735  0.60933  0.82461  Biso   1.000  He
  He42     1.0000 0.75527  0.58279  0.84124  Biso   1.000  He
  Ne42     1.0000 0.77197  0.56234  0.82127  Biso   1.000  Ne
  Ne43     1.0000 0.89606  0.77390  0.49986  Biso   1.000  Ne
  He43     1.0000 0.89424  0.76164  0.47020  Biso   1.000  He
  He44     1.0000 0.91533  0.77699  0.44981  Biso   1.000  He
  Ne44     1.0000 0.91577  0.76631  0.41874  Biso   1.000  Ne
  Ne45     1.0000 0.16569  0.33326  0.42819  Biso   1.000  Ne
  He45     1.0000 0.18239  0.30446  0.42430  Biso   1.000  He
  He46     1.0000 0.20097  0.30336  0.39790  Biso   1.000  He
  Ne46     1.0000 0.21716  0.27638  0.39539  Biso   1.000  Ne
  Ne47     1.0000 0.33766  0.70134  0.90468  Biso   1.000  Ne
  He47     1.0000 0.33209  0.67078  0.91332  Biso   1.000  He
  He48     1.0000 0.35531  0.64894  0.90336  Biso   1.000  He
  Ne48     1.0000 0.34654  0.61905  0.91143  Biso   1.000  Ne
  Ne49     1.0000 0.95366  0.01092  0.99853  Biso   1.000  Ne
  He49     1.0000 0.97084  0.03347  0.01627  Biso   1.000  He
  He50     1.0000 0.99480  0.01843  0.03272  Biso   1.000  He
  Ne50     1.0000 0.01400  0.04247  0.04697  Biso   1.000  Ne
  Ne51     1.0000 0.09479  0.54807  0.73615  Biso   1.000  Ne
  He51     1.0000 0.10097  0.56947  0.71043  Biso   1.000  He
  He52     1.0000 0.10075  0.60192  0.72002  Biso   1.000  He
  Ne52     1.0000 0.10187  0.62387  0.69496  Biso   1.000  Ne
  Ne53     1.0000 0.66344  0.88351  0.42014  Biso   1.000  Ne
  He53     1.0000 0.68691  0.86641  0.40596  Biso   1.000  He
  He54     1.0000 0.71750  0.88003  0.41377  Biso   1.000  He
  Ne54     1.0000 0.74195  0.87091  0.39719  Biso   1.000  Ne
  Ne55     1.0000 0.31665  0.57239  0.70037  Biso   1.000  Ne
  He55     1.0000 0.31805  0.60569  0.69638  Biso   1.000  He
  He56     1.0000 0.31946  0.62379  0.72565  Biso   1.000  He
  Ne56     1.0000 0.32230  0.65880  0.72461  Biso   1.000  Ne
  Ne57     1.0000 0.11044  0.55623  0.29882  Biso   1.000  Ne
  He57     1.0000 0.09459  0.57809  0.31742  Biso   1.000  He
  He58     1.0000 0.10731  0.57885  0.34821  Biso   1.000  He
  Ne58     1.0000 0.09149  0.60060  0.36887  Biso   1.000  Ne
  Ne59     1.0000 0.82364  0.09132  0.92298  Biso   1.000  Ne
  He59     1.0000 0.83920  0.08721  0.89610  Biso   1.000  He
  He60     1.0000 0.82679  0.10331  0.86958  Biso   1.000  He
  Ne60     1.0000 0.84117  0.09655  0.83920  Biso   1.000  Ne
  Ne61     1.0000 0.59450  0.92756  0.40129  Biso   1.000  Ne
  He61     1.0000 0.60275  0.90964  0.37558  Biso   1.000  He
  He62     1.0000 0.58595  0.87833  0.37704  Biso   1.000  He
  Ne62     1.0000 0.58916  0.85794  0.35315  Biso   1.000  Ne
  Ne63     1.0000 0.63647  0.18084  0.00174  Biso   1.000  Ne
  He63     1.0000 0.65815  0.17523  0.97607  Biso   1.000  He
  He64     1.0000 0.65137  0.18678  0.94380  Biso   1.000  He
  Ne64     1.0000 0.63733  0.16218  0.92609  Biso   1.000  Ne
  Ne65     1.0000 0.80739  0.69681  0.88466  Biso   1.000  Ne
  He65     1.0000 0.80961  0.68984  0.91631  Biso   1.000  He
  He66     1.0000 0.83819  0.70248  0.93124  Biso   1.000  He
  Ne66     1.0000 0.84391  0.69351  0.96228  Biso   1.000  Ne
  Ne67     1.0000 0.79511  0.81235  0.63313  Biso   1.000  Ne
  He67     1.0000 0.81828  0.80927  0.60990  Biso   1.000  He
  He68     1.0000 0.81301  0.82075  0.57976  Biso   1.000  He
  Ne68     1.0000 0.84157  0.81787  0.56067  Biso   1.000  Ne
  Ne69     1.0000 0.17978  0.15954  0.89842  Biso   1.000  Ne
  He69     1.0000 0.15607  0.18097  0.89890  Biso   1.000  He
  He70     1.0000 0.12757  0.17187  0.88442  Biso   1.000  He
  Ne70     1.0000 0.10433  0.19803  0.88686  Biso   1.000  Ne
  Ne71     1.0000 0.24487  0.76850  0.90657  Biso   1.000  Ne
  He71     1.0000 0.25568  0.79944  0.90942  Biso   1.000  He
  He72     1.0000 0.26106  0.81140  0.93845  Biso   1.000  He
  Ne72     1.0000 0.26744  0.84185  0.94066  Biso   1.000  Ne
  Ne73     1.0000 0.59273  0.63835  0.80452  Biso   1.000  Ne
  He73     1.0000 0.61115  0.61396  0.81744  Biso   1.000  He
  He74     1.0000 0.59269  0.59352  0.83577  Biso   1.000  He
  Ne74     1.0000 0.60630  0.56283  0.84137  Biso   1.000  Ne
  Ne75     1.0000 0.43418  0.00621  0.49790  Biso   1.000  Ne
  He75     1.0000 0.44046  0.00600  0.46396  Biso   1.000  He
  He76     1.0000 0.45787  0.03150  0.45161  Biso   1.000  He
  Ne76     1.0000 0.45604  0.03127  0.41780  Biso   1.000  Ne
  Ne77     1.0000 0.40684  0.27460  0.36179  Biso   1.000  Ne
  He77     1.0000 0.41453  0.26248  0.33024  Biso   1.000  He
  He78     1.0000 0.39037  0.26895  0.30959  Biso   1.000  He
  Ne78     1.0000 0.39666  0.26077  0.27778  Biso   1.000  Ne
  Ne79     1.0000 0.69899  0.87680  0.31225  Biso   1.000  Ne
  He79     1.0000 0.67122  0.88748  0.29283  Biso   1.000  He
  He80     1.0000 0.64718  0.90157  0.30600  Biso   1.000  He
  Ne80     1.0000 0.62521  0.91559  0.28643  Biso   1.000  Ne
  Ne81     1.0000 0.68189  0.65425  0.16739  Biso   1.000  Ne
  He81     1.0000 0.65159  0.65627  0.15132  Biso   1.000  He
  He82     1.0000 0.63867  0.67960  0.16739  Biso   1.000  He
  Ne82     1.0000 0.60916  0.68750  0.15435  Biso   1.000  Ne
  Ne83     1.0000 0.61073  0.13352  0.27428  Biso   1.000  Ne
  He83     1.0000 0.59492  0.10693  0.27999  Biso   1.000  He
  He84     1.0000 0.59139  0.09910  0.31227  Biso   1.000  He
  Ne84     1.0000 0.57527  0.07135  0.32131  Biso   1.000  Ne
  Ne85     1.0000 0.75700  0.04492  0.15311  Biso   1.000  Ne
  He85     1.0000 0.78148  0.06631  0.15612  Biso   1.000  He
  He86     1.0000 0.77192  0.09868  0.14885  Biso   1.000  He
  Ne86     1.0000 0.79185  0.12323  0.15551  Biso   1.000  Ne
  Ne87     1.0000 0.92236  0.92278  0.22759  Biso   1.000  Ne
  He87     1.0000 0.90081  0.90371  0.20865  Biso   1.000  He
  He88     1.0000 0.89933  0.90827  0.17469  Biso   1.000  He
  Ne88     1.0000 0.88001  0.88692  0.16012  Biso   1.000  Ne
  Ne89     1.0000 0.33906  0.57019  0.83985  Biso   1.000  Ne
  He89     1.0000 0.36339  0.57893  0.82073  Biso   1.000  He
  He90     1.0000 0.37924  0.55327  0.80432  Biso   1.000  He
  Ne90     1.0000 0.40223  0.56667  0.78528  Biso   1.000  Ne
  Ne91     1.0000 0.15861  0.08206  0.15998  Biso   1.000  Ne
  He91     1.0000 0.13588  0.06532  0.17895  Biso   1.000  He
  He92     1.0000 0.10813  0.08343  0.18939  Biso   1.000  He
  Ne92     1.0000 0.08576  0.06673  0.20647  Biso   1.000  Ne
  Ne93     1.0000 0.58253  0.30362  0.83617  Biso   1.000  Ne
  He93     1.0000 0.58403  0.27215  0.84298  Biso   1.000  He
  He94     1.0000 0.61337  0.26213  0.85603  Biso   1.000  He
  Ne94     1.0000 0.61491  0.23283  0.86713  Biso   1.000  Ne
  Ne95     1.0000 0.66184  0.13062  0.42158  Biso   1.000  Ne
  He95     1.0000 0.63237  0.14233  0.40901  Biso   1.000  He
  He96     1.0000 0.63060  0.16499  0.38455  Biso   1.000  He
  Ne96     1.0000 0.60020  0.17248  0.37524  Biso   1.000  Ne
  Ne97     1.0000 0.92765  0.80410  0.91163  Biso   1.000  Ne
  He97     1.0000 0.90673  0.78608  0.89175  Biso   1.000  He
  He98     1.0000 0.87127  0.78547  0.90222  Biso   1.000  He
  Ne98     1.0000 0.84915  0.77272  0.88162  Biso   1.000  Ne
  Ne99     1.0000 0.10124  0.28848  0.13129  Biso   1.000  Ne
  He99     1.0000 0.08839  0.28208  0.15987  Biso   1.000  He
  He100    1.0000 0.08454  0.31084  0.18096  Biso   1.000  He
  Ne100    1.0000 0.05991  0.30454  0.20544  Biso   1.000  Ne
  Ne101    1.0000 0.28783  0.44861  0.54779  Biso   1.000  Ne
  He101    1.0000 0.29906  0.43392  0.51706  Biso   1.000  He
  He102    1.0000 0.29265  0.45335  0.49182  Biso   1.000  He
  Ne102    1.0000 0.30314  0.44724  0.46239  Biso   1.000  Ne
  Ne103    1.0000 0.82885  0.68655  0.11091  Biso   1.000  Ne
  He103    1.0000 0.82537  0.66156  0.08912  Biso   1.000  He
  He104    1.0000 0.83160  0.66956  0.05896  Biso   1.000  He
  Ne104    1.0000 0.82516  0.64705  0.03416  Biso   1.000  Ne
  Ne105    1.0000 0.39125  0.07884  0.73696  Biso   1.000  Ne
  He105    1.0000 0.40715  0.07701  0.76206  Biso   1.000  He
  He106    1.0000 0.43784  0.06958  0.75635  Biso   1.000  He
  Ne106    1.0000 0.45770  0.06446  0.78403  Biso   1.000  Ne
  Ne107    1.0000 0.40189  0.74482  0.18881  Biso   1.000  Ne
  He107    1.0000 0.38117  0.76019  0.16681  Biso   1.000  He
  He108    1.0000 0.39576  0.76838  0.13932  Biso   1.000  He
  Ne108    1.0000 0.37434  0.78225  0.11645  Biso   1.000  Ne
  Ne109    1.0000 0.53024  0.53682  0.07149  Biso   1.000  Ne
  He109    1.0000 0.50256  0.51536  0.07398  Biso   1.000  He
  He110    1.0000 0.49624  0.49493  0.04852  Biso   1.000  He
  Ne110    1.0000 0.46546  0.48652  0.05369  Biso   1.000  Ne
  Ne111    1.0000 0.39755  0.76040  0.94310  Biso   1.000  Ne
  He111    1.0000 0.38299  0.78952  0.95086  Biso   1.000  He
  He112    1.0000 0.37876  0.79758  0.98188  Biso   1.000  He
  Ne112    1.0000 0.35646  0.82267  0.98838  Biso   1.000  Ne
  Ne113    1.0000 0.28585  0.55315  0.93088  Biso   1.000  Ne
  He113    1.0000 0.25888  0.55525  0.91243  Biso   1.000  He
  He114    1.0000 0.26582  0.56342  0.88275  Biso   1.000  He
  Ne114    1.0000 0.24179  0.56853  0.86314  Biso   1.000  Ne
  Ne115    1.0000 0.22719  0.09513  0.09026  Biso   1.000  Ne
  He115    1.0000 0.22825  0.12586  0.08014  Biso   1.000  He
  He116    1.0000 0.24555  0.14247  0.10152  Biso   1.000  He
  Ne116    1.0000 0.25489  0.17419  0.09296  Biso   1.000  Ne
  Ne117    1.0000 0.09343  0.68042  0.62797  Biso   1.000  Ne
  He117    1.0000 0.10976  0.70737  0.61599  Biso   1.000  He
  He118    1.0000 0.13314  0.71790  0.63808  Biso   1.000  He
  Ne118    1.0000 0.15206  0.74288  0.62764  Biso   1.000  Ne
  Ne119    1.0000 0.89951  0.56373  0.76562  Biso   1.000  Ne
  He119    1.0000 0.89662  0.57318  0.73504  Biso   1.000  He
  He120    1.0000 0.92198  0.58742  0.72010  Biso   1.000  He
  Ne120    1.0000 0.91775  0.58634  0.68694  Biso   1.000  Ne
  Ne121    1.0000 0.25482  0.92117  0.91948  Biso   1.000  Ne
  He121    1.0000 0.22173  0.91436  0.92759  Biso   1.000  He
  He122    1.0000 0.21140  0.88599  0.91853  Biso   1.000  He
  Ne122    1.0000 0.17933  0.88361  0.92394  Biso   1.000  Ne
  Ne123    1.0000 0.81991  0.85209  0.90284  Biso   1.000  Ne
  He123    1.0000 0.79217  0.83453  0.89844  Biso   1.000  He
  He124    1.0000 0.76525  0.85040  0.90396  Biso   1.000  He
  Ne124    1.0000 0.73991  0.82923  0.90824  Biso   1.000  Ne
  Ne125    1.0000 0.38325  0.32923  0.93944  Biso   1.000  Ne
  He125    1.0000 0.39225  0.30494  0.91791  Biso   1.000  He
  He126    1.0000 0.40339  0.27857  0.93394  Biso   1.000  He
  Ne126    1.0000 0.41149  0.25744  0.91155  Biso   1.000  Ne
  Ne127    1.0000 0.62476  0.41097  0.14646  Biso   1.000  Ne
  He127    1.0000 0.60665  0.41354  0.17144  Biso   1.000  He
  He128    1.0000 0.62249  0.40428  0.20032  Biso   1.000  He
  Ne128    1.0000 0.60063  0.40952  0.22789  Biso   1.000  Ne
  Ne129    1.0000 0.38982  0.61778  0.43440  Biso   1.000  Ne
  He129    1.0000 0.38728  0.64869  0.42209  Biso   1.000  He
  He130    1.0000 0.38090  0.67502  0.44522  Biso   1.000  He
  Ne130    1.0000 0.38337  0.70473  0.43160  Biso   1.000  Ne
  Ne131    1.0000 0.18576  0.64425  0.60368  Biso   1.000  Ne
  He131    1.0000 0.17055  0.61439  0.59956  Biso   1.000  He
  He132    1.0000 0.13807  0.61886  0.59026  Biso   1.000  He
  Ne132    1.0000 0.12079  0.59292  0.58848  Biso   1.000  Ne
  Ne133    1.0000 0.48881  0.78434  0.99576  Biso   1.000  Ne
  He133    1.0000 0.46981  0.77733  0.02253  Biso   1.000  He
  He134    1.0000 0.48677  0.76212  0.04773  Biso   1.000  He
  Ne134    1.0000 0.47047  0.75816  0.07445  Biso   1.000  Ne
  Ne135    1.0000 0.32291  0.39227  0.84733  Biso   1.000  Ne
  He135    1.0000 0.30621  0.36963  0.86548  Biso   1.000  He
  He136    1.0000 0.30896  0.33885  0.85654  Biso   1.000  He
  Ne136    1.0000 0.29018  0.31779  0.87292  Biso   1.000  Ne
  Ne137    1.0000 0.85248  0.40719  0.32977  Biso   1.000  Ne
  He137    1.0000 0.83782  0.41135  0.35727  Biso   1.000  He
  He138    1.0000 0.84246  0.38979  0.38079  Biso   1.000  He
  Ne138    1.0000 0.82910  0.39854  0.40912  Biso   1.000  Ne
  Ne139    1.0000 0.42334  0.62680  0.83302  Biso   1.000  Ne
  He139    1.0000 0.41517  0.64667  0.80813  Biso   1.000  He
  He140    1.0000 0.42347  0.63589  0.77804  Biso   1.000  He
  Ne140    1.0000 0.41661  0.65498  0.75119  Biso   1.000  Ne
  Ne141    1.0000 0.19549  0.39784  0.36437  Biso   1.000  Ne
  He141    1.0000 0.20864  0.39824  0.39330  Biso   1.000  He
  He142    1.0000 0.23494  0.37714  0.39527  Biso   1.000  He
  Ne142    1.0000 0.25231  0.37966  0.42335  Biso   1.000  Ne
  Ne143    1.0000 0.95178  0.93430  0.10745  Biso   1.000  Ne
  He143    1.0000 0.96324  0.93487  0.07631  Biso   1.000  He
  He144    1.0000 0.94030  0.93913  0.05427  Biso   1.000  He
  Ne144    1.0000 0.95002  0.94253  0.02411  Biso   1.000  Ne
  Ne145    1.0000 0.42812  0.17924  0.35141  Biso   1.000  Ne
  He145    1.0000 0.39548  0.18026  0.34244  Biso   1.000  He
  He146    1.0000 0.39099  0.17194  0.31073  Biso   1.000  He
  Ne146    1.0000 0.36054  0.17139  0.30063  Biso   1.000  Ne
  Ne147    1.0000 0.74573  0.11939  0.39994  Biso   1.000  Ne
  He147    1.0000 0.74847  0.14660  0.41553  Biso   1.000  He
  He148    1.0000 0.75265  0.17296  0.39705  Biso   1.000  He
  Ne148    1.0000 0.75975  0.20231  0.41108  Biso   1.000  Ne
  Ne149    1.0000 0.07987  0.21310  0.07961  Biso   1.000  Ne
  He149    1.0000 0.11053  0.21424  0.06844  Biso   1.000  He
  He150    1.0000 0.13119  0.19772  0.08615  Biso   1.000  He
  Ne150    1.0000 0.16136  0.19936  0.07460  Biso   1.000  Ne
  Ne151    1.0000 0.66144  0.05050  0.39946  Biso   1.000  Ne
  He151    1.0000 0.65703  0.05396  0.36744  Biso   1.000  He
  He152    1.0000 0.68323  0.05906  0.34965  Biso   1.000  He
  Ne152    1.0000 0.67325  0.06455  0.31858  Biso   1.000  Ne
  Ne153    1.0000 0.72598  0.09055  0.67978  Biso   1.000  Ne
  He153    1.0000 0.75001  0.07201  0.68875  Biso   1.000  He
  He154    1.0000 0.76724  0.06454  0.66167  Biso   1.000  He
  Ne154    1.0000 0.79274  0.04281  0.66737  Biso   1.000  Ne
  Ne155    1.0000 0.26494  0.05922  0.61983  Biso   1.000  Ne
  He155    1.0000 0.25648  0.07168  0.59207  Biso   1.000  He
  He156    1.0000 0.23864  0.05299  0.57280  Biso   1.000  He
  Ne156    1.0000 0.22554  0.06690  0.54581  Biso   1.000  Ne
  Ne157    1.0000 0.58421  0.47810  0.02136  Biso   1.000  Ne
  He157    1.0000 0.58861  0.48173  0.98749  Biso   1.000  He
  He158    1.0000 0.57741  0.50903  0.97341  Biso   1.000  He
  Ne158    1.0000 0.58944  0.51203  0.94195  Biso   1.000  Ne
  Ne159    1.0000 0.76500  0.89167  0.11730  Biso   1.000  Ne
  He159    1.0000 0.76207  0.86567  0.14063  Biso   1.000  He
  He160    1.0000 0.75570  0.87766  0.17110  Biso   1.000  He
  Ne160    1.0000 0.74972  0.85622  0.19428  Biso   1.000  Ne
  Ne161    1.0000 0.70354  0.43198  0.76640  Biso   1.000  Ne
  He161    1.0000 0.67507  0.41916  0.76256  Biso   1.000  He
  He162    1.0000 0.67311  0.39832  0.73499  Biso   1.000  He
  Ne162    1.0000 0.64715  0.38330  0.72852  Biso   1.000  Ne
  Ne163    1.0000 0.28711  0.06781  0.41015  Biso   1.000  Ne
  He163    1.0000 0.31680  0.07514  0.40384  Biso   1.000  He
  He164    1.0000 0.33093  0.09187  0.42845  Biso   1.000  He
  Ne164    1.0000 0.36299  0.09665  0.42331  Biso   1.000  Ne
  Ne165    1.0000 0.99881  0.47316  0.57692  Biso   1.000  Ne
  He165    1.0000 0.02753  0.48412  0.56403  Biso   1.000  He
  He166    1.0000 0.04240  0.50551  0.58467  Biso   1.000  He
  Ne166    1.0000 0.07187  0.51523  0.57495  Biso   1.000  Ne
  Ne167    1.0000 0.91935  0.14432  0.10159  Biso   1.000  Ne
  He167    1.0000 0.89216  0.12996  0.11406  Biso   1.000  He
  He168    1.0000 0.87637  0.11948  0.09070  Biso   1.000  He
  Ne168    1.0000 0.85088  0.10278  0.09904  Biso   1.000  Ne
  Ne169    1.0000 0.22366  0.71631  0.12658  Biso   1.000  Ne
  He169    1.0000 0.25117  0.70045  0.12193  Biso   1.000  He
  He170    1.0000 0.25275  0.67207  0.10269  Biso   1.000  He
  Ne170    1.0000 0.28458  0.66306  0.10231  Biso   1.000  Ne
  Ne171    1.0000 0.92155  0.68743  0.08142  Biso   1.000  Ne
  He171    1.0000 0.92939  0.68319  0.11212  Biso   1.000  He
  He172    1.0000 0.96166  0.69038  0.11806  Biso   1.000  He
  Ne172    1.0000 0.96916  0.69210  0.14737  Biso   1.000  Ne
  Ne173    1.0000 0.28114  0.87017  0.17729  Biso   1.000  Ne
  He173    1.0000 0.29153  0.89200  0.20120  Biso   1.000  He
  He174    1.0000 0.28007  0.92207  0.19848  Biso   1.000  He
  Ne174    1.0000 0.29716  0.94338  0.21665  Biso   1.000  Ne
  Ne175    1.0000 0.62703  0.68222  0.25056  Biso   1.000  Ne
  He175    1.0000 0.62493  0.66942  0.28157  Biso   1.000  He
  He176    1.0000 0.63782  0.69010  0.30494  Biso   1.000  He
  Ne176    1.0000 0.64127  0.67936  0.33641  Biso   1.000  Ne
  Ne177    1.0000 0.28658  0.30185  0.39728  Biso   1.000  Ne
  He177    1.0000 0.30114  0.27369  0.40175  Biso   1.000  He
  He178    1.0000 0.33087  0.26828  0.38655  Biso   1.000  He
  Ne178    1.0000 0.34069  0.23896  0.39169  Biso   1.000  Ne
  Ne179    1.0000 0.08291  0.99636  0.95999  Biso   1.000  Ne
  He179    1.0000 0.09859  0.01855  0.94140  Biso   1.000  He
  He180    1.0000 0.08471  0.02517  0.91190  Biso   1.000  He
  Ne180    1.0000 0.10241  0.04474  0.89120  Biso   1.000  Ne
  Ne181    1.0000 0.50043  0.27977  0.66761  Biso   1.000  Ne
  He181    1.0000 0.48109  0.30454  0.67785  Biso   1.000  He
  He182    1.0000 0.45786  0.31389  0.65777  Biso   1.000  He
  Ne182    1.0000 0.43540  0.33628  0.66898  Biso   1.000  Ne
  Ne183    1.0000 0.84969  0.85135  0.06276  Biso   1.000  Ne
  He183    1.0000 0.87401  0.83393  0.07504  Biso   1.000  He
  He184    1.0000 0.86879  0.80253  0.08028  Biso   1.000  He
  Ne184    1.0000 0.88973  0.78936  0.10299  Biso   1.000  Ne
  Ne185    1.0000 0.71317  0.15706  0.60738  Biso   1.000  Ne
  He185    1.0000 0.72634  0.18584  0.61576  Biso   1.000  He
  He186    1.0000 0.73064  0.20264  0.59088  Biso   1.000  He
  Ne186    1.0000 0.74516  0.23292  0.59739  Biso   1.000  Ne
  Ne187    1.0000 0.17608  0.46333  0.15860  Biso   1.000  Ne
  He187    1.0000 0.19093  0.44531  0.13507  Biso   1.000  He
  He188    1.0000 0.20428  0.41613  0.14561  Biso   1.000  He
  Ne188    1.0000 0.23715  0.41712  0.15017  Biso   1.000  Ne
  Ne189    1.0000 0.44929  0.42464  0.10916  Biso   1.000  Ne
  He189    1.0000 0.42903  0.40894  0.12782  Biso   1.000  He
  He190    1.0000 0.43347  0.41101  0.16327  Biso   1.000  He
  Ne190    1.0000 0.41045  0.39931  0.18115  Biso   1.000  Ne
  Ne191    1.0000 0.43832  0.75611  0.84867  Biso   1.000  Ne
  He191    1.0000 0.44315  0.73309  0.87495  Biso   1.000  He
  He192    1.0000 0.42461  0.70483  0.87313  Biso   1.000  He
  Ne192    1.0000 0.43076  0.68492  0.90029  Biso   1.000  Ne
  Ne193    1.0000 0.89742  0.38213  0.26716  Biso   1.000  Ne
  He193    1.0000 0.88904  0.41021  0.25116  Biso   1.000  He
  He194    1.0000 0.86794  0.40507  0.22736  Biso   1.000  He
  Ne194    1.0000 0.86079  0.43176  0.21111  Biso   1.000  Ne
  Ne195    1.0000 0.43219  0.82805  0.36090  Biso   1.000  Ne
  He195    1.0000 0.39775  0.82809  0.36657  Biso   1.000  He
  He196    1.0000 0.38576  0.82215  0.39584  Biso   1.000  He
  Ne196    1.0000 0.35365  0.82531  0.40303  Biso   1.000  Ne
  Ne197    1.0000 0.06102  0.25798  0.96009  Biso   1.000  Ne
  He197    1.0000 0.03739  0.26373  0.98234  Biso   1.000  He
  He198    1.0000 0.04617  0.26870  0.01227  Biso   1.000  He
  Ne198    1.0000 0.02017  0.27442  0.03179  Biso   1.000  Ne
  Ne199    1.0000 0.07259  0.32632  0.29380  Biso   1.000  Ne
  He199    1.0000 0.07192  0.36052  0.29353  Biso   1.000  He
  He200    1.0000 0.09563  0.37284  0.31324  Biso   1.000  He
  Ne200    1.0000 0.10174  0.40634  0.31478  Biso   1.000  Ne
  Ne201    1.0000 0.80891  0.57346  0.37236  Biso   1.000  Ne
  He201    1.0000 0.82293  0.56314  0.39838  Biso   1.000  He
  He202    1.0000 0.85316  0.57515  0.40302  Biso   1.000  He
  Ne202    1.0000 0.86633  0.56737  0.43153  Biso   1.000  Ne
  Ne203    1.0000 0.09548  0.82386  0.08272  Biso   1.000  Ne
  He203    1.0000 0.10394  0.80323  0.10751  Biso   1.000  He
  He204    1.0000 0.12091  0.82058  0.12912  Biso   1.000  He
  Ne204    1.0000 0.13811  0.80414  0.15264  Biso   1.000  Ne
  Ne205    1.0000 0.58662  0.44306  0.70480  Biso   1.000  Ne
  He205    1.0000 0.61079  0.45940  0.68867  Biso   1.000  He
  He206    1.0000 0.62977  0.47673  0.70523  Biso   1.000  He
  Ne206    1.0000 0.64994  0.49533  0.68615  Biso   1.000  Ne
  Ne207    1.0000 0.26073  0.55605  0.61399  Biso   1.000  Ne
  He207    1.0000 0.29245  0.55929  0.60396  Biso   1.000  He
  He208    1.0000 0.30628  0.53421  0.58319  Biso   1.000  He
  Ne208    1.0000 0.33380  0.54290  0.56929  Biso   1.000  Ne
  Ne209    1.0000 0.86109  0.69444  0.60718  Biso   1.000  Ne
  He209    1.0000 0.88716  0.67234  0.61051  Biso   1.000  He
  He210    1.0000 0.88728  0.64643  0.59046  Biso   1.000  He
  Ne210    1.0000 0.91389  0.62619  0.59502  Biso   1.000  Ne
  Ne211    1.0000 0.09258  0.37199  0.74588  Biso   1.000  Ne
  He211    1.0000 0.08453  0.37202  0.77995  Biso   1.000  He
  He212    1.0000 0.06881  0.34509  0.78903  Biso   1.000  He
  Ne212    1.0000 0.07014  0.33641  0.81989  Biso   1.000  Ne
  Ne213    1.0000 0.77777  0.40583  0.81870  Biso   1.000  Ne
  He213    1.0000 0.75691  0.40052  0.84521  Biso   1.000  He
  He214    1.0000 0.75892  0.42079  0.87020  Biso   1.000  He
  Ne214    1.0000 0.74083  0.41321  0.89679  Biso   1.000  Ne
  Ne215    1.0000 0.05716  0.91977  0.98891  Biso   1.000  Ne
  He215    1.0000 0.07848  0.92313  0.01134  Biso   1.000  He
  He216    1.0000 0.06739  0.93834  0.03553  Biso   1.000  He
  Ne216    1.0000 0.09314  0.94374  0.05745  Biso   1.000  Ne
  Ne217    1.0000 0.91045  0.43145  0.42689  Biso   1.000  Ne
  He217    1.0000 0.93984  0.41866  0.42429  Biso   1.000  He
  He218    1.0000 0.95160  0.40890  0.45141  Biso   1.000  He
  Ne218    1.0000 0.98430  0.39876  0.45244  Biso   1.000  Ne
  Ne219    1.0000 0.75860  0.80407  0.04772  Biso   1.000  Ne
  He219    1.0000 0.73830  0.82260  0.02943  Biso   1.000  He
  He220    1.0000 0.71061  0.80794  0.01850  Biso   1.000  He
  Ne220    1.0000 0.71375  0.79651  0.98774  Biso   1.000  Ne
  Ne221    1.0000 0.59551  0.25732  0.08565  Biso   1.000  Ne
  He221    1.0000 0.59605  0.29186  0.08012  Biso   1.000  He
  He222    1.0000 0.62709  0.30026  0.08222  Biso   1.000  He
  Ne222    1.0000 0.63217  0.33343  0.07867  Biso   1.000  Ne
  Ne223    1.0000 0.71563  0.62803  0.92787  Biso   1.000  Ne
  He223    1.0000 0.68920  0.61411  0.92323  Biso   1.000  He
  He224    1.0000 0.68673  0.57999  0.92564  Biso   1.000  He
  Ne224    1.0000 0.65865  0.56519  0.91441  Biso   1.000  Ne
  Ne225    1.0000 0.06291  0.42249  0.38106  Biso   1.000  Ne
  He225    1.0000 0.06390  0.39492  0.39712  Biso   1.000  He
  He226    1.0000 0.09382  0.38471  0.40384  Biso   1.000  He
  Ne226    1.0000 0.09447  0.35514  0.41798  Biso   1.000  Ne
  Ne227    1.0000 0.73138  0.77289  0.41062  Biso   1.000  Ne
  He227    1.0000 0.74496  0.76939  0.37944  Biso   1.000  He
  He228    1.0000 0.76924  0.79199  0.37551  Biso   1.000  He
  Ne228    1.0000 0.78217  0.79248  0.34192  Biso   1.000  Ne
  Ne229    1.0000 0.56826  0.42460  0.92139  Biso   1.000  Ne
  He229    1.0000 0.57761  0.39433  0.93201  Biso   1.000  He
  He230    1.0000 0.56246  0.36861  0.91746  Biso   1.000  He
  Ne230    1.0000 0.57499  0.33882  0.92363  Biso   1.000  Ne
  Ne231    1.0000 0.08957  0.09542  0.10234  Biso   1.000  Ne
  He231    1.0000 0.11183  0.08432  0.08120  Biso   1.000  He
  He232    1.0000 0.09902  0.07094  0.05277  Biso   1.000  He
  Ne232    1.0000 0.09937  0.03825  0.05008  Biso   1.000  Ne
  Ne233    1.0000 0.93490  0.06236  0.12749  Biso   1.000  Ne
  He233    1.0000 0.93262  0.05140  0.09593  Biso   1.000  He
  He234    1.0000 0.90176  0.04317  0.08685  Biso   1.000  He
  Ne234    1.0000 0.89831  0.03272  0.05589  Biso   1.000  Ne
  Ne235    1.0000 0.70009  0.64924  0.08077  Biso   1.000  Ne
  He235    1.0000 0.71169  0.67960  0.07750  Biso   1.000  He
  He236    1.0000 0.69025  0.70500  0.08504  Biso   1.000  He
  Ne236    1.0000 0.70263  0.73524  0.07905  Biso   1.000  Ne
  Ne237    1.0000 0.41246  0.92066  0.57564  Biso   1.000  Ne
  He237    1.0000 0.44236  0.91802  0.59221  Biso   1.000  He
  He238    1.0000 0.46405  0.93906  0.58253  Biso   1.000  He
  Ne238    1.0000 0.49789  0.93624  0.58995  Biso   1.000  Ne
  Ne239    1.0000 0.59446  0.12498  0.72604  Biso   1.000  Ne
  He239    1.0000 0.59852  0.10540  0.70071  Biso   1.000  He
  He240    1.0000 0.62312  0.08284  0.70411  Biso   1.000  He
  Ne240    1.0000 0.62543  0.06559  0.67711  Biso   1.000  Ne
  Ne241    1.0000 0.30860  0.56991  0.08699  Biso   1.000  Ne
  He241    1.0000 0.31211  0.55894  0.11724  Biso   1.000  He
  He242    1.0000 0.29727  0.57697  0.13956  Biso   1.000  He
  Ne242    1.0000 0.29334  0.56152  0.16997  Biso   1.000  Ne
  Ne243    1.0000 0.90704  0.28624  0.60859  Biso   1.000  Ne
  He243    1.0000 0.93193  0.30501  0.59959  Biso   1.000  He
  He244    1.0000 0.92387  0.33589  0.59041  Biso   1.000  He
  Ne244    1.0000 0.94875  0.35616  0.58250  Biso   1.000  Ne
  Ne245    1.0000 0.93686  0.64111  0.42680  Biso   1.000  Ne
  He245    1.0000 0.93898  0.62446  0.39765  Biso   1.000  He
  He246    1.0000 0.91914  0.63140  0.37075  Biso   1.000  He
  Ne246    1.0000 0.93126  0.61745  0.34170  Biso   1.000  Ne
  Ne247    1.0000 0.77892  0.42308  0.12796  Biso   1.000  Ne
  He247    1.0000 0.75691  0.40485  0.13787  Biso   1.000  He
  He248    1.0000 0.73555  0.39116  0.11474  Biso   1.000  He
  Ne248    1.0000 0.71369  0.37128  0.12542  Biso   1.000  Ne
  Ne249    1.0000 0.60618  0.59153  0.25560  Biso   1.000  Ne
  He249    1.0000 0.62991  0.58027  0.23331  Biso   1.000  He
  He250    1.0000 0.61925  0.57491  0.20110  Biso   1.000  He
  Ne250    1.0000 0.64406  0.56461  0.17966  Biso   1.000  Ne
  Ne251    1.0000 0.91449  0.21561  0.88477  Biso   1.000  Ne
  He251    1.0000 0.92544  0.18541  0.89803  Biso   1.000  He
  He252    1.0000 0.92953  0.18364  0.92980  Biso   1.000  He
  Ne252    1.0000 0.93060  0.15273  0.93764  Biso   1.000  Ne
  Ne253    1.0000 0.01619  0.92526  0.91923  Biso   1.000  Ne
  He253    1.0000 0.99174  0.91029  0.93980  Biso   1.000  He
  He254    1.0000 0.96557  0.89792  0.92246  Biso   1.000  He
  Ne254    1.0000 0.94682  0.87853  0.93998  Biso   1.000  Ne
  Ne255    1.0000 0.18433  0.56871  0.41913  Biso   1.000  Ne
  He255    1.0000 0.17244  0.59930  0.41761  Biso   1.000  He
  He256    1.0000 0.19966  0.62111  0.41723  Biso   1.000  He
  Ne256    1.0000 0.19081  0.65361  0.40953  Biso   1.000  Ne
  Ne257    1.0000 0.71395  0.84117  0.62562  Biso   1.000  Ne
  He257    1.0000 0.71118  0.87370  0.61592  Biso   1.000  He
  He258    1.0000 0.70491  0.87916  0.58365  Biso   1.000  He
  Ne258    1.0000 0.70387  0.90955  0.57420  Biso   1.000  Ne
  Ne259    1.0000 0.66474  0.30591  0.20535  Biso   1.000  Ne
  He259    1.0000 0.63634  0.32141  0.20122  Biso   1.000  He
  He260    1.0000 0.62721  0.32228  0.16849  Biso   1.000  He
  Ne260    1.0000 0.59726  0.33298  0.16737  Biso   1.000  Ne
  Ne261    1.0000 0.26216  0.54526  0.42874  Biso   1.000  Ne
  He261    1.0000 0.28572  0.56647  0.42040  Biso   1.000  He
  He262    1.0000 0.27604  0.58562  0.39881  Biso   1.000  He
  Ne262    1.0000 0.30208  0.60349  0.38817  Biso   1.000  Ne
  Ne263    1.0000 0.74055  0.38756  0.55739  Biso   1.000  Ne
  He263    1.0000 0.72792  0.41500  0.56158  Biso   1.000  He
  He264    1.0000 0.74520  0.43651  0.54395  Biso   1.000  He
  Ne264    1.0000 0.73503  0.46652  0.54605  Biso   1.000  Ne
  Ne265    1.0000 0.68144  0.16144  0.31233  Biso   1.000  Ne
  He265    1.0000 0.70243  0.13784  0.32477  Biso   1.000  He
  He266    1.0000 0.72198  0.12431  0.30328  Biso   1.000  He
  Ne266    1.0000 0.74641  0.10217  0.31275  Biso   1.000  Ne
  Ne267    1.0000 0.07355  0.72742  0.94752  Biso   1.000  Ne
  He267    1.0000 0.10593  0.72488  0.94670  Biso   1.000  He
  He268    1.0000 0.12345  0.74378  0.92327  Biso   1.000  He
  Ne268    1.0000 0.15613  0.74514  0.92321  Biso   1.000  Ne
  Ne269    1.0000 0.51858  0.40447  0.02083  Biso   1.000  Ne
  He269    1.0000 0.52990  0.40728  0.05295  Biso   1.000  He
  He270    1.0000 0.56297  0.41207  0.05373  Biso   1.000  He
  Ne270    1.0000 0.57579  0.41960  0.08327  Biso   1.000  Ne
  Ne271    1.0000 0.47105  0.04402  0.57486  Biso   1.000  Ne
  He271    1.0000 0.49625  0.02584  0.56904  Biso   1.000  He
  He272    1.0000 0.52465  0.03575  0.57977  Biso   1.000  He
  Ne272    1.0000 0.54605  0.01610  0.57560  Biso   1.000  Ne
  Ne273    1.0000 0.84701  0.54808  0.20646  Biso   1.000  Ne
  He273    1.0000 0.86015  0.54832  0.23781  Biso   1.000  He
  He274    1.0000 0.84144  0.56687  0.25990  Biso   1.000  He
  Ne274    1.0000 0.85373  0.57231  0.28869  Biso   1.000  Ne
  Ne275    1.0000 0.09422  0.41927  0.55169  Biso   1.000  Ne
  He275    1.0000 0.08039  0.40879  0.58154  Biso   1.000  He
  He276    1.0000 0.09695  0.42327  0.60791  Biso   1.000  He
  Ne276    1.0000 0.08543  0.41552  0.63782  Biso   1.000  Ne
  Ne277    1.0000 0.93701  0.09558  0.85352  Biso   1.000  Ne
  He277    1.0000 0.94138  0.12701  0.84076  Biso   1.000  He
  He278    1.0000 0.91575  0.13662  0.82043  Biso   1.000  He
  Ne278    1.0000 0.92565  0.16125  0.79970  Biso   1.000  Ne
  Ne279    1.0000 0.43617  0.65792  0.24674  Biso   1.000  Ne
  He279    1.0000 0.43279  0.62444  0.24759  Biso   1.000  He
  He280    1.0000 0.45126  0.60937  0.22427  Biso   1.000  He
  Ne280    1.0000 0.44741  0.57727  0.21908  Biso   1.000  Ne
  Ne281    1.0000 0.43445  0.92503  0.38411  Biso   1.000  Ne
  He281    1.0000 0.41569  0.91801  0.40714  Biso   1.000  He
  He282    1.0000 0.38205  0.91511  0.40104  Biso   1.000  He
  Ne282    1.0000 0.36162  0.90509  0.42594  Biso   1.000  Ne
  Ne283    1.0000 0.10770  0.68713  0.27457  Biso   1.000  Ne
  He283    1.0000 0.10587  0.67322  0.24697  Biso   1.000  He
  He284    1.0000 0.08635  0.64614  0.24584  Biso   1.000  He
  Ne284    1.0000 0.09024  0.62729  0.21795  Biso   1.000  Ne
  Ne285    1.0000 0.90078  0.30495  0.32803  Biso   1.000  Ne
  He285    1.0000 0.89245  0.28990  0.30101  Biso   1.000  He
  He286    1.0000 0.91787  0.28385  0.28036  Biso   1.000  He
  Ne286    1.0000 0.91530  0.26928  0.25002  Biso   1.000  Ne
  Ne287    1.0000 0.27030  0.18683  0.58944  Biso   1.000  Ne
  He287    1.0000 0.25592  0.21818  0.58524  Biso   1.000  He
  He288    1.0000 0.22523  0.21988  0.58898  Biso   1.000  He
  Ne288    1.0000 0.21007  0.24910  0.57588  Biso   1.000  Ne
  Ne289    1.0000 0.70383  0.07977  0.59691  Biso   1.000  Ne
  He289    1.0000 0.68088  0.07734  0.57286  Biso   1.000  He
  He290    1.0000 0.65050  0.08030  0.58791  Biso   1.000  He
  Ne290    1.0000 0.62568  0.07810  0.56594  Biso   1.000  Ne
  Ne291    1.0000 0.09186  0.91607  0.90298  Biso   1.000  Ne
  He291    1.0000 0.09465  0.88467  0.88960  Biso   1.000  He
  He292    1.0000 0.09635  0.85934  0.91132  Biso   1.000  He
  Ne292    1.0000 0.10001  0.83144  0.89672  Biso   1.000  Ne
  Ne293    1.0000 0.65233  0.82327  0.57241  Biso   1.000  Ne
  He293    1.0000 0.62473  0.81496  0.59096  Biso   1.000  He
  He294    1.0000 0.62828  0.78356  0.60146  Biso   1.000  He
  Ne294    1.0000 0.60188  0.76934  0.62040  Biso   1.000  Ne
  Ne295    1.0000 0.61817  0.91416  0.66358  Biso   1.000  Ne
  He295    1.0000 0.61681  0.88498  0.68088  Biso   1.000  He
  He296    1.0000 0.62990  0.86006  0.66305  Biso   1.000  He
  Ne296    1.0000 0.63324  0.82940  0.67925  Biso   1.000  Ne
  Ne297    1.0000 0.59259  0.15867  0.62083  Biso   1.000  Ne
  He297    1.0000 0.59647  0.17540  0.65114  Biso   1.000  He
  He298    1.0000 0.62769  0.17330  0.66262  Biso   1.000  He
  Ne298    1.0000 0.63077  0.19142  0.69047  Biso   1.000  Ne
  Ne299    1.0000 0.30982  0.37504  0.18828  Biso   1.000  Ne
  He299    1.0000 0.30946  0.38925  0.21935  Biso   1.000  He
  He300    1.0000 0.33300  0.41339  0.22374  Biso   1.000  He
  Ne300    1.0000 0.33471  0.42680  0.25511  Biso   1.000  Ne
  Ne301    1.0000 0.43075  0.25845  0.73926  Biso   1.000  Ne
  He301    1.0000 0.39936  0.26453  0.73472  Biso   1.000  He
  He302    1.0000 0.39081  0.29666  0.72941  Biso   1.000  He
  Ne302    1.0000 0.35909  0.30109  0.72217  Biso   1.000  Ne
  Ne303    1.0000 0.76627  0.54929  0.17149  Biso   1.000  Ne
  He303    1.0000 0.74378  0.57403  0.17121  Biso   1.000  He
  He304    1.0000 0.71915  0.56504  0.14923  Biso   1.000  He
  Ne304    1.0000 0.71275  0.58640  0.12714  Biso   1.000  Ne
  Ne305    1.0000 0.60975  0.29207  0.75172  Biso   1.000  Ne
  He305    1.0000 0.62895  0.27028  0.76699  Biso   1.000  He
  He306    1.0000 0.65908  0.28315  0.77764  Biso   1.000  He
  Ne306    1.0000 0.67944  0.26030  0.78891  Biso   1.000  Ne
  Ne307    1.0000 0.46196  0.86982  0.73320  Biso   1.000  Ne
  He307    1.0000 0.43961  0.86214  0.70834  Biso   1.000  He
  He308    1.0000 0.42351  0.88890  0.69325  Biso   1.000  He
  Ne308    1.0000 0.40259  0.88228  0.66859  Biso   1.000  Ne
  Ne309    1.0000 0.60702  0.68899  0.89248  Biso   1.000  Ne
  He309    1.0000 0.59132  0.66489  0.90767  Biso   1.000  He
  He310    1.0000 0.60951  0.63777  0.90489  Biso   1.000  He
  Ne310    1.0000 0.59718  0.61285  0.92013  Biso   1.000  Ne
  Ne311    1.0000 0.11636  0.41346  0.20898  Biso   1.000  Ne
  He311    1.0000 0.13148  0.41437  0.23875  Biso   1.000  He
  He312    1.0000 0.16619  0.41794  0.23644  Biso   1.000  He
  Ne312    1.0000 0.18191  0.41565  0.26548  Biso   1.000  Ne
  Ne313    1.0000 0.56753  0.18624  0.78470  Biso   1.000  Ne
  He313    1.0000 0.54515  0.16924  0.80260  Biso   1.000  He
  He314    1.0000 0.55991  0.15056  0.82782  Biso   1.000  He
  Ne314    1.0000 0.53977  0.13023  0.84470  Biso   1.000  Ne
  Ne315    1.0000 0.50395  0.56967  0.96644  Biso   1.000  Ne
  He315    1.0000 0.48401  0.56195  0.94165  Biso   1.000  He
  He316    1.0000 0.45236  0.57633  0.94220  Biso   1.000  He
  Ne316    1.0000 0.43366  0.57134  0.91665  Biso   1.000  Ne
  Ne317    1.0000 0.37206  0.24066  0.10184  Biso   1.000  Ne
  He317    1.0000 0.37862  0.22700  0.06956  Biso   1.000  He
  He318    1.0000 0.35520  0.20278  0.06202  Biso   1.000  He
  Ne318    1.0000 0.35601  0.19439  0.02961  Biso   1.000  Ne
  Ne319    1.0000 0.12796  0.16504  0.58364  Biso   1.000  Ne
  He319    1.0000 0.14868  0.16442  0.55793  Biso   1.000  He
  He320    1.0000 0.17661  0.14184  0.55972  Biso   1.000  He
  Ne320    1.0000 0.20368  0.15422  0.55065  Biso   1.000  Ne
  Ne321    1.0000 0.42731  0.05367  0.65162  Biso   1.000  Ne
  He321    1.0000 0.40149  0.07282  0.64830  Biso   1.000  He
  He322    1.0000 0.37681  0.05398  0.63572  Biso   1.000  He
  Ne322    1.0000 0.34709  0.07003  0.63115  Biso   1.000  Ne
  Ne323    1.0000 0.62762  0.36249  0.86595  Biso   1.000  Ne
  He323    1.0000 0.64731  0.33637  0.87446  Biso   1.000  He
  He324    1.0000 0.65569  0.33668  0.90641  Biso   1.000  He
  Ne324    1.0000 0.68066  0.31501  0.91159  Biso   1.000  Ne
  Ne325    1.0000 0.71004  0.43843  0.26939  Biso   1.000  Ne
  He325    1.0000 0.72488  0.40833  0.26204  Biso   1.000  He
  He326    1.0000 0.70777  0.39360  0.23825  Biso   1.000  He
  Ne326    1.0000 0.71962  0.36495  0.22684  Biso   1.000  Ne
  Ne327    1.0000 0.04750  0.70139  0.03396  Biso   1.000  Ne
  He327    1.0000 0.07728  0.70134  0.04668  Biso   1.000  He
  He328    1.0000 0.07997  0.72552  0.07066  Biso   1.000  He
  Ne328    1.0000 0.10968  0.72433  0.08672  Biso   1.000  Ne
  Ne329    1.0000 0.10699  0.72416  0.45247  Biso   1.000  Ne
  He329    1.0000 0.11945  0.69273  0.44601  Biso   1.000  He
  He330    1.0000 0.09695  0.67107  0.44070  Biso   1.000  He
  Ne330    1.0000 0.10658  0.64163  0.43116  Biso   1.000  Ne
  Ne331    1.0000 0.43600  0.56326  0.13820  Biso   1.000  Ne
  He331    1.0000 0.43711  0.55759  0.10551  Biso   1.000  He
  He332    1.0000 0.40867  0.54544  0.09280  Biso   1.000  He
  Ne332    1.0000 0.40910  0.54493  0.06258  Biso   1.000  Ne
  Ne333    1.0000 0.92466  0.91081  0.76383  Biso   1.000  Ne
  He333    1.0000 0.91354  0.89884  0.79121  Biso   1.000  He
  He334    1.0000 0.93631  0.88410  0.81271  Biso   1.000  He
  Ne334    1.0000 0.92837  0.88447  0.84365  Biso   1.000  Ne
  Ne335    1.0000 0.40792  0.09521  0.26233  Biso   1.000  Ne
  He335    1.0000 0.41897  0.07296  0.28437  Biso   1.000  He
  He336    1.0000 0.41106  0.08056  0.31695  Biso   1.000  He
  Ne336    1.0000 0.42351  0.06077  0.34042  Biso   1.000  Ne
  Ne337    1.0000 0.59954  0.75871  0.38776  Biso   1.000  Ne
  He337    1.0000 0.62035  0.78563  0.38185  Biso   1.000  He
  He338    1.0000 0.65012  0.78032  0.39398  Biso   1.000  He
  Ne338    1.0000 0.65697  0.79311  0.42326  Biso   1.000  Ne
  Ne339    1.0000 0.90428  0.04147  0.91788  Biso   1.000  Ne
  He339    1.0000 0.93413  0.05197  0.92446  Biso   1.000  He
  He340    1.0000 0.95662  0.02896  0.91323  Biso   1.000  He
  Ne340    1.0000 0.98977  0.03384  0.91385  Biso   1.000  Ne
  Ne341    1.0000 0.61842  0.58554  0.33087  Biso   1.000  Ne
  He341    1.0000 0.60290  0.58066  0.35879  Biso   1.000  He
  He342    1.0000 0.62102  0.58344  0.38595  Biso   1.000  He
  Ne342    1.0000 0.60283  0.57007  0.41377  Biso   1.000  Ne
  Ne343    1.0000 0.36668  0.16786  0.70462  Biso   1.000  Ne
  He343    1.0000 0.39050  0.15026  0.69086  Biso   1.000  He
  He344    1.0000 0.41580  0.16985  0.67981  Biso   1.000  He
  Ne344    1.0000 0.44071  0.15173  0.66494  Biso   1.000  Ne
  Ne345    1.0000 0.63767  0.05188  0.79393  Biso   1.000  Ne
  He345    1.0000 0.63034  0.08136  0.79961  Biso   1.000  He
  He346    1.0000 0.65099  0.09729  0.82028  Biso   1.000  He
  Ne346    1.0000 0.63851  0.12474  0.83475  Biso   1.000  Ne
  Ne347    1.0000 0.09108  0.26777  0.42306  Biso   1.000  Ne
  He347    1.0000 0.11190  0.26706  0.39721  Biso   1.000  He
  He348    1.0000 0.10145  0.27711  0.36656  Biso   1.000  He
  Ne348    1.0000 0.12871  0.27754  0.34533  Biso   1.000  Ne
  Ne349    1.0000 0.30031  0.88857  0.56813  Biso   1.000  Ne
  He349    1.0000 0.31630  0.86481  0.58195  Biso   1.000  He
  He350    1.0000 0.33112  0.87062  0.60857  Biso   1.000  He
  Ne350    1.0000 0.33493  0.84504  0.62934  Biso   1.000  Ne
  Ne351    1.0000 0.07505  0.10823  0.72850  Biso   1.000  Ne
  He351    1.0000 0.08976  0.12627  0.75382  Biso   1.000  He
  He352    1.0000 0.12013  0.13358  0.74655  Biso   1.000  He
  Ne352    1.0000 0.12848  0.15136  0.77241  Biso   1.000  Ne
  Ne353    1.0000 0.65165  0.66604  0.52351  Biso   1.000  Ne
  He353    1.0000 0.66342  0.64692  0.55050  Biso   1.000  He
  He354    1.0000 0.65746  0.61623  0.54684  Biso   1.000  He
  Ne354    1.0000 0.66755  0.60053  0.57263  Biso   1.000  Ne
  Ne355    1.0000 0.99767  0.56864  0.46650  Biso   1.000  Ne
  He355    1.0000 0.98730  0.56448  0.43357  Biso   1.000  He
  He356    1.0000 0.96179  0.54383  0.43165  Biso   1.000  He
  Ne356    1.0000 0.95100  0.54437  0.40048  Biso   1.000  Ne
  Ne357    1.0000 0.84802  0.25012  0.38377  Biso   1.000  Ne
  He357    1.0000 0.83590  0.27587  0.40345  Biso   1.000  He
  He358    1.0000 0.80085  0.27272  0.40622  Biso   1.000  He
  Ne358    1.0000 0.78346  0.29058  0.42980  Biso   1.000  Ne
  Ne359    1.0000 0.42857  0.30215  0.10099  Biso   1.000  Ne
  He359    1.0000 0.42766  0.31655  0.13056  Biso   1.000  He
  He360    1.0000 0.43498  0.29881  0.15673  Biso   1.000  He
  Ne360    1.0000 0.43237  0.31926  0.18412  Biso   1.000  Ne
  Ne361    1.0000 0.08345  0.27142  0.66704  Biso   1.000  Ne
  He361    1.0000 0.07574  0.24031  0.66594  Biso   1.000  He
  He362    1.0000 0.07176  0.22916  0.63443  Biso   1.000  He
  Ne362    1.0000 0.06117  0.20288  0.62857  Biso   1.000  Ne
  Ne363    1.0000 0.07256  0.54847  0.48334  Biso   1.000  Ne
  He363    1.0000 0.08721  0.52441  0.46445  Biso   1.000  He
  He364    1.0000 0.06378  0.49930  0.45448  Biso   1.000  He
  Ne364    1.0000 0.07794  0.48139  0.43210  Biso   1.000  Ne
  Ne365    1.0000 0.43261  0.38542  0.78804  Biso   1.000  Ne
  He365    1.0000 0.41180  0.36388  0.79727  Biso   1.000  He
  He366    1.0000 0.42585  0.33377  0.80585  Biso   1.000  He
  Ne366    1.0000 0.40198  0.31266  0.81271  Biso   1.000  Ne
  Ne367    1.0000 0.81354  0.90353  0.84256  Biso   1.000  Ne
  He367    1.0000 0.79753  0.91031  0.81423  Biso   1.000  He
  He368    1.0000 0.81524  0.90338  0.78602  Biso   1.000  He
  Ne368    1.0000 0.79825  0.90879  0.76114  Biso   1.000  Ne
  Ne369    1.0000 0.22205  0.39811  0.58426  Biso   1.000  Ne
  He369    1.0000 0.24145  0.41001  0.60731  Biso   1.000  He
  He370    1.0000 0.26700  0.39135  0.61952  Biso   1.000  He
  Ne370    1.0000 0.29186  0.40837  0.63140  Biso   1.000  Ne
  Ne371    1.0000 0.78047  0.65611  0.42847  Biso   1.000  Ne
  He371    1.0000 0.81262  0.66973  0.42751  Biso   1.000  He
  He372    1.0000 0.83854  0.64940  0.42945  Biso   1.000  He
  Ne372    1.0000 0.86591  0.66893  0.43680  Biso   1.000  Ne
  Ne373    1.0000 0.87135  0.55751  0.61167  Biso   1.000  Ne
  He373    1.0000 0.89154  0.54698  0.58590  Biso   1.000  He
  He374    1.0000 0.92434  0.54221  0.59129  Biso   1.000  He
  Ne374    1.0000 0.94254  0.53517  0.56273  Biso   1.000  Ne
  Ne375    1.0000 0.68173  0.82604  0.23732  Biso   1.000  Ne
  He375    1.0000 0.65538  0.81624  0.21860  Biso   1.000  He
  He376    1.0000 0.62671  0.81232  0.23326  Biso   1.000  He
  Ne376    1.0000 0.59967  0.80860  0.21592  Biso   1.000  Ne
  Ne377    1.0000 0.36346  0.89330  0.23861  Biso   1.000  Ne
  He377    1.0000 0.36616  0.91047  0.26469  Biso   1.000  He
  He378    1.0000 0.37474  0.89343  0.29186  Biso   1.000  He
  Ne378    1.0000 0.40790  0.89506  0.30164  Biso   1.000  Ne
  Ne379    1.0000 0.72848  0.12269  0.21483  Biso   1.000  Ne
  He379    1.0000 0.71419  0.09853  0.23325  Biso   1.000  He
  He380    1.0000 0.73351  0.07349  0.23903  Biso   1.000  He
  Ne380    1.0000 0.71994  0.04884  0.25576  Biso   1.000  Ne
  Ne381    1.0000 0.77749  0.26411  0.88689  Biso   1.000  Ne
  He381    1.0000 0.76698  0.28577  0.90847  Biso   1.000  He
  He382    1.0000 0.78136  0.31697  0.90693  Biso   1.000  He
  Ne382    1.0000 0.76957  0.33999  0.92995  Biso   1.000  Ne
  Ne383    1.0000 0.27312  0.41112  0.06706  Biso   1.000  Ne
  He383    1.0000 0.30227  0.39251  0.06741  Biso   1.000  He
  He384    1.0000 0.31762  0.39390  0.09496  Biso   1.000  He
  Ne384    1.0000 0.34419  0.37559  0.09447  Biso   1.000  Ne
  Ne385    1.0000 0.09760  0.29145  0.59266  Biso   1.000  Ne
  He385    1.0000 0.10677  0.32230  0.58295  Biso   1.000  He
  He386    1.0000 0.13892  0.32804  0.59220  Biso   1.000  He
  Ne386    1.0000 0.14969  0.35707  0.58134  Biso   1.000  Ne
  Ne387    1.0000 0.09392  0.90906  0.14164  Biso   1.000  Ne
  He387    1.0000 0.12276  0.91343  0.15681  Biso   1.000  He
  He388    1.0000 0.13727  0.88553  0.16804  Biso   1.000  He
  Ne388    1.0000 0.16951  0.89352  0.17663  Biso   1.000  Ne
  Ne389    1.0000 0.57973  0.07914  0.41303  Biso   1.000  Ne
  He389    1.0000 0.56183  0.06969  0.43984  Biso   1.000  He
  He390    1.0000 0.57852  0.04425  0.45627  Biso   1.000  He
  Ne390    1.0000 0.56191  0.03274  0.48378  Biso   1.000  Ne
  Ne391    1.0000 0.91164  0.34234  0.41259  Biso   1.000  Ne
  He391    1.0000 0.90844  0.31442  0.43019  Biso   1.000  He
  He392    1.0000 0.92538  0.28794  0.42009  Biso   1.000  He
  Ne392    1.0000 0.92097  0.26036  0.43649  Biso   1.000  Ne
  Ne393    1.0000 0.16480  0.90633  0.07583  Biso   1.000  Ne
  He393    1.0000 0.18280  0.88228  0.08992  Biso   1.000  He
  He394    1.0000 0.20775  0.89322  0.10778  Biso   1.000  He
  Ne394    1.0000 0.23188  0.87169  0.11663  Biso   1.000  Ne
  Ne395    1.0000 0.44197  0.20577  0.43392  Biso   1.000  Ne
  He395    1.0000 0.44097  0.23958  0.43864  Biso   1.000  He
  He396    1.0000 0.41323  0.25112  0.45124  Biso   1.000  He
  Ne396    1.0000 0.41332  0.28524  0.45287  Biso   1.000  Ne
  Ne397    1.0000 0.09507  0.02866  0.30436  Biso   1.000  Ne
  He397    1.0000 0.12487  0.02568  0.29316  Biso   1.000  He
  He398    1.0000 0.14309  0.00500  0.31011  Biso   1.000  He
  Ne398    1.0000 0.17342  0.99966  0.29925  Biso   1.000  Ne
  Ne399    1.0000 0.16831  0.33070  0.09423  Biso   1.000  Ne
  He399    1.0000 0.19932  0.33393  0.10790  Biso   1.000  He
  He400    1.0000 0.21899  0.31311  0.09179  Biso   1.000  He
  Ne400    1.0000 0.25074  0.30942  0.10317  Biso   1.000  Ne
