data_image0
_cell_length_a       46.5916
_cell_length_b       46.6424
_cell_length_c       46.4529
_cell_angle_alpha    90
_cell_angle_beta     90
_cell_angle_gamma    90

_symmetry_space_group_name_H-M    "P 1"
_symmetry_int_tables_number       1

loop_
  _symmetry_equiv_pos_as_xyz
  'x, y, z'

loop_
  _atom_site_label
  _atom_site_occupancy
  _atom_site_fract_x
  _atom_site_fract_y
  _atom_site_fract_z
  _atom_site_thermal_displace_type
  _atom_site_B_iso_or_equiv
  _atom_site_type_symbol
  Ne1      1.0000 0.85663  0.57357  0.26470  Biso   1.000  Ne
  He1      1.0000 0.88938  0.57554  0.26478  Biso   1.000  He
  He2      1.0000 0.90406  0.58876  0.29164  Biso   1.000  He
  Ne2      1.0000 0.93792  0.58746  0.29312  Biso   1.000  Ne
  Ne3      1.0000 0.93658  0.09845  0.20273  Biso   1.000  Ne
  He3      1.0000 0.94357  0.12967  0.18509  Biso   1.000  He
  He4      1.0000 0.92050  0.15051  0.19034  Biso   1.000  He
  Ne4      1.0000 0.92456  0.17999  0.17346  Biso   1.000  Ne
  Ne5      1.0000 0.42011  0.03156  0.84978  Biso   1.000  Ne
  He5      1.0000 0.41589  0.04098  0.81880  Biso   1.000  He
  He6      1.0000 0.42355  0.07400  0.81180  Biso   1.000  He
  Ne6      1.0000 0.41999  0.08520  0.78111  Biso   1.000  Ne
  Ne7      1.0000 0.18710  0.07529  0.16787  Biso   1.000  Ne
  He7      1.0000 0.19825  0.07944  0.13709  Biso   1.000  He
  He8      1.0000 0.18148  0.10390  0.12013  Biso   1.000  He
  Ne8      1.0000 0.18976  0.10615  0.08926  Biso   1.000  Ne
  Ne9      1.0000 0.20889  0.78673  0.56217  Biso   1.000  Ne
  He9      1.0000 0.19369  0.79126  0.53362  Biso   1.000  He
  He10     1.0000 0.21425  0.80773  0.51032  Biso   1.000  He
  Ne10     1.0000 0.19727  0.81703  0.48232  Biso   1.000  Ne
  Ne11     1.0000 0.60262  0.80042  0.73075  Biso   1.000  Ne
  He11     1.0000 0.58531  0.82868  0.73356  Biso   1.000  He
  He12     1.0000 0.60217  0.85823  0.72576  Biso   1.000  He
  Ne12     1.0000 0.58083  0.88642  0.72703  Biso   1.000  Ne
  Ne13     1.0000 0.08913  0.07792  0.07666  Biso   1.000  Ne
  He13     1.0000 0.11167  0.05570  0.07347  Biso   1.000  He
  He14     1.0000 0.10435  0.02575  0.08286  Biso   1.000  He
  Ne14     1.0000 0.09513  0.00747  0.05859  Biso   1.000  Ne
  Ne15     1.0000 0.40248  0.09132  0.36686  Biso   1.000  Ne
  He15     1.0000 0.36731  0.08677  0.36497  Biso   1.000  He
  He16     1.0000 0.35177  0.09250  0.33564  Biso   1.000  He
  Ne16     1.0000 0.31743  0.08773  0.33774  Biso   1.000  Ne
  Ne17     1.0000 0.22665  0.32518  0.05575  Biso   1.000  Ne
  He17     1.0000 0.21997  0.29879  0.07112  Biso   1.000  He
  He18     1.0000 0.20343  0.30490  0.09422  Biso   1.000  He
  Ne18     1.0000 0.19097  0.27838  0.11061  Biso   1.000  Ne
  Ne19     1.0000 0.75522  0.10387  0.84223  Biso   1.000  Ne
  He19     1.0000 0.77483  0.12738  0.85477  Biso   1.000  He
  He20     1.0000 0.80736  0.11709  0.85491  Biso   1.000  He
  Ne20     1.0000 0.82833  0.13953  0.86865  Biso   1.000  Ne
  Ne21     1.0000 0.59317  0.70462  0.90267  Biso   1.000  Ne
  He21     1.0000 0.60030  0.68259  0.92521  Biso   1.000  He
  He22     1.0000 0.62133  0.65837  0.91672  Biso   1.000  He
  Ne22     1.0000 0.63164  0.63940  0.94203  Biso   1.000  Ne
  Ne23     1.0000 0.76286  0.23361  0.44941  Biso   1.000  Ne
  He23     1.0000 0.76422  0.20187  0.44372  Biso   1.000  He
  He24     1.0000 0.74011  0.18578  0.46059  Biso   1.000  He
  Ne24     1.0000 0.73757  0.15452  0.45201  Biso   1.000  Ne
  Ne25     1.0000 0.47970  0.43112  0.12972  Biso   1.000  Ne
  He25     1.0000 0.49699  0.45459  0.11463  Biso   1.000  He
  He26     1.0000 0.48059  0.48443  0.11271  Biso   1.000  He
  Ne26     1.0000 0.49680  0.50896  0.09805  Biso   1.000  Ne
  Ne27     1.0000 0.70196  0.89733  0.94263  Biso   1.000  Ne
  He27     1.0000 0.71501  0.88764  0.91189  Biso   1.000  He
  He28     1.0000 0.70909  0.85448  0.90254  Biso   1.000  He
  Ne28     1.0000 0.72185  0.84175  0.87434  Biso   1.000  Ne
  Ne29     1.0000 0.32503  0.17464  0.09169  Biso   1.000  Ne
  He29     1.0000 0.30359  0.14815  0.08507  Biso   1.000  He
  He30     1.0000 0.31481  0.12291  0.06702  Biso   1.000  He
  Ne30     1.0000 0.29105  0.09755  0.06406  Biso   1.000  Ne
  Ne31     1.0000 0.60050  0.08566  0.35669  Biso   1.000  Ne
  He31     1.0000 0.59830  0.09847  0.38612  Biso   1.000  He
  He32     1.0000 0.60205  0.13156  0.38366  Biso   1.000  He
  Ne32     1.0000 0.60174  0.14798  0.41351  Biso   1.000  Ne
  Ne33     1.0000 0.74495  0.09203  0.23150  Biso   1.000  Ne
  He33     1.0000 0.77362  0.07455  0.22327  Biso   1.000  He
  He34     1.0000 0.79774  0.09458  0.21370  Biso   1.000  He
  Ne34     1.0000 0.82824  0.08408  0.20805  Biso   1.000  Ne
  Ne35     1.0000 0.10441  0.57515  0.47551  Biso   1.000  Ne
  He35     1.0000 0.11829  0.58407  0.44857  Biso   1.000  He
  He36     1.0000 0.14595  0.56983  0.44656  Biso   1.000  He
  Ne36     1.0000 0.16370  0.57873  0.41974  Biso   1.000  Ne
  Ne37     1.0000 0.92556  0.95330  0.08293  Biso   1.000  Ne
  He37     1.0000 0.94413  0.93001  0.06606  Biso   1.000  He
  He38     1.0000 0.97459  0.92798  0.07436  Biso   1.000  He
  Ne38     1.0000 0.99229  0.90176  0.06547  Biso   1.000  Ne
  Ne39     1.0000 0.94475  0.21756  0.57611  Biso   1.000  Ne
  He39     1.0000 0.92482  0.19505  0.56497  Biso   1.000  He
  He40     1.0000 0.90060  0.20924  0.54566  Biso   1.000  He
  Ne40     1.0000 0.87462  0.19028  0.53400  Biso   1.000  Ne
  Ne41     1.0000 0.09274  0.77849  0.17672  Biso   1.000  Ne
  He41     1.0000 0.10788  0.80247  0.16521  Biso   1.000  He
  He42     1.0000 0.10801  0.80040  0.12999  Biso   1.000  He
  Ne42     1.0000 0.11696  0.82822  0.11681  Biso   1.000  Ne
  Ne43     1.0000 0.86277  0.42327  0.64624  Biso   1.000  Ne
  He43     1.0000 0.84514  0.40171  0.62879  Biso   1.000  He
  He44     1.0000 0.86191  0.37432  0.61855  Biso   1.000  He
  Ne44     1.0000 0.84358  0.35288  0.60122  Biso   1.000  Ne
  Ne45     1.0000 0.25413  0.79853  0.43092  Biso   1.000  Ne
  He45     1.0000 0.27699  0.82403  0.43550  Biso   1.000  He
  He46     1.0000 0.30590  0.81506  0.43803  Biso   1.000  He
  Ne46     1.0000 0.32672  0.84238  0.43849  Biso   1.000  Ne
  Ne47     1.0000 0.63590  0.43779  0.31296  Biso   1.000  Ne
  He47     1.0000 0.64422  0.43458  0.27744  Biso   1.000  He
  He48     1.0000 0.62766  0.45190  0.25640  Biso   1.000  He
  Ne48     1.0000 0.63602  0.44604  0.22485  Biso   1.000  Ne
  Ne49     1.0000 0.25622  0.60814  0.63334  Biso   1.000  Ne
  He49     1.0000 0.25298  0.63166  0.65913  Biso   1.000  He
  He50     1.0000 0.28339  0.64182  0.67375  Biso   1.000  He
  Ne50     1.0000 0.29168  0.62440  0.70039  Biso   1.000  Ne
  Ne51     1.0000 0.95849  0.39093  0.47691  Biso   1.000  Ne
  He51     1.0000 0.98546  0.40898  0.47812  Biso   1.000  He
  He52     1.0000 0.99901  0.41070  0.50753  Biso   1.000  He
  Ne52     1.0000 0.02813  0.42519  0.51005  Biso   1.000  Ne
  Ne53     1.0000 0.88692  0.41727  0.45624  Biso   1.000  Ne
  He53     1.0000 0.86845  0.42464  0.42773  Biso   1.000  He
  He54     1.0000 0.84423  0.40451  0.42133  Biso   1.000  He
  Ne54     1.0000 0.81428  0.41378  0.43330  Biso   1.000  Ne
  Ne55     1.0000 0.62205  0.29420  0.52108  Biso   1.000  Ne
  He55     1.0000 0.64100  0.29697  0.49230  Biso   1.000  He
  He56     1.0000 0.62995  0.31833  0.47016  Biso   1.000  He
  Ne56     1.0000 0.64699  0.31927  0.44214  Biso   1.000  Ne
  Ne57     1.0000 0.21126  0.18139  0.58181  Biso   1.000  Ne
  He57     1.0000 0.23749  0.18039  0.60206  Biso   1.000  He
  He58     1.0000 0.23306  0.18753  0.63284  Biso   1.000  He
  Ne58     1.0000 0.26031  0.18998  0.65055  Biso   1.000  Ne
  Ne59     1.0000 0.42323  0.24874  0.15271  Biso   1.000  Ne
  He59     1.0000 0.43745  0.27799  0.15082  Biso   1.000  He
  He60     1.0000 0.42247  0.29780  0.12909  Biso   1.000  He
  Ne60     1.0000 0.43773  0.32560  0.12681  Biso   1.000  Ne
  Ne61     1.0000 0.15663  0.71768  0.67747  Biso   1.000  Ne
  He61     1.0000 0.13472  0.71355  0.65469  Biso   1.000  He
  He62     1.0000 0.14651  0.71919  0.62233  Biso   1.000  He
  Ne62     1.0000 0.12468  0.71048  0.60010  Biso   1.000  Ne
  Ne63     1.0000 0.93224  0.77207  0.46149  Biso   1.000  Ne
  He63     1.0000 0.93531  0.76454  0.42810  Biso   1.000  He
  He64     1.0000 0.94743  0.73485  0.42333  Biso   1.000  He
  Ne64     1.0000 0.95087  0.72265  0.39355  Biso   1.000  Ne
  Ne65     1.0000 0.86638  0.57593  0.70882  Biso   1.000  Ne
  He65     1.0000 0.89446  0.59503  0.70785  Biso   1.000  He
  He66     1.0000 0.92125  0.57947  0.71523  Biso   1.000  He
  Ne66     1.0000 0.94825  0.60018  0.71563  Biso   1.000  Ne
  Ne67     1.0000 0.86604  0.17008  0.40961  Biso   1.000  Ne
  He67     1.0000 0.88280  0.19681  0.39602  Biso   1.000  He
  He68     1.0000 0.86513  0.22350  0.39556  Biso   1.000  He
  Ne68     1.0000 0.88235  0.24959  0.38418  Biso   1.000  Ne
  Ne69     1.0000 0.10249  0.23448  0.34586  Biso   1.000  Ne
  He69     1.0000 0.09832  0.20787  0.36502  Biso   1.000  He
  He70     1.0000 0.10674  0.17940  0.35045  Biso   1.000  He
  Ne70     1.0000 0.09635  0.15323  0.37172  Biso   1.000  Ne
  Ne71     1.0000 0.19056  0.80625  0.33144  Biso   1.000  Ne
  He71     1.0000 0.18090  0.79112  0.35696  Biso   1.000  He
  He72     1.0000 0.17303  0.80991  0.38216  Biso   1.000  He
  Ne72     1.0000 0.16137  0.79477  0.40909  Biso   1.000  Ne
  Ne73     1.0000 0.62117  0.15228  0.69130  Biso   1.000  Ne
  He73     1.0000 0.61138  0.17768  0.67141  Biso   1.000  He
  He74     1.0000 0.62372  0.20825  0.68039  Biso   1.000  He
  Ne74     1.0000 0.64982  0.21795  0.66183  Biso   1.000  Ne
  Ne75     1.0000 0.39565  0.56180  0.22243  Biso   1.000  Ne
  He75     1.0000 0.36589  0.54950  0.22773  Biso   1.000  He
  He76     1.0000 0.34213  0.56633  0.21321  Biso   1.000  He
  Ne76     1.0000 0.31142  0.56011  0.22401  Biso   1.000  Ne
  Ne77     1.0000 0.41494  0.07617  0.27136  Biso   1.000  Ne
  He77     1.0000 0.42844  0.10888  0.27532  Biso   1.000  He
  He78     1.0000 0.45542  0.11469  0.29381  Biso   1.000  He
  Ne78     1.0000 0.45307  0.14373  0.30902  Biso   1.000  Ne
  Ne79     1.0000 0.35880  0.67887  0.10361  Biso   1.000  Ne
  He79     1.0000 0.36220  0.64451  0.10317  Biso   1.000  He
  He80     1.0000 0.35832  0.62740  0.13154  Biso   1.000  He
  Ne80     1.0000 0.35374  0.59487  0.12896  Biso   1.000  Ne
  Ne81     1.0000 0.94753  0.19146  0.81115  Biso   1.000  Ne
  He81     1.0000 0.93064  0.18272  0.78456  Biso   1.000  He
  He82     1.0000 0.94094  0.15820  0.76586  Biso   1.000  He
  Ne82     1.0000 0.91543  0.15231  0.74226  Biso   1.000  Ne
  Ne83     1.0000 0.46451  0.42409  0.01859  Biso   1.000  Ne
  He83     1.0000 0.46895  0.39477  0.99667  Biso   1.000  He
  He84     1.0000 0.44199  0.38188  0.98157  Biso   1.000  He
  Ne84     1.0000 0.44983  0.35592  0.96475  Biso   1.000  Ne
  Ne85     1.0000 0.57794  0.43924  0.13088  Biso   1.000  Ne
  He85     1.0000 0.60327  0.42435  0.11720  Biso   1.000  He
  He86     1.0000 0.62583  0.44560  0.10741  Biso   1.000  He
  Ne86     1.0000 0.65107  0.42999  0.09449  Biso   1.000  Ne
  Ne87     1.0000 0.70977  0.09426  0.14817  Biso   1.000  Ne
  He87     1.0000 0.71694  0.06541  0.13408  Biso   1.000  He
  He88     1.0000 0.74129  0.06628  0.11105  Biso   1.000  He
  Ne88     1.0000 0.74679  0.03751  0.09422  Biso   1.000  Ne
  Ne89     1.0000 0.49591  0.51692  0.94041  Biso   1.000  Ne
  He89     1.0000 0.50551  0.49199  0.96358  Biso   1.000  He
  He90     1.0000 0.52964  0.50109  0.98394  Biso   1.000  He
  Ne90     1.0000 0.53092  0.48149  0.00963  Biso   1.000  Ne
  Ne91     1.0000 0.18490  0.84118  0.91132  Biso   1.000  Ne
  He91     1.0000 0.19106  0.87125  0.91647  Biso   1.000  He
  He92     1.0000 0.21207  0.87880  0.94166  Biso   1.000  He
  Ne92     1.0000 0.21367  0.90957  0.94888  Biso   1.000  Ne
  Ne93     1.0000 0.38039  0.57448  0.93509  Biso   1.000  Ne
  He93     1.0000 0.39117  0.60471  0.94152  Biso   1.000  He
  He94     1.0000 0.36862  0.62797  0.93185  Biso   1.000  He
  Ne94     1.0000 0.37997  0.65633  0.94136  Biso   1.000  Ne
  Ne95     1.0000 0.07272  0.88152  0.61774  Biso   1.000  Ne
  He95     1.0000 0.04325  0.88165  0.60066  Biso   1.000  He
  He96     1.0000 0.02018  0.86356  0.61838  Biso   1.000  He
  Ne96     1.0000 0.99034  0.86541  0.60495  Biso   1.000  Ne
  Ne97     1.0000 0.79085  0.68779  0.95511  Biso   1.000  Ne
  He97     1.0000 0.81252  0.71062  0.94373  Biso   1.000  He
  He98     1.0000 0.84277  0.70718  0.95841  Biso   1.000  He
  Ne98     1.0000 0.86533  0.72695  0.94833  Biso   1.000  Ne
  Ne99     1.0000 0.90065  0.08223  0.79938  Biso   1.000  Ne
  He99     1.0000 0.88922  0.09299  0.83032  Biso   1.000  He
  He100    1.0000 0.91162  0.10933  0.85084  Biso   1.000  He
  Ne100    1.0000 0.90804  0.14067  0.85309  Biso   1.000  Ne
  Ne101    1.0000 0.32582  0.16851  0.36017  Biso   1.000  Ne
  He101    1.0000 0.34388  0.19475  0.35281  Biso   1.000  He
  He102    1.0000 0.37555  0.18639  0.35224  Biso   1.000  He
  Ne102    1.0000 0.39670  0.21403  0.34184  Biso   1.000  Ne
  Ne103    1.0000 0.21945  0.33603  0.44616  Biso   1.000  Ne
  He103    1.0000 0.21332  0.35911  0.42168  Biso   1.000  He
  He104    1.0000 0.18405  0.37360  0.42034  Biso   1.000  He
  Ne104    1.0000 0.17697  0.39620  0.39678  Biso   1.000  Ne
  Ne105    1.0000 0.07974  0.67920  0.24024  Biso   1.000  Ne
  He105    1.0000 0.06755  0.67828  0.20686  Biso   1.000  He
  He106    1.0000 0.03377  0.68368  0.20714  Biso   1.000  He
  Ne106    1.0000 0.01998  0.68259  0.17636  Biso   1.000  Ne
  Ne107    1.0000 0.14611  0.19241  0.52348  Biso   1.000  Ne
  He107    1.0000 0.11571  0.18902  0.53854  Biso   1.000  He
  He108    1.0000 0.11553  0.19165  0.57111  Biso   1.000  He
  Ne108    1.0000 0.08545  0.18607  0.58462  Biso   1.000  Ne
  Ne109    1.0000 0.25444  0.51743  0.86425  Biso   1.000  Ne
  He109    1.0000 0.27163  0.52831  0.83997  Biso   1.000  He
  He110    1.0000 0.27982  0.56192  0.84041  Biso   1.000  He
  Ne110    1.0000 0.30276  0.57178  0.81400  Biso   1.000  Ne
  Ne111    1.0000 0.33148  0.21902  0.96540  Biso   1.000  Ne
  He111    1.0000 0.30988  0.22900  0.94350  Biso   1.000  He
  He112    1.0000 0.29166  0.20229  0.92956  Biso   1.000  He
  Ne112    1.0000 0.26600  0.21126  0.91073  Biso   1.000  Ne
  Ne113    1.0000 0.77816  0.57648  0.41783  Biso   1.000  Ne
  He113    1.0000 0.78647  0.60524  0.40425  Biso   1.000  He
  He114    1.0000 0.80304  0.60500  0.37627  Biso   1.000  He
  Ne114    1.0000 0.82169  0.63257  0.37209  Biso   1.000  Ne
  Ne115    1.0000 0.24699  0.11200  0.80625  Biso   1.000  Ne
  He115    1.0000 0.22021  0.10821  0.78638  Biso   1.000  He
  He116    1.0000 0.19305  0.12671  0.79378  Biso   1.000  He
  Ne116    1.0000 0.16720  0.11648  0.77575  Biso   1.000  Ne
  Ne117    1.0000 0.51881  0.57454  0.01707  Biso   1.000  Ne
  He117    1.0000 0.48666  0.56582  0.02791  Biso   1.000  He
  He118    1.0000 0.46489  0.56748  0.00293  Biso   1.000  He
  Ne118    1.0000 0.43693  0.55405  0.00829  Biso   1.000  Ne
  Ne119    1.0000 0.59646  0.32430  0.35169  Biso   1.000  Ne
  He119    1.0000 0.59029  0.29963  0.37294  Biso   1.000  He
  He120    1.0000 0.57151  0.30556  0.39728  Biso   1.000  He
  Ne120    1.0000 0.56409  0.28281  0.42178  Biso   1.000  Ne
  Ne121    1.0000 0.32777  0.90360  0.32956  Biso   1.000  Ne
  He121    1.0000 0.33886  0.90742  0.36256  Biso   1.000  He
  He122    1.0000 0.36790  0.92655  0.36290  Biso   1.000  He
  Ne122    1.0000 0.38263  0.93418  0.39157  Biso   1.000  Ne
  Ne123    1.0000 0.11528  0.64555  0.68749  Biso   1.000  Ne
  He123    1.0000 0.11451  0.65331  0.71984  Biso   1.000  He
  He124    1.0000 0.11321  0.62832  0.74335  Biso   1.000  He
  Ne124    1.0000 0.10855  0.64148  0.77573  Biso   1.000  Ne
  Ne125    1.0000 0.92657  0.57215  0.38530  Biso   1.000  Ne
  He125    1.0000 0.94174  0.59416  0.40252  Biso   1.000  He
  He126    1.0000 0.93712  0.62309  0.39158  Biso   1.000  He
  Ne126    1.0000 0.94558  0.64740  0.41467  Biso   1.000  Ne
  Ne127    1.0000 0.32020  0.34356  0.10227  Biso   1.000  Ne
  He127    1.0000 0.33502  0.31737  0.11633  Biso   1.000  He
  He128    1.0000 0.31581  0.29667  0.13305  Biso   1.000  He
  Ne128    1.0000 0.33315  0.27326  0.14650  Biso   1.000  Ne
  Ne129    1.0000 0.96412  0.58703  0.52808  Biso   1.000  Ne
  He129    1.0000 0.98062  0.57032  0.50601  Biso   1.000  He
  He130    1.0000 0.00848  0.58275  0.49327  Biso   1.000  He
  Ne130    1.0000 0.02360  0.56321  0.47082  Biso   1.000  Ne
  Ne131    1.0000 0.64191  0.21343  0.33395  Biso   1.000  Ne
  He131    1.0000 0.65343  0.22160  0.36448  Biso   1.000  He
  He132    1.0000 0.62856  0.22003  0.38455  Biso   1.000  He
  Ne132    1.0000 0.63889  0.22491  0.41668  Biso   1.000  Ne
  Ne133    1.0000 0.19656  0.46101  0.16020  Biso   1.000  Ne
  He133    1.0000 0.21749  0.43880  0.15205  Biso   1.000  He
  He134    1.0000 0.23699  0.44788  0.12649  Biso   1.000  He
  Ne134    1.0000 0.25994  0.42389  0.11206  Biso   1.000  Ne
  Ne135    1.0000 0.62000  0.09460  0.61367  Biso   1.000  Ne
  He135    1.0000 0.65239  0.09024  0.61658  Biso   1.000  He
  He136    1.0000 0.66679  0.12094  0.61577  Biso   1.000  He
  Ne136    1.0000 0.69922  0.12181  0.61982  Biso   1.000  Ne
  Ne137    1.0000 0.13285  0.55266  0.74096  Biso   1.000  Ne
  He137    1.0000 0.16064  0.56731  0.73610  Biso   1.000  He
  He138    1.0000 0.16526  0.57283  0.70366  Biso   1.000  He
  Ne138    1.0000 0.19383  0.58625  0.69359  Biso   1.000  Ne
  Ne139    1.0000 0.67099  0.91849  0.60701  Biso   1.000  Ne
  He139    1.0000 0.68899  0.89167  0.60298  Biso   1.000  He
  He140    1.0000 0.72151  0.89525  0.61206  Biso   1.000  He
  Ne140    1.0000 0.73797  0.86767  0.60241  Biso   1.000  Ne
  Ne141    1.0000 0.34565  0.17507  0.63374  Biso   1.000  Ne
  He141    1.0000 0.37561  0.17718  0.64594  Biso   1.000  He
  He142    1.0000 0.39672  0.18525  0.62428  Biso   1.000  He
  Ne142    1.0000 0.42754  0.18386  0.63374  Biso   1.000  Ne
  Ne143    1.0000 0.82797  0.13321  0.94369  Biso   1.000  Ne
  He143    1.0000 0.84682  0.16088  0.94613  Biso   1.000  He
  He144    1.0000 0.83754  0.18802  0.93011  Biso   1.000  He
  Ne144    1.0000 0.86052  0.21043  0.92889  Biso   1.000  Ne
  Ne145    1.0000 0.93332  0.89425  0.16541  Biso   1.000  Ne
  He145    1.0000 0.94339  0.87081  0.14512  Biso   1.000  He
  He146    1.0000 0.92120  0.84996  0.13357  Biso   1.000  He
  Ne146    1.0000 0.93318  0.83509  0.10639  Biso   1.000  Ne
  Ne147    1.0000 0.39466  0.24979  0.46772  Biso   1.000  Ne
  He147    1.0000 0.36468  0.24011  0.45538  Biso   1.000  He
  He148    1.0000 0.34548  0.22216  0.47772  Biso   1.000  He
  Ne148    1.0000 0.32184  0.20429  0.46215  Biso   1.000  Ne
  Ne149    1.0000 0.51270  0.18845  0.22902  Biso   1.000  Ne
  He149    1.0000 0.47924  0.19059  0.22601  Biso   1.000  He
  He150    1.0000 0.46719  0.22043  0.23711  Biso   1.000  He
  Ne150    1.0000 0.43503  0.22277  0.23992  Biso   1.000  Ne
  Ne151    1.0000 0.93929  0.38996  0.67585  Biso   1.000  Ne
  He151    1.0000 0.92380  0.41159  0.69410  Biso   1.000  He
  He152    1.0000 0.92978  0.40776  0.72708  Biso   1.000  He
  Ne152    1.0000 0.90879  0.42378  0.74710  Biso   1.000  Ne
  Ne153    1.0000 0.63221  0.75062  0.37196  Biso   1.000  Ne
  He153    1.0000 0.61392  0.75440  0.39915  Biso   1.000  He
  He154    1.0000 0.61865  0.72659  0.41720  Biso   1.000  He
  Ne154    1.0000 0.60386  0.72582  0.44613  Biso   1.000  Ne
  Ne155    1.0000 0.13584  0.08311  0.93770  Biso   1.000  Ne
  He155    1.0000 0.11522  0.05730  0.93144  Biso   1.000  He
  He156    1.0000 0.09640  0.05627  0.95983  Biso   1.000  He
  Ne156    1.0000 0.07628  0.02816  0.96329  Biso   1.000  Ne
  Ne157    1.0000 0.43578  0.98498  0.58596  Biso   1.000  Ne
  He157    1.0000 0.46082  0.96372  0.59622  Biso   1.000  He
  He158    1.0000 0.47452  0.94618  0.57103  Biso   1.000  He
  Ne158    1.0000 0.49893  0.92766  0.58416  Biso   1.000  Ne
  Ne159    1.0000 0.59257  0.77937  0.60373  Biso   1.000  Ne
  He159    1.0000 0.58545  0.74752  0.59652  Biso   1.000  He
  He160    1.0000 0.58332  0.72799  0.62351  Biso   1.000  He
  Ne160    1.0000 0.57223  0.69804  0.61801  Biso   1.000  Ne
  Ne161    1.0000 0.17753  0.57212  0.60556  Biso   1.000  Ne
  He161    1.0000 0.14745  0.58615  0.61301  Biso   1.000  He
  He162    1.0000 0.14833  0.62003  0.61435  Biso   1.000  He
  Ne162    1.0000 0.11932  0.63463  0.61322  Biso   1.000  Ne
  Ne163    1.0000 0.39303  0.42133  0.11674  Biso   1.000  Ne
  He163    1.0000 0.38534  0.41169  0.14872  Biso   1.000  He
  He164    1.0000 0.37217  0.38270  0.15341  Biso   1.000  He
  Ne164    1.0000 0.35944  0.37801  0.18334  Biso   1.000  Ne
  Ne165    1.0000 0.94392  0.55737  0.59661  Biso   1.000  Ne
  He165    1.0000 0.97308  0.54969  0.61065  Biso   1.000  He
  He166    1.0000 0.99588  0.54088  0.59105  Biso   1.000  He
  Ne166    1.0000 0.02485  0.53783  0.60777  Biso   1.000  Ne
  Ne167    1.0000 0.95375  0.72705  0.60784  Biso   1.000  Ne
  He167    1.0000 0.96112  0.69727  0.62687  Biso   1.000  He
  He168    1.0000 0.93917  0.67118  0.61889  Biso   1.000  He
  Ne168    1.0000 0.94878  0.64326  0.63151  Biso   1.000  Ne
  Ne169    1.0000 0.62045  0.54298  0.97620  Biso   1.000  Ne
  He169    1.0000 0.60683  0.54546  0.94561  Biso   1.000  He
  He170    1.0000 0.58713  0.57297  0.94017  Biso   1.000  He
  Ne170    1.0000 0.57771  0.57742  0.90947  Biso   1.000  Ne
  Ne171    1.0000 0.11011  0.76646  0.89849  Biso   1.000  Ne
  He171    1.0000 0.10062  0.74096  0.92011  Biso   1.000  He
  He172    1.0000 0.09482  0.75172  0.95360  Biso   1.000  He
  Ne172    1.0000 0.08314  0.72976  0.97121  Biso   1.000  Ne
  Ne173    1.0000 0.65958  0.64442  0.24777  Biso   1.000  Ne
  He173    1.0000 0.62827  0.64557  0.25779  Biso   1.000  He
  He174    1.0000 0.61570  0.61851  0.26877  Biso   1.000  He
  Ne174    1.0000 0.58546  0.62232  0.27892  Biso   1.000  Ne
  Ne175    1.0000 0.08316  0.24235  0.46138  Biso   1.000  Ne
  He175    1.0000 0.10552  0.25479  0.44114  Biso   1.000  He
  He176    1.0000 0.12517  0.27763  0.45856  Biso   1.000  He
  Ne176    1.0000 0.14470  0.29536  0.43995  Biso   1.000  Ne
  Ne177    1.0000 0.75315  0.33174  0.47435  Biso   1.000  Ne
  He177    1.0000 0.77757  0.33653  0.45521  Biso   1.000  He
  He178    1.0000 0.79082  0.31073  0.44876  Biso   1.000  He
  Ne178    1.0000 0.81371  0.31464  0.42293  Biso   1.000  Ne
  Ne179    1.0000 0.53067  0.96837  0.44421  Biso   1.000  Ne
  He179    1.0000 0.52607  0.93973  0.45582  Biso   1.000  He
  He180    1.0000 0.49967  0.93986  0.47602  Biso   1.000  He
  Ne180    1.0000 0.49250  0.91216  0.49318  Biso   1.000  Ne
  Ne181    1.0000 0.31836  0.98855  0.15789  Biso   1.000  Ne
  He181    1.0000 0.31478  0.96572  0.18258  Biso   1.000  He
  He182    1.0000 0.33001  0.97399  0.21119  Biso   1.000  He
  Ne182    1.0000 0.32255  0.95378  0.23736  Biso   1.000  Ne
  Ne183    1.0000 0.21042  0.62087  0.92960  Biso   1.000  Ne
  He183    1.0000 0.24002  0.61571  0.93346  Biso   1.000  He
  He184    1.0000 0.25881  0.64281  0.93560  Biso   1.000  He
  Ne184    1.0000 0.29069  0.63076  0.93960  Biso   1.000  Ne
  Ne185    1.0000 0.28109  0.39189  0.92721  Biso   1.000  Ne
  He185    1.0000 0.30180  0.37579  0.94281  Biso   1.000  He
  He186    1.0000 0.33229  0.38496  0.93589  Biso   1.000  He
  Ne186    1.0000 0.35685  0.36680  0.94968  Biso   1.000  Ne
  Ne187    1.0000 0.17473  0.57344  0.81318  Biso   1.000  Ne
  He187    1.0000 0.17091  0.58880  0.84445  Biso   1.000  He
  He188    1.0000 0.14453  0.60830  0.84737  Biso   1.000  He
  Ne188    1.0000 0.14230  0.62067  0.87866  Biso   1.000  Ne
  Ne189    1.0000 0.54940  0.42833  0.95863  Biso   1.000  Ne
  He189    1.0000 0.58010  0.43980  0.95326  Biso   1.000  He
  He190    1.0000 0.60287  0.42183  0.96768  Biso   1.000  He
  Ne190    1.0000 0.63277  0.43150  0.96214  Biso   1.000  Ne
  Ne191    1.0000 0.10562  0.28670  0.62457  Biso   1.000  Ne
  He191    1.0000 0.13430  0.28525  0.61167  Biso   1.000  He
  He192    1.0000 0.15916  0.28977  0.63371  Biso   1.000  He
  Ne192    1.0000 0.18970  0.28640  0.62217  Biso   1.000  Ne
  Ne193    1.0000 0.43871  0.14949  0.40755  Biso   1.000  Ne
  He193    1.0000 0.44027  0.12381  0.43160  Biso   1.000  He
  He194    1.0000 0.41182  0.12327  0.45314  Biso   1.000  He
  Ne194    1.0000 0.41518  0.10020  0.47761  Biso   1.000  Ne
  Ne195    1.0000 0.70874  0.73163  0.56730  Biso   1.000  Ne
  He195    1.0000 0.70087  0.71420  0.59541  Biso   1.000  He
  He196    1.0000 0.67518  0.69277  0.59466  Biso   1.000  He
  Ne196    1.0000 0.67131  0.67709  0.62459  Biso   1.000  Ne
  Ne197    1.0000 0.86695  0.92156  0.89557  Biso   1.000  Ne
  He197    1.0000 0.87067  0.90240  0.86989  Biso   1.000  He
  He198    1.0000 0.88899  0.91458  0.84311  Biso   1.000  He
  Ne198    1.0000 0.89477  0.89143  0.81751  Biso   1.000  Ne
  Ne199    1.0000 0.61195  0.32050  0.86560  Biso   1.000  Ne
  He199    1.0000 0.60628  0.34783  0.84727  Biso   1.000  He
  He200    1.0000 0.60826  0.37439  0.86402  Biso   1.000  He
  Ne200    1.0000 0.60333  0.40262  0.84783  Biso   1.000  Ne
  Ne201    1.0000 0.94080  0.25391  0.98606  Biso   1.000  Ne
  He201    1.0000 0.95601  0.24611  0.95790  Biso   1.000  He
  He202    1.0000 0.93835  0.24318  0.92951  Biso   1.000  He
  Ne202    1.0000 0.95153  0.23137  0.90168  Biso   1.000  Ne
  Ne203    1.0000 0.55467  0.98670  0.61645  Biso   1.000  Ne
  He203    1.0000 0.56328  0.01112  0.59574  Biso   1.000  He
  He204    1.0000 0.53964  0.03290  0.58922  Biso   1.000  He
  Ne204    1.0000 0.54905  0.05816  0.57018  Biso   1.000  Ne
  Ne205    1.0000 0.38725  0.28131  0.55812  Biso   1.000  Ne
  He205    1.0000 0.38210  0.28636  0.59077  Biso   1.000  He
  He206    1.0000 0.36079  0.26578  0.60476  Biso   1.000  He
  Ne206    1.0000 0.35151  0.27238  0.63730  Biso   1.000  Ne
  Ne207    1.0000 0.62796  0.89457  0.79601  Biso   1.000  Ne
  He207    1.0000 0.62329  0.87760  0.82476  Biso   1.000  He
  He208    1.0000 0.63347  0.89304  0.85520  Biso   1.000  He
  Ne208    1.0000 0.63040  0.87075  0.88007  Biso   1.000  Ne
  Ne209    1.0000 0.68191  0.68397  0.34042  Biso   1.000  Ne
  He209    1.0000 0.67402  0.67989  0.37295  Biso   1.000  He
  He210    1.0000 0.66778  0.64811  0.38210  Biso   1.000  He
  Ne210    1.0000 0.65371  0.64667  0.41079  Biso   1.000  Ne
  Ne211    1.0000 0.02835  0.42176  0.85543  Biso   1.000  Ne
  He211    1.0000 0.05478  0.41511  0.83747  Biso   1.000  He
  He212    1.0000 0.08083  0.42227  0.85293  Biso   1.000  He
  Ne212    1.0000 0.10705  0.41957  0.83537  Biso   1.000  Ne
  Ne213    1.0000 0.09213  0.92383  0.89461  Biso   1.000  Ne
  He213    1.0000 0.10105  0.92151  0.86501  Biso   1.000  He
  He214    1.0000 0.08443  0.89953  0.84703  Biso   1.000  He
  Ne214    1.0000 0.09609  0.89420  0.81761  Biso   1.000  Ne
  Ne215    1.0000 0.69807  0.13999  0.05308  Biso   1.000  Ne
  He215    1.0000 0.68740  0.14433  0.02173  Biso   1.000  He
  He216    1.0000 0.70459  0.16578  0.00302  Biso   1.000  He
  Ne216    1.0000 0.68889  0.17301  0.97298  Biso   1.000  Ne
  Ne217    1.0000 0.44751  0.02588  0.51173  Biso   1.000  Ne
  He217    1.0000 0.47025  0.04578  0.49706  Biso   1.000  He
  He218    1.0000 0.48067  0.03768  0.46658  Biso   1.000  He
  Ne218    1.0000 0.49203  0.06260  0.44605  Biso   1.000  Ne
  Ne219    1.0000 0.09431  0.92802  0.07339  Biso   1.000  Ne
  He219    1.0000 0.10094  0.91251  0.10225  Biso   1.000  He
  He220    1.0000 0.07933  0.92071  0.12645  Biso   1.000  He
  Ne220    1.0000 0.08509  0.90804  0.15445  Biso   1.000  Ne
  Ne221    1.0000 0.19884  0.18757  0.42620  Biso   1.000  Ne
  He221    1.0000 0.22013  0.20984  0.42773  Biso   1.000  He
  He222    1.0000 0.21351  0.23733  0.44460  Biso   1.000  He
  Ne222    1.0000 0.23562  0.26122  0.44285  Biso   1.000  Ne
  Ne223    1.0000 0.43030  0.71955  0.23697  Biso   1.000  Ne
  He223    1.0000 0.42644  0.70178  0.20824  Biso   1.000  He
  He224    1.0000 0.41819  0.71949  0.18041  Biso   1.000  He
  Ne224    1.0000 0.41552  0.70226  0.14935  Biso   1.000  Ne
  Ne225    1.0000 0.45343  0.14505  0.69869  Biso   1.000  Ne
  He225    1.0000 0.44374  0.16067  0.72601  Biso   1.000  He
  He226    1.0000 0.45491  0.19208  0.72720  Biso   1.000  He
  Ne226    1.0000 0.45143  0.20714  0.75575  Biso   1.000  Ne
  Ne227    1.0000 0.86080  0.20477  0.81234  Biso   1.000  Ne
  He227    1.0000 0.83224  0.22223  0.80902  Biso   1.000  He
  He228    1.0000 0.81532  0.22726  0.77996  Biso   1.000  He
  Ne228    1.0000 0.78545  0.24180  0.78008  Biso   1.000  Ne
  Ne229    1.0000 0.35460  0.75829  0.59934  Biso   1.000  Ne
  He229    1.0000 0.38740  0.76471  0.59835  Biso   1.000  He
  He230    1.0000 0.39437  0.79683  0.60140  Biso   1.000  He
  Ne230    1.0000 0.42693  0.80448  0.60254  Biso   1.000  Ne
  Ne231    1.0000 0.18862  0.91294  0.10950  Biso   1.000  Ne
  He231    1.0000 0.21331  0.89749  0.12485  Biso   1.000  He
  He232    1.0000 0.21184  0.89847  0.16025  Biso   1.000  He
  Ne232    1.0000 0.24133  0.88424  0.17330  Biso   1.000  Ne
  Ne233    1.0000 0.72729  0.39569  0.84492  Biso   1.000  Ne
  He233    1.0000 0.73944  0.36789  0.85753  Biso   1.000  He
  He234    1.0000 0.77250  0.36243  0.84810  Biso   1.000  He
  Ne234    1.0000 0.78518  0.33381  0.85729  Biso   1.000  Ne
  Ne235    1.0000 0.58952  0.52677  0.07030  Biso   1.000  Ne
  He235    1.0000 0.57032  0.54738  0.08566  Biso   1.000  He
  He236    1.0000 0.57681  0.58005  0.08045  Biso   1.000  He
  Ne236    1.0000 0.55812  0.60219  0.09596  Biso   1.000  Ne
  Ne237    1.0000 0.10265  0.35878  0.37459  Biso   1.000  Ne
  He237    1.0000 0.10730  0.38316  0.35362  Biso   1.000  He
  He238    1.0000 0.10725  0.37072  0.32157  Biso   1.000  He
  Ne238    1.0000 0.12138  0.39020  0.30185  Biso   1.000  Ne
  Ne239    1.0000 0.42187  0.37229  0.79528  Biso   1.000  Ne
  He239    1.0000 0.44322  0.37770  0.82032  Biso   1.000  He
  He240    1.0000 0.42951  0.38495  0.84919  Biso   1.000  He
  Ne240    1.0000 0.45039  0.39741  0.86876  Biso   1.000  Ne
  Ne241    1.0000 0.61179  0.07651  0.70987  Biso   1.000  Ne
  He241    1.0000 0.61561  0.07375  0.74604  Biso   1.000  He
  He242    1.0000 0.61153  0.04211  0.75799  Biso   1.000  He
  Ne242    1.0000 0.61634  0.04143  0.78860  Biso   1.000  Ne
  Ne243    1.0000 0.15929  0.18674  0.64388  Biso   1.000  Ne
  He243    1.0000 0.13429  0.21181  0.64896  Biso   1.000  He
  He244    1.0000 0.11940  0.20783  0.67701  Biso   1.000  He
  Ne244    1.0000 0.10119  0.23298  0.69046  Biso   1.000  Ne
  Ne245    1.0000 0.81884  0.79044  0.85328  Biso   1.000  Ne
  He245    1.0000 0.84402  0.80204  0.87326  Biso   1.000  He
  He246    1.0000 0.83723  0.81214  0.90472  Biso   1.000  He
  Ne246    1.0000 0.86104  0.82705  0.92257  Biso   1.000  Ne
  Ne247    1.0000 0.59075  0.68779  0.78536  Biso   1.000  Ne
  He247    1.0000 0.58203  0.66186  0.79743  Biso   1.000  He
  He248    1.0000 0.60126  0.65026  0.82073  Biso   1.000  He
  Ne248    1.0000 0.59588  0.61892  0.82678  Biso   1.000  Ne
  Ne249    1.0000 0.07261  0.49117  0.50187  Biso   1.000  Ne
  He249    1.0000 0.09794  0.49289  0.52591  Biso   1.000  He
  He250    1.0000 0.09513  0.51879  0.54639  Biso   1.000  He
  Ne250    1.0000 0.10803  0.51535  0.57765  Biso   1.000  Ne
  Ne251    1.0000 0.80505  0.97158  0.54546  Biso   1.000  Ne
  He251    1.0000 0.80763  0.96216  0.57669  Biso   1.000  He
  He252    1.0000 0.82989  0.93771  0.58452  Biso   1.000  He
  Ne252    1.0000 0.82327  0.92386  0.61391  Biso   1.000  Ne
  Ne253    1.0000 0.99423  0.08693  0.05482  Biso   1.000  Ne
  He253    1.0000 0.99342  0.07322  0.08359  Biso   1.000  He
  He254    1.0000 0.00845  0.04420  0.08534  Biso   1.000  He
  Ne254    1.0000 0.00563  0.03245  0.11480  Biso   1.000  Ne
  Ne255    1.0000 0.70011  0.43386  0.38182  Biso   1.000  Ne
  He255    1.0000 0.72001  0.42471  0.35935  Biso   1.000  He
  He256    1.0000 0.74611  0.44175  0.35920  Biso   1.000  He
  Ne256    1.0000 0.76653  0.43333  0.33457  Biso   1.000  Ne
  Ne257    1.0000 0.43318  0.31861  0.23293  Biso   1.000  Ne
  He257    1.0000 0.43182  0.34506  0.21234  Biso   1.000  He
  He258    1.0000 0.44770  0.37065  0.22536  Biso   1.000  He
  Ne258    1.0000 0.44012  0.40148  0.20943  Biso   1.000  Ne
  Ne259    1.0000 0.02829  0.93808  0.94267  Biso   1.000  Ne
  He259    1.0000 0.01613  0.95665  0.96792  Biso   1.000  He
  He260    1.0000 0.03085  0.95114  0.99734  Biso   1.000  He
  Ne260    1.0000 0.01552  0.96605  0.02213  Biso   1.000  Ne
  Ne261    1.0000 0.39317  0.61140  0.81677  Biso   1.000  Ne
  He261    1.0000 0.40658  0.58517  0.83038  Biso   1.000  He
  He262    1.0000 0.42031  0.59617  0.85729  Biso   1.000  He
  Ne262    1.0000 0.43306  0.57243  0.87572  Biso   1.000  Ne
  Ne263    1.0000 0.84793  0.36279  0.75519  Biso   1.000  Ne
  He263    1.0000 0.82528  0.38201  0.74603  Biso   1.000  He
  He264    1.0000 0.82643  0.39915  0.71662  Biso   1.000  He
  Ne264    1.0000 0.79920  0.41926  0.70993  Biso   1.000  Ne
  Ne265    1.0000 0.89005  0.28437  0.81433  Biso   1.000  Ne
  He265    1.0000 0.91381  0.30893  0.80838  Biso   1.000  He
  He266    1.0000 0.94457  0.29793  0.81390  Biso   1.000  He
  Ne266    1.0000 0.96683  0.32194  0.80721  Biso   1.000  Ne
  Ne267    1.0000 0.94033  0.33300  0.89014  Biso   1.000  Ne
  He267    1.0000 0.92866  0.36382  0.88263  Biso   1.000  He
  He268    1.0000 0.95289  0.38523  0.88393  Biso   1.000  He
  Ne268    1.0000 0.94282  0.41520  0.88111  Biso   1.000  Ne
  Ne269    1.0000 0.13993  0.38048  0.62145  Biso   1.000  Ne
  He269    1.0000 0.16583  0.40055  0.63389  Biso   1.000  He
  He270    1.0000 0.19644  0.39210  0.62361  Biso   1.000  He
  Ne270    1.0000 0.22017  0.40812  0.64003  Biso   1.000  Ne
  Ne271    1.0000 0.35726  0.19479  0.81604  Biso   1.000  Ne
  He271    1.0000 0.37166  0.19841  0.78837  Biso   1.000  He
  He272    1.0000 0.34932  0.20294  0.76268  Biso   1.000  He
  Ne272    1.0000 0.36191  0.20283  0.73129  Biso   1.000  Ne
  Ne273    1.0000 0.69747  0.55597  0.54347  Biso   1.000  Ne
  He273    1.0000 0.69801  0.53075  0.52066  Biso   1.000  He
  He274    1.0000 0.73225  0.52610  0.51477  Biso   1.000  He
  Ne274    1.0000 0.73423  0.50160  0.49109  Biso   1.000  Ne
  Ne275    1.0000 0.85355  0.65942  0.43319  Biso   1.000  Ne
  He275    1.0000 0.87485  0.63523  0.43420  Biso   1.000  He
  He276    1.0000 0.86127  0.60763  0.44895  Biso   1.000  He
  Ne276    1.0000 0.88042  0.58359  0.45406  Biso   1.000  Ne
  Ne277    1.0000 0.61398  0.72929  0.23447  Biso   1.000  Ne
  He277    1.0000 0.60064  0.75291  0.21606  Biso   1.000  He
  He278    1.0000 0.60793  0.75307  0.18392  Biso   1.000  He
  Ne278    1.0000 0.59884  0.78091  0.16673  Biso   1.000  Ne
  Ne279    1.0000 0.85186  0.08015  0.11489  Biso   1.000  Ne
  He279    1.0000 0.88407  0.09032  0.11183  Biso   1.000  He
  He280    1.0000 0.89018  0.11878  0.10005  Biso   1.000  He
  Ne280    1.0000 0.92123  0.12703  0.10683  Biso   1.000  Ne
  Ne281    1.0000 0.12492  0.08991  0.22660  Biso   1.000  Ne
  He281    1.0000 0.10287  0.07505  0.20881  Biso   1.000  He
  He282    1.0000 0.10219  0.07797  0.17412  Biso   1.000  He
  Ne282    1.0000 0.07835  0.06075  0.15917  Biso   1.000  Ne
  Ne283    1.0000 0.47760  0.25940  0.69080  Biso   1.000  Ne
  He283    1.0000 0.45274  0.24883  0.67149  Biso   1.000  He
  He284    1.0000 0.44291  0.26979  0.64608  Biso   1.000  He
  Ne284    1.0000 0.45676  0.26021  0.62019  Biso   1.000  Ne
  Ne285    1.0000 0.88083  0.26870  0.71851  Biso   1.000  Ne
  He285    1.0000 0.91146  0.28029  0.71744  Biso   1.000  He
  He286    1.0000 0.91202  0.31396  0.71458  Biso   1.000  He
  Ne286    1.0000 0.94443  0.32484  0.71041  Biso   1.000  Ne
  Ne287    1.0000 0.99349  0.20820  0.66328  Biso   1.000  Ne
  He287    1.0000 0.96446  0.19247  0.65187  Biso   1.000  He
  He288    1.0000 0.93858  0.20789  0.66234  Biso   1.000  He
  Ne288    1.0000 0.91081  0.19449  0.65170  Biso   1.000  Ne
  Ne289    1.0000 0.56483  0.03860  0.97337  Biso   1.000  Ne
  He289    1.0000 0.59148  0.05278  0.96207  Biso   1.000  He
  He290    1.0000 0.59376  0.08495  0.96121  Biso   1.000  He
  Ne290    1.0000 0.62081  0.09552  0.94537  Biso   1.000  Ne
  Ne291    1.0000 0.12759  0.18689  0.12606  Biso   1.000  Ne
  He291    1.0000 0.10427  0.19195  0.14590  Biso   1.000  He
  He292    1.0000 0.11647  0.19667  0.17828  Biso   1.000  He
  Ne292    1.0000 0.09402  0.20304  0.20289  Biso   1.000  Ne
  Ne293    1.0000 0.10634  0.91231  0.97786  Biso   1.000  Ne
  He293    1.0000 0.11622  0.87942  0.96966  Biso   1.000  He
  He294    1.0000 0.09122  0.86075  0.95437  Biso   1.000  He
  Ne294    1.0000 0.09845  0.83039  0.94393  Biso   1.000  Ne
  Ne295    1.0000 0.39422  0.04648  0.60246  Biso   1.000  Ne
  He295    1.0000 0.41244  0.06043  0.62546  Biso   1.000  He
  He296    1.0000 0.44235  0.07235  0.61611  Biso   1.000  He
  Ne296    1.0000 0.45842  0.09419  0.63604  Biso   1.000  Ne
  Ne297    1.0000 0.94513  0.76721  0.92819  Biso   1.000  Ne
  He297    1.0000 0.94100  0.79875  0.91657  Biso   1.000  He
  He298    1.0000 0.92958  0.79839  0.88567  Biso   1.000  He
  Ne298    1.0000 0.92793  0.82820  0.87185  Biso   1.000  Ne
  Ne299    1.0000 0.66363  0.67465  0.10040  Biso   1.000  Ne
  He299    1.0000 0.63750  0.69060  0.11210  Biso   1.000  He
  He300    1.0000 0.61179  0.68869  0.09145  Biso   1.000  He
  Ne300    1.0000 0.58484  0.70216  0.10689  Biso   1.000  Ne
  Ne301    1.0000 0.97379  0.08433  0.96318  Biso   1.000  Ne
  He301    1.0000 0.95036  0.10565  0.96614  Biso   1.000  He
  He302    1.0000 0.95100  0.12360  0.93734  Biso   1.000  He
  Ne302    1.0000 0.92936  0.14759  0.93740  Biso   1.000  Ne
  Ne303    1.0000 0.95629  0.40006  0.58091  Biso   1.000  Ne
  He303    1.0000 0.93428  0.42260  0.58422  Biso   1.000  He
  He304    1.0000 0.93734  0.44910  0.56878  Biso   1.000  He
  Ne304    1.0000 0.92018  0.47319  0.58213  Biso   1.000  Ne
  Ne305    1.0000 0.72625  0.91312  0.77394  Biso   1.000  Ne
  He305    1.0000 0.70609  0.90430  0.74845  Biso   1.000  He
  He306    1.0000 0.71799  0.88323  0.72951  Biso   1.000  He
  Ne306    1.0000 0.69649  0.87239  0.70733  Biso   1.000  Ne
  Ne307    1.0000 0.71589  0.32332  0.93857  Biso   1.000  Ne
  He307    1.0000 0.69654  0.35070  0.93627  Biso   1.000  He
  He308    1.0000 0.71319  0.37835  0.93632  Biso   1.000  He
  Ne308    1.0000 0.69241  0.40205  0.93303  Biso   1.000  Ne
  Ne309    1.0000 0.90232  0.56940  0.80164  Biso   1.000  Ne
  He309    1.0000 0.92366  0.57839  0.82538  Biso   1.000  He
  He310    1.0000 0.95399  0.58200  0.81270  Biso   1.000  He
  Ne310    1.0000 0.97831  0.58996  0.83362  Biso   1.000  Ne
  Ne311    1.0000 0.92922  0.42570  0.36644  Biso   1.000  Ne
  He311    1.0000 0.91258  0.40256  0.34896  Biso   1.000  He
  He312    1.0000 0.92315  0.37094  0.35252  Biso   1.000  He
  Ne312    1.0000 0.90221  0.34830  0.33685  Biso   1.000  Ne
  Ne313    1.0000 0.30450  0.07585  0.89054  Biso   1.000  Ne
  He313    1.0000 0.27129  0.06446  0.89114  Biso   1.000  He
  He314    1.0000 0.24845  0.07882  0.91223  Biso   1.000  He
  Ne314    1.0000 0.23421  0.10591  0.89874  Biso   1.000  Ne
  Ne315    1.0000 0.46103  0.76459  0.42568  Biso   1.000  Ne
  He315    1.0000 0.43045  0.77462  0.42264  Biso   1.000  He
  He316    1.0000 0.40941  0.75022  0.41678  Biso   1.000  He
  Ne316    1.0000 0.37878  0.76297  0.40627  Biso   1.000  Ne
  Ne317    1.0000 0.59131  0.89269  0.59377  Biso   1.000  Ne
  He317    1.0000 0.60640  0.86391  0.60272  Biso   1.000  He
  He318    1.0000 0.61760  0.86513  0.63308  Biso   1.000  He
  Ne318    1.0000 0.63197  0.83853  0.64347  Biso   1.000  Ne
  Ne319    1.0000 0.94506  0.90430  0.92544  Biso   1.000  Ne
  He319    1.0000 0.93629  0.93501  0.93466  Biso   1.000  He
  He320    1.0000 0.92992  0.93907  0.96647  Biso   1.000  He
  Ne320    1.0000 0.92072  0.96961  0.97690  Biso   1.000  Ne
  Ne321    1.0000 0.06328  0.80787  0.69846  Biso   1.000  Ne
  He321    1.0000 0.07132  0.82964  0.72075  Biso   1.000  He
  He322    1.0000 0.09728  0.82061  0.73770  Biso   1.000  He
  Ne322    1.0000 0.10958  0.84362  0.76055  Biso   1.000  Ne
  Ne323    1.0000 0.84600  0.74920  0.59133  Biso   1.000  Ne
  He323    1.0000 0.84194  0.73450  0.61938  Biso   1.000  He
  He324    1.0000 0.86625  0.71466  0.62790  Biso   1.000  He
  Ne324    1.0000 0.86034  0.69496  0.65548  Biso   1.000  Ne
  Ne325    1.0000 0.94489  0.69771  0.77741  Biso   1.000  Ne
  He325    1.0000 0.96890  0.69843  0.79879  Biso   1.000  He
  He326    1.0000 0.96863  0.72184  0.82468  Biso   1.000  He
  Ne326    1.0000 0.99647  0.72352  0.84467  Biso   1.000  Ne
  Ne327    1.0000 0.72940  0.46037  0.64950  Biso   1.000  Ne
  He327    1.0000 0.73962  0.42921  0.64781  Biso   1.000  He
  He328    1.0000 0.75145  0.41551  0.61845  Biso   1.000  He
  Ne328    1.0000 0.75585  0.38442  0.61883  Biso   1.000  Ne
  Ne329    1.0000 0.33331  0.08217  0.45874  Biso   1.000  Ne
  He329    1.0000 0.30175  0.08335  0.46135  Biso   1.000  He
  He330    1.0000 0.28681  0.11337  0.45731  Biso   1.000  He
  Ne330    1.0000 0.27696  0.12033  0.42538  Biso   1.000  Ne
  Ne331    1.0000 0.86337  0.08263  0.35381  Biso   1.000  Ne
  He331    1.0000 0.83026  0.09196  0.35231  Biso   1.000  He
  He332    1.0000 0.81944  0.10141  0.32151  Biso   1.000  He
  Ne332    1.0000 0.78988  0.11530  0.32154  Biso   1.000  Ne
  Ne333    1.0000 0.94344  0.31092  0.41715  Biso   1.000  Ne
  He333    1.0000 0.93336  0.28226  0.43314  Biso   1.000  He
  He334    1.0000 0.90510  0.28563  0.44881  Biso   1.000  He
  Ne334    1.0000 0.89410  0.25760  0.46916  Biso   1.000  Ne
  Ne335    1.0000 0.55189  0.82335  0.84149  Biso   1.000  Ne
  He335    1.0000 0.57293  0.79829  0.83473  Biso   1.000  He
  He336    1.0000 0.59634  0.79256  0.85979  Biso   1.000  He
  Ne336    1.0000 0.61778  0.77030  0.85554  Biso   1.000  Ne
  Ne337    1.0000 0.10229  0.12440  0.86256  Biso   1.000  Ne
  He337    1.0000 0.09339  0.09670  0.84324  Biso   1.000  He
  He338    1.0000 0.08919  0.10100  0.80973  Biso   1.000  He
  Ne338    1.0000 0.07646  0.07452  0.79361  Biso   1.000  Ne
  Ne339    1.0000 0.85311  0.10468  0.71251  Biso   1.000  Ne
  He339    1.0000 0.84314  0.10710  0.74333  Biso   1.000  He
  He340    1.0000 0.82451  0.13224  0.75152  Biso   1.000  He
  Ne340    1.0000 0.81180  0.13188  0.78109  Biso   1.000  Ne
  Ne341    1.0000 0.70459  0.06755  0.96136  Biso   1.000  Ne
  He341    1.0000 0.69729  0.04582  0.93968  Biso   1.000  He
  He342    1.0000 0.71193  0.02052  0.94503  Biso   1.000  He
  Ne342    1.0000 0.70703  0.99548  0.92370  Biso   1.000  Ne
  Ne343    1.0000 0.41192  0.88082  0.63698  Biso   1.000  Ne
  He343    1.0000 0.38529  0.89041  0.64926  Biso   1.000  He
  He344    1.0000 0.38246  0.88875  0.68243  Biso   1.000  He
  Ne344    1.0000 0.35648  0.90282  0.69408  Biso   1.000  Ne
  Ne345    1.0000 0.05898  0.50116  0.80453  Biso   1.000  Ne
  He345    1.0000 0.03189  0.49090  0.81917  Biso   1.000  He
  He346    1.0000 0.00512  0.50089  0.80328  Biso   1.000  He
  Ne346    1.0000 0.97548  0.49144  0.81110  Biso   1.000  Ne
  Ne347    1.0000 0.11020  0.08794  0.31589  Biso   1.000  Ne
  He347    1.0000 0.13765  0.06984  0.31479  Biso   1.000  He
  He348    1.0000 0.16545  0.08929  0.31630  Biso   1.000  He
  Ne348    1.0000 0.19420  0.07084  0.31760  Biso   1.000  Ne
  Ne349    1.0000 0.58443  0.99870  0.50625  Biso   1.000  Ne
  He349    1.0000 0.57587  0.02904  0.50042  Biso   1.000  He
  He350    1.0000 0.59926  0.04389  0.48100  Biso   1.000  He
  Ne350    1.0000 0.59213  0.07491  0.47881  Biso   1.000  Ne
  Ne351    1.0000 0.31373  0.91731  0.91353  Biso   1.000  Ne
  He351    1.0000 0.29174  0.90374  0.89391  Biso   1.000  He
  He352    1.0000 0.27346  0.92502  0.87794  Biso   1.000  He
  Ne352    1.0000 0.25170  0.91336  0.85840  Biso   1.000  Ne
  Ne353    1.0000 0.94343  0.94244  0.33395  Biso   1.000  Ne
  He353    1.0000 0.94451  0.97413  0.34073  Biso   1.000  He
  He354    1.0000 0.97347  0.98892  0.33354  Biso   1.000  He
  Ne354    1.0000 0.97242  0.02038  0.33444  Biso   1.000  Ne
  Ne355    1.0000 0.27345  0.55970  0.31365  Biso   1.000  Ne
  He355    1.0000 0.23910  0.56342  0.31429  Biso   1.000  He
  He356    1.0000 0.22225  0.55278  0.34298  Biso   1.000  He
  Ne356    1.0000 0.19193  0.56038  0.34027  Biso   1.000  Ne
  Ne357    1.0000 0.04355  0.45765  0.61885  Biso   1.000  Ne
  He357    1.0000 0.05443  0.43568  0.59613  Biso   1.000  He
  He358    1.0000 0.06446  0.40361  0.60768  Biso   1.000  He
  Ne358    1.0000 0.07467  0.38681  0.58083  Biso   1.000  Ne
  Ne359    1.0000 0.70627  0.60098  0.86984  Biso   1.000  Ne
  He359    1.0000 0.72169  0.60604  0.89892  Biso   1.000  He
  He360    1.0000 0.71660  0.63449  0.91203  Biso   1.000  He
  Ne360    1.0000 0.73108  0.63705  0.94160  Biso   1.000  Ne
  Ne361    1.0000 0.68605  0.06320  0.70726  Biso   1.000  Ne
  He361    1.0000 0.71563  0.08065  0.70544  Biso   1.000  He
  He362    1.0000 0.73675  0.07026  0.72903  Biso   1.000  He
  Ne362    1.0000 0.76291  0.08807  0.73251  Biso   1.000  Ne
  Ne363    1.0000 0.67664  0.81202  0.43470  Biso   1.000  Ne
  He363    1.0000 0.69403  0.83701  0.42303  Biso   1.000  He
  He364    1.0000 0.69395  0.86524  0.44013  Biso   1.000  He
  Ne364    1.0000 0.70391  0.89117  0.42151  Biso   1.000  Ne
  Ne365    1.0000 0.87655  0.58956  0.61443  Biso   1.000  Ne
  He365    1.0000 0.84806  0.60490  0.60573  Biso   1.000  He
  He366    1.0000 0.82081  0.58815  0.61625  Biso   1.000  He
  Ne366    1.0000 0.79967  0.57967  0.58988  Biso   1.000  Ne
  Ne367    1.0000 0.64280  0.54372  0.34174  Biso   1.000  Ne
  He367    1.0000 0.66568  0.53854  0.36697  Biso   1.000  He
  He368    1.0000 0.69701  0.53086  0.35858  Biso   1.000  He
  Ne368    1.0000 0.71676  0.52456  0.38428  Biso   1.000  Ne
  Ne369    1.0000 0.54444  0.71854  0.36594  Biso   1.000  Ne
  He369    1.0000 0.52572  0.68996  0.36012  Biso   1.000  He
  He370    1.0000 0.50044  0.68381  0.38162  Biso   1.000  He
  Ne370    1.0000 0.47772  0.66300  0.36943  Biso   1.000  Ne
  Ne371    1.0000 0.95810  0.16844  0.27923  Biso   1.000  Ne
  He371    1.0000 0.95078  0.13989  0.29709  Biso   1.000  He
  He372    1.0000 0.95378  0.11064  0.28053  Biso   1.000  He
  Ne372    1.0000 0.94220  0.08354  0.29794  Biso   1.000  Ne
  Ne373    1.0000 0.69068  0.33402  0.14288  Biso   1.000  Ne
  He373    1.0000 0.69621  0.30915  0.11936  Biso   1.000  He
  He374    1.0000 0.69739  0.27686  0.13165  Biso   1.000  He
  Ne374    1.0000 0.70262  0.25732  0.10730  Biso   1.000  Ne
  Ne375    1.0000 0.42230  0.58230  0.07763  Biso   1.000  Ne
  He375    1.0000 0.42703  0.56186  0.10246  Biso   1.000  He
  He376    1.0000 0.43542  0.57665  0.13288  Biso   1.000  He
  Ne376    1.0000 0.44075  0.55498  0.15605  Biso   1.000  Ne
  Ne377    1.0000 0.65116  0.58609  0.11481  Biso   1.000  Ne
  He377    1.0000 0.64307  0.60787  0.13830  Biso   1.000  He
  He378    1.0000 0.61358  0.60250  0.15295  Biso   1.000  He
  Ne378    1.0000 0.61103  0.62039  0.18117  Biso   1.000  Ne
  Ne379    1.0000 0.06307  0.43747  0.42757  Biso   1.000  Ne
  He379    1.0000 0.09304  0.42221  0.43211  Biso   1.000  He
  He380    1.0000 0.10813  0.43093  0.45985  Biso   1.000  He
  Ne380    1.0000 0.13991  0.42048  0.46352  Biso   1.000  Ne
  Ne381    1.0000 0.62970  0.93757  0.45801  Biso   1.000  Ne
  He381    1.0000 0.61510  0.92161  0.43465  Biso   1.000  He
  He382    1.0000 0.62220  0.93304  0.40454  Biso   1.000  He
  Ne382    1.0000 0.60921  0.91681  0.37693  Biso   1.000  Ne
  Ne383    1.0000 0.34581  0.10366  0.68980  Biso   1.000  Ne
  He383    1.0000 0.35390  0.08263  0.71298  Biso   1.000  He
  He384    1.0000 0.33390  0.08317  0.74042  Biso   1.000  He
  Ne384    1.0000 0.33933  0.06105  0.76443  Biso   1.000  Ne
  Ne385    1.0000 0.45535  0.85971  0.39315  Biso   1.000  Ne
  He385    1.0000 0.44438  0.87921  0.41753  Biso   1.000  He
  He386    1.0000 0.41917  0.86866  0.43605  Biso   1.000  He
  Ne386    1.0000 0.40899  0.89111  0.45945  Biso   1.000  Ne
  Ne387    1.0000 0.69764  0.43708  0.15540  Biso   1.000  Ne
  He387    1.0000 0.72283  0.44603  0.17557  Biso   1.000  He
  He388    1.0000 0.71980  0.43464  0.20744  Biso   1.000  He
  Ne388    1.0000 0.74681  0.43933  0.22652  Biso   1.000  Ne
  Ne389    1.0000 0.20608  0.66660  0.44765  Biso   1.000  Ne
  He389    1.0000 0.17351  0.67546  0.44564  Biso   1.000  He
  He390    1.0000 0.16725  0.70796  0.44612  Biso   1.000  He
  Ne390    1.0000 0.13467  0.71917  0.44603  Biso   1.000  Ne
  Ne391    1.0000 0.73133  0.25525  0.68073  Biso   1.000  Ne
  He391    1.0000 0.75144  0.23194  0.66833  Biso   1.000  He
  He392    1.0000 0.74925  0.20044  0.68011  Biso   1.000  He
  Ne392    1.0000 0.77170  0.18114  0.67015  Biso   1.000  Ne
  Ne393    1.0000 0.10263  0.62980  0.31432  Biso   1.000  Ne
  He393    1.0000 0.10984  0.64493  0.34169  Biso   1.000  He
  He394    1.0000 0.10243  0.63554  0.37127  Biso   1.000  He
  Ne394    1.0000 0.11107  0.65559  0.39671  Biso   1.000  Ne
  Ne395    1.0000 0.70546  0.73683  0.43258  Biso   1.000  Ne
  He395    1.0000 0.70254  0.71044  0.45465  Biso   1.000  He
  He396    1.0000 0.73109  0.69587  0.45805  Biso   1.000  He
  Ne396    1.0000 0.72979  0.67125  0.47938  Biso   1.000  Ne
  Ne397    1.0000 0.14901  0.39253  0.76701  Biso   1.000  Ne
  He397    1.0000 0.12498  0.38873  0.74527  Biso   1.000  He
  He398    1.0000 0.13084  0.37191  0.71867  Biso   1.000  He
  Ne398    1.0000 0.10698  0.36867  0.69709  Biso   1.000  Ne
  Ne399    1.0000 0.85651  0.26161  0.61817  Biso   1.000  Ne
  He399    1.0000 0.87589  0.28653  0.62292  Biso   1.000  He
  He400    1.0000 0.90603  0.27477  0.62261  Biso   1.000  He
  Ne400    1.0000 0.93106  0.29758  0.62745  Biso   1.000  Ne
