data_image0
_cell_length_a       46.5753
_cell_length_b       46.4791
_cell_length_c       46.5509
_cell_angle_alpha    90
_cell_angle_beta     90
_cell_angle_gamma    90

_symmetry_space_group_name_H-M    "P 1"
_symmetry_int_tables_number       1

loop_
  _symmetry_equiv_pos_as_xyz
  'x, y, z'

loop_
  _atom_site_label
  _atom_site_occupancy
  _atom_site_fract_x
  _atom_site_fract_y
  _atom_site_fract_z
  _atom_site_thermal_displace_type
  _atom_site_B_iso_or_equiv
  _atom_site_type_symbol
  Ne1      1.0000 0.00108  0.67236  0.07266  Biso   1.000  Ne
  He1      1.0000 0.97618  0.67552  0.04980  Biso   1.000  He
  He2      1.0000 0.96198  0.64838  0.03669  Biso   1.000  He
  Ne2      1.0000 0.94459  0.65483  0.01071  Biso   1.000  Ne
  Ne3      1.0000 0.72099  0.82484  0.84192  Biso   1.000  Ne
  He3      1.0000 0.73532  0.84503  0.86082  Biso   1.000  He
  He4      1.0000 0.74096  0.87557  0.84977  Biso   1.000  He
  Ne4      1.0000 0.75243  0.89975  0.87090  Biso   1.000  Ne
  Ne5      1.0000 0.50063  0.44916  0.64086  Biso   1.000  Ne
  He5      1.0000 0.47842  0.46515  0.62071  Biso   1.000  He
  He6      1.0000 0.44744  0.47273  0.63746  Biso   1.000  He
  Ne6      1.0000 0.42786  0.48667  0.61765  Biso   1.000  Ne
  Ne7      1.0000 0.65643  0.75129  0.38636  Biso   1.000  Ne
  He7      1.0000 0.67979  0.77151  0.40364  Biso   1.000  He
  He8      1.0000 0.69762  0.75585  0.42638  Biso   1.000  He
  Ne8      1.0000 0.72303  0.77442  0.43528  Biso   1.000  Ne
  Ne9      1.0000 0.72906  0.42181  0.59031  Biso   1.000  Ne
  He9      1.0000 0.73217  0.39045  0.57957  Biso   1.000  He
  He10     1.0000 0.72679  0.38947  0.54755  Biso   1.000  He
  Ne10     1.0000 0.72652  0.35722  0.53405  Biso   1.000  Ne
  Ne11     1.0000 0.98754  0.84065  0.33005  Biso   1.000  Ne
  He11     1.0000 0.98622  0.81763  0.35848  Biso   1.000  He
  He12     1.0000 0.01747  0.81404  0.37223  Biso   1.000  He
  Ne12     1.0000 0.01752  0.78970  0.39601  Biso   1.000  Ne
  Ne13     1.0000 0.77157  0.66202  0.41989  Biso   1.000  Ne
  He13     1.0000 0.79584  0.67677  0.43499  Biso   1.000  He
  He14     1.0000 0.81219  0.65604  0.45272  Biso   1.000  He
  Ne14     1.0000 0.83633  0.66791  0.47075  Biso   1.000  Ne
  Ne15     1.0000 0.55147  0.71346  0.93755  Biso   1.000  Ne
  He15     1.0000 0.56602  0.73631  0.95861  Biso   1.000  He
  He16     1.0000 0.59932  0.73085  0.96522  Biso   1.000  He
  Ne16     1.0000 0.61653  0.75293  0.98317  Biso   1.000  Ne
  Ne17     1.0000 0.63489  0.76750  0.07447  Biso   1.000  Ne
  He17     1.0000 0.65064  0.79228  0.05356  Biso   1.000  He
  He18     1.0000 0.64188  0.82378  0.05973  Biso   1.000  He
  Ne18     1.0000 0.64830  0.84512  0.03451  Biso   1.000  Ne
  Ne19     1.0000 0.62491  0.25506  0.55068  Biso   1.000  Ne
  He19     1.0000 0.65230  0.26180  0.56609  Biso   1.000  He
  He20     1.0000 0.65033  0.29307  0.58192  Biso   1.000  He
  Ne20     1.0000 0.67858  0.30148  0.59945  Biso   1.000  Ne
  Ne21     1.0000 0.87131  0.14914  0.16375  Biso   1.000  Ne
  He21     1.0000 0.90402  0.16077  0.15826  Biso   1.000  He
  He22     1.0000 0.91959  0.14140  0.13727  Biso   1.000  He
  Ne22     1.0000 0.95182  0.15103  0.13398  Biso   1.000  Ne
  Ne23     1.0000 0.32907  0.89139  0.80422  Biso   1.000  Ne
  He23     1.0000 0.30296  0.87823  0.81838  Biso   1.000  He
  He24     1.0000 0.28658  0.89915  0.83398  Biso   1.000  He
  Ne24     1.0000 0.26063  0.88964  0.85273  Biso   1.000  Ne
  Ne25     1.0000 0.26698  0.42450  0.61968  Biso   1.000  Ne
  He25     1.0000 0.29068  0.40644  0.62896  Biso   1.000  He
  He26     1.0000 0.30966  0.39635  0.60548  Biso   1.000  He
  Ne26     1.0000 0.32973  0.37205  0.61353  Biso   1.000  Ne
  Ne27     1.0000 0.43309  0.85213  0.90495  Biso   1.000  Ne
  He27     1.0000 0.44767  0.83071  0.88489  Biso   1.000  He
  He28     1.0000 0.43780  0.83256  0.85280  Biso   1.000  He
  Ne28     1.0000 0.45928  0.81380  0.82920  Biso   1.000  Ne
  Ne29     1.0000 0.66259  0.55796  0.10754  Biso   1.000  Ne
  He29     1.0000 0.68983  0.56012  0.12591  Biso   1.000  He
  He30     1.0000 0.71143  0.58327  0.11385  Biso   1.000  He
  Ne30     1.0000 0.73573  0.58688  0.13742  Biso   1.000  Ne
  Ne31     1.0000 0.63252  0.48841  0.34125  Biso   1.000  Ne
  He31     1.0000 0.63390  0.45756  0.33969  Biso   1.000  He
  He32     1.0000 0.62376  0.44088  0.36810  Biso   1.000  He
  Ne32     1.0000 0.63143  0.40817  0.36811  Biso   1.000  Ne
  Ne33     1.0000 0.63549  0.48764  0.70529  Biso   1.000  Ne
  He33     1.0000 0.62546  0.45689  0.71827  Biso   1.000  He
  He34     1.0000 0.64052  0.44752  0.74549  Biso   1.000  He
  Ne34     1.0000 0.63137  0.41540  0.75578  Biso   1.000  Ne
  Ne35     1.0000 0.23058  0.18513  0.86798  Biso   1.000  Ne
  He35     1.0000 0.20290  0.17031  0.86199  Biso   1.000  He
  He36     1.0000 0.19472  0.15624  0.89016  Biso   1.000  He
  Ne36     1.0000 0.17501  0.13223  0.88552  Biso   1.000  Ne
  Ne37     1.0000 0.40790  0.99758  0.12050  Biso   1.000  Ne
  He37     1.0000 0.40267  0.96863  0.12688  Biso   1.000  He
  He38     1.0000 0.41319  0.95659  0.15680  Biso   1.000  He
  Ne38     1.0000 0.41697  0.92363  0.15900  Biso   1.000  Ne
  Ne39     1.0000 0.96479  0.39178  0.26884  Biso   1.000  Ne
  He39     1.0000 0.98141  0.36171  0.26748  Biso   1.000  He
  He40     1.0000 0.97779  0.34537  0.23725  Biso   1.000  He
  Ne40     1.0000 0.98565  0.31350  0.23846  Biso   1.000  Ne
  Ne41     1.0000 0.86608  0.29990  0.71713  Biso   1.000  Ne
  He41     1.0000 0.88180  0.27335  0.72873  Biso   1.000  He
  He42     1.0000 0.90997  0.28451  0.74416  Biso   1.000  He
  Ne42     1.0000 0.92741  0.26352  0.76309  Biso   1.000  Ne
  Ne43     1.0000 0.84343  0.46934  0.85934  Biso   1.000  Ne
  He43     1.0000 0.85576  0.49793  0.86353  Biso   1.000  He
  He44     1.0000 0.85095  0.51673  0.83862  Biso   1.000  He
  Ne44     1.0000 0.85829  0.54923  0.84560  Biso   1.000  Ne
  Ne45     1.0000 0.04628  0.63164  0.24120  Biso   1.000  Ne
  He45     1.0000 0.04112  0.59558  0.24029  Biso   1.000  He
  He46     1.0000 0.04926  0.58084  0.21252  Biso   1.000  He
  Ne46     1.0000 0.04220  0.54673  0.20988  Biso   1.000  Ne
  Ne47     1.0000 0.32865  0.50631  0.31322  Biso   1.000  Ne
  He47     1.0000 0.32024  0.48391  0.33624  Biso   1.000  He
  He48     1.0000 0.31157  0.49719  0.36524  Biso   1.000  He
  Ne48     1.0000 0.31263  0.47303  0.39098  Biso   1.000  Ne
  Ne49     1.0000 0.95717  0.91150  0.15151  Biso   1.000  Ne
  He49     1.0000 0.92607  0.89973  0.14527  Biso   1.000  He
  He50     1.0000 0.92071  0.86745  0.14209  Biso   1.000  He
  Ne50     1.0000 0.88926  0.86069  0.13503  Biso   1.000  Ne
  Ne51     1.0000 0.79802  0.53979  0.98730  Biso   1.000  Ne
  He51     1.0000 0.77817  0.53947  0.95887  Biso   1.000  He
  He52     1.0000 0.79579  0.54102  0.93087  Biso   1.000  He
  Ne52     1.0000 0.78272  0.53971  0.90053  Biso   1.000  Ne
  Ne53     1.0000 0.30894  0.10999  0.36120  Biso   1.000  Ne
  He53     1.0000 0.32912  0.13386  0.37080  Biso   1.000  He
  He54     1.0000 0.35573  0.13519  0.35054  Biso   1.000  He
  Ne54     1.0000 0.37820  0.15979  0.35889  Biso   1.000  Ne
  Ne55     1.0000 0.40638  0.72994  0.71413  Biso   1.000  Ne
  He55     1.0000 0.39237  0.73633  0.74399  Biso   1.000  He
  He56     1.0000 0.38702  0.70822  0.76199  Biso   1.000  He
  Ne56     1.0000 0.37878  0.71514  0.79481  Biso   1.000  Ne
  Ne57     1.0000 0.63070  0.54764  0.93576  Biso   1.000  Ne
  He57     1.0000 0.65721  0.56325  0.94673  Biso   1.000  He
  He58     1.0000 0.68453  0.56573  0.92841  Biso   1.000  He
  Ne58     1.0000 0.71001  0.58627  0.94011  Biso   1.000  Ne
  Ne59     1.0000 0.47229  0.35322  0.99860  Biso   1.000  Ne
  He59     1.0000 0.44905  0.37247  0.00377  Biso   1.000  He
  He60     1.0000 0.45018  0.40530  0.99298  Biso   1.000  He
  Ne60     1.0000 0.42726  0.42408  0.00424  Biso   1.000  Ne
  Ne61     1.0000 0.60308  0.17104  0.87795  Biso   1.000  Ne
  He61     1.0000 0.62826  0.19149  0.87377  Biso   1.000  He
  He62     1.0000 0.62452  0.21601  0.84766  Biso   1.000  He
  Ne62     1.0000 0.64936  0.23682  0.84376  Biso   1.000  Ne
  Ne63     1.0000 0.83600  0.23219  0.12942  Biso   1.000  Ne
  He63     1.0000 0.80875  0.25135  0.12561  Biso   1.000  He
  He64     1.0000 0.81343  0.28412  0.11789  Biso   1.000  He
  Ne64     1.0000 0.78586  0.29950  0.11045  Biso   1.000  Ne
  Ne65     1.0000 0.62663  0.99531  0.23397  Biso   1.000  Ne
  He65     1.0000 0.65350  0.98362  0.22321  Biso   1.000  He
  He66     1.0000 0.68193  0.99691  0.23330  Biso   1.000  He
  Ne66     1.0000 0.70917  0.98129  0.21946  Biso   1.000  Ne
  Ne67     1.0000 0.81239  0.89573  0.54203  Biso   1.000  Ne
  He67     1.0000 0.82490  0.92871  0.54209  Biso   1.000  He
  He68     1.0000 0.80655  0.94945  0.52207  Biso   1.000  He
  Ne68     1.0000 0.78359  0.96412  0.53967  Biso   1.000  Ne
  Ne69     1.0000 0.64981  0.27509  0.98632  Biso   1.000  Ne
  He69     1.0000 0.62117  0.28042  0.96546  Biso   1.000  He
  He70     1.0000 0.62774  0.29252  0.93824  Biso   1.000  He
  Ne70     1.0000 0.60324  0.30504  0.92057  Biso   1.000  Ne
  Ne71     1.0000 0.16839  0.93303  0.49787  Biso   1.000  Ne
  He71     1.0000 0.18512  0.90793  0.48912  Biso   1.000  He
  He72     1.0000 0.21555  0.90653  0.50374  Biso   1.000  He
  Ne72     1.0000 0.23232  0.87818  0.49427  Biso   1.000  Ne
  Ne73     1.0000 0.93701  0.36722  0.59483  Biso   1.000  Ne
  He73     1.0000 0.95524  0.38639  0.61475  Biso   1.000  He
  He74     1.0000 0.98706  0.39004  0.60274  Biso   1.000  He
  Ne74     1.0000 0.00446  0.41195  0.62050  Biso   1.000  Ne
  Ne75     1.0000 0.75520  0.32665  0.25357  Biso   1.000  Ne
  He75     1.0000 0.73812  0.35084  0.23951  Biso   1.000  He
  He76     1.0000 0.70738  0.35218  0.25081  Biso   1.000  He
  Ne76     1.0000 0.69375  0.37639  0.23348  Biso   1.000  Ne
  Ne77     1.0000 0.20081  0.36965  0.28725  Biso   1.000  Ne
  He77     1.0000 0.20395  0.34103  0.30454  Biso   1.000  He
  He78     1.0000 0.22037  0.34247  0.33260  Biso   1.000  He
  Ne78     1.0000 0.21705  0.31533  0.35384  Biso   1.000  Ne
  Ne79     1.0000 0.72611  0.38998  0.98221  Biso   1.000  Ne
  He79     1.0000 0.73322  0.35713  0.98022  Biso   1.000  He
  He80     1.0000 0.71088  0.33878  0.96393  Biso   1.000  He
  Ne80     1.0000 0.71449  0.30510  0.96377  Biso   1.000  Ne
  Ne81     1.0000 0.36842  0.32944  0.96386  Biso   1.000  Ne
  He81     1.0000 0.34232  0.34452  0.95387  Biso   1.000  He
  He82     1.0000 0.33327  0.37043  0.97444  Biso   1.000  He
  Ne82     1.0000 0.30466  0.38534  0.95969  Biso   1.000  Ne
  Ne83     1.0000 0.82007  0.04316  0.58764  Biso   1.000  Ne
  He83     1.0000 0.81338  0.07178  0.57360  Biso   1.000  He
  He84     1.0000 0.83307  0.08105  0.55232  Biso   1.000  He
  Ne84     1.0000 0.82234  0.10468  0.53201  Biso   1.000  Ne
  Ne85     1.0000 0.49253  0.97513  0.52170  Biso   1.000  Ne
  He85     1.0000 0.51549  0.95611  0.51106  Biso   1.000  He
  He86     1.0000 0.51545  0.95209  0.47808  Biso   1.000  He
  Ne86     1.0000 0.54307  0.93542  0.46707  Biso   1.000  Ne
  Ne87     1.0000 0.52665  0.55235  0.34909  Biso   1.000  Ne
  He87     1.0000 0.53239  0.51851  0.34985  Biso   1.000  He
  He88     1.0000 0.51009  0.49655  0.33598  Biso   1.000  He
  Ne88     1.0000 0.52397  0.46516  0.33480  Biso   1.000  Ne
  Ne89     1.0000 0.10480  0.59858  0.39578  Biso   1.000  Ne
  He89     1.0000 0.11258  0.61609  0.42346  Biso   1.000  He
  He90     1.0000 0.09133  0.61401  0.44715  Biso   1.000  He
  Ne90     1.0000 0.10024  0.63217  0.47248  Biso   1.000  Ne
  Ne91     1.0000 0.56797  0.95166  0.07504  Biso   1.000  Ne
  He91     1.0000 0.56311  0.93844  0.04846  Biso   1.000  He
  He92     1.0000 0.59100  0.92654  0.03515  Biso   1.000  He
  Ne92     1.0000 0.58389  0.91643  0.00521  Biso   1.000  Ne
  Ne93     1.0000 0.95318  0.58613  0.19441  Biso   1.000  Ne
  He93     1.0000 0.94521  0.61888  0.18929  Biso   1.000  He
  He94     1.0000 0.93715  0.63416  0.21711  Biso   1.000  He
  Ne94     1.0000 0.92875  0.66797  0.21210  Biso   1.000  Ne
  Ne95     1.0000 0.86995  0.26136  0.05708  Biso   1.000  Ne
  He95     1.0000 0.87799  0.29460  0.06535  Biso   1.000  He
  He96     1.0000 0.88865  0.31423  0.04152  Biso   1.000  He
  Ne96     1.0000 0.89611  0.34530  0.04600  Biso   1.000  Ne
  Ne97     1.0000 0.06934  0.30416  0.24331  Biso   1.000  Ne
  He97     1.0000 0.08251  0.33504  0.25152  Biso   1.000  He
  He98     1.0000 0.09586  0.34184  0.28396  Biso   1.000  He
  Ne98     1.0000 0.11187  0.37102  0.28490  Biso   1.000  Ne
  Ne99     1.0000 0.68047  0.68015  0.47601  Biso   1.000  Ne
  He99     1.0000 0.65555  0.69244  0.45456  Biso   1.000  He
  He100    1.0000 0.62655  0.69338  0.47316  Biso   1.000  He
  Ne100    1.0000 0.59806  0.70142  0.45406  Biso   1.000  Ne
  Ne101    1.0000 0.23587  0.02565  0.32523  Biso   1.000  Ne
  He101    1.0000 0.24781  0.03285  0.35665  Biso   1.000  He
  He102    1.0000 0.22674  0.04744  0.37761  Biso   1.000  He
  Ne102    1.0000 0.23741  0.05216  0.40953  Biso   1.000  Ne
  Ne103    1.0000 0.49792  0.28446  0.76378  Biso   1.000  Ne
  He103    1.0000 0.48181  0.25824  0.77330  Biso   1.000  He
  He104    1.0000 0.47564  0.25766  0.80667  Biso   1.000  He
  Ne104    1.0000 0.45282  0.23354  0.81532  Biso   1.000  Ne
  Ne105    1.0000 0.23855  0.07390  0.78251  Biso   1.000  Ne
  He105    1.0000 0.24787  0.07109  0.81379  Biso   1.000  He
  He106    1.0000 0.24018  0.09541  0.83814  Biso   1.000  He
  Ne106    1.0000 0.25176  0.09003  0.86677  Biso   1.000  Ne
  Ne107    1.0000 0.61692  0.87955  0.32357  Biso   1.000  Ne
  He107    1.0000 0.59767  0.88655  0.34681  Biso   1.000  He
  He108    1.0000 0.61273  0.88629  0.37764  Biso   1.000  He
  Ne108    1.0000 0.59177  0.89038  0.40189  Biso   1.000  Ne
  Ne109    1.0000 0.63173  0.37834  0.59194  Biso   1.000  Ne
  He109    1.0000 0.65449  0.38105  0.61585  Biso   1.000  He
  He110    1.0000 0.65032  0.40474  0.63726  Biso   1.000  He
  Ne110    1.0000 0.66943  0.39796  0.66312  Biso   1.000  Ne
  Ne111    1.0000 0.48103  0.54729  0.55424  Biso   1.000  Ne
  He111    1.0000 0.50541  0.54746  0.57990  Biso   1.000  He
  He112    1.0000 0.53617  0.56344  0.57695  Biso   1.000  He
  Ne112    1.0000 0.54935  0.56749  0.60516  Biso   1.000  Ne
  Ne113    1.0000 0.59871  0.49771  0.01388  Biso   1.000  Ne
  He113    1.0000 0.58241  0.49107  0.98474  Biso   1.000  He
  He114    1.0000 0.56803  0.51690  0.97018  Biso   1.000  He
  Ne114    1.0000 0.54969  0.50769  0.94703  Biso   1.000  Ne
  Ne115    1.0000 0.91567  0.06626  0.80683  Biso   1.000  Ne
  He115    1.0000 0.92558  0.04987  0.83270  Biso   1.000  He
  He116    1.0000 0.92433  0.06482  0.86405  Biso   1.000  He
  Ne116    1.0000 0.93000  0.04321  0.88922  Biso   1.000  Ne
  Ne117    1.0000 0.11509  0.27875  0.47931  Biso   1.000  Ne
  He117    1.0000 0.14249  0.29464  0.47480  Biso   1.000  He
  He118    1.0000 0.16717  0.27443  0.46801  Biso   1.000  He
  Ne118    1.0000 0.19365  0.29298  0.46950  Biso   1.000  Ne
  Ne119    1.0000 0.00580  0.47858  0.27073  Biso   1.000  Ne
  He119    1.0000 0.03786  0.46862  0.27103  Biso   1.000  He
  He120    1.0000 0.04245  0.43428  0.27403  Biso   1.000  He
  Ne120    1.0000 0.05252  0.41651  0.24679  Biso   1.000  Ne
  Ne121    1.0000 0.92640  0.92015  0.96752  Biso   1.000  Ne
  He121    1.0000 0.93023  0.88601  0.96158  Biso   1.000  He
  He122    1.0000 0.92206  0.86609  0.98681  Biso   1.000  He
  Ne122    1.0000 0.92110  0.83439  0.97725  Biso   1.000  Ne
  Ne123    1.0000 0.74114  0.03508  0.17385  Biso   1.000  Ne
  He123    1.0000 0.77451  0.03996  0.17527  Biso   1.000  He
  He124    1.0000 0.78583  0.06822  0.16320  Biso   1.000  He
  Ne124    1.0000 0.81915  0.07443  0.16499  Biso   1.000  Ne
  Ne125    1.0000 0.19234  0.25530  0.83442  Biso   1.000  Ne
  He125    1.0000 0.21820  0.27459  0.82489  Biso   1.000  He
  He126    1.0000 0.21641  0.28543  0.79415  Biso   1.000  He
  Ne126    1.0000 0.23598  0.31297  0.79165  Biso   1.000  Ne
  Ne127    1.0000 0.56509  0.82047  0.10141  Biso   1.000  Ne
  He127    1.0000 0.55309  0.85226  0.09517  Biso   1.000  He
  He128    1.0000 0.52156  0.84885  0.08306  Biso   1.000  He
  Ne128    1.0000 0.50096  0.87445  0.07600  Biso   1.000  Ne
  Ne129    1.0000 0.58738  0.67284  0.71140  Biso   1.000  Ne
  He129    1.0000 0.56333  0.66803  0.68917  Biso   1.000  He
  He130    1.0000 0.57239  0.65964  0.65952  Biso   1.000  He
  Ne130    1.0000 0.55088  0.66243  0.63723  Biso   1.000  Ne
  Ne131    1.0000 0.33252  0.79238  0.72335  Biso   1.000  Ne
  He131    1.0000 0.31395  0.81754  0.73506  Biso   1.000  He
  He132    1.0000 0.27857  0.81543  0.73135  Biso   1.000  He
  Ne132    1.0000 0.26554  0.84471  0.74135  Biso   1.000  Ne
  Ne133    1.0000 0.73700  0.85729  0.27702  Biso   1.000  Ne
  He133    1.0000 0.74238  0.85691  0.30728  Biso   1.000  He
  He134    1.0000 0.71343  0.86297  0.32154  Biso   1.000  He
  Ne134    1.0000 0.71395  0.85822  0.35414  Biso   1.000  Ne
  Ne135    1.0000 0.13897  0.73247  0.44401  Biso   1.000  Ne
  He135    1.0000 0.11416  0.71125  0.45367  Biso   1.000  He
  He136    1.0000 0.08685  0.72782  0.46482  Biso   1.000  He
  Ne136    1.0000 0.06440  0.70476  0.47008  Biso   1.000  Ne
  Ne137    1.0000 0.84691  0.04067  0.92966  Biso   1.000  Ne
  He137    1.0000 0.82525  0.03756  0.95269  Biso   1.000  He
  He138    1.0000 0.79958  0.05411  0.95137  Biso   1.000  He
  Ne138    1.0000 0.77770  0.04505  0.97469  Biso   1.000  Ne
  Ne139    1.0000 0.98539  0.75145  0.48539  Biso   1.000  Ne
  He139    1.0000 0.95525  0.74474  0.47803  Biso   1.000  He
  He140    1.0000 0.93648  0.72963  0.50045  Biso   1.000  He
  Ne140    1.0000 0.90712  0.71974  0.48950  Biso   1.000  Ne
  Ne141    1.0000 0.40057  0.62711  0.25265  Biso   1.000  Ne
  He141    1.0000 0.38436  0.65595  0.24849  Biso   1.000  He
  He142    1.0000 0.40448  0.67965  0.23600  Biso   1.000  He
  Ne142    1.0000 0.38862  0.70809  0.23267  Biso   1.000  Ne
  Ne143    1.0000 0.85766  0.68937  0.84351  Biso   1.000  Ne
  He143    1.0000 0.86477  0.69020  0.81208  Biso   1.000  He
  He144    1.0000 0.87621  0.66121  0.79906  Biso   1.000  He
  Ne144    1.0000 0.88285  0.66231  0.76940  Biso   1.000  Ne
  Ne145    1.0000 0.54765  0.37989  0.75451  Biso   1.000  Ne
  He145    1.0000 0.54290  0.40865  0.76631  Biso   1.000  He
  He146    1.0000 0.52453  0.42902  0.74858  Biso   1.000  He
  Ne146    1.0000 0.51868  0.45590  0.76317  Biso   1.000  Ne
  Ne147    1.0000 0.78832  0.09579  0.32850  Biso   1.000  Ne
  He147    1.0000 0.78343  0.06232  0.31819  Biso   1.000  He
  He148    1.0000 0.76917  0.06164  0.28874  Biso   1.000  He
  Ne148    1.0000 0.76151  0.03163  0.27727  Biso   1.000  Ne
  Ne149    1.0000 0.56157  0.99315  0.96444  Biso   1.000  Ne
  He149    1.0000 0.57432  0.99537  0.93496  Biso   1.000  He
  He150    1.0000 0.55306  0.98391  0.90862  Biso   1.000  He
  Ne150    1.0000 0.56849  0.98264  0.87907  Biso   1.000  Ne
  Ne151    1.0000 0.75044  0.18429  0.26931  Biso   1.000  Ne
  He151    1.0000 0.76426  0.20023  0.24427  Biso   1.000  He
  He152    1.0000 0.78704  0.22060  0.25663  Biso   1.000  He
  Ne152    1.0000 0.80503  0.23864  0.23669  Biso   1.000  Ne
  Ne153    1.0000 0.24378  0.34473  0.65999  Biso   1.000  Ne
  He153    1.0000 0.21367  0.35055  0.67391  Biso   1.000  He
  He154    1.0000 0.21491  0.35977  0.70570  Biso   1.000  He
  Ne154    1.0000 0.18629  0.36179  0.72255  Biso   1.000  Ne
  Ne155    1.0000 0.85011  0.06967  0.40397  Biso   1.000  Ne
  He155    1.0000 0.85509  0.10118  0.39055  Biso   1.000  He
  He156    1.0000 0.83184  0.12065  0.39805  Biso   1.000  He
  Ne156    1.0000 0.83915  0.15171  0.39176  Biso   1.000  Ne
  Ne157    1.0000 0.01975  0.89396  0.73954  Biso   1.000  Ne
  He157    1.0000 0.03867  0.91269  0.75861  Biso   1.000  He
  He158    1.0000 0.07040  0.90534  0.75845  Biso   1.000  He
  Ne158    1.0000 0.08926  0.92801  0.77629  Biso   1.000  Ne
  Ne159    1.0000 0.63172  0.28081  0.34528  Biso   1.000  Ne
  He159    1.0000 0.62280  0.28307  0.37703  Biso   1.000  He
  He160    1.0000 0.58969  0.28221  0.38181  Biso   1.000  He
  Ne160    1.0000 0.58342  0.29335  0.41322  Biso   1.000  Ne
  Ne161    1.0000 0.54821  0.16589  0.24107  Biso   1.000  Ne
  He161    1.0000 0.57395  0.17856  0.25946  Biso   1.000  He
  He162    1.0000 0.58201  0.20955  0.25253  Biso   1.000  He
  Ne162    1.0000 0.60701  0.22154  0.27090  Biso   1.000  Ne
  Ne163    1.0000 0.83736  0.86989  0.21890  Biso   1.000  Ne
  He163    1.0000 0.82067  0.83869  0.21769  Biso   1.000  He
  He164    1.0000 0.84151  0.81059  0.21623  Biso   1.000  He
  Ne164    1.0000 0.82129  0.78177  0.21656  Biso   1.000  Ne
  Ne165    1.0000 0.91591  0.37227  0.69540  Biso   1.000  Ne
  He165    1.0000 0.90470  0.36875  0.66485  Biso   1.000  He
  He166    1.0000 0.87271  0.37835  0.66046  Biso   1.000  He
  Ne166    1.0000 0.85760  0.37586  0.62918  Biso   1.000  Ne
  Ne167    1.0000 0.92152  0.37822  0.35229  Biso   1.000  Ne
  He167    1.0000 0.88848  0.37702  0.35133  Biso   1.000  He
  He168    1.0000 0.87582  0.35481  0.37145  Biso   1.000  He
  Ne168    1.0000 0.84285  0.35846  0.37967  Biso   1.000  Ne
  Ne169    1.0000 0.55662  0.07341  0.26911  Biso   1.000  Ne
  He169    1.0000 0.52820  0.05603  0.25524  Biso   1.000  He
  He170    1.0000 0.52098  0.02862  0.27135  Biso   1.000  He
  Ne170    1.0000 0.49512  0.01007  0.26360  Biso   1.000  Ne
  Ne171    1.0000 0.17862  0.03577  0.14530  Biso   1.000  Ne
  He171    1.0000 0.15817  0.05948  0.14361  Biso   1.000  He
  He172    1.0000 0.16881  0.09024  0.14462  Biso   1.000  He
  Ne172    1.0000 0.14261  0.10985  0.13009  Biso   1.000  Ne
  Ne173    1.0000 0.17145  0.98857  0.75134  Biso   1.000  Ne
  He173    1.0000 0.18138  0.00081  0.72041  Biso   1.000  He
  He174    1.0000 0.20778  0.98414  0.70881  Biso   1.000  He
  Ne174    1.0000 0.21592  0.99126  0.67746  Biso   1.000  Ne
  Ne175    1.0000 0.91019  0.02200  0.44748  Biso   1.000  Ne
  He175    1.0000 0.91900  0.99145  0.45591  Biso   1.000  He
  He176    1.0000 0.94119  0.98022  0.43690  Biso   1.000  He
  Ne176    1.0000 0.94885  0.94544  0.43905  Biso   1.000  Ne
  Ne177    1.0000 0.86597  0.22219  0.31674  Biso   1.000  Ne
  He177    1.0000 0.83716  0.20515  0.32801  Biso   1.000  He
  He178    1.0000 0.81458  0.22366  0.34061  Biso   1.000  He
  Ne178    1.0000 0.78961  0.20653  0.35333  Biso   1.000  Ne
  Ne179    1.0000 0.82516  0.76161  0.46850  Biso   1.000  Ne
  He179    1.0000 0.81856  0.76452  0.43586  Biso   1.000  He
  He180    1.0000 0.84446  0.77211  0.41913  Biso   1.000  He
  Ne180    1.0000 0.84182  0.77200  0.38696  Biso   1.000  Ne
  Ne181    1.0000 0.79864  0.80467  0.53376  Biso   1.000  Ne
  He181    1.0000 0.80227  0.78215  0.55800  Biso   1.000  He
  He182    1.0000 0.81946  0.79391  0.58482  Biso   1.000  He
  Ne182    1.0000 0.81851  0.77472  0.61217  Biso   1.000  Ne
  Ne183    1.0000 0.41119  0.23831  0.70278  Biso   1.000  Ne
  He183    1.0000 0.43620  0.21587  0.70942  Biso   1.000  He
  He184    1.0000 0.42680  0.18368  0.71158  Biso   1.000  He
  Ne184    1.0000 0.45180  0.16280  0.71842  Biso   1.000  Ne
  Ne185    1.0000 0.08974  0.26082  0.08509  Biso   1.000  Ne
  He185    1.0000 0.09102  0.28315  0.06290  Biso   1.000  He
  He186    1.0000 0.07388  0.30722  0.07094  Biso   1.000  He
  Ne186    1.0000 0.06356  0.32747  0.04593  Biso   1.000  Ne
  Ne187    1.0000 0.18934  0.37483  0.47592  Biso   1.000  Ne
  He187    1.0000 0.21820  0.38875  0.47296  Biso   1.000  He
  He188    1.0000 0.23581  0.36763  0.45490  Biso   1.000  He
  Ne188    1.0000 0.26619  0.37971  0.44534  Biso   1.000  Ne
  Ne189    1.0000 0.22073  0.86319  0.90624  Biso   1.000  Ne
  He189    1.0000 0.19227  0.86476  0.92239  Biso   1.000  He
  He190    1.0000 0.19593  0.86680  0.95672  Biso   1.000  He
  Ne190    1.0000 0.16552  0.86542  0.97097  Biso   1.000  Ne
  Ne191    1.0000 0.18482  0.27812  0.63416  Biso   1.000  Ne
  He191    1.0000 0.15181  0.27593  0.62970  Biso   1.000  He
  He192    1.0000 0.13859  0.24838  0.63629  Biso   1.000  He
  Ne192    1.0000 0.10666  0.25207  0.62906  Biso   1.000  Ne
  Ne193    1.0000 0.65576  0.32237  0.44972  Biso   1.000  Ne
  He193    1.0000 0.64522  0.33755  0.47533  Biso   1.000  He
  He194    1.0000 0.61971  0.32314  0.49142  Biso   1.000  He
  Ne194    1.0000 0.60891  0.34152  0.51703  Biso   1.000  Ne
  Ne195    1.0000 0.14489  0.05819  0.58907  Biso   1.000  Ne
  He195    1.0000 0.15219  0.04730  0.62153  Biso   1.000  He
  He196    1.0000 0.14040  0.06948  0.64292  Biso   1.000  He
  Ne196    1.0000 0.14154  0.05481  0.67216  Biso   1.000  Ne
  Ne197    1.0000 0.52157  0.38068  0.46278  Biso   1.000  Ne
  He197    1.0000 0.50357  0.36615  0.48653  Biso   1.000  He
  He198    1.0000 0.48081  0.38754  0.50065  Biso   1.000  He
  Ne198    1.0000 0.45451  0.37245  0.51994  Biso   1.000  Ne
  Ne199    1.0000 0.79878  0.27468  0.67734  Biso   1.000  Ne
  He199    1.0000 0.76942  0.27556  0.69106  Biso   1.000  He
  He200    1.0000 0.74532  0.28993  0.67304  Biso   1.000  He
  Ne200    1.0000 0.72626  0.31242  0.69071  Biso   1.000  Ne
  Ne201    1.0000 0.27345  0.12959  0.13613  Biso   1.000  Ne
  He201    1.0000 0.29829  0.15188  0.12916  Biso   1.000  He
  He202    1.0000 0.31672  0.15674  0.15726  Biso   1.000  He
  Ne202    1.0000 0.33671  0.18229  0.15242  Biso   1.000  Ne
  Ne203    1.0000 0.82830  0.48717  0.07536  Biso   1.000  Ne
  He203    1.0000 0.85548  0.50168  0.06084  Biso   1.000  He
  He204    1.0000 0.84989  0.53288  0.05099  Biso   1.000  He
  Ne204    1.0000 0.87932  0.54895  0.04030  Biso   1.000  Ne
  Ne205    1.0000 0.08481  0.62189  0.63901  Biso   1.000  Ne
  He205    1.0000 0.11295  0.62991  0.65090  Biso   1.000  He
  He206    1.0000 0.12906  0.65096  0.62802  Biso   1.000  He
  Ne206    1.0000 0.15908  0.66514  0.63439  Biso   1.000  Ne
  Ne207    1.0000 0.92605  0.96195  0.60619  Biso   1.000  Ne
  He207    1.0000 0.92441  0.98738  0.62738  Biso   1.000  He
  He208    1.0000 0.89968  0.98290  0.64978  Biso   1.000  He
  Ne208    1.0000 0.89385  0.00868  0.66983  Biso   1.000  Ne
  Ne209    1.0000 0.08540  0.32792  0.65078  Biso   1.000  Ne
  He209    1.0000 0.09898  0.36081  0.64955  Biso   1.000  He
  He210    1.0000 0.12957  0.35897  0.65244  Biso   1.000  He
  Ne210    1.0000 0.14421  0.38941  0.65222  Biso   1.000  Ne
  Ne211    1.0000 0.97198  0.08929  0.42260  Biso   1.000  Ne
  He211    1.0000 0.94170  0.09589  0.42785  Biso   1.000  He
  He212    1.0000 0.93624  0.11203  0.45692  Biso   1.000  He
  Ne212    1.0000 0.90500  0.12138  0.46236  Biso   1.000  Ne
  Ne213    1.0000 0.97926  0.55422  0.96731  Biso   1.000  Ne
  He213    1.0000 0.97471  0.57383  0.99510  Biso   1.000  He
  He214    1.0000 0.96288  0.55307  0.02110  Biso   1.000  He
  Ne214    1.0000 0.96023  0.56899  0.05134  Biso   1.000  Ne
  Ne215    1.0000 0.09507  0.13067  0.89287  Biso   1.000  Ne
  He215    1.0000 0.09365  0.10769  0.87268  Biso   1.000  He
  He216    1.0000 0.11061  0.08155  0.87964  Biso   1.000  He
  Ne216    1.0000 0.09347  0.05431  0.89071  Biso   1.000  Ne
  Ne217    1.0000 0.30433  0.65164  0.23725  Biso   1.000  Ne
  He217    1.0000 0.31196  0.68459  0.23980  Biso   1.000  He
  He218    1.0000 0.31286  0.69471  0.26994  Biso   1.000  He
  Ne218    1.0000 0.31259  0.72763  0.27553  Biso   1.000  Ne
  Ne219    1.0000 0.40826  0.04895  0.47993  Biso   1.000  Ne
  He219    1.0000 0.37232  0.04646  0.47808  Biso   1.000  He
  He220    1.0000 0.35987  0.07534  0.48289  Biso   1.000  He
  Ne220    1.0000 0.32731  0.07434  0.48435  Biso   1.000  Ne
  Ne221    1.0000 0.27760  0.28003  0.48563  Biso   1.000  Ne
  He221    1.0000 0.29138  0.25155  0.47591  Biso   1.000  He
  He222    1.0000 0.28669  0.24169  0.44224  Biso   1.000  He
  Ne222    1.0000 0.30439  0.21639  0.43200  Biso   1.000  Ne
  Ne223    1.0000 0.14077  0.03840  0.46389  Biso   1.000  Ne
  He223    1.0000 0.11719  0.03734  0.44066  Biso   1.000  He
  He224    1.0000 0.11052  0.06805  0.42785  Biso   1.000  He
  Ne224    1.0000 0.08520  0.06611  0.40830  Biso   1.000  Ne
  Ne225    1.0000 0.20059  0.77412  0.50284  Biso   1.000  Ne
  He225    1.0000 0.17859  0.79251  0.51979  Biso   1.000  He
  He226    1.0000 0.17479  0.82435  0.51160  Biso   1.000  He
  Ne226    1.0000 0.15091  0.83844  0.52843  Biso   1.000  Ne
  Ne227    1.0000 0.71115  0.59049  0.30289  Biso   1.000  Ne
  He227    1.0000 0.69842  0.57031  0.32546  Biso   1.000  He
  He228    1.0000 0.71240  0.54011  0.32415  Biso   1.000  He
  Ne228    1.0000 0.70067  0.51631  0.34480  Biso   1.000  Ne
  Ne229    1.0000 0.03388  0.44475  0.55163  Biso   1.000  Ne
  He229    1.0000 0.05919  0.44143  0.57278  Biso   1.000  He
  He230    1.0000 0.08148  0.41981  0.56243  Biso   1.000  He
  Ne230    1.0000 0.10979  0.41436  0.58046  Biso   1.000  Ne
  Ne231    1.0000 0.69658  0.36758  0.33762  Biso   1.000  Ne
  He231    1.0000 0.72605  0.38608  0.33017  Biso   1.000  He
  He232    1.0000 0.75233  0.36620  0.32895  Biso   1.000  He
  Ne232    1.0000 0.78105  0.38447  0.32457  Biso   1.000  Ne
  Ne233    1.0000 0.41887  0.04262  0.20383  Biso   1.000  Ne
  He233    1.0000 0.40071  0.05528  0.22756  Biso   1.000  He
  He234    1.0000 0.39466  0.03274  0.25025  Biso   1.000  He
  Ne234    1.0000 0.37976  0.04593  0.27692  Biso   1.000  Ne
  Ne235    1.0000 0.11963  0.89232  0.84793  Biso   1.000  Ne
  He235    1.0000 0.10602  0.86960  0.86514  Biso   1.000  He
  He236    1.0000 0.12283  0.84076  0.86383  Biso   1.000  He
  Ne236    1.0000 0.11203  0.81551  0.88273  Biso   1.000  Ne
  Ne237    1.0000 0.70659  0.22581  0.61746  Biso   1.000  Ne
  He237    1.0000 0.72592  0.20150  0.63052  Biso   1.000  He
  He238    1.0000 0.70990  0.17130  0.63693  Biso   1.000  He
  Ne238    1.0000 0.72810  0.14723  0.65201  Biso   1.000  Ne
  Ne239    1.0000 0.69662  0.23892  0.92895  Biso   1.000  Ne
  He239    1.0000 0.72402  0.22816  0.94356  Biso   1.000  He
  He240    1.0000 0.71626  0.22017  0.97327  Biso   1.000  He
  Ne240    1.0000 0.74072  0.20614  0.98824  Biso   1.000  Ne
  Ne241    1.0000 0.42652  0.96021  0.97492  Biso   1.000  Ne
  He241    1.0000 0.42069  0.96085  0.00566  Biso   1.000  He
  He242    1.0000 0.42697  0.92940  0.01968  Biso   1.000  He
  Ne242    1.0000 0.43068  0.93200  0.05332  Biso   1.000  Ne
  Ne243    1.0000 0.24674  0.68805  0.14602  Biso   1.000  Ne
  He243    1.0000 0.21841  0.67223  0.15519  Biso   1.000  He
  He244    1.0000 0.19516  0.66866  0.13216  Biso   1.000  He
  Ne244    1.0000 0.16689  0.65531  0.14279  Biso   1.000  Ne
  Ne245    1.0000 0.94776  0.66656  0.29998  Biso   1.000  Ne
  He245    1.0000 0.93857  0.63442  0.30660  Biso   1.000  He
  He246    1.0000 0.96131  0.61327  0.29775  Biso   1.000  He
  Ne246    1.0000 0.95694  0.58028  0.29697  Biso   1.000  Ne
  Ne247    1.0000 0.87789  0.20796  0.45327  Biso   1.000  Ne
  He247    1.0000 0.90403  0.21448  0.47132  Biso   1.000  He
  He248    1.0000 0.93194  0.20445  0.46005  Biso   1.000  He
  Ne248    1.0000 0.95651  0.21304  0.47678  Biso   1.000  Ne
  Ne249    1.0000 0.20521  0.78835  0.19166  Biso   1.000  Ne
  He249    1.0000 0.21640  0.76505  0.21409  Biso   1.000  He
  He250    1.0000 0.23295  0.73788  0.20255  Biso   1.000  He
  Ne250    1.0000 0.23900  0.71830  0.22775  Biso   1.000  Ne
  Ne251    1.0000 0.35895  0.98678  0.06434  Biso   1.000  Ne
  He251    1.0000 0.33153  0.99770  0.04970  Biso   1.000  He
  He252    1.0000 0.33542  0.02185  0.02565  Biso   1.000  He
  Ne252    1.0000 0.30688  0.03068  0.00914  Biso   1.000  Ne
  Ne253    1.0000 0.81732  0.29359  0.83643  Biso   1.000  Ne
  He253    1.0000 0.84549  0.30807  0.84073  Biso   1.000  He
  He254    1.0000 0.86585  0.28575  0.84973  Biso   1.000  He
  Ne254    1.0000 0.89621  0.29952  0.85033  Biso   1.000  Ne
  Ne255    1.0000 0.94262  0.51865  0.11878  Biso   1.000  Ne
  He255    1.0000 0.91612  0.53709  0.10873  Biso   1.000  He
  He256    1.0000 0.88784  0.54197  0.12631  Biso   1.000  He
  Ne256    1.0000 0.88717  0.57223  0.14003  Biso   1.000  Ne
  Ne257    1.0000 0.74706  0.01718  0.61867  Biso   1.000  Ne
  He257    1.0000 0.72198  0.02239  0.64153  Biso   1.000  He
  He258    1.0000 0.70222  0.04781  0.63348  Biso   1.000  He
  Ne258    1.0000 0.67788  0.05278  0.65679  Biso   1.000  Ne
  Ne259    1.0000 0.29374  0.81045  0.46336  Biso   1.000  Ne
  He259    1.0000 0.26184  0.79493  0.45561  Biso   1.000  He
  He260    1.0000 0.26142  0.76573  0.43751  Biso   1.000  He
  Ne260    1.0000 0.23059  0.75262  0.43419  Biso   1.000  Ne
  Ne261    1.0000 0.16089  0.75555  0.80807  Biso   1.000  Ne
  He261    1.0000 0.17078  0.75976  0.77691  Biso   1.000  He
  He262    1.0000 0.20383  0.75858  0.77034  Biso   1.000  He
  Ne262    1.0000 0.20963  0.76295  0.73935  Biso   1.000  Ne
  Ne263    1.0000 0.44893  0.59311  0.47222  Biso   1.000  Ne
  He263    1.0000 0.41957  0.58379  0.48147  Biso   1.000  He
  He264    1.0000 0.39491  0.59670  0.46075  Biso   1.000  He
  Ne264    1.0000 0.36347  0.58504  0.46480  Biso   1.000  Ne
  Ne265    1.0000 0.60726  0.48563  0.62626  Biso   1.000  Ne
  He265    1.0000 0.62332  0.51026  0.60541  Biso   1.000  He
  He266    1.0000 0.61054  0.51086  0.57575  Biso   1.000  He
  Ne266    1.0000 0.61830  0.53392  0.55716  Biso   1.000  Ne
  Ne267    1.0000 0.26506  0.76029  0.92900  Biso   1.000  Ne
  He267    1.0000 0.26957  0.78965  0.94190  Biso   1.000  He
  He268    1.0000 0.26387  0.79052  0.97482  Biso   1.000  He
  Ne268    1.0000 0.27285  0.81704  0.99297  Biso   1.000  Ne
  Ne269    1.0000 0.37972  0.74854  0.03959  Biso   1.000  Ne
  He269    1.0000 0.35797  0.75921  0.06116  Biso   1.000  He
  He270    1.0000 0.33235  0.77723  0.04714  Biso   1.000  He
  Ne270    1.0000 0.31205  0.78853  0.07148  Biso   1.000  Ne
  Ne271    1.0000 0.10571  0.67512  0.82194  Biso   1.000  Ne
  He271    1.0000 0.10571  0.64109  0.82655  Biso   1.000  He
  He272    1.0000 0.11093  0.62948  0.85778  Biso   1.000  He
  Ne272    1.0000 0.11339  0.59595  0.85964  Biso   1.000  Ne
  Ne273    1.0000 0.38968  0.26251  0.55692  Biso   1.000  Ne
  He273    1.0000 0.42154  0.26199  0.54742  Biso   1.000  He
  He274    1.0000 0.43417  0.29189  0.54011  Biso   1.000  He
  Ne274    1.0000 0.46535  0.28922  0.53113  Biso   1.000  Ne
  Ne275    1.0000 0.08545  0.74236  0.13889  Biso   1.000  Ne
  He275    1.0000 0.10065  0.77101  0.14570  Biso   1.000  He
  He276    1.0000 0.12933  0.78005  0.12892  Biso   1.000  He
  Ne276    1.0000 0.14010  0.80852  0.13609  Biso   1.000  Ne
  Ne277    1.0000 0.25514  0.18224  0.62282  Biso   1.000  Ne
  He277    1.0000 0.22655  0.17064  0.61376  Biso   1.000  He
  He278    1.0000 0.20472  0.19446  0.60040  Biso   1.000  He
  Ne278    1.0000 0.17730  0.18048  0.59293  Biso   1.000  Ne
  Ne279    1.0000 0.00935  0.74304  0.68585  Biso   1.000  Ne
  He279    1.0000 0.97830  0.75526  0.69310  Biso   1.000  He
  He280    1.0000 0.95477  0.73211  0.69035  Biso   1.000  He
  Ne280    1.0000 0.92748  0.74618  0.69992  Biso   1.000  Ne
  Ne281    1.0000 0.35704  0.75349  0.44821  Biso   1.000  Ne
  He281    1.0000 0.37900  0.76217  0.42589  Biso   1.000  He
  He282    1.0000 0.37600  0.79214  0.41514  Biso   1.000  He
  Ne282    1.0000 0.39456  0.80016  0.39116  Biso   1.000  Ne
  Ne283    1.0000 0.11171  0.11138  0.49939  Biso   1.000  Ne
  He283    1.0000 0.11969  0.14322  0.49309  Biso   1.000  He
  He284    1.0000 0.14835  0.15089  0.50906  Biso   1.000  He
  Ne284    1.0000 0.15838  0.17997  0.50480  Biso   1.000  Ne
  Ne285    1.0000 0.25018  0.30190  0.20675  Biso   1.000  Ne
  He285    1.0000 0.25278  0.33424  0.20869  Biso   1.000  He
  He286    1.0000 0.26533  0.34502  0.23826  Biso   1.000  He
  Ne286    1.0000 0.26811  0.37746  0.24058  Biso   1.000  Ne
  Ne287    1.0000 0.34482  0.55445  0.21416  Biso   1.000  Ne
  He287    1.0000 0.35726  0.54795  0.24324  Biso   1.000  He
  He288    1.0000 0.38918  0.54324  0.24676  Biso   1.000  He
  Ne288    1.0000 0.39621  0.53337  0.27783  Biso   1.000  Ne
  Ne289    1.0000 0.96789  0.53598  0.58146  Biso   1.000  Ne
  He289    1.0000 0.95055  0.54113  0.60987  Biso   1.000  He
  He290    1.0000 0.91893  0.54012  0.60200  Biso   1.000  He
  Ne290    1.0000 0.89985  0.55218  0.62594  Biso   1.000  Ne
  Ne291    1.0000 0.41654  0.57176  0.89724  Biso   1.000  Ne
  He291    1.0000 0.41763  0.56171  0.86365  Biso   1.000  He
  He292    1.0000 0.41352  0.52800  0.86172  Biso   1.000  He
  Ne292    1.0000 0.41478  0.51607  0.83128  Biso   1.000  Ne
  Ne293    1.0000 0.25242  0.19611  0.21482  Biso   1.000  Ne
  He293    1.0000 0.22155  0.19779  0.20302  Biso   1.000  He
  He294    1.0000 0.20862  0.16897  0.19634  Biso   1.000  He
  Ne294    1.0000 0.20743  0.15993  0.16550  Biso   1.000  Ne
  Ne295    1.0000 0.12704  0.68690  0.21062  Biso   1.000  Ne
  He295    1.0000 0.14544  0.71279  0.22216  Biso   1.000  He
  He296    1.0000 0.15447  0.70857  0.25280  Biso   1.000  He
  Ne296    1.0000 0.16942  0.73054  0.26966  Biso   1.000  Ne
  Ne297    1.0000 0.01078  0.62765  0.92043  Biso   1.000  Ne
  He297    1.0000 0.02478  0.60473  0.89963  Biso   1.000  He
  He298    1.0000 0.03129  0.61518  0.86779  Biso   1.000  He
  Ne298    1.0000 0.02978  0.59106  0.84511  Biso   1.000  Ne
  Ne299    1.0000 0.30969  0.36370  0.13502  Biso   1.000  Ne
  He299    1.0000 0.33750  0.34977  0.12342  Biso   1.000  He
  He300    1.0000 0.36356  0.35793  0.13988  Biso   1.000  He
  Ne300    1.0000 0.39412  0.34585  0.12678  Biso   1.000  Ne
  Ne301    1.0000 0.20833  0.12001  0.55902  Biso   1.000  Ne
  He301    1.0000 0.23350  0.10679  0.54200  Biso   1.000  He
  He302    1.0000 0.22345  0.09157  0.51284  Biso   1.000  He
  Ne302    1.0000 0.24603  0.08340  0.49110  Biso   1.000  Ne
  Ne303    1.0000 0.25877  0.83555  0.33290  Biso   1.000  Ne
  He303    1.0000 0.23480  0.82057  0.32084  Biso   1.000  He
  He304    1.0000 0.21409  0.83800  0.29796  Biso   1.000  He
  Ne304    1.0000 0.18967  0.81728  0.28539  Biso   1.000  Ne
  Ne305    1.0000 0.95715  0.30288  0.45001  Biso   1.000  Ne
  He305    1.0000 0.93210  0.32221  0.45716  Biso   1.000  He
  He306    1.0000 0.93368  0.33506  0.48618  Biso   1.000  He
  Ne306    1.0000 0.91243  0.35929  0.49073  Biso   1.000  Ne
  Ne307    1.0000 0.58793  0.11486  0.41054  Biso   1.000  Ne
  He307    1.0000 0.60551  0.11792  0.38160  Biso   1.000  He
  He308    1.0000 0.58706  0.12973  0.35517  Biso   1.000  He
  Ne308    1.0000 0.60411  0.13518  0.32643  Biso   1.000  Ne
  Ne309    1.0000 0.45607  0.11669  0.84533  Biso   1.000  Ne
  He309    1.0000 0.46488  0.13735  0.87063  Biso   1.000  He
  He310    1.0000 0.48210  0.12174  0.89466  Biso   1.000  He
  Ne310    1.0000 0.48985  0.14409  0.91771  Biso   1.000  Ne
  Ne311    1.0000 0.81433  0.13505  0.65235  Biso   1.000  Ne
  He311    1.0000 0.82780  0.16329  0.66500  Biso   1.000  He
  He312    1.0000 0.81055  0.18204  0.68579  Biso   1.000  He
  Ne312    1.0000 0.82624  0.20443  0.70428  Biso   1.000  Ne
  Ne313    1.0000 0.37716  0.29428  0.43111  Biso   1.000  Ne
  He313    1.0000 0.37600  0.32540  0.44116  Biso   1.000  He
  He314    1.0000 0.38312  0.34650  0.41735  Biso   1.000  He
  Ne314    1.0000 0.37932  0.37857  0.42842  Biso   1.000  Ne
  Ne315    1.0000 0.41007  0.71911  0.13583  Biso   1.000  Ne
  He315    1.0000 0.38133  0.73486  0.13969  Biso   1.000  He
  He316    1.0000 0.35730  0.71118  0.14154  Biso   1.000  He
  Ne316    1.0000 0.32797  0.72264  0.14349  Biso   1.000  Ne
  Ne317    1.0000 0.95869  0.15613  0.29829  Biso   1.000  Ne
  He317    1.0000 0.94526  0.12612  0.29302  Biso   1.000  He
  He318    1.0000 0.91912  0.12355  0.31078  Biso   1.000  He
  Ne318    1.0000 0.90435  0.09401  0.31211  Biso   1.000  Ne
  Ne319    1.0000 0.66729  0.38386  0.89866  Biso   1.000  Ne
  He319    1.0000 0.64779  0.38802  0.87266  Biso   1.000  He
  He320    1.0000 0.61517  0.37656  0.87167  Biso   1.000  He
  Ne320    1.0000 0.60188  0.38254  0.84302  Biso   1.000  Ne
  Ne321    1.0000 0.45187  0.83577  0.17116  Biso   1.000  Ne
  He321    1.0000 0.43499  0.80779  0.17753  Biso   1.000  He
  He322    1.0000 0.45094  0.77928  0.18135  Biso   1.000  He
  Ne322    1.0000 0.45835  0.77130  0.21443  Biso   1.000  Ne
  Ne323    1.0000 0.53182  0.58949  0.70173  Biso   1.000  Ne
  He323    1.0000 0.52633  0.55849  0.68623  Biso   1.000  He
  He324    1.0000 0.55161  0.53899  0.68352  Biso   1.000  He
  Ne324    1.0000 0.53987  0.50875  0.67411  Biso   1.000  Ne
  Ne325    1.0000 0.61596  0.31557  0.25716  Biso   1.000  Ne
  He325    1.0000 0.60928  0.31023  0.22431  Biso   1.000  He
  He326    1.0000 0.61233  0.27802  0.21372  Biso   1.000  He
  Ne326    1.0000 0.61288  0.27406  0.18151  Biso   1.000  Ne
  Ne327    1.0000 0.36635  0.05562  0.87094  Biso   1.000  Ne
  He327    1.0000 0.39143  0.03671  0.87831  Biso   1.000  He
  He328    1.0000 0.41020  0.04947  0.90281  Biso   1.000  He
  Ne328    1.0000 0.43394  0.03065  0.91618  Biso   1.000  Ne
  Ne329    1.0000 0.12743  0.12284  0.21796  Biso   1.000  Ne
  He329    1.0000 0.11290  0.09303  0.21046  Biso   1.000  He
  He330    1.0000 0.09853  0.08236  0.23839  Biso   1.000  He
  Ne330    1.0000 0.08301  0.05196  0.23386  Biso   1.000  Ne
  Ne331    1.0000 0.63020  0.10987  0.49272  Biso   1.000  Ne
  He331    1.0000 0.62935  0.14349  0.49846  Biso   1.000  He
  He332    1.0000 0.60426  0.15980  0.48317  Biso   1.000  He
  Ne332    1.0000 0.60137  0.19290  0.49309  Biso   1.000  Ne
  Ne333    1.0000 0.69107  0.91144  0.00942  Biso   1.000  Ne
  He333    1.0000 0.70674  0.88943  0.98947  Biso   1.000  He
  He334    1.0000 0.73853  0.89975  0.98450  Biso   1.000  He
  Ne334    1.0000 0.75197  0.88059  0.95876  Biso   1.000  Ne
  Ne335    1.0000 0.30977  0.32824  0.34341  Biso   1.000  Ne
  He335    1.0000 0.30575  0.31041  0.31566  Biso   1.000  He
  He336    1.0000 0.28167  0.28503  0.31640  Biso   1.000  He
  Ne336    1.0000 0.28004  0.26445  0.29258  Biso   1.000  Ne
  Ne337    1.0000 0.30921  0.16396  0.89653  Biso   1.000  Ne
  He337    1.0000 0.29556  0.17071  0.92382  Biso   1.000  He
  He338    1.0000 0.32104  0.17135  0.94517  Biso   1.000  He
  Ne338    1.0000 0.31369  0.17747  0.97872  Biso   1.000  Ne
  Ne339    1.0000 0.22658  0.30278  0.10892  Biso   1.000  Ne
  He339    1.0000 0.21273  0.30419  0.07917  Biso   1.000  He
  He340    1.0000 0.18393  0.31818  0.07628  Biso   1.000  He
  Ne340    1.0000 0.17052  0.32029  0.04690  Biso   1.000  Ne
  Ne341    1.0000 0.48971  0.65520  0.70281  Biso   1.000  Ne
  He341    1.0000 0.45862  0.65212  0.68889  Biso   1.000  He
  He342    1.0000 0.44766  0.67829  0.67352  Biso   1.000  He
  Ne342    1.0000 0.41865  0.67506  0.65746  Biso   1.000  Ne
  Ne343    1.0000 0.88863  0.43699  0.01809  Biso   1.000  Ne
  He343    1.0000 0.91587  0.42181  0.02630  Biso   1.000  He
  He344    1.0000 0.93519  0.44172  0.04603  Biso   1.000  He
  Ne344    1.0000 0.96222  0.42503  0.05483  Biso   1.000  Ne
  Ne345    1.0000 0.76378  0.17030  0.79280  Biso   1.000  Ne
  He345    1.0000 0.74622  0.18434  0.76819  Biso   1.000  He
  He346    1.0000 0.74130  0.21645  0.77304  Biso   1.000  He
  Ne346    1.0000 0.72174  0.22918  0.74814  Biso   1.000  Ne
  Ne347    1.0000 0.96555  0.90628  0.53140  Biso   1.000  Ne
  He347    1.0000 0.93564  0.89704  0.52001  Biso   1.000  He
  He348    1.0000 0.92713  0.86701  0.52783  Biso   1.000  He
  Ne348    1.0000 0.89871  0.85934  0.51244  Biso   1.000  Ne
  Ne349    1.0000 0.96112  0.00744  0.15028  Biso   1.000  Ne
  He349    1.0000 0.93747  0.01735  0.13161  Biso   1.000  He
  He350    1.0000 0.90728  0.02119  0.14275  Biso   1.000  He
  Ne350    1.0000 0.88657  0.03485  0.12241  Biso   1.000  Ne
  Ne351    1.0000 0.41778  0.59685  0.98711  Biso   1.000  Ne
  He351    1.0000 0.40491  0.56573  0.99720  Biso   1.000  He
  He352    1.0000 0.40618  0.54328  0.97257  Biso   1.000  He
  Ne352    1.0000 0.39476  0.51161  0.98154  Biso   1.000  Ne
  Ne353    1.0000 0.16342  0.13509  0.32791  Biso   1.000  Ne
  He353    1.0000 0.17064  0.10534  0.31536  Biso   1.000  He
  He354    1.0000 0.18170  0.10729  0.28396  Biso   1.000  He
  Ne354    1.0000 0.18822  0.07816  0.27003  Biso   1.000  Ne
  Ne355    1.0000 0.93671  0.48928  0.88478  Biso   1.000  Ne
  He355    1.0000 0.92617  0.47382  0.91117  Biso   1.000  He
  He356    1.0000 0.90214  0.44897  0.90772  Biso   1.000  He
  Ne356    1.0000 0.89550  0.43314  0.93523  Biso   1.000  Ne
  Ne357    1.0000 0.81673  0.82980  0.12057  Biso   1.000  Ne
  He357    1.0000 0.80994  0.79874  0.11367  Biso   1.000  He
  He358    1.0000 0.82080  0.77207  0.13042  Biso   1.000  He
  Ne358    1.0000 0.80619  0.74245  0.12054  Biso   1.000  Ne
  Ne359    1.0000 0.34608  0.24958  0.98653  Biso   1.000  Ne
  He359    1.0000 0.32345  0.27086  0.96871  Biso   1.000  He
  He360    1.0000 0.31064  0.25966  0.93807  Biso   1.000  He
  Ne360    1.0000 0.28755  0.28120  0.92915  Biso   1.000  Ne
  Ne361    1.0000 0.09950  0.19241  0.83719  Biso   1.000  Ne
  He361    1.0000 0.10768  0.17672  0.81025  Biso   1.000  He
  He362    1.0000 0.13669  0.15845  0.81107  Biso   1.000  He
  Ne362    1.0000 0.13890  0.13745  0.78499  Biso   1.000  Ne
  Ne363    1.0000 0.06868  0.21246  0.74040  Biso   1.000  Ne
  He363    1.0000 0.08875  0.23657  0.72983  Biso   1.000  He
  He364    1.0000 0.11464  0.24102  0.74941  Biso   1.000  He
  Ne364    1.0000 0.13545  0.26431  0.73955  Biso   1.000  Ne
  Ne365    1.0000 0.58019  0.39072  0.17444  Biso   1.000  Ne
  He365    1.0000 0.60509  0.38556  0.15343  Biso   1.000  He
  He366    1.0000 0.61643  0.35334  0.15881  Biso   1.000  He
  Ne366    1.0000 0.64192  0.34604  0.13990  Biso   1.000  Ne
  Ne367    1.0000 0.67809  0.21236  0.46870  Biso   1.000  Ne
  He367    1.0000 0.67019  0.20232  0.43855  Biso   1.000  He
  He368    1.0000 0.65872  0.22734  0.41953  Biso   1.000  He
  Ne368    1.0000 0.65390  0.21748  0.38763  Biso   1.000  Ne
  Ne369    1.0000 0.44878  0.29841  0.34114  Biso   1.000  Ne
  He369    1.0000 0.42472  0.29384  0.31687  Biso   1.000  He
  He370    1.0000 0.43014  0.26483  0.29901  Biso   1.000  He
  Ne370    1.0000 0.41290  0.26489  0.27019  Biso   1.000  Ne
  Ne371    1.0000 0.06212  0.91042  0.15762  Biso   1.000  Ne
  He371    1.0000 0.05683  0.89279  0.12896  Biso   1.000  He
  He372    1.0000 0.07356  0.86366  0.13242  Biso   1.000  He
  Ne372    1.0000 0.06461  0.83888  0.11077  Biso   1.000  Ne
  Ne373    1.0000 0.59219  0.56125  0.24418  Biso   1.000  Ne
  He373    1.0000 0.61970  0.57852  0.23724  Biso   1.000  He
  He374    1.0000 0.63955  0.56121  0.21800  Biso   1.000  He
  Ne374    1.0000 0.66889  0.57654  0.21154  Biso   1.000  Ne
  Ne375    1.0000 0.07733  0.71257  0.61983  Biso   1.000  Ne
  He375    1.0000 0.06900  0.72945  0.59359  Biso   1.000  He
  He376    1.0000 0.09402  0.74846  0.58339  Biso   1.000  He
  Ne376    1.0000 0.09040  0.76556  0.55799  Biso   1.000  Ne
  Ne377    1.0000 0.39080  0.67201  0.88814  Biso   1.000  Ne
  He377    1.0000 0.38824  0.68236  0.91986  Biso   1.000  He
  He378    1.0000 0.42025  0.68425  0.93119  Biso   1.000  He
  Ne378    1.0000 0.42556  0.69549  0.96313  Biso   1.000  Ne
  Ne379    1.0000 0.21860  0.41675  0.92896  Biso   1.000  Ne
  He379    1.0000 0.19044  0.43616  0.93096  Biso   1.000  He
  He380    1.0000 0.19601  0.47064  0.92499  Biso   1.000  He
  Ne380    1.0000 0.19824  0.47832  0.89095  Biso   1.000  Ne
  Ne381    1.0000 0.22561  0.56262  0.81330  Biso   1.000  Ne
  He381    1.0000 0.19584  0.57145  0.82028  Biso   1.000  He
  He382    1.0000 0.19550  0.59180  0.84813  Biso   1.000  He
  Ne382    1.0000 0.19784  0.57215  0.87701  Biso   1.000  Ne
  Ne383    1.0000 0.30666  0.52657  0.63636  Biso   1.000  Ne
  He383    1.0000 0.32578  0.54911  0.65025  Biso   1.000  He
  He384    1.0000 0.34182  0.54214  0.67637  Biso   1.000  He
  Ne384    1.0000 0.35644  0.56689  0.69183  Biso   1.000  Ne
  Ne385    1.0000 0.07362  0.04335  0.12563  Biso   1.000  Ne
  He385    1.0000 0.07617  0.03944  0.09005  Biso   1.000  He
  He386    1.0000 0.07101  0.00694  0.07951  Biso   1.000  He
  Ne386    1.0000 0.07679  0.00524  0.04567  Biso   1.000  Ne
  Ne387    1.0000 0.88340  0.27562  0.19744  Biso   1.000  Ne
  He387    1.0000 0.88167  0.26945  0.22766  Biso   1.000  He
  He388    1.0000 0.89860  0.29031  0.24540  Biso   1.000  He
  Ne388    1.0000 0.90652  0.27869  0.27528  Biso   1.000  Ne
  Ne389    1.0000 0.21687  0.12711  0.71640  Biso   1.000  Ne
  He389    1.0000 0.21854  0.14322  0.74603  Biso   1.000  He
  He390    1.0000 0.24766  0.16094  0.75228  Biso   1.000  He
  Ne390    1.0000 0.24917  0.18225  0.77874  Biso   1.000  Ne
  Ne391    1.0000 0.74433  0.73934  0.81805  Biso   1.000  Ne
  He391    1.0000 0.73307  0.72967  0.78816  Biso   1.000  He
  He392    1.0000 0.73108  0.69794  0.77742  Biso   1.000  He
  Ne392    1.0000 0.71907  0.69410  0.74614  Biso   1.000  Ne
  Ne393    1.0000 0.10434  0.65104  0.72947  Biso   1.000  Ne
  He393    1.0000 0.12811  0.64557  0.75452  Biso   1.000  He
  He394    1.0000 0.15670  0.63931  0.74066  Biso   1.000  He
  Ne394    1.0000 0.18286  0.63247  0.76200  Biso   1.000  Ne
  Ne395    1.0000 0.44495  0.31830  0.64206  Biso   1.000  Ne
  He395    1.0000 0.46707  0.29741  0.62893  Biso   1.000  He
  He396    1.0000 0.46140  0.26536  0.63418  Biso   1.000  He
  Ne396    1.0000 0.48865  0.24589  0.63500  Biso   1.000  Ne
  Ne397    1.0000 0.00223  0.32617  0.84006  Biso   1.000  Ne
  He397    1.0000 0.03422  0.32952  0.83323  Biso   1.000  He
  He398    1.0000 0.04013  0.35408  0.81142  Biso   1.000  He
  Ne398    1.0000 0.07184  0.35744  0.80327  Biso   1.000  Ne
  Ne399    1.0000 0.86494  0.72891  0.29384  Biso   1.000  Ne
  He399    1.0000 0.89534  0.73284  0.30988  Biso   1.000  He
  He400    1.0000 0.90744  0.76205  0.30343  Biso   1.000  He
  Ne400    1.0000 0.93952  0.76682  0.31136  Biso   1.000  Ne
  Ne401    1.0000 0.34918  0.81873  0.20138  Biso   1.000  Ne
  He401    1.0000 0.33332  0.79510  0.18093  Biso   1.000  He
  He402    1.0000 0.31608  0.80609  0.15710  Biso   1.000  He
  Ne402    1.0000 0.28390  0.80012  0.15967  Biso   1.000  Ne
  Ne403    1.0000 0.36834  0.35779  0.75014  Biso   1.000  Ne
  He403    1.0000 0.34169  0.34052  0.73667  Biso   1.000  He
  He404    1.0000 0.31423  0.35401  0.74220  Biso   1.000  He
  Ne404    1.0000 0.29041  0.33327  0.73301  Biso   1.000  Ne
  Ne405    1.0000 0.44580  0.74848  0.87120  Biso   1.000  Ne
  He405    1.0000 0.46048  0.73870  0.89949  Biso   1.000  He
  He406    1.0000 0.46522  0.76327  0.92014  Biso   1.000  He
  Ne406    1.0000 0.48247  0.75579  0.94541  Biso   1.000  Ne
  Ne407    1.0000 0.91864  0.02732  0.96844  Biso   1.000  Ne
  He407    1.0000 0.91496  0.01236  0.00120  Biso   1.000  He
  He408    1.0000 0.93293  0.02878  0.02478  Biso   1.000  He
  Ne408    1.0000 0.94220  0.00945  0.04836  Biso   1.000  Ne
  Ne409    1.0000 0.67251  0.63894  0.69744  Biso   1.000  Ne
  He409    1.0000 0.68019  0.60859  0.71271  Biso   1.000  He
  He410    1.0000 0.68394  0.58962  0.68822  Biso   1.000  He
  Ne410    1.0000 0.69471  0.56165  0.69749  Biso   1.000  Ne
  Ne411    1.0000 0.38379  0.36653  0.54702  Biso   1.000  Ne
  He411    1.0000 0.37519  0.37775  0.51780  Biso   1.000  He
  He412    1.0000 0.34517  0.38993  0.51557  Biso   1.000  He
  Ne412    1.0000 0.33561  0.39971  0.48791  Biso   1.000  Ne
  Ne413    1.0000 0.96065  0.03497  0.36515  Biso   1.000  Ne
  He413    1.0000 0.94006  0.01907  0.34339  Biso   1.000  He
  He414    1.0000 0.91420  0.00178  0.35697  Biso   1.000  He
  Ne414    1.0000 0.89888  0.98162  0.33825  Biso   1.000  Ne
  Ne415    1.0000 0.55228  0.43789  0.58103  Biso   1.000  Ne
  He415    1.0000 0.55278  0.44001  0.54864  Biso   1.000  He
  He416    1.0000 0.53632  0.46828  0.53743  Biso   1.000  He
  Ne416    1.0000 0.53831  0.47092  0.50496  Biso   1.000  Ne
  Ne417    1.0000 0.50255  0.84010  0.25171  Biso   1.000  Ne
  He417    1.0000 0.48608  0.86897  0.25273  Biso   1.000  He
  He418    1.0000 0.50394  0.89594  0.25091  Biso   1.000  He
  Ne418    1.0000 0.48459  0.92429  0.25031  Biso   1.000  Ne
  Ne419    1.0000 0.07179  0.17377  0.55474  Biso   1.000  Ne
  He419    1.0000 0.05515  0.14628  0.55887  Biso   1.000  He
  He420    1.0000 0.02240  0.15074  0.56240  Biso   1.000  He
  Ne420    1.0000 0.00336  0.12430  0.56886  Biso   1.000  Ne
  Ne421    1.0000 0.92531  0.88468  0.87389  Biso   1.000  Ne
  He421    1.0000 0.92457  0.84863  0.86858  Biso   1.000  He
  He422    1.0000 0.92442  0.83146  0.89827  Biso   1.000  He
  Ne422    1.0000 0.92875  0.79956  0.89274  Biso   1.000  Ne
  Ne423    1.0000 0.61868  0.82742  0.77592  Biso   1.000  Ne
  He423    1.0000 0.59248  0.84853  0.77982  Biso   1.000  He
  He424    1.0000 0.59699  0.86866  0.80513  Biso   1.000  He
  Ne424    1.0000 0.57421  0.88934  0.80629  Biso   1.000  Ne
  Ne425    1.0000 0.50769  0.05585  0.11057  Biso   1.000  Ne
  He425    1.0000 0.49284  0.02948  0.09532  Biso   1.000  He
  He426    1.0000 0.50088  0.99786  0.11125  Biso   1.000  He
  Ne426    1.0000 0.48739  0.97194  0.09344  Biso   1.000  Ne
  Ne427    1.0000 0.08719  0.09775  0.32389  Biso   1.000  Ne
  He427    1.0000 0.05996  0.10487  0.34441  Biso   1.000  He
  He428    1.0000 0.03170  0.08962  0.33378  Biso   1.000  He
  Ne428    1.0000 0.00636  0.09771  0.35543  Biso   1.000  Ne
  Ne429    1.0000 0.07966  0.72989  0.37437  Biso   1.000  Ne
  He429    1.0000 0.07658  0.75326  0.35208  Biso   1.000  He
  He430    1.0000 0.09507  0.74653  0.32546  Biso   1.000  He
  Ne430    1.0000 0.09203  0.76720  0.30062  Biso   1.000  Ne
  Ne431    1.0000 0.49343  0.85913  0.94918  Biso   1.000  Ne
  He431    1.0000 0.52078  0.85518  0.96478  Biso   1.000  He
  He432    1.0000 0.52428  0.82325  0.97547  Biso   1.000  He
  Ne432    1.0000 0.55572  0.81387  0.98547  Biso   1.000  Ne
  Ne433    1.0000 0.93089  0.25147  0.90646  Biso   1.000  Ne
  He433    1.0000 0.96310  0.24692  0.90928  Biso   1.000  He
  He434    1.0000 0.97832  0.27340  0.92278  Biso   1.000  He
  Ne434    1.0000 0.01061  0.26932  0.93200  Biso   1.000  Ne
  Ne435    1.0000 0.73881  0.79339  0.15380  Biso   1.000  Ne
  He435    1.0000 0.71498  0.77063  0.16067  Biso   1.000  He
  He436    1.0000 0.68258  0.77990  0.16385  Biso   1.000  He
  Ne436    1.0000 0.66311  0.75520  0.17238  Biso   1.000  Ne
  Ne437    1.0000 0.56836  0.62294  0.15542  Biso   1.000  Ne
  He437    1.0000 0.59596  0.62217  0.17545  Biso   1.000  He
  He438    1.0000 0.59996  0.65291  0.18823  Biso   1.000  He
  Ne438    1.0000 0.62723  0.65786  0.20475  Biso   1.000  Ne
  Ne439    1.0000 0.42810  0.50989  0.75366  Biso   1.000  Ne
  He439    1.0000 0.41649  0.48683  0.73193  Biso   1.000  He
  He440    1.0000 0.38470  0.48937  0.72819  Biso   1.000  He
  Ne440    1.0000 0.36536  0.46620  0.74295  Biso   1.000  Ne
  Ne441    1.0000 0.73882  0.68655  0.13384  Biso   1.000  Ne
  He441    1.0000 0.71184  0.69827  0.12186  Biso   1.000  He
  He442    1.0000 0.68722  0.67432  0.11447  Biso   1.000  He
  Ne442    1.0000 0.65892  0.68812  0.10510  Biso   1.000  Ne
  Ne443    1.0000 0.06878  0.39449  0.96852  Biso   1.000  Ne
  He443    1.0000 0.10177  0.39880  0.96003  Biso   1.000  He
  He444    1.0000 0.12384  0.38486  0.98158  Biso   1.000  He
  Ne444    1.0000 0.15405  0.39059  0.97985  Biso   1.000  Ne
  Ne445    1.0000 0.52349  0.96037  0.62921  Biso   1.000  Ne
  He445    1.0000 0.51292  0.99111  0.62995  Biso   1.000  He
  He446    1.0000 0.49373  0.99977  0.60192  Biso   1.000  He
  Ne446    1.0000 0.48155  0.02987  0.60289  Biso   1.000  Ne
  Ne447    1.0000 0.03269  0.48268  0.88219  Biso   1.000  Ne
  He447    1.0000 0.00873  0.48092  0.85886  Biso   1.000  He
  He448    1.0000 0.01113  0.50804  0.83625  Biso   1.000  He
  Ne448    1.0000 0.98702  0.51150  0.81472  Biso   1.000  Ne
  Ne449    1.0000 0.23349  0.67103  0.71049  Biso   1.000  Ne
  He449    1.0000 0.22822  0.68475  0.67929  Biso   1.000  He
  He450    1.0000 0.25536  0.69194  0.66646  Biso   1.000  He
  Ne450    1.0000 0.25315  0.70658  0.63810  Biso   1.000  Ne
  Ne451    1.0000 0.92789  0.15052  0.53302  Biso   1.000  Ne
  He451    1.0000 0.91003  0.12894  0.55479  Biso   1.000  He
  He452    1.0000 0.92349  0.12878  0.58419  Biso   1.000  He
  Ne452    1.0000 0.90514  0.11523  0.60656  Biso   1.000  Ne
  Ne453    1.0000 0.03481  0.04784  0.47673  Biso   1.000  Ne
  He453    1.0000 0.04442  0.04573  0.50819  Biso   1.000  He
  He454    1.0000 0.05057  0.01514  0.51774  Biso   1.000  He
  Ne454    1.0000 0.06053  0.01353  0.55024  Biso   1.000  Ne
  Ne455    1.0000 0.50281  0.37942  0.08639  Biso   1.000  Ne
  He455    1.0000 0.48691  0.40476  0.10129  Biso   1.000  He
  He456    1.0000 0.45605  0.41181  0.09236  Biso   1.000  He
  Ne456    1.0000 0.44636  0.43717  0.10948  Biso   1.000  Ne
  Ne457    1.0000 0.26115  0.07166  0.20781  Biso   1.000  Ne
  He457    1.0000 0.26587  0.10458  0.21437  Biso   1.000  He
  He458    1.0000 0.27257  0.10889  0.24776  Biso   1.000  He
  Ne458    1.0000 0.28115  0.13874  0.25626  Biso   1.000  Ne
  Ne459    1.0000 0.35006  0.32294  0.86431  Biso   1.000  Ne
  He459    1.0000 0.32693  0.34871  0.85830  Biso   1.000  He
  He460    1.0000 0.29590  0.34461  0.86794  Biso   1.000  He
  Ne460    1.0000 0.27663  0.37207  0.86322  Biso   1.000  Ne
  Ne461    1.0000 0.10402  0.53970  0.27272  Biso   1.000  Ne
  He461    1.0000 0.12038  0.52601  0.29559  Biso   1.000  He
  He462    1.0000 0.11388  0.53272  0.32659  Biso   1.000  He
  Ne462    1.0000 0.13509  0.51920  0.34884  Biso   1.000  Ne
  Ne463    1.0000 0.44405  0.91812  0.45427  Biso   1.000  Ne
  He463    1.0000 0.43410  0.88847  0.46743  Biso   1.000  He
  He464    1.0000 0.43069  0.86547  0.44111  Biso   1.000  He
  Ne464    1.0000 0.41637  0.83885  0.45269  Biso   1.000  Ne
  Ne465    1.0000 0.46504  0.50411  0.06465  Biso   1.000  Ne
  He465    1.0000 0.48231  0.48959  0.04224  Biso   1.000  He
  He466    1.0000 0.46697  0.48856  0.01133  Biso   1.000  He
  Ne466    1.0000 0.48652  0.47408  0.98393  Biso   1.000  Ne
  Ne467    1.0000 0.56730  0.70124  0.11733  Biso   1.000  Ne
  He467    1.0000 0.54679  0.72161  0.13397  Biso   1.000  He
  He468    1.0000 0.56081  0.74586  0.15444  Biso   1.000  He
  Ne468    1.0000 0.53782  0.76333  0.17233  Biso   1.000  Ne
  Ne469    1.0000 0.64337  0.04520  0.86074  Biso   1.000  Ne
  He469    1.0000 0.65008  0.07708  0.86048  Biso   1.000  He
  He470    1.0000 0.67048  0.09034  0.83746  Biso   1.000  He
  Ne470    1.0000 0.67344  0.12270  0.83807  Biso   1.000  Ne
  Ne471    1.0000 0.73736  0.84588  0.73918  Biso   1.000  Ne
  He471    1.0000 0.75819  0.83370  0.76015  Biso   1.000  He
  He472    1.0000 0.77857  0.85405  0.78152  Biso   1.000  He
  Ne472    1.0000 0.80216  0.83817  0.79856  Biso   1.000  Ne
  Ne473    1.0000 0.69293  0.40214  0.13901  Biso   1.000  Ne
  He473    1.0000 0.72418  0.39600  0.14335  Biso   1.000  He
  He474    1.0000 0.72598  0.36353  0.15096  Biso   1.000  He
  Ne474    1.0000 0.75510  0.35066  0.16062  Biso   1.000  Ne
  Ne475    1.0000 0.86706  0.87374  0.64282  Biso   1.000  Ne
  He475    1.0000 0.85769  0.86562  0.67234  Biso   1.000  He
  He476    1.0000 0.83645  0.88914  0.68335  Biso   1.000  He
  Ne476    1.0000 0.82278  0.88523  0.71451  Biso   1.000  Ne
  Ne477    1.0000 0.13024  0.26806  0.90689  Biso   1.000  Ne
  He477    1.0000 0.14055  0.28336  0.87873  Biso   1.000  He
  He478    1.0000 0.11588  0.30200  0.86749  Biso   1.000  He
  Ne478    1.0000 0.12674  0.31916  0.84468  Biso   1.000  Ne
  Ne479    1.0000 0.83678  0.34591  0.19130  Biso   1.000  Ne
  He479    1.0000 0.85642  0.35128  0.21852  Biso   1.000  He
  He480    1.0000 0.83784  0.36165  0.24341  Biso   1.000  He
  Ne480    1.0000 0.85399  0.37198  0.27183  Biso   1.000  Ne
  Ne481    1.0000 0.10519  0.98468  0.70524  Biso   1.000  Ne
  He481    1.0000 0.08792  0.96515  0.68539  Biso   1.000  He
  He482    1.0000 0.10158  0.93620  0.67698  Biso   1.000  He
  Ne482    1.0000 0.08474  0.91999  0.65385  Biso   1.000  Ne
  Ne483    1.0000 0.85320  0.53148  0.24830  Biso   1.000  Ne
  He483    1.0000 0.85886  0.49971  0.24508  Biso   1.000  He
  He484    1.0000 0.88837  0.49497  0.22985  Biso   1.000  He
  Ne484    1.0000 0.89876  0.46026  0.22868  Biso   1.000  Ne
  Ne485    1.0000 0.43720  0.94246  0.59718  Biso   1.000  Ne
  He485    1.0000 0.46155  0.92268  0.58591  Biso   1.000  He
  He486    1.0000 0.45736  0.90425  0.55779  Biso   1.000  He
  Ne486    1.0000 0.48002  0.88248  0.55466  Biso   1.000  Ne
  Ne487    1.0000 0.88949  0.60232  0.46017  Biso   1.000  Ne
  He487    1.0000 0.90421  0.57462  0.46816  Biso   1.000  He
  He488    1.0000 0.93630  0.58036  0.47501  Biso   1.000  He
  Ne488    1.0000 0.95443  0.55429  0.48649  Biso   1.000  Ne
  Ne489    1.0000 0.63808  0.03820  0.94431  Biso   1.000  Ne
  He489    1.0000 0.64774  0.05227  0.97111  Biso   1.000  He
  He490    1.0000 0.63135  0.03908  0.99522  Biso   1.000  He
  Ne490    1.0000 0.63679  0.05019  0.02581  Biso   1.000  Ne
  Ne491    1.0000 0.43955  0.53251  0.17244  Biso   1.000  Ne
  He491    1.0000 0.41381  0.54725  0.15396  Biso   1.000  He
  He492    1.0000 0.38643  0.52968  0.14988  Biso   1.000  He
  Ne492    1.0000 0.36383  0.54447  0.13063  Biso   1.000  Ne
  Ne493    1.0000 0.33335  0.06880  0.78918  Biso   1.000  Ne
  He493    1.0000 0.36207  0.08185  0.77733  Biso   1.000  He
  He494    1.0000 0.37044  0.11293  0.78675  Biso   1.000  He
  Ne494    1.0000 0.39779  0.12338  0.77443  Biso   1.000  Ne
  Ne495    1.0000 0.77800  0.39289  0.75431  Biso   1.000  Ne
  He495    1.0000 0.79214  0.39440  0.72665  Biso   1.000  He
  He496    1.0000 0.77575  0.37711  0.70178  Biso   1.000  He
  Ne496    1.0000 0.79288  0.37389  0.67374  Biso   1.000  Ne
  Ne497    1.0000 0.21220  0.61298  0.21498  Biso   1.000  Ne
  He497    1.0000 0.22567  0.60159  0.24325  Biso   1.000  He
  He498    1.0000 0.25517  0.58747  0.23833  Biso   1.000  He
  Ne498    1.0000 0.26798  0.57258  0.26452  Biso   1.000  Ne
  Ne499    1.0000 0.60331  0.59862  0.36284  Biso   1.000  Ne
  He499    1.0000 0.61778  0.59674  0.39333  Biso   1.000  He
  He500    1.0000 0.64803  0.59916  0.39672  Biso   1.000  He
  Ne500    1.0000 0.65961  0.62627  0.40813  Biso   1.000  Ne
  Ne501    1.0000 0.42767  0.13308  0.20034  Biso   1.000  Ne
  He501    1.0000 0.41540  0.14178  0.23078  Biso   1.000  He
  He502    1.0000 0.38177  0.14070  0.22787  Biso   1.000  He
  Ne502    1.0000 0.36663  0.14905  0.25500  Biso   1.000  Ne
  Ne503    1.0000 0.44692  0.29207  0.16628  Biso   1.000  Ne
  He503    1.0000 0.44872  0.26091  0.16122  Biso   1.000  He
  He504    1.0000 0.42590  0.24233  0.18044  Biso   1.000  He
  Ne504    1.0000 0.42857  0.20918  0.18033  Biso   1.000  Ne
  Ne505    1.0000 0.15349  0.46114  0.25132  Biso   1.000  Ne
  He505    1.0000 0.16685  0.46175  0.22094  Biso   1.000  He
  He506    1.0000 0.19914  0.46662  0.22326  Biso   1.000  He
  Ne506    1.0000 0.21341  0.46196  0.19355  Biso   1.000  Ne
  Ne507    1.0000 0.71865  0.35544  0.41865  Biso   1.000  Ne
  He507    1.0000 0.73694  0.38048  0.43381  Biso   1.000  He
  He508    1.0000 0.72131  0.39015  0.46166  Biso   1.000  He
  Ne508    1.0000 0.72835  0.41811  0.47672  Biso   1.000  Ne
  Ne509    1.0000 0.95749  0.34183  0.11079  Biso   1.000  Ne
  He509    1.0000 0.93741  0.36614  0.12518  Biso   1.000  He
  He510    1.0000 0.95354  0.38260  0.15079  Biso   1.000  He
  Ne510    1.0000 0.93883  0.40646  0.16720  Biso   1.000  Ne
  Ne511    1.0000 0.29779  0.89555  0.19108  Biso   1.000  Ne
  He511    1.0000 0.29308  0.90667  0.22236  Biso   1.000  He
  He512    1.0000 0.27573  0.88924  0.24538  Biso   1.000  He
  Ne512    1.0000 0.28139  0.90075  0.27533  Biso   1.000  Ne
  Ne513    1.0000 0.91472  0.73495  0.97708  Biso   1.000  Ne
  He513    1.0000 0.90109  0.74630  0.94916  Biso   1.000  He
  He514    1.0000 0.87553  0.76637  0.95593  Biso   1.000  He
  Ne514    1.0000 0.85679  0.77547  0.93052  Biso   1.000  Ne
  Ne515    1.0000 0.82990  0.21713  0.94800  Biso   1.000  Ne
  He515    1.0000 0.84461  0.20650  0.92259  Biso   1.000  He
  He516    1.0000 0.83287  0.21586  0.89252  Biso   1.000  He
  Ne516    1.0000 0.85026  0.20250  0.86890  Biso   1.000  Ne
  Ne517    1.0000 0.42172  0.34196  0.82153  Biso   1.000  Ne
  He517    1.0000 0.43662  0.32585  0.84874  Biso   1.000  He
  He518    1.0000 0.42612  0.33939  0.88050  Biso   1.000  He
  Ne518    1.0000 0.44453  0.33019  0.90664  Biso   1.000  Ne
  Ne519    1.0000 0.84267  0.81558  0.30352  Biso   1.000  Ne
  He519    1.0000 0.85008  0.84451  0.31805  Biso   1.000  He
  He520    1.0000 0.82403  0.86448  0.31329  Biso   1.000  He
  Ne520    1.0000 0.82844  0.89736  0.31886  Biso   1.000  Ne
  Ne521    1.0000 0.64073  0.65773  0.31918  Biso   1.000  Ne
  He521    1.0000 0.62734  0.65415  0.29071  Biso   1.000  He
  He522    1.0000 0.59593  0.65136  0.29162  Biso   1.000  He
  Ne522    1.0000 0.57652  0.65136  0.26412  Biso   1.000  Ne
  Ne523    1.0000 0.71027  0.84794  0.10560  Biso   1.000  Ne
  He523    1.0000 0.71941  0.87902  0.10694  Biso   1.000  He
  He524    1.0000 0.69549  0.89745  0.09369  Biso   1.000  He
  Ne524    1.0000 0.69839  0.93082  0.10149  Biso   1.000  Ne
  Ne525    1.0000 0.15570  0.31079  0.22918  Biso   1.000  Ne
  He525    1.0000 0.15213  0.31476  0.19565  Biso   1.000  He
  He526    1.0000 0.13328  0.29096  0.18019  Biso   1.000  He
  Ne526    1.0000 0.13781  0.28888  0.14602  Biso   1.000  Ne
  Ne527    1.0000 0.44992  0.12906  0.63878  Biso   1.000  Ne
  He527    1.0000 0.42713  0.15004  0.63134  Biso   1.000  He
  He528    1.0000 0.43489  0.18256  0.63465  Biso   1.000  He
  Ne528    1.0000 0.41179  0.20209  0.62219  Biso   1.000  Ne
  Ne529    1.0000 0.12597  0.21040  0.35659  Biso   1.000  Ne
  He529    1.0000 0.14571  0.22704  0.33453  Biso   1.000  He
  He530    1.0000 0.13147  0.25392  0.32525  Biso   1.000  He
  Ne530    1.0000 0.14944  0.26989  0.30316  Biso   1.000  Ne
  Ne531    1.0000 0.24333  0.07890  0.62289  Biso   1.000  Ne
  He531    1.0000 0.25080  0.08262  0.65715  Biso   1.000  He
  He532    1.0000 0.26712  0.05787  0.66838  Biso   1.000  He
  Ne532    1.0000 0.27264  0.05994  0.70060  Biso   1.000  Ne
  Ne533    1.0000 0.35440  0.74010  0.63003  Biso   1.000  Ne
  He533    1.0000 0.33233  0.76606  0.62451  Biso   1.000  He
  He534    1.0000 0.30431  0.77084  0.64190  Biso   1.000  He
  Ne534    1.0000 0.29068  0.80072  0.63801  Biso   1.000  Ne
  Ne535    1.0000 0.02249  0.30547  0.12393  Biso   1.000  Ne
  He535    1.0000 0.01511  0.29842  0.15647  Biso   1.000  He
  He536    1.0000 0.01413  0.26621  0.16141  Biso   1.000  He
  Ne536    1.0000 0.00742  0.25640  0.18966  Biso   1.000  Ne
  Ne537    1.0000 0.68455  0.21362  0.31041  Biso   1.000  Ne
  He537    1.0000 0.70677  0.18992  0.32329  Biso   1.000  He
  He538    1.0000 0.69647  0.16057  0.32843  Biso   1.000  He
  Ne538    1.0000 0.71762  0.14339  0.34257  Biso   1.000  Ne
  Ne539    1.0000 0.13228  0.92401  0.32109  Biso   1.000  Ne
  He539    1.0000 0.11585  0.89748  0.31399  Biso   1.000  He
  He540    1.0000 0.13262  0.87118  0.32197  Biso   1.000  He
  Ne540    1.0000 0.11794  0.84154  0.31213  Biso   1.000  Ne
  Ne541    1.0000 0.59671  0.77354  0.72242  Biso   1.000  Ne
  He541    1.0000 0.58457  0.76680  0.69234  Biso   1.000  He
  He542    1.0000 0.60727  0.75691  0.66961  Biso   1.000  He
  Ne542    1.0000 0.59144  0.74847  0.63977  Biso   1.000  Ne
  Ne543    1.0000 0.65358  0.85305  0.86234  Biso   1.000  Ne
  He543    1.0000 0.63716  0.87766  0.88008  Biso   1.000  He
  He544    1.0000 0.65233  0.88918  0.90675  Biso   1.000  He
  Ne544    1.0000 0.63630  0.90778  0.92829  Biso   1.000  Ne
  Ne545    1.0000 0.61036  0.58911  0.50696  Biso   1.000  Ne
  He545    1.0000 0.60162  0.57153  0.47885  Biso   1.000  He
  He546    1.0000 0.62269  0.54584  0.46917  Biso   1.000  He
  Ne546    1.0000 0.61203  0.53025  0.44206  Biso   1.000  Ne
  Ne547    1.0000 0.52939  0.72947  0.02566  Biso   1.000  Ne
  He547    1.0000 0.51107  0.75508  0.03825  Biso   1.000  He
  He548    1.0000 0.50069  0.74808  0.06985  Biso   1.000  He
  Ne548    1.0000 0.47863  0.76770  0.08345  Biso   1.000  Ne
  Ne549    1.0000 0.18268  0.38558  0.84761  Biso   1.000  Ne
  He549    1.0000 0.15564  0.39879  0.83909  Biso   1.000  He
  He550    1.0000 0.14620  0.42551  0.85845  Biso   1.000  He
  Ne550    1.0000 0.12260  0.44159  0.84315  Biso   1.000  Ne
  Ne551    1.0000 0.01690  0.87878  0.00375  Biso   1.000  Ne
  He551    1.0000 0.03747  0.89429  0.02470  Biso   1.000  He
  He552    1.0000 0.06338  0.90603  0.01154  Biso   1.000  He
  Ne552    1.0000 0.08563  0.91536  0.03396  Biso   1.000  Ne
  Ne553    1.0000 0.76799  0.28429  0.42546  Biso   1.000  Ne
  He553    1.0000 0.76724  0.26548  0.45226  Biso   1.000  He
  He554    1.0000 0.75810  0.27991  0.48033  Biso   1.000  He
  Ne554    1.0000 0.75830  0.26024  0.50721  Biso   1.000  Ne
  Ne555    1.0000 0.17063  0.71739  0.89484  Biso   1.000  Ne
  He555    1.0000 0.14475  0.73686  0.90342  Biso   1.000  He
  He556    1.0000 0.11510  0.72934  0.88918  Biso   1.000  He
  Ne556    1.0000 0.08985  0.74067  0.90826  Biso   1.000  Ne
  Ne557    1.0000 0.59973  0.35510  0.32732  Biso   1.000  Ne
  He557    1.0000 0.56951  0.36646  0.33252  Biso   1.000  He
  He558    1.0000 0.55219  0.35160  0.35640  Biso   1.000  He
  Ne558    1.0000 0.52229  0.36465  0.36224  Biso   1.000  Ne
  Ne559    1.0000 0.64946  0.95801  0.84754  Biso   1.000  Ne
  He559    1.0000 0.67923  0.96470  0.86302  Biso   1.000  He
  He560    1.0000 0.67570  0.97062  0.89649  Biso   1.000  He
  Ne560    1.0000 0.70508  0.97338  0.91280  Biso   1.000  Ne
  Ne561    1.0000 0.10237  0.44607  0.16451  Biso   1.000  Ne
  He561    1.0000 0.08474  0.47143  0.16310  Biso   1.000  He
  He562    1.0000 0.06814  0.47011  0.13434  Biso   1.000  He
  Ne562    1.0000 0.05068  0.50025  0.13132  Biso   1.000  Ne
  Ne563    1.0000 0.85972  0.28868  0.47287  Biso   1.000  Ne
  He563    1.0000 0.84156  0.31399  0.48182  Biso   1.000  He
  He564    1.0000 0.83097  0.33217  0.45718  Biso   1.000  He
  Ne564    1.0000 0.80264  0.35169  0.46018  Biso   1.000  Ne
  Ne565    1.0000 0.04078  0.68062  0.99064  Biso   1.000  Ne
  He565    1.0000 0.07479  0.68539  0.99010  Biso   1.000  He
  He566    1.0000 0.09083  0.66936  0.96720  Biso   1.000  He
  Ne566    1.0000 0.12249  0.67258  0.96531  Biso   1.000  Ne
  Ne567    1.0000 0.23054  0.98784  0.51573  Biso   1.000  Ne
  He567    1.0000 0.23386  0.00440  0.54509  Biso   1.000  He
  He568    1.0000 0.23722  0.98406  0.56926  Biso   1.000  He
  Ne568    1.0000 0.23956  0.99770  0.59878  Biso   1.000  Ne
  Ne569    1.0000 0.59048  0.92038  0.15238  Biso   1.000  Ne
  He569    1.0000 0.56365  0.93449  0.16128  Biso   1.000  He
  He570    1.0000 0.53516  0.91609  0.15907  Biso   1.000  He
  Ne570    1.0000 0.50628  0.92739  0.17300  Biso   1.000  Ne
  Ne571    1.0000 0.42332  0.04068  0.74694  Biso   1.000  Ne
  He571    1.0000 0.42959  0.04498  0.71520  Biso   1.000  He
  He572    1.0000 0.40010  0.04577  0.69860  Biso   1.000  He
  Ne572    1.0000 0.40097  0.04384  0.66401  Biso   1.000  Ne
  Ne573    1.0000 0.61833  0.89957  0.48860  Biso   1.000  Ne
  He573    1.0000 0.59533  0.87475  0.48246  Biso   1.000  He
  He574    1.0000 0.56901  0.87465  0.50542  Biso   1.000  He
  Ne574    1.0000 0.54467  0.85147  0.50012  Biso   1.000  Ne
  Ne575    1.0000 0.75594  0.62274  0.59075  Biso   1.000  Ne
  He575    1.0000 0.78218  0.62729  0.61152  Biso   1.000  He
  He576    1.0000 0.77260  0.63046  0.64292  Biso   1.000  He
  Ne576    1.0000 0.79530  0.63112  0.66483  Biso   1.000  Ne
  Ne577    1.0000 0.18622  0.54188  0.63493  Biso   1.000  Ne
  He577    1.0000 0.21495  0.55629  0.63438  Biso   1.000  He
  He578    1.0000 0.21243  0.58809  0.63915  Biso   1.000  He
  Ne578    1.0000 0.23944  0.60986  0.62953  Biso   1.000  Ne
  Ne579    1.0000 0.63174  0.39542  0.96847  Biso   1.000  Ne
  He579    1.0000 0.60845  0.39048  0.98954  Biso   1.000  He
  He580    1.0000 0.57947  0.38762  0.97114  Biso   1.000  He
  Ne580    1.0000 0.55292  0.37922  0.99160  Biso   1.000  Ne
  Ne581    1.0000 0.94567  0.20224  0.37375  Biso   1.000  Ne
  He581    1.0000 0.92137  0.22361  0.37665  Biso   1.000  He
  He582    1.0000 0.92542  0.24945  0.39572  Biso   1.000  He
  Ne582    1.0000 0.89676  0.26696  0.39660  Biso   1.000  Ne
  Ne583    1.0000 0.51688  0.49937  0.13539  Biso   1.000  Ne
  He583    1.0000 0.54180  0.51886  0.13057  Biso   1.000  He
  He584    1.0000 0.53900  0.53958  0.10447  Biso   1.000  He
  Ne584    1.0000 0.56661  0.55294  0.09460  Biso   1.000  Ne
  Ne585    1.0000 0.82359  0.35286  0.91073  Biso   1.000  Ne
  He585    1.0000 0.81798  0.32240  0.92674  Biso   1.000  He
  He586    1.0000 0.78996  0.30718  0.91645  Biso   1.000  He
  Ne586    1.0000 0.78503  0.28062  0.93398  Biso   1.000  Ne
  Ne587    1.0000 0.00826  0.14670  0.47729  Biso   1.000  Ne
  He587    1.0000 0.01356  0.16138  0.44859  Biso   1.000  He
  He588    1.0000 0.03902  0.15224  0.43050  Biso   1.000  He
  Ne588    1.0000 0.04199  0.16594  0.40002  Biso   1.000  Ne
  Ne589    1.0000 0.79773  0.57251  0.45565  Biso   1.000  Ne
  He589    1.0000 0.82512  0.55664  0.45364  Biso   1.000  He
  He590    1.0000 0.82163  0.52418  0.44886  Biso   1.000  He
  Ne590    1.0000 0.85033  0.50816  0.44683  Biso   1.000  Ne
  Ne591    1.0000 0.71396  0.11348  0.44762  Biso   1.000  Ne
  He591    1.0000 0.72748  0.14304  0.44340  Biso   1.000  He
  He592    1.0000 0.75248  0.14475  0.46387  Biso   1.000  He
  Ne592    1.0000 0.77048  0.17356  0.46245  Biso   1.000  Ne
  Ne593    1.0000 0.90859  0.77298  0.14092  Biso   1.000  Ne
  He593    1.0000 0.90305  0.74140  0.13284  Biso   1.000  He
  He594    1.0000 0.92913  0.72302  0.13096  Biso   1.000  He
  Ne594    1.0000 0.92180  0.69096  0.12449  Biso   1.000  Ne
  Ne595    1.0000 0.64036  0.79320  0.46969  Biso   1.000  Ne
  He595    1.0000 0.61188  0.79365  0.45185  Biso   1.000  He
  He596    1.0000 0.60645  0.81655  0.43041  Biso   1.000  He
  Ne596    1.0000 0.57753  0.81476  0.41462  Biso   1.000  Ne
  Ne597    1.0000 0.11387  0.66041  0.08120  Biso   1.000  Ne
  He597    1.0000 0.12517  0.64581  0.05023  Biso   1.000  He
  He598    1.0000 0.10869  0.61788  0.04294  Biso   1.000  He
  Ne598    1.0000 0.10883  0.60852  0.01016  Biso   1.000  Ne
  Ne599    1.0000 0.93277  0.39052  0.80907  Biso   1.000  Ne
  He599    1.0000 0.91530  0.37455  0.78776  Biso   1.000  He
  He600    1.0000 0.88564  0.38738  0.78266  Biso   1.000  He
  Ne600    1.0000 0.86552  0.36873  0.76158  Biso   1.000  Ne
  Ne601    1.0000 0.39140  0.09350  0.96958  Biso   1.000  Ne
  He601    1.0000 0.36504  0.08548  0.98662  Biso   1.000  He
  He602    1.0000 0.35784  0.10842  0.00748  Biso   1.000  He
  Ne602    1.0000 0.33110  0.10253  0.02610  Biso   1.000  Ne
  Ne603    1.0000 0.31407  0.24766  0.83516  Biso   1.000  Ne
  He603    1.0000 0.33326  0.23998  0.80983  Biso   1.000  He
  He604    1.0000 0.31860  0.23152  0.77842  Biso   1.000  He
  Ne604    1.0000 0.34079  0.22740  0.75303  Biso   1.000  Ne
  Ne605    1.0000 0.59719  0.09454  0.63976  Biso   1.000  Ne
  He605    1.0000 0.60985  0.11611  0.66221  Biso   1.000  He
  He606    1.0000 0.62752  0.14255  0.65256  Biso   1.000  He
  Ne606    1.0000 0.63649  0.16559  0.67850  Biso   1.000  Ne
  Ne607    1.0000 0.40310  0.45606  0.45434  Biso   1.000  Ne
  He607    1.0000 0.39582  0.48239  0.47626  Biso   1.000  He
  He608    1.0000 0.41913  0.48482  0.49962  Biso   1.000  He
  Ne608    1.0000 0.41245  0.50697  0.52565  Biso   1.000  Ne
  Ne609    1.0000 0.85201  0.96734  0.74803  Biso   1.000  Ne
  He609    1.0000 0.82853  0.99087  0.75057  Biso   1.000  He
  He610    1.0000 0.80605  0.98597  0.72848  Biso   1.000  He
  Ne610    1.0000 0.78117  0.00826  0.72634  Biso   1.000  Ne
  Ne611    1.0000 0.14375  0.40305  0.07970  Biso   1.000  Ne
  He611    1.0000 0.11474  0.41202  0.09157  Biso   1.000  He
  He612    1.0000 0.09117  0.38912  0.08847  Biso   1.000  He
  Ne612    1.0000 0.05971  0.39856  0.10233  Biso   1.000  Ne
  Ne613    1.0000 0.93363  0.45922  0.54884  Biso   1.000  Ne
  He613    1.0000 0.94760  0.44881  0.52110  Biso   1.000  He
  He614    1.0000 0.96863  0.47389  0.51101  Biso   1.000  He
  Ne614    1.0000 0.97990  0.46931  0.47977  Biso   1.000  Ne
  Ne615    1.0000 0.33434  0.04461  0.39860  Biso   1.000  Ne
  He615    1.0000 0.36716  0.04652  0.39052  Biso   1.000  He
  He616    1.0000 0.37291  0.05555  0.35724  Biso   1.000  He
  Ne616    1.0000 0.40438  0.05346  0.35092  Biso   1.000  Ne
  Ne617    1.0000 0.95022  0.03060  0.72556  Biso   1.000  Ne
  He617    1.0000 0.97294  0.05595  0.72238  Biso   1.000  He
  He618    1.0000 0.96498  0.08285  0.73854  Biso   1.000  He
  Ne618    1.0000 0.98673  0.10844  0.73765  Biso   1.000  Ne
  Ne619    1.0000 0.35616  0.65653  0.70907  Biso   1.000  Ne
  He619    1.0000 0.32369  0.66064  0.71036  Biso   1.000  He
  He620    1.0000 0.30719  0.63879  0.73113  Biso   1.000  He
  Ne620    1.0000 0.30226  0.60590  0.72188  Biso   1.000  Ne
  Ne621    1.0000 0.23776  0.72350  0.33253  Biso   1.000  Ne
  He621    1.0000 0.20529  0.71739  0.33946  Biso   1.000  He
  He622    1.0000 0.19347  0.74134  0.35852  Biso   1.000  He
  Ne622    1.0000 0.16289  0.73689  0.37155  Biso   1.000  Ne
  Ne623    1.0000 0.40593  0.87666  0.78429  Biso   1.000  Ne
  He623    1.0000 0.41719  0.86219  0.75787  Biso   1.000  He
  He624    1.0000 0.40181  0.83278  0.75101  Biso   1.000  He
  Ne624    1.0000 0.41973  0.81372  0.72876  Biso   1.000  Ne
  Ne625    1.0000 0.30056  0.52443  0.75928  Biso   1.000  Ne
  He625    1.0000 0.27964  0.52058  0.73428  Biso   1.000  He
  He626    1.0000 0.25720  0.54320  0.73697  Biso   1.000  He
  Ne626    1.0000 0.23086  0.54098  0.71862  Biso   1.000  Ne
  Ne627    1.0000 0.55981  0.76696  0.81636  Biso   1.000  Ne
  He627    1.0000 0.57230  0.78504  0.84053  Biso   1.000  He
  He628    1.0000 0.56292  0.77829  0.86888  Biso   1.000  He
  Ne628    1.0000 0.57456  0.79802  0.89259  Biso   1.000  Ne
  Ne629    1.0000 0.38419  0.95492  0.25605  Biso   1.000  Ne
  He629    1.0000 0.36060  0.94728  0.23020  Biso   1.000  He
  He630    1.0000 0.36063  0.97419  0.20695  Biso   1.000  He
  Ne630    1.0000 0.33753  0.97258  0.18632  Biso   1.000  Ne
  Ne631    1.0000 0.62078  0.03541  0.15013  Biso   1.000  Ne
  He631    1.0000 0.64806  0.01872  0.15372  Biso   1.000  He
  He632    1.0000 0.66199  0.00675  0.12339  Biso   1.000  He
  Ne632    1.0000 0.68878  0.02384  0.11350  Biso   1.000  Ne
  Ne633    1.0000 0.99641  0.93830  0.09014  Biso   1.000  Ne
  He633    1.0000 0.96751  0.93876  0.07509  Biso   1.000  He
  He634    1.0000 0.95464  0.90789  0.07153  Biso   1.000  He
  Ne634    1.0000 0.92501  0.90723  0.05823  Biso   1.000  Ne
  Ne635    1.0000 0.90427  0.15599  0.77994  Biso   1.000  Ne
  He635    1.0000 0.92084  0.15838  0.80767  Biso   1.000  He
  He636    1.0000 0.90573  0.16065  0.83651  Biso   1.000  He
  Ne636    1.0000 0.92604  0.16281  0.86236  Biso   1.000  Ne
  Ne637    1.0000 0.75218  0.11735  0.72564  Biso   1.000  Ne
  He637    1.0000 0.74232  0.09229  0.74763  Biso   1.000  He
  He638    1.0000 0.72292  0.06878  0.73413  Biso   1.000  He
  Ne638    1.0000 0.71973  0.04344  0.75210  Biso   1.000  Ne
  Ne639    1.0000 0.47112  0.27938  0.40922  Biso   1.000  Ne
  He639    1.0000 0.48289  0.25992  0.43246  Biso   1.000  He
  He640    1.0000 0.45800  0.24826  0.45258  Biso   1.000  He
  Ne640    1.0000 0.46575  0.22576  0.47504  Biso   1.000  Ne
  Ne641    1.0000 0.07451  0.05655  0.80504  Biso   1.000  Ne
  He641    1.0000 0.07826  0.06085  0.77158  Biso   1.000  He
  He642    1.0000 0.06528  0.09071  0.76337  Biso   1.000  He
  Ne642    1.0000 0.07067  0.09742  0.73221  Biso   1.000  Ne
  Ne643    1.0000 0.21770  0.24094  0.02220  Biso   1.000  Ne
  He643    1.0000 0.22367  0.21065  0.00845  Biso   1.000  He
  He644    1.0000 0.22658  0.20901  0.97538  Biso   1.000  He
  Ne644    1.0000 0.22851  0.17958  0.96287  Biso   1.000  Ne
  Ne645    1.0000 0.91716  0.56462  0.74447  Biso   1.000  Ne
  He645    1.0000 0.94224  0.56842  0.76659  Biso   1.000  He
  He646    1.0000 0.92945  0.58073  0.79216  Biso   1.000  He
  Ne646    1.0000 0.94941  0.58632  0.81626  Biso   1.000  Ne
  Ne647    1.0000 0.67146  0.59384  0.60465  Biso   1.000  Ne
  He647    1.0000 0.67892  0.60674  0.57614  Biso   1.000  He
  He648    1.0000 0.67821  0.58387  0.55018  Biso   1.000  He
  Ne648    1.0000 0.69329  0.59553  0.52156  Biso   1.000  Ne
  Ne649    1.0000 0.59387  0.04800  0.33455  Biso   1.000  Ne
  He649    1.0000 0.62342  0.06231  0.32985  Biso   1.000  He
  He650    1.0000 0.64320  0.04636  0.30918  Biso   1.000  He
  Ne650    1.0000 0.67121  0.06571  0.30017  Biso   1.000  Ne
  Ne651    1.0000 0.58428  0.53674  0.78227  Biso   1.000  Ne
  He651    1.0000 0.56880  0.53776  0.80955  Biso   1.000  He
  He652    1.0000 0.58726  0.54434  0.83831  Biso   1.000  He
  Ne652    1.0000 0.56845  0.54337  0.86659  Biso   1.000  Ne
  Ne653    1.0000 0.37709  0.78988  0.29725  Biso   1.000  Ne
  He653    1.0000 0.36237  0.77297  0.32053  Biso   1.000  He
  He654    1.0000 0.33135  0.78283  0.33221  Biso   1.000  He
  Ne654    1.0000 0.32105  0.76518  0.35848  Biso   1.000  Ne
  Ne655    1.0000 0.45855  0.64078  0.55580  Biso   1.000  Ne
  He655    1.0000 0.43881  0.65497  0.53615  Biso   1.000  He
  He656    1.0000 0.45424  0.66978  0.50894  Biso   1.000  He
  Ne656    1.0000 0.43450  0.68783  0.48718  Biso   1.000  Ne
  Ne657    1.0000 0.33800  0.19063  0.65015  Biso   1.000  Ne
  He657    1.0000 0.33269  0.16172  0.63165  Biso   1.000  He
  He658    1.0000 0.34242  0.13638  0.64716  Biso   1.000  He
  Ne658    1.0000 0.34041  0.10801  0.62911  Biso   1.000  Ne
  Ne659    1.0000 0.53516  0.65896  0.49333  Biso   1.000  Ne
  He659    1.0000 0.56327  0.65468  0.50880  Biso   1.000  He
  He660    1.0000 0.55992  0.64621  0.54068  Biso   1.000  He
  Ne660    1.0000 0.58866  0.64367  0.55850  Biso   1.000  Ne
  Ne661    1.0000 0.28771  0.52442  0.47236  Biso   1.000  Ne
  He661    1.0000 0.28164  0.52833  0.50383  Biso   1.000  He
  He662    1.0000 0.29983  0.51102  0.52550  Biso   1.000  He
  Ne662    1.0000 0.28525  0.50501  0.55513  Biso   1.000  Ne
  Ne663    1.0000 0.00072  0.97068  0.68990  Biso   1.000  Ne
  He663    1.0000 0.01660  0.97413  0.65968  Biso   1.000  He
  He664    1.0000 0.02631  0.00486  0.65696  Biso   1.000  He
  Ne664    1.0000 0.04153  0.01409  0.62897  Biso   1.000  Ne
  Ne665    1.0000 0.37312  0.94674  0.86540  Biso   1.000  Ne
  He665    1.0000 0.34397  0.96003  0.87386  Biso   1.000  He
  He666    1.0000 0.33911  0.96335  0.90499  Biso   1.000  He
  Ne666    1.0000 0.31616  0.98797  0.91841  Biso   1.000  Ne
  Ne667    1.0000 0.86299  0.62384  0.62702  Biso   1.000  Ne
  He667    1.0000 0.89234  0.63288  0.61987  Biso   1.000  He
  He668    1.0000 0.90010  0.66677  0.62634  Biso   1.000  He
  Ne668    1.0000 0.93261  0.67613  0.63005  Biso   1.000  Ne
  Ne669    1.0000 0.57196  0.73128  0.23468  Biso   1.000  Ne
  He669    1.0000 0.58779  0.75390  0.25129  Biso   1.000  He
  He670    1.0000 0.61896  0.74849  0.26251  Biso   1.000  He
  Ne670    1.0000 0.63270  0.77270  0.28222  Biso   1.000  Ne
  Ne671    1.0000 0.67213  0.52383  0.77956  Biso   1.000  Ne
  He671    1.0000 0.68425  0.55061  0.79557  Biso   1.000  He
  He672    1.0000 0.67090  0.55288  0.82607  Biso   1.000  He
  Ne672    1.0000 0.68031  0.57985  0.84383  Biso   1.000  Ne
  Ne673    1.0000 0.89506  0.76245  0.78224  Biso   1.000  Ne
  He673    1.0000 0.91572  0.76679  0.80898  Biso   1.000  He
  He674    1.0000 0.94120  0.78461  0.80226  Biso   1.000  He
  Ne674    1.0000 0.96678  0.76325  0.79589  Biso   1.000  Ne
  Ne675    1.0000 0.28432  0.71285  0.85344  Biso   1.000  Ne
  He675    1.0000 0.26227  0.69212  0.83369  Biso   1.000  He
  He676    1.0000 0.22967  0.69334  0.84537  Biso   1.000  He
  Ne676    1.0000 0.20869  0.67219  0.83312  Biso   1.000  Ne
  Ne677    1.0000 0.66207  0.33245  0.81773  Biso   1.000  Ne
  He677    1.0000 0.64816  0.30946  0.79671  Biso   1.000  He
  He678    1.0000 0.61644  0.30240  0.79694  Biso   1.000  He
  Ne678    1.0000 0.60915  0.27450  0.77687  Biso   1.000  Ne
  Ne679    1.0000 0.02445  0.36133  0.52517  Biso   1.000  Ne
  He679    1.0000 0.04721  0.37549  0.50623  Biso   1.000  He
  He680    1.0000 0.07744  0.35791  0.50590  Biso   1.000  He
  Ne680    1.0000 0.10238  0.37071  0.48483  Biso   1.000  Ne
  Ne681    1.0000 0.57878  0.61681  0.88565  Biso   1.000  Ne
  He681    1.0000 0.59232  0.62270  0.91361  Biso   1.000  He
  He682    1.0000 0.57403  0.63457  0.93715  Biso   1.000  He
  Ne682    1.0000 0.59135  0.63771  0.96597  Biso   1.000  Ne
  Ne683    1.0000 0.32911  0.65912  0.61381  Biso   1.000  Ne
  He683    1.0000 0.34968  0.66308  0.58927  Biso   1.000  He
  He684    1.0000 0.33703  0.66104  0.55743  Biso   1.000  He
  Ne684    1.0000 0.35842  0.66869  0.53504  Biso   1.000  Ne
  Ne685    1.0000 0.83578  0.06439  0.79073  Biso   1.000  Ne
  He685    1.0000 0.83714  0.06289  0.82399  Biso   1.000  He
  He686    1.0000 0.83230  0.09329  0.83764  Biso   1.000  He
  Ne686    1.0000 0.83703  0.09513  0.86957  Biso   1.000  Ne
  Ne687    1.0000 0.20676  0.96460  0.39643  Biso   1.000  Ne
  He687    1.0000 0.17999  0.95990  0.37369  Biso   1.000  He
  He688    1.0000 0.15258  0.97673  0.38215  Biso   1.000  He
  Ne688    1.0000 0.12831  0.95842  0.39620  Biso   1.000  Ne
  Ne689    1.0000 0.77676  0.60990  0.20860  Biso   1.000  Ne
  He689    1.0000 0.80142  0.58985  0.20162  Biso   1.000  He
  He690    1.0000 0.79392  0.56009  0.18601  Biso   1.000  He
  Ne690    1.0000 0.81591  0.54415  0.17230  Biso   1.000  Ne
  Ne691    1.0000 0.27818  0.80316  0.82348  Biso   1.000  Ne
  He691    1.0000 0.25117  0.79045  0.83445  Biso   1.000  He
  He692    1.0000 0.23799  0.80530  0.86345  Biso   1.000  He
  Ne692    1.0000 0.21069  0.78975  0.87599  Biso   1.000  Ne
  Ne693    1.0000 0.78838  0.62943  0.04138  Biso   1.000  Ne
  He693    1.0000 0.81036  0.63982  0.06553  Biso   1.000  He
  He694    1.0000 0.82893  0.66533  0.05380  Biso   1.000  He
  Ne694    1.0000 0.85135  0.67146  0.07822  Biso   1.000  Ne
  Ne695    1.0000 0.72728  0.52416  0.58430  Biso   1.000  Ne
  He695    1.0000 0.72922  0.50017  0.60435  Biso   1.000  He
  He696    1.0000 0.71110  0.50451  0.63187  Biso   1.000  He
  Ne696    1.0000 0.71481  0.48089  0.65698  Biso   1.000  Ne
  Ne697    1.0000 0.36111  0.78111  0.86935  Biso   1.000  Ne
  He697    1.0000 0.35817  0.80105  0.89524  Biso   1.000  He
  He698    1.0000 0.33393  0.82408  0.88723  Biso   1.000  He
  Ne698    1.0000 0.32962  0.84720  0.91150  Biso   1.000  Ne
  Ne699    1.0000 0.36773  0.87167  0.27865  Biso   1.000  Ne
  He699    1.0000 0.39302  0.86821  0.30200  Biso   1.000  He
  He700    1.0000 0.40125  0.89193  0.32431  Biso   1.000  He
  Ne700    1.0000 0.42728  0.88861  0.34426  Biso   1.000  Ne
  Ne701    1.0000 0.18131  0.87585  0.14328  Biso   1.000  Ne
  He701    1.0000 0.19093  0.87091  0.17565  Biso   1.000  He
  He702    1.0000 0.17087  0.88780  0.19959  Biso   1.000  He
  Ne702    1.0000 0.17501  0.88218  0.23321  Biso   1.000  Ne
  Ne703    1.0000 0.92091  0.28597  0.65484  Biso   1.000  Ne
  He703    1.0000 0.93689  0.26370  0.63239  Biso   1.000  He
  He704    1.0000 0.94531  0.23628  0.64779  Biso   1.000  He
  Ne704    1.0000 0.95497  0.21099  0.62632  Biso   1.000  Ne
  Ne705    1.0000 0.68673  0.49837  0.41480  Biso   1.000  Ne
  He705    1.0000 0.69856  0.49596  0.44203  Biso   1.000  He
  He706    1.0000 0.71815  0.52444  0.44732  Biso   1.000  He
  Ne706    1.0000 0.73705  0.52645  0.47509  Biso   1.000  Ne
  Ne707    1.0000 0.59350  0.47098  0.10688  Biso   1.000  Ne
  He707    1.0000 0.59660  0.44149  0.09351  Biso   1.000  He
  He708    1.0000 0.56905  0.42909  0.07748  Biso   1.000  He
  Ne708    1.0000 0.57274  0.39714  0.06706  Biso   1.000  Ne
  Ne709    1.0000 0.14451  0.53664  0.45594  Biso   1.000  Ne
  He709    1.0000 0.17148  0.55539  0.46637  Biso   1.000  He
  He710    1.0000 0.19593  0.55698  0.44181  Biso   1.000  He
  Ne710    1.0000 0.22256  0.57943  0.45179  Biso   1.000  Ne
  Ne711    1.0000 0.17092  0.51559  0.05207  Biso   1.000  Ne
  He711    1.0000 0.20109  0.53300  0.05247  Biso   1.000  He
  He712    1.0000 0.20338  0.55658  0.03117  Biso   1.000  He
  Ne712    1.0000 0.23155  0.57463  0.03675  Biso   1.000  Ne
  Ne713    1.0000 0.62263  0.44436  0.53110  Biso   1.000  Ne
  He713    1.0000 0.65216  0.44960  0.52181  Biso   1.000  He
  He714    1.0000 0.67129  0.46954  0.54000  Biso   1.000  He
  Ne714    1.0000 0.70009  0.47479  0.52563  Biso   1.000  Ne
  Ne715    1.0000 0.25446  0.90062  0.66785  Biso   1.000  Ne
  He715    1.0000 0.24040  0.88768  0.64018  Biso   1.000  He
  He716    1.0000 0.23759  0.90997  0.61669  Biso   1.000  He
  Ne716    1.0000 0.22129  0.89746  0.59202  Biso   1.000  Ne
  Ne717    1.0000 0.70394  0.69742  0.26942  Biso   1.000  Ne
  He717    1.0000 0.73190  0.71644  0.27121  Biso   1.000  He
  He718    1.0000 0.72610  0.74960  0.25822  Biso   1.000  He
  Ne718    1.0000 0.75232  0.77102  0.26186  Biso   1.000  Ne
  Ne719    1.0000 0.21369  0.87283  0.41007  Biso   1.000  Ne
  He719    1.0000 0.20031  0.84647  0.42418  Biso   1.000  He
  He720    1.0000 0.17899  0.82818  0.40582  Biso   1.000  He
  Ne720    1.0000 0.16212  0.80505  0.42369  Biso   1.000  Ne
  Ne721    1.0000 0.45944  0.24328  0.98955  Biso   1.000  Ne
  He721    1.0000 0.43064  0.22419  0.98151  Biso   1.000  He
  He722    1.0000 0.43742  0.19013  0.98084  Biso   1.000  He
  Ne722    1.0000 0.41116  0.17329  0.96821  Biso   1.000  Ne
  Ne723    1.0000 0.39880  0.26866  0.92453  Biso   1.000  Ne
  He723    1.0000 0.38384  0.24388  0.91088  Biso   1.000  He
  He724    1.0000 0.40445  0.21941  0.90114  Biso   1.000  He
  Ne724    1.0000 0.38499  0.19123  0.88945  Biso   1.000  Ne
  Ne725    1.0000 0.24975  0.34050  0.98684  Biso   1.000  Ne
  He725    1.0000 0.22198  0.32275  0.98347  Biso   1.000  He
  He726    1.0000 0.22151  0.29883  0.95973  Biso   1.000  He
  Ne726    1.0000 0.19451  0.28332  0.95978  Biso   1.000  Ne
  Ne727    1.0000 0.33144  0.68566  0.34068  Biso   1.000  Ne
  He727    1.0000 0.36108  0.70055  0.34309  Biso   1.000  He
  He728    1.0000 0.38195  0.68900  0.36487  Biso   1.000  He
  Ne728    1.0000 0.41284  0.70482  0.36307  Biso   1.000  Ne
  Ne729    1.0000 0.04238  0.67012  0.15229  Biso   1.000  Ne
  He729    1.0000 0.02605  0.64148  0.13907  Biso   1.000  He
  He730    1.0000 0.04825  0.62126  0.12886  Biso   1.000  He
  Ne730    1.0000 0.03828  0.59419  0.11073  Biso   1.000  Ne
  Ne731    1.0000 0.32600  0.94412  0.98757  Biso   1.000  Ne
  He731    1.0000 0.29459  0.92885  0.98997  Biso   1.000  He
  He732    1.0000 0.29459  0.90905  0.01725  Biso   1.000  He
  Ne732    1.0000 0.26431  0.89133  0.02018  Biso   1.000  Ne
  Ne733    1.0000 0.11028  0.54675  0.11032  Biso   1.000  Ne
  He733    1.0000 0.12894  0.56235  0.13474  Biso   1.000  He
  He734    1.0000 0.11122  0.57521  0.16047  Biso   1.000  He
  Ne734    1.0000 0.12782  0.58588  0.18756  Biso   1.000  Ne
  Ne735    1.0000 0.58885  0.91406  0.57694  Biso   1.000  Ne
  He735    1.0000 0.57780  0.90499  0.60460  Biso   1.000  He
  He736    1.0000 0.56981  0.87394  0.61026  Biso   1.000  He
  Ne736    1.0000 0.55905  0.87157  0.63913  Biso   1.000  Ne
  Ne737    1.0000 0.23010  0.59061  0.13671  Biso   1.000  Ne
  He737    1.0000 0.21489  0.56206  0.14193  Biso   1.000  He
  He738    1.0000 0.23219  0.53704  0.13052  Biso   1.000  He
  Ne738    1.0000 0.21964  0.50681  0.13180  Biso   1.000  Ne
  Ne739    1.0000 0.85889  0.67429  0.16684  Biso   1.000  Ne
  He739    1.0000 0.82913  0.69162  0.17194  Biso   1.000  He
  He740    1.0000 0.81243  0.68262  0.20093  Biso   1.000  He
  Ne740    1.0000 0.78743  0.70181  0.20402  Biso   1.000  Ne
  Ne741    1.0000 0.18201  0.20122  0.42695  Biso   1.000  Ne
  He741    1.0000 0.19263  0.17108  0.43300  Biso   1.000  He
  He742    1.0000 0.17215  0.14690  0.42443  Biso   1.000  He
  Ne742    1.0000 0.18234  0.11651  0.43431  Biso   1.000  Ne
  Ne743    1.0000 0.76275  0.12813  0.90473  Biso   1.000  Ne
  He743    1.0000 0.79061  0.13730  0.92413  Biso   1.000  He
  He744    1.0000 0.78224  0.14108  0.95810  Biso   1.000  He
  Ne744    1.0000 0.80616  0.14952  0.97867  Biso   1.000  Ne
  Ne745    1.0000 0.85924  0.57765  0.33984  Biso   1.000  Ne
  He745    1.0000 0.83400  0.56209  0.35053  Biso   1.000  He
  He746    1.0000 0.81187  0.57915  0.36451  Biso   1.000  He
  Ne746    1.0000 0.78616  0.56133  0.37599  Biso   1.000  Ne
  Ne747    1.0000 0.44690  0.84027  0.02385  Biso   1.000  Ne
  He747    1.0000 0.42443  0.82060  0.01426  Biso   1.000  He
  He748    1.0000 0.39882  0.83137  0.99488  Biso   1.000  He
  Ne748    1.0000 0.37371  0.80761  0.98646  Biso   1.000  Ne
  Ne749    1.0000 0.38408  0.37019  0.32676  Biso   1.000  Ne
  He749    1.0000 0.41608  0.37452  0.33420  Biso   1.000  He
  He750    1.0000 0.42809  0.40123  0.31823  Biso   1.000  He
  Ne750    1.0000 0.46029  0.40794  0.32711  Biso   1.000  Ne
  Ne751    1.0000 0.46419  0.93496  0.90501  Biso   1.000  Ne
  He751    1.0000 0.47214  0.96032  0.88483  Biso   1.000  He
  He752    1.0000 0.48012  0.94670  0.85457  Biso   1.000  He
  Ne752    1.0000 0.48802  0.97247  0.83030  Biso   1.000  Ne
  Ne753    1.0000 0.41579  0.62727  0.15728  Biso   1.000  Ne
  He753    1.0000 0.38713  0.63066  0.14186  Biso   1.000  He
  He754    1.0000 0.36180  0.62126  0.16013  Biso   1.000  He
  Ne754    1.0000 0.33455  0.62202  0.14019  Biso   1.000  Ne
  Ne755    1.0000 0.51942  0.36968  0.58489  Biso   1.000  Ne
  He755    1.0000 0.53962  0.34829  0.56963  Biso   1.000  He
  He756    1.0000 0.53783  0.32016  0.58466  Biso   1.000  He
  Ne756    1.0000 0.55527  0.29328  0.57254  Biso   1.000  Ne
  Ne757    1.0000 0.59394  0.04147  0.72337  Biso   1.000  Ne
  He757    1.0000 0.59214  0.07326  0.73537  Biso   1.000  He
  He758    1.0000 0.62353  0.08480  0.74392  Biso   1.000  He
  Ne758    1.0000 0.62148  0.11648  0.75569  Biso   1.000  Ne
  Ne759    1.0000 0.75673  0.80253  0.96428  Biso   1.000  Ne
  He759    1.0000 0.76937  0.77763  0.94936  Biso   1.000  He
  He760    1.0000 0.75683  0.77100  0.91834  Biso   1.000  He
  Ne760    1.0000 0.77389  0.74661  0.90890  Biso   1.000  Ne
  Ne761    1.0000 0.25997  0.68180  0.43720  Biso   1.000  Ne
  He761    1.0000 0.23043  0.66622  0.43244  Biso   1.000  He
  He762    1.0000 0.21006  0.67441  0.45640  Biso   1.000  He
  Ne762    1.0000 0.18441  0.65326  0.45760  Biso   1.000  Ne
  Ne763    1.0000 0.54778  0.10191  0.85982  Biso   1.000  Ne
  He763    1.0000 0.56249  0.08793  0.83533  Biso   1.000  He
  He764    1.0000 0.56207  0.05584  0.83406  Biso   1.000  He
  Ne764    1.0000 0.57653  0.04509  0.80647  Biso   1.000  Ne
  Ne765    1.0000 0.80390  0.45963  0.19117  Biso   1.000  Ne
  He765    1.0000 0.81888  0.46791  0.16116  Biso   1.000  He
  He766    1.0000 0.84467  0.44449  0.15632  Biso   1.000  He
  Ne766    1.0000 0.86346  0.45208  0.13204  Biso   1.000  Ne
  Ne767    1.0000 0.27268  0.26292  0.67604  Biso   1.000  Ne
  He767    1.0000 0.29877  0.27998  0.66307  Biso   1.000  He
  He768    1.0000 0.32640  0.27269  0.67550  Biso   1.000  He
  Ne768    1.0000 0.35264  0.28966  0.66364  Biso   1.000  Ne
  Ne769    1.0000 0.82070  0.11035  0.23474  Biso   1.000  Ne
  He769    1.0000 0.83112  0.14289  0.23579  Biso   1.000  He
  He770    1.0000 0.85941  0.14446  0.25422  Biso   1.000  He
  Ne770    1.0000 0.87637  0.17605  0.25698  Biso   1.000  Ne
  Ne771    1.0000 0.73060  0.15280  0.16750  Biso   1.000  Ne
  He771    1.0000 0.70168  0.15579  0.17883  Biso   1.000  He
  He772    1.0000 0.68562  0.18351  0.16860  Biso   1.000  He
  Ne772    1.0000 0.65185  0.18658  0.17950  Biso   1.000  Ne
  Ne773    1.0000 0.35064  0.85459  0.61820  Biso   1.000  Ne
  He773    1.0000 0.34695  0.87667  0.64373  Biso   1.000  He
  He774    1.0000 0.35596  0.86466  0.67283  Biso   1.000  He
  Ne774    1.0000 0.35638  0.88539  0.69992  Biso   1.000  Ne
  Ne775    1.0000 0.12214  0.67211  0.32993  Biso   1.000  Ne
  He775    1.0000 0.13745  0.65183  0.30851  Biso   1.000  He
  He776    1.0000 0.11796  0.63026  0.29097  Biso   1.000  He
  Ne776    1.0000 0.13936  0.60970  0.27406  Biso   1.000  Ne
  Ne777    1.0000 0.28777  0.00817  0.11790  Biso   1.000  Ne
  He777    1.0000 0.29386  0.03285  0.13725  Biso   1.000  He
  He778    1.0000 0.32354  0.04548  0.13219  Biso   1.000  He
  Ne778    1.0000 0.32806  0.07237  0.15264  Biso   1.000  Ne
  Ne779    1.0000 0.21837  0.19735  0.29180  Biso   1.000  Ne
  He779    1.0000 0.24705  0.19571  0.30683  Biso   1.000  He
  He780    1.0000 0.24753  0.19345  0.33857  Biso   1.000  He
  Ne780    1.0000 0.27924  0.19358  0.34976  Biso   1.000  Ne
  Ne781    1.0000 0.28345  0.25764  0.14977  Biso   1.000  Ne
  He781    1.0000 0.30806  0.26090  0.17357  Biso   1.000  He
  He782    1.0000 0.33247  0.27844  0.16501  Biso   1.000  He
  Ne782    1.0000 0.35321  0.28249  0.19008  Biso   1.000  Ne
  Ne783    1.0000 0.43384  0.58712  0.61818  Biso   1.000  Ne
  He783    1.0000 0.40180  0.57962  0.60699  Biso   1.000  He
  He784    1.0000 0.39628  0.59278  0.57612  Biso   1.000  He
  Ne784    1.0000 0.36888  0.58519  0.56115  Biso   1.000  Ne
  Ne785    1.0000 0.68287  0.87861  0.42225  Biso   1.000  Ne
  He785    1.0000 0.69818  0.86851  0.44902  Biso   1.000  He
  He786    1.0000 0.72681  0.88411  0.45432  Biso   1.000  He
  Ne786    1.0000 0.74641  0.86890  0.47654  Biso   1.000  Ne
  Ne787    1.0000 0.25507  0.09416  0.97443  Biso   1.000  Ne
  He787    1.0000 0.22485  0.07861  0.97361  Biso   1.000  He
  He788    1.0000 0.22855  0.04604  0.97109  Biso   1.000  He
  Ne788    1.0000 0.19802  0.03319  0.97305  Biso   1.000  Ne
  Ne789    1.0000 0.92466  0.23599  0.12119  Biso   1.000  Ne
  He789    1.0000 0.95714  0.23066  0.11833  Biso   1.000  He
  He790    1.0000 0.96958  0.22975  0.08873  Biso   1.000  He
  Ne790    1.0000 0.00389  0.22634  0.08783  Biso   1.000  Ne
  Ne791    1.0000 0.27147  0.61182  0.88561  Biso   1.000  Ne
  He791    1.0000 0.29904  0.60531  0.90097  Biso   1.000  He
  He792    1.0000 0.29826  0.57494  0.91533  Biso   1.000  He
  Ne792    1.0000 0.32768  0.56679  0.92947  Biso   1.000  Ne
  Ne793    1.0000 0.36986  0.87573  0.07565  Biso   1.000  Ne
  He793    1.0000 0.34020  0.87009  0.08365  Biso   1.000  He
  He794    1.0000 0.32484  0.89732  0.09736  Biso   1.000  He
  Ne794    1.0000 0.29210  0.89841  0.10841  Biso   1.000  Ne
  Ne795    1.0000 0.82732  0.39120  0.09481  Biso   1.000  Ne
  He795    1.0000 0.81810  0.36137  0.08041  Biso   1.000  He
  He796    1.0000 0.82052  0.36109  0.04665  Biso   1.000  He
  Ne796    1.0000 0.81223  0.33010  0.03205  Biso   1.000  Ne
  Ne797    1.0000 0.48059  0.17566  0.12326  Biso   1.000  Ne
  He797    1.0000 0.49373  0.16331  0.09821  Biso   1.000  He
  He798    1.0000 0.48413  0.18148  0.07146  Biso   1.000  He
  Ne798    1.0000 0.49506  0.17011  0.04086  Biso   1.000  Ne
  Ne799    1.0000 0.60569  0.14949  0.03286  Biso   1.000  Ne
  He799    1.0000 0.62274  0.16740  0.00665  Biso   1.000  He
  He800    1.0000 0.60682  0.17266  0.97957  Biso   1.000  He
  Ne800    1.0000 0.62548  0.18655  0.95626  Biso   1.000  Ne
  Ne801    1.0000 0.88947  0.11567  0.95637  Biso   1.000  Ne
  He801    1.0000 0.90169  0.14762  0.95184  Biso   1.000  He
  He802    1.0000 0.92037  0.15758  0.97702  Biso   1.000  He
  Ne802    1.0000 0.93441  0.18789  0.97386  Biso   1.000  Ne
  Ne803    1.0000 0.20142  0.59370  0.35243  Biso   1.000  Ne
  He803    1.0000 0.20902  0.56210  0.34369  Biso   1.000  He
  He804    1.0000 0.19886  0.55907  0.31381  Biso   1.000  He
  Ne804    1.0000 0.20202  0.52958  0.30047  Biso   1.000  Ne
  Ne805    1.0000 0.06738  0.03386  0.97378  Biso   1.000  Ne
  He805    1.0000 0.04863  0.01235  0.95771  Biso   1.000  He
  He806    1.0000 0.01839  0.00628  0.97261  Biso   1.000  He
  Ne806    1.0000 0.99924  0.98017  0.96244  Biso   1.000  Ne
  Ne807    1.0000 0.73447  0.30744  0.84102  Biso   1.000  Ne
  He807    1.0000 0.75177  0.33524  0.83601  Biso   1.000  He
  He808    1.0000 0.73850  0.36212  0.84486  Biso   1.000  He
  Ne808    1.0000 0.76206  0.38748  0.85163  Biso   1.000  Ne
  Ne809    1.0000 0.79891  0.68481  0.34877  Biso   1.000  Ne
  He809    1.0000 0.80613  0.67701  0.31823  Biso   1.000  He
  He810    1.0000 0.83431  0.66270  0.31657  Biso   1.000  He
  Ne810    1.0000 0.83748  0.65553  0.28405  Biso   1.000  Ne
  Ne811    1.0000 0.93371  0.09466  0.19568  Biso   1.000  Ne
  He811    1.0000 0.90972  0.08716  0.21771  Biso   1.000  He
  He812    1.0000 0.90816  0.05697  0.23020  Biso   1.000  He
  Ne812    1.0000 0.87968  0.04866  0.24650  Biso   1.000  Ne
  Ne813    1.0000 0.58622  0.67770  0.37626  Biso   1.000  Ne
  He813    1.0000 0.55454  0.66660  0.37199  Biso   1.000  He
  He814    1.0000 0.53152  0.68017  0.39416  Biso   1.000  He
  Ne814    1.0000 0.49641  0.66993  0.38753  Biso   1.000  Ne
  Ne815    1.0000 0.44081  0.88908  0.66687  Biso   1.000  Ne
  He815    1.0000 0.44482  0.86615  0.64458  Biso   1.000  He
  He816    1.0000 0.42813  0.83647  0.65206  Biso   1.000  He
  Ne816    1.0000 0.42874  0.81322  0.62858  Biso   1.000  Ne
  Ne817    1.0000 0.18645  0.88291  0.72993  Biso   1.000  Ne
  He817    1.0000 0.19087  0.85211  0.72445  Biso   1.000  He
  He818    1.0000 0.17901  0.84284  0.69325  Biso   1.000  He
  Ne818    1.0000 0.17502  0.80939  0.68511  Biso   1.000  Ne
  Ne819    1.0000 0.17344  0.78827  0.97456  Biso   1.000  Ne
  He819    1.0000 0.14177  0.79545  0.96279  Biso   1.000  He
  He820    1.0000 0.11658  0.78128  0.98072  Biso   1.000  He
  Ne820    1.0000 0.08511  0.78656  0.96666  Biso   1.000  Ne
  Ne821    1.0000 0.05085  0.55162  0.49641  Biso   1.000  Ne
  He821    1.0000 0.07046  0.52871  0.51483  Biso   1.000  He
  He822    1.0000 0.07731  0.49911  0.49701  Biso   1.000  He
  Ne822    1.0000 0.09539  0.48030  0.51773  Biso   1.000  Ne
  Ne823    1.0000 0.10061  0.84618  0.38828  Biso   1.000  Ne
  He823    1.0000 0.09711  0.87659  0.40469  Biso   1.000  He
  He824    1.0000 0.11341  0.88137  0.43355  Biso   1.000  He
  Ne824    1.0000 0.10618  0.90936  0.44867  Biso   1.000  Ne
  Ne825    1.0000 0.60555  0.00486  0.63591  Biso   1.000  Ne
  He825    1.0000 0.60965  0.01049  0.60399  Biso   1.000  He
  He826    1.0000 0.58251  0.00993  0.58491  Biso   1.000  He
  Ne826    1.0000 0.58925  0.01728  0.55337  Biso   1.000  Ne
  Ne827    1.0000 0.42671  0.08476  0.08917  Biso   1.000  Ne
  He827    1.0000 0.40211  0.10553  0.09153  Biso   1.000  He
  He828    1.0000 0.40553  0.13718  0.08272  Biso   1.000  He
  Ne828    1.0000 0.38606  0.15675  0.09623  Biso   1.000  Ne
  Ne829    1.0000 0.84833  0.53762  0.69312  Biso   1.000  Ne
  He829    1.0000 0.82349  0.54849  0.67587  Biso   1.000  He
  He830    1.0000 0.82032  0.53356  0.64252  Biso   1.000  He
  Ne830    1.0000 0.79847  0.54473  0.62481  Biso   1.000  Ne
  Ne831    1.0000 0.96874  0.75666  0.60432  Biso   1.000  Ne
  He831    1.0000 0.97818  0.77475  0.57908  Biso   1.000  He
  He832    1.0000 0.99787  0.80053  0.58962  Biso   1.000  He
  Ne832    1.0000 0.00301  0.82624  0.56919  Biso   1.000  Ne
  Ne833    1.0000 0.73603  0.84923  0.64754  Biso   1.000  Ne
  He833    1.0000 0.75223  0.87599  0.64106  Biso   1.000  He
  He834    1.0000 0.78016  0.87151  0.62201  Biso   1.000  He
  Ne834    1.0000 0.79291  0.90045  0.61633  Biso   1.000  Ne
  Ne835    1.0000 0.54309  0.03174  0.46940  Biso   1.000  Ne
  He835    1.0000 0.57072  0.02321  0.45261  Biso   1.000  He
  He836    1.0000 0.59958  0.04176  0.45786  Biso   1.000  He
  Ne836    1.0000 0.62537  0.03186  0.43928  Biso   1.000  Ne
  Ne837    1.0000 0.63719  0.73837  0.87973  Biso   1.000  Ne
  He837    1.0000 0.66434  0.72012  0.88907  Biso   1.000  He
  He838    1.0000 0.66138  0.68534  0.89281  Biso   1.000  He
  Ne838    1.0000 0.69300  0.67076  0.88919  Biso   1.000  Ne
  Ne839    1.0000 0.83010  0.87941  0.88687  Biso   1.000  Ne
  He839    1.0000 0.82587  0.88038  0.91953  Biso   1.000  He
  He840    1.0000 0.85144  0.87126  0.93922  Biso   1.000  He
  Ne840    1.0000 0.84487  0.87414  0.97005  Biso   1.000  Ne
  Ne841    1.0000 0.08144  0.79853  0.68061  Biso   1.000  Ne
  He841    1.0000 0.10120  0.78439  0.70467  Biso   1.000  He
  He842    1.0000 0.09108  0.76472  0.72800  Biso   1.000  He
  Ne842    1.0000 0.10109  0.73182  0.72530  Biso   1.000  Ne
  Ne843    1.0000 0.93003  0.88549  0.24709  Biso   1.000  Ne
  He843    1.0000 0.94466  0.85389  0.25157  Biso   1.000  He
  He844    1.0000 0.92689  0.82984  0.23597  Biso   1.000  He
  Ne844    1.0000 0.94221  0.80092  0.23824  Biso   1.000  Ne
  Ne845    1.0000 0.64169  0.24954  0.65098  Biso   1.000  Ne
  He845    1.0000 0.60742  0.25317  0.64882  Biso   1.000  He
  He846    1.0000 0.59359  0.22779  0.62720  Biso   1.000  He
  Ne846    1.0000 0.56172  0.22962  0.62192  Biso   1.000  Ne
  Ne847    1.0000 0.09912  0.87923  0.22287  Biso   1.000  Ne
  He847    1.0000 0.09087  0.84666  0.22242  Biso   1.000  He
  He848    1.0000 0.11313  0.82352  0.23306  Biso   1.000  He
  Ne848    1.0000 0.10498  0.79213  0.22433  Biso   1.000  Ne
  Ne849    1.0000 0.42669  0.61344  0.79065  Biso   1.000  Ne
  He849    1.0000 0.39656  0.62050  0.80498  Biso   1.000  He
  He850    1.0000 0.37454  0.59229  0.80219  Biso   1.000  He
  Ne850    1.0000 0.34240  0.59977  0.80816  Biso   1.000  Ne
  Ne851    1.0000 0.92284  0.69209  0.40542  Biso   1.000  Ne
  He851    1.0000 0.91036  0.66252  0.39712  Biso   1.000  He
  He852    1.0000 0.93229  0.63863  0.39773  Biso   1.000  He
  Ne852    1.0000 0.92359  0.61067  0.38719  Biso   1.000  Ne
  Ne853    1.0000 0.13961  0.10490  0.96834  Biso   1.000  Ne
  He853    1.0000 0.14890  0.13844  0.96514  Biso   1.000  He
  He854    1.0000 0.13029  0.15777  0.98293  Biso   1.000  He
  Ne854    1.0000 0.13549  0.19090  0.97358  Biso   1.000  Ne
  Ne855    1.0000 0.92377  0.65492  0.92238  Biso   1.000  Ne
  He855    1.0000 0.89188  0.65489  0.91797  Biso   1.000  He
  He856    1.0000 0.87064  0.65332  0.94477  Biso   1.000  He
  Ne856    1.0000 0.83847  0.65176  0.93683  Biso   1.000  Ne
  Ne857    1.0000 0.16934  0.35868  0.40044  Biso   1.000  Ne
  He857    1.0000 0.13706  0.35664  0.39993  Biso   1.000  He
  He858    1.0000 0.12079  0.36726  0.37375  Biso   1.000  He
  Ne858    1.0000 0.08821  0.35893  0.37830  Biso   1.000  Ne
  Ne859    1.0000 0.05189  0.98915  0.34702  Biso   1.000  Ne
  He859    1.0000 0.02913  0.96689  0.34314  Biso   1.000  He
  He860    1.0000 0.04474  0.93689  0.33997  Biso   1.000  He
  Ne860    1.0000 0.02211  0.91352  0.34405  Biso   1.000  Ne
  Ne861    1.0000 0.06091  0.14015  0.65935  Biso   1.000  Ne
  He861    1.0000 0.09005  0.15418  0.65068  Biso   1.000  He
  He862    1.0000 0.10827  0.15943  0.67560  Biso   1.000  He
  Ne862    1.0000 0.13525  0.17289  0.66475  Biso   1.000  Ne
  Ne863    1.0000 0.11509  0.51872  0.61307  Biso   1.000  Ne
  He863    1.0000 0.08546  0.50372  0.62248  Biso   1.000  He
  He864    1.0000 0.06022  0.52303  0.63492  Biso   1.000  He
  Ne864    1.0000 0.02978  0.50643  0.63787  Biso   1.000  Ne
  Ne865    1.0000 0.79575  0.43501  0.01748  Biso   1.000  Ne
  He865    1.0000 0.79658  0.43131  0.98517  Biso   1.000  He
  He866    1.0000 0.81535  0.45628  0.97175  Biso   1.000  He
  Ne866    1.0000 0.81691  0.45909  0.93776  Biso   1.000  Ne
  Ne867    1.0000 0.11654  0.52551  0.70436  Biso   1.000  Ne
  He867    1.0000 0.10924  0.54903  0.72488  Biso   1.000  He
  He868    1.0000 0.11696  0.53981  0.75795  Biso   1.000  He
  Ne868    1.0000 0.11605  0.56379  0.78039  Biso   1.000  Ne
  Ne869    1.0000 0.64017  0.83162  0.62207  Biso   1.000  Ne
  He869    1.0000 0.65364  0.84103  0.64913  Biso   1.000  He
  He870    1.0000 0.63701  0.83929  0.67709  Biso   1.000  He
  Ne870    1.0000 0.65452  0.85142  0.70453  Biso   1.000  Ne
  Ne871    1.0000 0.59501  0.70056  0.81926  Biso   1.000  Ne
  He871    1.0000 0.62027  0.67834  0.81492  Biso   1.000  He
  He872    1.0000 0.61801  0.66014  0.78622  Biso   1.000  He
  Ne872    1.0000 0.64203  0.63703  0.78241  Biso   1.000  Ne
  Ne873    1.0000 0.24989  0.40945  0.04576  Biso   1.000  Ne
  He873    1.0000 0.22828  0.39731  0.06908  Biso   1.000  He
  He874    1.0000 0.24300  0.38560  0.09817  Biso   1.000  He
  Ne874    1.0000 0.21820  0.38064  0.12065  Biso   1.000  Ne
  Ne875    1.0000 0.34330  0.88439  0.46196  Biso   1.000  Ne
  He875    1.0000 0.32795  0.88433  0.43185  Biso   1.000  He
  He876    1.0000 0.34957  0.88288  0.40859  Biso   1.000  He
  Ne876    1.0000 0.33844  0.88168  0.37456  Biso   1.000  Ne
  Ne877    1.0000 0.93173  0.91649  0.33591  Biso   1.000  Ne
  He877    1.0000 0.91414  0.89533  0.34990  Biso   1.000  He
  He878    1.0000 0.90739  0.89933  0.38298  Biso   1.000  He
  Ne878    1.0000 0.88688  0.87463  0.39412  Biso   1.000  Ne
  Ne879    1.0000 0.42524  0.61853  0.37490  Biso   1.000  Ne
  He879    1.0000 0.39973  0.59756  0.37158  Biso   1.000  He
  He880    1.0000 0.37286  0.61170  0.36141  Biso   1.000  He
  Ne880    1.0000 0.34506  0.59232  0.35922  Biso   1.000  Ne
  Ne881    1.0000 0.44037  0.35809  0.23259  Biso   1.000  Ne
  He881    1.0000 0.40958  0.34837  0.23850  Biso   1.000  He
  He882    1.0000 0.38694  0.36491  0.22466  Biso   1.000  He
  Ne882    1.0000 0.35443  0.35916  0.23393  Biso   1.000  Ne
  Ne883    1.0000 0.42680  0.13230  0.44865  Biso   1.000  Ne
  He883    1.0000 0.42008  0.15973  0.46314  Biso   1.000  He
  He884    1.0000 0.39029  0.16833  0.45838  Biso   1.000  He
  Ne884    1.0000 0.38279  0.19714  0.47574  Biso   1.000  Ne
  Ne885    1.0000 0.77177  0.03163  0.39845  Biso   1.000  Ne
  He885    1.0000 0.74532  0.05174  0.39742  Biso   1.000  He
  He886    1.0000 0.71927  0.03779  0.38477  Biso   1.000  He
  Ne886    1.0000 0.69370  0.05840  0.38460  Biso   1.000  Ne
  Ne887    1.0000 0.71759  0.10636  0.98971  Biso   1.000  Ne
  He887    1.0000 0.69825  0.12575  0.00382  Biso   1.000  He
  He888    1.0000 0.70617  0.12926  0.03467  Biso   1.000  He
  Ne888    1.0000 0.68125  0.14261  0.05413  Biso   1.000  Ne
  Ne889    1.0000 0.76333  0.58234  0.78680  Biso   1.000  Ne
  He889    1.0000 0.76849  0.60694  0.76893  Biso   1.000  He
  He890    1.0000 0.79693  0.62188  0.77661  Biso   1.000  He
  Ne890    1.0000 0.80199  0.65104  0.75835  Biso   1.000  Ne
  Ne891    1.0000 0.26703  0.63241  0.98303  Biso   1.000  Ne
  He891    1.0000 0.27424  0.66455  0.97810  Biso   1.000  He
  He892    1.0000 0.30268  0.67516  0.99405  Biso   1.000  He
  Ne892    1.0000 0.30512  0.71011  0.98914  Biso   1.000  Ne
  Ne893    1.0000 0.12036  0.18757  0.16470  Biso   1.000  Ne
  He893    1.0000 0.12566  0.20942  0.18762  Biso   1.000  He
  He894    1.0000 0.10459  0.20804  0.21520  Biso   1.000  He
  Ne894    1.0000 0.11696  0.23000  0.24046  Biso   1.000  Ne
  Ne895    1.0000 0.72705  0.73239  0.62731  Biso   1.000  Ne
  He895    1.0000 0.69845  0.72141  0.63538  Biso   1.000  He
  He896    1.0000 0.69200  0.69331  0.62334  Biso   1.000  He
  Ne896    1.0000 0.66497  0.67886  0.63750  Biso   1.000  Ne
  Ne897    1.0000 0.61489  0.90470  0.24838  Biso   1.000  Ne
  He897    1.0000 0.61438  0.87785  0.22657  Biso   1.000  He
  He898    1.0000 0.58086  0.86863  0.22115  Biso   1.000  He
  Ne898    1.0000 0.57968  0.84196  0.20083  Biso   1.000  Ne
  Ne899    1.0000 0.78596  0.05594  0.47523  Biso   1.000  Ne
  He899    1.0000 0.80187  0.02841  0.47784  Biso   1.000  He
  He900    1.0000 0.83355  0.03393  0.48693  Biso   1.000  He
  Ne900    1.0000 0.85056  0.00620  0.49201  Biso   1.000  Ne
