data_image0
_cell_length_a       47.6205
_cell_length_b       46.8345
_cell_length_c       46.5913
_cell_angle_alpha    90
_cell_angle_beta     90
_cell_angle_gamma    90

_symmetry_space_group_name_H-M    "P 1"
_symmetry_int_tables_number       1

loop_
  _symmetry_equiv_pos_as_xyz
  'x, y, z'

loop_
  _atom_site_label
  _atom_site_occupancy
  _atom_site_fract_x
  _atom_site_fract_y
  _atom_site_fract_z
  _atom_site_thermal_displace_type
  _atom_site_B_iso_or_equiv
  _atom_site_type_symbol
  Ne1      1.0000 0.88111  0.08246  0.55191  Biso   1.000  Ne
  He1      1.0000 0.91058  0.07917  0.53703  Biso   1.000  He
  He2      1.0000 0.93666  0.08424  0.55589  Biso   1.000  He
  Ne2      1.0000 0.96566  0.08026  0.53995  Biso   1.000  Ne
  Ne3      1.0000 0.80042  0.76437  0.34907  Biso   1.000  Ne
  He3      1.0000 0.80861  0.78482  0.32548  Biso   1.000  He
  He4      1.0000 0.80270  0.81726  0.32952  Biso   1.000  He
  Ne4      1.0000 0.81684  0.83398  0.30775  Biso   1.000  Ne
  Ne5      1.0000 0.75558  0.20836  0.84115  Biso   1.000  Ne
  He5      1.0000 0.74053  0.23839  0.83791  Biso   1.000  He
  He6      1.0000 0.70997  0.24029  0.82956  Biso   1.000  He
  Ne6      1.0000 0.70150  0.27220  0.82501  Biso   1.000  Ne
  Ne7      1.0000 0.54940  0.18833  0.78996  Biso   1.000  Ne
  He7      1.0000 0.56882  0.20990  0.80504  Biso   1.000  He
  He8      1.0000 0.55778  0.24239  0.79969  Biso   1.000  He
  Ne8      1.0000 0.57504  0.26135  0.77886  Biso   1.000  Ne
  Ne9      1.0000 0.15347  0.34277  0.41710  Biso   1.000  Ne
  He9      1.0000 0.17972  0.36609  0.41576  Biso   1.000  He
  He10     1.0000 0.17669  0.38705  0.43914  Biso   1.000  He
  Ne10     1.0000 0.19785  0.41178  0.43827  Biso   1.000  Ne
  Ne11     1.0000 0.79936  0.44222  0.03470  Biso   1.000  Ne
  He11     1.0000 0.77826  0.42235  0.05764  Biso   1.000  He
  He12     1.0000 0.78596  0.39269  0.06122  Biso   1.000  He
  Ne12     1.0000 0.76223  0.37621  0.08199  Biso   1.000  Ne
  Ne13     1.0000 0.23436  0.32723  0.34960  Biso   1.000  Ne
  He13     1.0000 0.23635  0.33816  0.31507  Biso   1.000  He
  He14     1.0000 0.26900  0.34712  0.30578  Biso   1.000  He
  Ne14     1.0000 0.26909  0.35148  0.27344  Biso   1.000  Ne
  Ne15     1.0000 0.40078  0.16688  0.58903  Biso   1.000  Ne
  He15     1.0000 0.39532  0.13283  0.58842  Biso   1.000  He
  He16     1.0000 0.42133  0.11439  0.59021  Biso   1.000  He
  Ne16     1.0000 0.41456  0.07998  0.58680  Biso   1.000  Ne
  Ne17     1.0000 0.62724  0.16339  0.76483  Biso   1.000  Ne
  He17     1.0000 0.65709  0.17899  0.76856  Biso   1.000  He
  He18     1.0000 0.68568  0.15763  0.76581  Biso   1.000  He
  Ne18     1.0000 0.71203  0.17575  0.77264  Biso   1.000  Ne
  Ne19     1.0000 0.54771  0.07886  0.24781  Biso   1.000  Ne
  He19     1.0000 0.55303  0.10767  0.23032  Biso   1.000  He
  He20     1.0000 0.53723  0.13200  0.24028  Biso   1.000  He
  Ne20     1.0000 0.53840  0.15726  0.21920  Biso   1.000  Ne
  Ne21     1.0000 0.91878  0.43976  0.22933  Biso   1.000  Ne
  He21     1.0000 0.90228  0.41042  0.22873  Biso   1.000  He
  He22     1.0000 0.87016  0.40649  0.21596  Biso   1.000  He
  Ne22     1.0000 0.86913  0.37445  0.21611  Biso   1.000  Ne
  Ne23     1.0000 0.69157  0.41234  0.35137  Biso   1.000  Ne
  He23     1.0000 0.72015  0.41627  0.33042  Biso   1.000  He
  He24     1.0000 0.74601  0.39440  0.33089  Biso   1.000  He
  Ne24     1.0000 0.77511  0.40325  0.31626  Biso   1.000  Ne
  Ne25     1.0000 0.80825  0.34291  0.99125  Biso   1.000  Ne
  He25     1.0000 0.77815  0.34941  0.97451  Biso   1.000  He
  He26     1.0000 0.77453  0.38254  0.96326  Biso   1.000  He
  Ne26     1.0000 0.74535  0.38585  0.95017  Biso   1.000  Ne
  Ne27     1.0000 0.91215  0.17740  0.20067  Biso   1.000  Ne
  He27     1.0000 0.93078  0.19864  0.18114  Biso   1.000  He
  He28     1.0000 0.91515  0.20273  0.15523  Biso   1.000  He
  Ne28     1.0000 0.93516  0.21472  0.13281  Biso   1.000  Ne
  Ne29     1.0000 0.98455  0.70251  0.90216  Biso   1.000  Ne
  He29     1.0000 0.96033  0.68077  0.90616  Biso   1.000  He
  He30     1.0000 0.95970  0.66139  0.93496  Biso   1.000  He
  Ne30     1.0000 0.93577  0.64034  0.94150  Biso   1.000  Ne
  Ne31     1.0000 0.28044  0.82445  0.16834  Biso   1.000  Ne
  He31     1.0000 0.24808  0.81718  0.17097  Biso   1.000  He
  He32     1.0000 0.24271  0.78571  0.17431  Biso   1.000  He
  Ne32     1.0000 0.21003  0.77717  0.17605  Biso   1.000  Ne
  Ne33     1.0000 0.37777  0.42860  0.94158  Biso   1.000  Ne
  He33     1.0000 0.38799  0.41639  0.91415  Biso   1.000  He
  He34     1.0000 0.38556  0.43599  0.88812  Biso   1.000  He
  Ne34     1.0000 0.40212  0.41668  0.86216  Biso   1.000  Ne
  Ne35     1.0000 0.36878  0.72450  0.42441  Biso   1.000  Ne
  He35     1.0000 0.38327  0.70129  0.43994  Biso   1.000  He
  He36     1.0000 0.37106  0.67176  0.43739  Biso   1.000  He
  Ne36     1.0000 0.38599  0.64409  0.45033  Biso   1.000  Ne
  Ne37     1.0000 0.14949  0.40826  0.34258  Biso   1.000  Ne
  He37     1.0000 0.12381  0.42954  0.33433  Biso   1.000  He
  He38     1.0000 0.10698  0.42140  0.30568  Biso   1.000  He
  Ne38     1.0000 0.08324  0.44147  0.29801  Biso   1.000  Ne
  Ne39     1.0000 0.70032  0.39852  0.78715  Biso   1.000  Ne
  He39     1.0000 0.70194  0.41631  0.81473  Biso   1.000  He
  He40     1.0000 0.71986  0.40182  0.83613  Biso   1.000  He
  Ne40     1.0000 0.72353  0.41872  0.86368  Biso   1.000  Ne
  Ne41     1.0000 0.20393  0.44732  0.15565  Biso   1.000  Ne
  He41     1.0000 0.20645  0.43812  0.12454  Biso   1.000  He
  He42     1.0000 0.17594  0.42911  0.11189  Biso   1.000  He
  Ne42     1.0000 0.17821  0.41760  0.07892  Biso   1.000  Ne
  Ne43     1.0000 0.13270  0.42221  0.60291  Biso   1.000  Ne
  He43     1.0000 0.15908  0.40559  0.61036  Biso   1.000  He
  He44     1.0000 0.18643  0.42062  0.59732  Biso   1.000  He
  Ne44     1.0000 0.21484  0.40456  0.60351  Biso   1.000  Ne
  Ne45     1.0000 0.36370  0.70967  0.11673  Biso   1.000  Ne
  He45     1.0000 0.38894  0.69236  0.12487  Biso   1.000  He
  He46     1.0000 0.38522  0.67097  0.15032  Biso   1.000  He
  Ne46     1.0000 0.41104  0.65182  0.15989  Biso   1.000  Ne
  Ne47     1.0000 0.79471  0.91841  0.92767  Biso   1.000  Ne
  He47     1.0000 0.80734  0.89321  0.90883  Biso   1.000  He
  He48     1.0000 0.82319  0.90359  0.88001  Biso   1.000  He
  Ne48     1.0000 0.83429  0.88141  0.85907  Biso   1.000  Ne
  Ne49     1.0000 0.80711  0.13203  0.50973  Biso   1.000  Ne
  He49     1.0000 0.83188  0.15215  0.49684  Biso   1.000  He
  He50     1.0000 0.82780  0.16299  0.46457  Biso   1.000  He
  Ne50     1.0000 0.85108  0.18699  0.45879  Biso   1.000  Ne
  Ne51     1.0000 0.23108  0.26889  0.68717  Biso   1.000  Ne
  He51     1.0000 0.24877  0.27616  0.71337  Biso   1.000  He
  He52     1.0000 0.27622  0.29534  0.70638  Biso   1.000  He
  Ne52     1.0000 0.29789  0.29783  0.73244  Biso   1.000  Ne
  Ne53     1.0000 0.90879  0.75169  0.61228  Biso   1.000  Ne
  He53     1.0000 0.92993  0.76119  0.58586  Biso   1.000  He
  He54     1.0000 0.92727  0.79373  0.57199  Biso   1.000  He
  Ne54     1.0000 0.95396  0.80465  0.55551  Biso   1.000  Ne
  Ne55     1.0000 0.92757  0.44755  0.78645  Biso   1.000  Ne
  He55     1.0000 0.90114  0.43445  0.77153  Biso   1.000  He
  He56     1.0000 0.89564  0.40173  0.78136  Biso   1.000  He
  Ne56     1.0000 0.86858  0.39000  0.76772  Biso   1.000  Ne
  Ne57     1.0000 0.41575  0.90294  0.57682  Biso   1.000  Ne
  He57     1.0000 0.39210  0.92648  0.58337  Biso   1.000  He
  He58     1.0000 0.36197  0.91195  0.58638  Biso   1.000  He
  Ne58     1.0000 0.33805  0.93203  0.59534  Biso   1.000  Ne
  Ne59     1.0000 0.36805  0.69996  0.68355  Biso   1.000  Ne
  He59     1.0000 0.36254  0.72335  0.66085  Biso   1.000  He
  He60     1.0000 0.38569  0.74663  0.65912  Biso   1.000  He
  Ne60     1.0000 0.37665  0.77339  0.67540  Biso   1.000  Ne
  Ne61     1.0000 0.89074  0.73669  0.94090  Biso   1.000  Ne
  He61     1.0000 0.88616  0.76932  0.94788  Biso   1.000  He
  He62     1.0000 0.86388  0.78277  0.93314  Biso   1.000  He
  Ne62     1.0000 0.85945  0.81567  0.93830  Biso   1.000  Ne
  Ne63     1.0000 0.14032  0.20426  0.49173  Biso   1.000  Ne
  He63     1.0000 0.16357  0.18822  0.47029  Biso   1.000  He
  He64     1.0000 0.15591  0.18593  0.43720  Biso   1.000  He
  Ne64     1.0000 0.17916  0.16806  0.41837  Biso   1.000  Ne
  Ne65     1.0000 0.92337  0.27756  0.83558  Biso   1.000  Ne
  He65     1.0000 0.93210  0.30290  0.81397  Biso   1.000  He
  He66     1.0000 0.95780  0.31995  0.81988  Biso   1.000  He
  Ne66     1.0000 0.96173  0.34722  0.79799  Biso   1.000  Ne
  Ne67     1.0000 0.59264  0.08429  0.57697  Biso   1.000  Ne
  He67     1.0000 0.59530  0.11814  0.57808  Biso   1.000  He
  He68     1.0000 0.59085  0.13139  0.60952  Biso   1.000  He
  Ne68     1.0000 0.59233  0.16431  0.61288  Biso   1.000  Ne
  Ne69     1.0000 0.14251  0.29731  0.73412  Biso   1.000  Ne
  He69     1.0000 0.13607  0.31184  0.70562  Biso   1.000  He
  He70     1.0000 0.15482  0.30482  0.67980  Biso   1.000  He
  Ne70     1.0000 0.14378  0.31646  0.65113  Biso   1.000  Ne
  Ne71     1.0000 0.09075  0.68009  0.60452  Biso   1.000  Ne
  He71     1.0000 0.11965  0.69027  0.62213  Biso   1.000  He
  He72     1.0000 0.11968  0.68382  0.65512  Biso   1.000  He
  Ne72     1.0000 0.14656  0.70079  0.67250  Biso   1.000  Ne
  Ne73     1.0000 0.08567  0.82195  0.19665  Biso   1.000  Ne
  He73     1.0000 0.08519  0.81287  0.22854  Biso   1.000  He
  He74     1.0000 0.07208  0.83175  0.25172  Biso   1.000  He
  Ne74     1.0000 0.06935  0.81712  0.28075  Biso   1.000  Ne
  Ne75     1.0000 0.57069  0.71232  0.11036  Biso   1.000  Ne
  He75     1.0000 0.57100  0.70998  0.14331  Biso   1.000  He
  He76     1.0000 0.58339  0.68476  0.15533  Biso   1.000  He
  Ne76     1.0000 0.55688  0.66506  0.16475  Biso   1.000  Ne
  Ne77     1.0000 0.65994  0.16457  0.87034  Biso   1.000  Ne
  He77     1.0000 0.65468  0.19006  0.89267  Biso   1.000  He
  He78     1.0000 0.64538  0.21995  0.88163  Biso   1.000  He
  Ne78     1.0000 0.64040  0.24567  0.90299  Biso   1.000  Ne
  Ne79     1.0000 0.19404  0.06120  0.33008  Biso   1.000  Ne
  He79     1.0000 0.21246  0.06997  0.35657  Biso   1.000  He
  He80     1.0000 0.24461  0.07786  0.34813  Biso   1.000  He
  Ne80     1.0000 0.25963  0.08981  0.37546  Biso   1.000  Ne
  Ne81     1.0000 0.41672  0.44252  0.08612  Biso   1.000  Ne
  He81     1.0000 0.43250  0.41571  0.09621  Biso   1.000  He
  He82     1.0000 0.41749  0.38604  0.09234  Biso   1.000  He
  Ne82     1.0000 0.42191  0.36989  0.06569  Biso   1.000  Ne
  Ne83     1.0000 0.55910  0.33581  0.19781  Biso   1.000  Ne
  He83     1.0000 0.54950  0.33099  0.23015  Biso   1.000  He
  He84     1.0000 0.54839  0.29972  0.24534  Biso   1.000  He
  Ne84     1.0000 0.53683  0.30102  0.27863  Biso   1.000  Ne
  Ne85     1.0000 0.65888  0.84901  0.02101  Biso   1.000  Ne
  He85     1.0000 0.67319  0.86768  0.99783  Biso   1.000  He
  He86     1.0000 0.68961  0.85223  0.97511  Biso   1.000  He
  Ne86     1.0000 0.71515  0.86936  0.95822  Biso   1.000  Ne
  Ne87     1.0000 0.89533  0.46685  0.91414  Biso   1.000  Ne
  He87     1.0000 0.92540  0.48010  0.91984  Biso   1.000  He
  He88     1.0000 0.95175  0.46666  0.90635  Biso   1.000  He
  Ne88     1.0000 0.98002  0.48342  0.91327  Biso   1.000  Ne
  Ne89     1.0000 0.53010  0.93562  0.42861  Biso   1.000  Ne
  He89     1.0000 0.51729  0.92853  0.45571  Biso   1.000  He
  He90     1.0000 0.53626  0.93114  0.48476  Biso   1.000  He
  Ne90     1.0000 0.51938  0.92243  0.51071  Biso   1.000  Ne
  Ne91     1.0000 0.34786  0.83267  0.79336  Biso   1.000  Ne
  He91     1.0000 0.35609  0.80101  0.79353  Biso   1.000  He
  He92     1.0000 0.33267  0.78174  0.79997  Biso   1.000  He
  Ne92     1.0000 0.33939  0.74864  0.80107  Biso   1.000  Ne
  Ne93     1.0000 0.56896  0.62034  0.75413  Biso   1.000  Ne
  He93     1.0000 0.56234  0.63710  0.78236  Biso   1.000  He
  He94     1.0000 0.58279  0.62817  0.80798  Biso   1.000  He
  Ne94     1.0000 0.57881  0.64643  0.83676  Biso   1.000  Ne
  Ne95     1.0000 0.91409  0.58659  0.85948  Biso   1.000  Ne
  He95     1.0000 0.92005  0.60769  0.83566  Biso   1.000  He
  He96     1.0000 0.92861  0.63586  0.84635  Biso   1.000  He
  Ne96     1.0000 0.94004  0.65595  0.82460  Biso   1.000  Ne
  Ne97     1.0000 0.38404  0.64130  0.84705  Biso   1.000  Ne
  He97     1.0000 0.38957  0.65231  0.81893  Biso   1.000  He
  He98     1.0000 0.39304  0.68760  0.81358  Biso   1.000  He
  Ne98     1.0000 0.39877  0.69120  0.78260  Biso   1.000  Ne
  Ne99     1.0000 0.92645  0.42575  0.53472  Biso   1.000  Ne
  He99     1.0000 0.95816  0.42010  0.53413  Biso   1.000  He
  He100    1.0000 0.97650  0.44796  0.53845  Biso   1.000  He
  Ne100    1.0000 0.00950  0.44024  0.53907  Biso   1.000  Ne
  Ne101    1.0000 0.52873  0.42784  0.51471  Biso   1.000  Ne
  He101    1.0000 0.52589  0.39793  0.49865  Biso   1.000  He
  He102    1.0000 0.49414  0.39251  0.49019  Biso   1.000  He
  Ne102    1.0000 0.48760  0.36619  0.47185  Biso   1.000  Ne
  Ne103    1.0000 0.97458  0.44833  0.17181  Biso   1.000  Ne
  He103    1.0000 0.97555  0.41660  0.17010  Biso   1.000  He
  He104    1.0000 0.94857  0.40311  0.15297  Biso   1.000  He
  Ne104    1.0000 0.94624  0.36968  0.15407  Biso   1.000  Ne
  Ne105    1.0000 0.91505  0.90821  0.86371  Biso   1.000  Ne
  He105    1.0000 0.91392  0.88781  0.83953  Biso   1.000  He
  He106    1.0000 0.90817  0.90422  0.81240  Biso   1.000  He
  Ne106    1.0000 0.90066  0.88830  0.78326  Biso   1.000  Ne
  Ne107    1.0000 0.26793  0.61749  0.41999  Biso   1.000  Ne
  He107    1.0000 0.27852  0.58761  0.40921  Biso   1.000  He
  He108    1.0000 0.29020  0.56846  0.43291  Biso   1.000  He
  Ne108    1.0000 0.29908  0.53672  0.42440  Biso   1.000  Ne
  Ne109    1.0000 0.80497  0.18392  0.15402  Biso   1.000  Ne
  He109    1.0000 0.82727  0.18600  0.17785  Biso   1.000  He
  He110    1.0000 0.83713  0.21720  0.17798  Biso   1.000  He
  Ne110    1.0000 0.85311  0.22726  0.20435  Biso   1.000  Ne
  Ne111    1.0000 0.07831  0.71944  0.43247  Biso   1.000  Ne
  He111    1.0000 0.05865  0.69120  0.43130  Biso   1.000  He
  He112    1.0000 0.07386  0.66016  0.42843  Biso   1.000  He
  Ne112    1.0000 0.05656  0.63383  0.42163  Biso   1.000  Ne
  Ne113    1.0000 0.63884  0.40880  0.18629  Biso   1.000  Ne
  He113    1.0000 0.62312  0.38815  0.20766  Biso   1.000  He
  He114    1.0000 0.61017  0.40338  0.23477  Biso   1.000  He
  Ne114    1.0000 0.59617  0.38536  0.25730  Biso   1.000  Ne
  Ne115    1.0000 0.08493  0.78607  0.10318  Biso   1.000  Ne
  He115    1.0000 0.10235  0.81251  0.09606  Biso   1.000  He
  He116    1.0000 0.13420  0.81278  0.10796  Biso   1.000  He
  Ne116    1.0000 0.15325  0.83830  0.09757  Biso   1.000  Ne
  Ne117    1.0000 0.56461  0.40859  0.95895  Biso   1.000  Ne
  He117    1.0000 0.56640  0.38918  0.93243  Biso   1.000  He
  He118    1.0000 0.58372  0.36112  0.93636  Biso   1.000  He
  Ne118    1.0000 0.58343  0.34526  0.90756  Biso   1.000  Ne
  Ne119    1.0000 0.83557  0.28242  0.58203  Biso   1.000  Ne
  He119    1.0000 0.82949  0.25221  0.59010  Biso   1.000  He
  He120    1.0000 0.83388  0.22753  0.56824  Biso   1.000  He
  Ne120    1.0000 0.82132  0.19811  0.57537  Biso   1.000  Ne
  Ne121    1.0000 0.56090  0.25638  0.61814  Biso   1.000  Ne
  He121    1.0000 0.57377  0.25839  0.58900  Biso   1.000  He
  He122    1.0000 0.60646  0.26006  0.58884  Biso   1.000  He
  Ne122    1.0000 0.62142  0.25924  0.55855  Biso   1.000  Ne
  Ne123    1.0000 0.66495  0.08180  0.76662  Biso   1.000  Ne
  He123    1.0000 0.64165  0.08239  0.79170  Biso   1.000  He
  He124    1.0000 0.65172  0.09215  0.81893  Biso   1.000  He
  Ne124    1.0000 0.63043  0.09065  0.84325  Biso   1.000  Ne
  Ne125    1.0000 0.10311  0.79356  0.83961  Biso   1.000  Ne
  He125    1.0000 0.07629  0.78175  0.82459  Biso   1.000  He
  He126    1.0000 0.07206  0.79457  0.79289  Biso   1.000  He
  Ne126    1.0000 0.04607  0.78634  0.77529  Biso   1.000  Ne
  Ne127    1.0000 0.57957  0.26402  0.06657  Biso   1.000  Ne
  He127    1.0000 0.58820  0.29585  0.07126  Biso   1.000  He
  He128    1.0000 0.56517  0.30971  0.08583  Biso   1.000  He
  Ne128    1.0000 0.56776  0.34433  0.08468  Biso   1.000  Ne
  Ne129    1.0000 0.24616  0.66062  0.93547  Biso   1.000  Ne
  He129    1.0000 0.21476  0.67330  0.93288  Biso   1.000  He
  He130    1.0000 0.21111  0.69921  0.95066  Biso   1.000  He
  Ne130    1.0000 0.18302  0.71478  0.94646  Biso   1.000  Ne
  Ne131    1.0000 0.31150  0.95536  0.20534  Biso   1.000  Ne
  He131    1.0000 0.28331  0.94253  0.20017  Biso   1.000  He
  He132    1.0000 0.27732  0.91523  0.21585  Biso   1.000  He
  Ne132    1.0000 0.24375  0.90243  0.21490  Biso   1.000  Ne
  Ne133    1.0000 0.07648  0.05887  0.76580  Biso   1.000  Ne
  He133    1.0000 0.06264  0.06720  0.73598  Biso   1.000  He
  He134    1.0000 0.03178  0.06635  0.73434  Biso   1.000  He
  Ne134    1.0000 0.01999  0.07195  0.70444  Biso   1.000  Ne
  Ne135    1.0000 0.89145  0.71293  0.45396  Biso   1.000  Ne
  He135    1.0000 0.86472  0.72782  0.46816  Biso   1.000  He
  He136    1.0000 0.84572  0.74863  0.45086  Biso   1.000  He
  Ne136    1.0000 0.81639  0.75485  0.46557  Biso   1.000  Ne
  Ne137    1.0000 0.66427  0.13121  0.03589  Biso   1.000  Ne
  He137    1.0000 0.68261  0.14358  0.06257  Biso   1.000  He
  He138    1.0000 0.68699  0.12173  0.08589  Biso   1.000  He
  Ne138    1.0000 0.71680  0.10751  0.08351  Biso   1.000  Ne
  Ne139    1.0000 0.88830  0.78474  0.10770  Biso   1.000  Ne
  He139    1.0000 0.85965  0.79528  0.11491  Biso   1.000  He
  He140    1.0000 0.85570  0.79581  0.14875  Biso   1.000  He
  Ne140    1.0000 0.83769  0.82031  0.16196  Biso   1.000  Ne
  Ne141    1.0000 0.83019  0.61647  0.87255  Biso   1.000  Ne
  He141    1.0000 0.82570  0.64850  0.87870  Biso   1.000  He
  He142    1.0000 0.82880  0.66921  0.85148  Biso   1.000  He
  Ne142    1.0000 0.81761  0.69879  0.86023  Biso   1.000  Ne
  Ne143    1.0000 0.72730  0.74598  0.84242  Biso   1.000  Ne
  He143    1.0000 0.72029  0.73724  0.80976  Biso   1.000  He
  He144    1.0000 0.74508  0.73744  0.79090  Biso   1.000  He
  Ne144    1.0000 0.73775  0.73086  0.75854  Biso   1.000  Ne
  Ne145    1.0000 0.89428  0.26078  0.31726  Biso   1.000  Ne
  He145    1.0000 0.90807  0.23051  0.31206  Biso   1.000  He
  He146    1.0000 0.92514  0.22778  0.28335  Biso   1.000  He
  Ne146    1.0000 0.94033  0.19761  0.27921  Biso   1.000  Ne
  Ne147    1.0000 0.41732  0.60064  0.94167  Biso   1.000  Ne
  He147    1.0000 0.40826  0.57520  0.96006  Biso   1.000  He
  He148    1.0000 0.40516  0.54499  0.94408  Biso   1.000  He
  Ne148    1.0000 0.39052  0.51900  0.96186  Biso   1.000  Ne
  Ne149    1.0000 0.92670  0.01612  0.07523  Biso   1.000  Ne
  He149    1.0000 0.95204  0.03259  0.06283  Biso   1.000  He
  He150    1.0000 0.95027  0.06626  0.06958  Biso   1.000  He
  Ne150    1.0000 0.97858  0.08154  0.05692  Biso   1.000  Ne
  Ne151    1.0000 0.27970  0.74500  0.09522  Biso   1.000  Ne
  He151    1.0000 0.25200  0.75929  0.08849  Biso   1.000  He
  He152    1.0000 0.25289  0.78998  0.08683  Biso   1.000  He
  Ne152    1.0000 0.22444  0.80080  0.07801  Biso   1.000  Ne
  Ne153    1.0000 0.08909  0.17245  0.09621  Biso   1.000  Ne
  He153    1.0000 0.08725  0.18551  0.12559  Biso   1.000  He
  He154    1.0000 0.08661  0.16169  0.14983  Biso   1.000  He
  Ne154    1.0000 0.09660  0.17364  0.17818  Biso   1.000  Ne
  Ne155    1.0000 0.13373  0.30476  0.88624  Biso   1.000  Ne
  He155    1.0000 0.16171  0.29028  0.87290  Biso   1.000  He
  He156    1.0000 0.17074  0.30368  0.84365  Biso   1.000  He
  Ne156    1.0000 0.19543  0.28527  0.82977  Biso   1.000  Ne
  Ne157    1.0000 0.78088  0.82410  0.86287  Biso   1.000  Ne
  He157    1.0000 0.76246  0.81608  0.89014  Biso   1.000  He
  He158    1.0000 0.73013  0.80531  0.88946  Biso   1.000  He
  Ne158    1.0000 0.71550  0.80010  0.91947  Biso   1.000  Ne
  Ne159    1.0000 0.69879  0.69773  0.91734  Biso   1.000  Ne
  He159    1.0000 0.72792  0.71151  0.91926  Biso   1.000  He
  He160    1.0000 0.74762  0.70023  0.94194  Biso   1.000  He
  Ne160    1.0000 0.77589  0.71833  0.94584  Biso   1.000  Ne
  Ne161    1.0000 0.34764  0.24375  0.89759  Biso   1.000  Ne
  He161    1.0000 0.31459  0.24672  0.89874  Biso   1.000  He
  He162    1.0000 0.30256  0.23993  0.92816  Biso   1.000  He
  Ne162    1.0000 0.27047  0.24101  0.92616  Biso   1.000  Ne
  Ne163    1.0000 0.66179  0.24943  0.06730  Biso   1.000  Ne
  He163    1.0000 0.68878  0.23358  0.05445  Biso   1.000  He
  He164    1.0000 0.71466  0.22964  0.07310  Biso   1.000  He
  Ne164    1.0000 0.73694  0.20944  0.05778  Biso   1.000  Ne
  Ne165    1.0000 0.86492  0.59461  0.70343  Biso   1.000  Ne
  He165    1.0000 0.87801  0.61120  0.72867  Biso   1.000  He
  He166    1.0000 0.86569  0.64253  0.73157  Biso   1.000  He
  Ne166    1.0000 0.87855  0.66147  0.75721  Biso   1.000  Ne
  Ne167    1.0000 0.91434  0.54658  0.42501  Biso   1.000  Ne
  He167    1.0000 0.91331  0.57556  0.41031  Biso   1.000  He
  He168    1.0000 0.89843  0.59999  0.42680  Biso   1.000  He
  Ne168    1.0000 0.90542  0.63244  0.41433  Biso   1.000  Ne
  Ne169    1.0000 0.18732  0.18732  0.91655  Biso   1.000  Ne
  He169    1.0000 0.15602  0.19402  0.90541  Biso   1.000  He
  He170    1.0000 0.13566  0.16781  0.90539  Biso   1.000  He
  Ne170    1.0000 0.10383  0.17608  0.89417  Biso   1.000  Ne
  Ne171    1.0000 0.08444  0.91829  0.19704  Biso   1.000  Ne
  He171    1.0000 0.09518  0.92252  0.16699  Biso   1.000  He
  He172    1.0000 0.08339  0.90100  0.14357  Biso   1.000  He
  Ne172    1.0000 0.09642  0.90777  0.11316  Biso   1.000  Ne
  Ne173    1.0000 0.74416  0.06961  0.59443  Biso   1.000  Ne
  He173    1.0000 0.71268  0.07688  0.58623  Biso   1.000  He
  He174    1.0000 0.69167  0.07728  0.60884  Biso   1.000  He
  Ne174    1.0000 0.66331  0.07840  0.59766  Biso   1.000  Ne
  Ne175    1.0000 0.86239  0.35218  0.12195  Biso   1.000  Ne
  He175    1.0000 0.83758  0.33927  0.10618  Biso   1.000  He
  He176    1.0000 0.81505  0.32461  0.12764  Biso   1.000  He
  Ne176    1.0000 0.79381  0.30475  0.11179  Biso   1.000  Ne
  Ne177    1.0000 0.30441  0.90733  0.33841  Biso   1.000  Ne
  He177    1.0000 0.30482  0.89441  0.36836  Biso   1.000  He
  He178    1.0000 0.30265  0.91397  0.39510  Biso   1.000  He
  Ne178    1.0000 0.30658  0.90072  0.42717  Biso   1.000  Ne
  Ne179    1.0000 0.80734  0.47582  0.91350  Biso   1.000  Ne
  He179    1.0000 0.80331  0.49889  0.93777  Biso   1.000  He
  He180    1.0000 0.79636  0.53014  0.92808  Biso   1.000  He
  Ne180    1.0000 0.79151  0.55087  0.95240  Biso   1.000  Ne
  Ne181    1.0000 0.10816  0.57572  0.71882  Biso   1.000  Ne
  He181    1.0000 0.09153  0.59017  0.69732  Biso   1.000  He
  He182    1.0000 0.06010  0.58507  0.70312  Biso   1.000  He
  Ne182    1.0000 0.03823  0.60181  0.68343  Biso   1.000  Ne
  Ne183    1.0000 0.54810  0.43017  0.12233  Biso   1.000  Ne
  He183    1.0000 0.55327  0.43326  0.08940  Biso   1.000  He
  He184    1.0000 0.52848  0.45113  0.07725  Biso   1.000  He
  Ne184    1.0000 0.52706  0.45667  0.04576  Biso   1.000  Ne
  Ne185    1.0000 0.54336  0.09477  0.44544  Biso   1.000  Ne
  He185    1.0000 0.57541  0.08949  0.43928  Biso   1.000  He
  He186    1.0000 0.58209  0.05606  0.44389  Biso   1.000  He
  Ne186    1.0000 0.61416  0.04494  0.43658  Biso   1.000  Ne
  Ne187    1.0000 0.53941  0.54019  0.11464  Biso   1.000  Ne
  He187    1.0000 0.57314  0.54640  0.11684  Biso   1.000  He
  He188    1.0000 0.58593  0.56046  0.08847  Biso   1.000  He
  Ne188    1.0000 0.61709  0.57175  0.08762  Biso   1.000  Ne
  Ne189    1.0000 0.03615  0.28878  0.99496  Biso   1.000  Ne
  He189    1.0000 0.01249  0.30454  0.01229  Biso   1.000  He
  He190    1.0000 0.99064  0.28033  0.02367  Biso   1.000  He
  Ne190    1.0000 0.96589  0.29107  0.04446  Biso   1.000  Ne
  Ne191    1.0000 0.51117  0.30649  0.55769  Biso   1.000  Ne
  He191    1.0000 0.48088  0.29116  0.55488  Biso   1.000  He
  He192    1.0000 0.46026  0.30747  0.53325  Biso   1.000  He
  Ne192    1.0000 0.43179  0.28941  0.52659  Biso   1.000  Ne
  Ne193    1.0000 0.12102  0.28579  0.96355  Biso   1.000  Ne
  He193    1.0000 0.13475  0.28438  0.99311  Biso   1.000  He
  He194    1.0000 0.11538  0.28194  0.02006  Biso   1.000  He
  Ne194    1.0000 0.13149  0.28941  0.04870  Biso   1.000  Ne
  Ne195    1.0000 0.96951  0.66165  0.16626  Biso   1.000  Ne
  He195    1.0000 0.95383  0.64804  0.19344  Biso   1.000  He
  He196    1.0000 0.94221  0.66961  0.21449  Biso   1.000  He
  Ne196    1.0000 0.92335  0.65461  0.23862  Biso   1.000  Ne
  Ne197    1.0000 0.80106  0.50036  0.09571  Biso   1.000  Ne
  He197    1.0000 0.81993  0.50740  0.12381  Biso   1.000  He
  He198    1.0000 0.80707  0.50225  0.15519  Biso   1.000  He
  Ne198    1.0000 0.82763  0.51626  0.18035  Biso   1.000  Ne
  Ne199    1.0000 0.88633  0.91115  0.94000  Biso   1.000  Ne
  He199    1.0000 0.89089  0.92541  0.96714  Biso   1.000  He
  He200    1.0000 0.89434  0.95976  0.96370  Biso   1.000  He
  Ne200    1.0000 0.90486  0.97493  0.99156  Biso   1.000  Ne
  Ne201    1.0000 0.18284  0.95315  0.62145  Biso   1.000  Ne
  He201    1.0000 0.19000  0.96578  0.64794  Biso   1.000  He
  He202    1.0000 0.18075  0.99824  0.65102  Biso   1.000  He
  Ne202    1.0000 0.19411  0.01337  0.67513  Biso   1.000  Ne
  Ne203    1.0000 0.20671  0.81348  0.63329  Biso   1.000  Ne
  He203    1.0000 0.18716  0.80428  0.60726  Biso   1.000  He
  He204    1.0000 0.17514  0.77358  0.61160  Biso   1.000  He
  Ne204    1.0000 0.16355  0.75996  0.58302  Biso   1.000  Ne
  Ne205    1.0000 0.80318  0.96757  0.64695  Biso   1.000  Ne
  He205    1.0000 0.79095  0.98593  0.67387  Biso   1.000  He
  He206    1.0000 0.78734  0.01644  0.66631  Biso   1.000  He
  Ne206    1.0000 0.77216  0.03584  0.68831  Biso   1.000  Ne
  Ne207    1.0000 0.70608  0.83538  0.35469  Biso   1.000  Ne
  He207    1.0000 0.72867  0.86178  0.35886  Biso   1.000  He
  He208    1.0000 0.72297  0.88540  0.38114  Biso   1.000  He
  Ne208    1.0000 0.74476  0.90988  0.38189  Biso   1.000  Ne
  Ne209    1.0000 0.10281  0.74232  0.17632  Biso   1.000  Ne
  He209    1.0000 0.10995  0.71129  0.18729  Biso   1.000  He
  He210    1.0000 0.12600  0.71279  0.21551  Biso   1.000  He
  Ne210    1.0000 0.13664  0.68505  0.22986  Biso   1.000  Ne
  Ne211    1.0000 0.23867  0.68239  0.37696  Biso   1.000  Ne
  He211    1.0000 0.25157  0.71360  0.38122  Biso   1.000  He
  He212    1.0000 0.24405  0.73764  0.35786  Biso   1.000  He
  Ne212    1.0000 0.25279  0.77015  0.36366  Biso   1.000  Ne
  Ne213    1.0000 0.79010  0.83551  0.44751  Biso   1.000  Ne
  He213    1.0000 0.77114  0.81259  0.46303  Biso   1.000  He
  He214    1.0000 0.73888  0.81386  0.45422  Biso   1.000  He
  Ne214    1.0000 0.71963  0.79223  0.46622  Biso   1.000  Ne
  Ne215    1.0000 0.81015  0.40513  0.14749  Biso   1.000  Ne
  He215    1.0000 0.78999  0.39015  0.16989  Biso   1.000  He
  He216    1.0000 0.76924  0.41273  0.18750  Biso   1.000  He
  Ne216    1.0000 0.73810  0.41747  0.17532  Biso   1.000  Ne
  Ne217    1.0000 0.89799  0.16642  0.56809  Biso   1.000  Ne
  He217    1.0000 0.90873  0.19969  0.56472  Biso   1.000  He
  He218    1.0000 0.94200  0.19910  0.56442  Biso   1.000  He
  Ne218    1.0000 0.95521  0.20556  0.59517  Biso   1.000  Ne
  Ne219    1.0000 0.08212  0.24607  0.40567  Biso   1.000  Ne
  He219    1.0000 0.07737  0.27553  0.41305  Biso   1.000  He
  He220    1.0000 0.08947  0.29367  0.38933  Biso   1.000  He
  Ne220    1.0000 0.08481  0.32760  0.38957  Biso   1.000  Ne
  Ne221    1.0000 0.57934  0.09559  0.15232  Biso   1.000  Ne
  He221    1.0000 0.61135  0.09686  0.15380  Biso   1.000  He
  He222    1.0000 0.62424  0.12400  0.16443  Biso   1.000  He
  Ne222    1.0000 0.65759  0.12448  0.17141  Biso   1.000  Ne
  Ne223    1.0000 0.12845  0.34296  0.28971  Biso   1.000  Ne
  He223    1.0000 0.12152  0.30889  0.28234  Biso   1.000  He
  He224    1.0000 0.11897  0.29222  0.30968  Biso   1.000  He
  Ne224    1.0000 0.10595  0.26220  0.30281  Biso   1.000  Ne
  Ne225    1.0000 0.21679  0.17982  0.67295  Biso   1.000  Ne
  He225    1.0000 0.19281  0.15586  0.67990  Biso   1.000  He
  He226    1.0000 0.20445  0.12564  0.67732  Biso   1.000  He
  Ne226    1.0000 0.17915  0.10319  0.67572  Biso   1.000  Ne
  Ne227    1.0000 0.25419  0.91866  0.83275  Biso   1.000  Ne
  He227    1.0000 0.22857  0.90368  0.84970  Biso   1.000  He
  He228    1.0000 0.22656  0.87070  0.83804  Biso   1.000  He
  Ne228    1.0000 0.19954  0.85393  0.84938  Biso   1.000  Ne
  Ne229    1.0000 0.44567  0.43127  0.00319  Biso   1.000  Ne
  He229    1.0000 0.45334  0.44810  0.97745  Biso   1.000  He
  He230    1.0000 0.48785  0.45158  0.97279  Biso   1.000  He
  Ne230    1.0000 0.50070  0.47209  0.94962  Biso   1.000  Ne
  Ne231    1.0000 0.37969  0.16525  0.01673  Biso   1.000  Ne
  He231    1.0000 0.34815  0.16934  0.02872  Biso   1.000  He
  He232    1.0000 0.33289  0.14089  0.03572  Biso   1.000  He
  Ne232    1.0000 0.30017  0.14767  0.04575  Biso   1.000  Ne
  Ne233    1.0000 0.89248  0.41477  0.61220  Biso   1.000  Ne
  He233    1.0000 0.86202  0.41273  0.60371  Biso   1.000  He
  He234    1.0000 0.85322  0.38875  0.58252  Biso   1.000  He
  Ne234    1.0000 0.82311  0.38929  0.57827  Biso   1.000  Ne
  Ne235    1.0000 0.92089  0.17280  0.71934  Biso   1.000  Ne
  He235    1.0000 0.91356  0.20158  0.70620  Biso   1.000  He
  He236    1.0000 0.93620  0.21096  0.68331  Biso   1.000  He
  Ne236    1.0000 0.93108  0.24006  0.67100  Biso   1.000  Ne
  Ne237    1.0000 0.37936  0.34324  0.30751  Biso   1.000  Ne
  He237    1.0000 0.40693  0.32870  0.31251  Biso   1.000  He
  He238    1.0000 0.43181  0.34451  0.29276  Biso   1.000  He
  Ne238    1.0000 0.45161  0.36788  0.30940  Biso   1.000  Ne
  Ne239    1.0000 0.20976  0.94411  0.39761  Biso   1.000  Ne
  He239    1.0000 0.21558  0.95221  0.42939  Biso   1.000  He
  He240    1.0000 0.18685  0.95158  0.44825  Biso   1.000  He
  Ne240    1.0000 0.19343  0.96524  0.47692  Biso   1.000  Ne
  Ne241    1.0000 0.89673  0.78805  0.28419  Biso   1.000  Ne
  He241    1.0000 0.90515  0.81026  0.25942  Biso   1.000  He
  He242    1.0000 0.88112  0.81540  0.23418  Biso   1.000  He
  Ne242    1.0000 0.89202  0.83557  0.21112  Biso   1.000  Ne
  Ne243    1.0000 0.88466  0.40903  0.69134  Biso   1.000  Ne
  He243    1.0000 0.85816  0.39033  0.68713  Biso   1.000  He
  He244    1.0000 0.82826  0.40046  0.69851  Biso   1.000  He
  Ne244    1.0000 0.80327  0.37556  0.69637  Biso   1.000  Ne
  Ne245    1.0000 0.53819  0.43243  0.75881  Biso   1.000  Ne
  He245    1.0000 0.51674  0.45206  0.74553  Biso   1.000  He
  He246    1.0000 0.52522  0.48465  0.74704  Biso   1.000  He
  Ne246    1.0000 0.50062  0.50536  0.73726  Biso   1.000  Ne
  Ne247    1.0000 0.90067  0.51007  0.55682  Biso   1.000  Ne
  He247    1.0000 0.91114  0.51966  0.58691  Biso   1.000  He
  He248    1.0000 0.88868  0.53412  0.60655  Biso   1.000  He
  Ne248    1.0000 0.90111  0.54361  0.63684  Biso   1.000  Ne
  Ne249    1.0000 0.96820  0.08233  0.96648  Biso   1.000  Ne
  He249    1.0000 0.99579  0.06417  0.96327  Biso   1.000  He
  He250    1.0000 0.02227  0.07369  0.97999  Biso   1.000  He
  Ne250    1.0000 0.04841  0.05292  0.97555  Biso   1.000  Ne
  Ne251    1.0000 0.37581  0.49277  0.31260  Biso   1.000  Ne
  He251    1.0000 0.35367  0.51834  0.31666  Biso   1.000  He
  He252    1.0000 0.35667  0.53962  0.29017  Biso   1.000  He
  Ne252    1.0000 0.33883  0.56583  0.29445  Biso   1.000  Ne
  Ne253    1.0000 0.70347  0.29379  0.42912  Biso   1.000  Ne
  He253    1.0000 0.68724  0.29853  0.40017  Biso   1.000  He
  He254    1.0000 0.70212  0.31894  0.38157  Biso   1.000  He
  Ne254    1.0000 0.68647  0.32924  0.35451  Biso   1.000  Ne
  Ne255    1.0000 0.57304  0.92533  0.69434  Biso   1.000  Ne
  He255    1.0000 0.60299  0.92707  0.70906  Biso   1.000  He
  He256    1.0000 0.62513  0.91241  0.69239  Biso   1.000  He
  Ne256    1.0000 0.65760  0.91419  0.70222  Biso   1.000  Ne
  Ne257    1.0000 0.20381  0.32038  0.57756  Biso   1.000  Ne
  He257    1.0000 0.23829  0.31616  0.57414  Biso   1.000  He
  He258    1.0000 0.25133  0.30280  0.60000  Biso   1.000  He
  Ne258    1.0000 0.28377  0.29373  0.60158  Biso   1.000  Ne
  Ne259    1.0000 0.35898  0.41031  0.25961  Biso   1.000  Ne
  He259    1.0000 0.36915  0.40239  0.22773  Biso   1.000  He
  He260    1.0000 0.40210  0.39863  0.22385  Biso   1.000  He
  Ne260    1.0000 0.41369  0.39711  0.19317  Biso   1.000  Ne
  Ne261    1.0000 0.77757  0.31831  0.23159  Biso   1.000  Ne
  He261    1.0000 0.79229  0.32402  0.26130  Biso   1.000  He
  He262    1.0000 0.77782  0.30695  0.28516  Biso   1.000  He
  Ne262    1.0000 0.78854  0.31710  0.31501  Biso   1.000  Ne
  Ne263    1.0000 0.51915  0.19710  0.87233  Biso   1.000  Ne
  He263    1.0000 0.49368  0.21535  0.88720  Biso   1.000  He
  He264    1.0000 0.48198  0.20311  0.91442  Biso   1.000  He
  Ne264    1.0000 0.45966  0.22545  0.92474  Biso   1.000  Ne
  Ne265    1.0000 0.60220  0.85172  0.33277  Biso   1.000  Ne
  He265    1.0000 0.57849  0.85993  0.35856  Biso   1.000  He
  He266    1.0000 0.57842  0.89089  0.37090  Biso   1.000  He
  Ne266    1.0000 0.59770  0.89828  0.39630  Biso   1.000  Ne
  Ne267    1.0000 0.55852  0.94131  0.61237  Biso   1.000  Ne
  He267    1.0000 0.57315  0.91405  0.59857  Biso   1.000  He
  He268    1.0000 0.55507  0.88845  0.59184  Biso   1.000  He
  Ne268    1.0000 0.57161  0.85910  0.58537  Biso   1.000  Ne
  Ne269    1.0000 0.32522  0.80692  0.42190  Biso   1.000  Ne
  He269    1.0000 0.34809  0.83198  0.42135  Biso   1.000  He
  He270    1.0000 0.37712  0.82340  0.43223  Biso   1.000  He
  Ne270    1.0000 0.40140  0.84351  0.43737  Biso   1.000  Ne
  Ne271    1.0000 0.05708  0.59124  0.35451  Biso   1.000  Ne
  He271    1.0000 0.06024  0.61682  0.33169  Biso   1.000  He
  He272    1.0000 0.05339  0.64667  0.34782  Biso   1.000  He
  Ne272    1.0000 0.04921  0.67212  0.33179  Biso   1.000  Ne
  Ne273    1.0000 0.02424  0.35989  0.15879  Biso   1.000  Ne
  He273    1.0000 0.05208  0.37211  0.17166  Biso   1.000  He
  He274    1.0000 0.06880  0.35251  0.19494  Biso   1.000  He
  Ne274    1.0000 0.09927  0.36383  0.20733  Biso   1.000  Ne
  Ne275    1.0000 0.55139  0.44796  0.84354  Biso   1.000  Ne
  He275    1.0000 0.57315  0.43183  0.86315  Biso   1.000  He
  He276    1.0000 0.60442  0.43656  0.85089  Biso   1.000  He
  Ne276    1.0000 0.62579  0.41636  0.86404  Biso   1.000  Ne
  Ne277    1.0000 0.09671  0.47292  0.91662  Biso   1.000  Ne
  He277    1.0000 0.09388  0.48136  0.88476  Biso   1.000  He
  He278    1.0000 0.12388  0.48940  0.87348  Biso   1.000  He
  Ne278    1.0000 0.12339  0.50917  0.84685  Biso   1.000  Ne
  Ne279    1.0000 0.39777  0.91101  0.36962  Biso   1.000  Ne
  He279    1.0000 0.39888  0.90938  0.40197  Biso   1.000  He
  He280    1.0000 0.39646  0.93691  0.41827  Biso   1.000  He
  Ne280    1.0000 0.39649  0.93446  0.45040  Biso   1.000  Ne
  Ne281    1.0000 0.35786  0.81536  0.60230  Biso   1.000  Ne
  He281    1.0000 0.33040  0.80428  0.58964  Biso   1.000  He
  He282    1.0000 0.30528  0.80468  0.61356  Biso   1.000  He
  Ne282    1.0000 0.27922  0.79380  0.59993  Biso   1.000  Ne
  Ne283    1.0000 0.06110  0.03351  0.05460  Biso   1.000  Ne
  He283    1.0000 0.05111  0.04501  0.08518  Biso   1.000  He
  He284    1.0000 0.07592  0.05675  0.10335  Biso   1.000  He
  Ne284    1.0000 0.06420  0.06953  0.13246  Biso   1.000  Ne
  Ne285    1.0000 0.30282  0.21197  0.58919  Biso   1.000  Ne
  He285    1.0000 0.30397  0.19136  0.61551  Biso   1.000  He
  He286    1.0000 0.31691  0.20103  0.64501  Biso   1.000  He
  Ne286    1.0000 0.29285  0.21560  0.66774  Biso   1.000  Ne
  Ne287    1.0000 0.32727  0.93338  0.68518  Biso   1.000  Ne
  He287    1.0000 0.30737  0.91444  0.66784  Biso   1.000  He
  He288    1.0000 0.30499  0.88340  0.67911  Biso   1.000  He
  Ne288    1.0000 0.28521  0.86614  0.65757  Biso   1.000  Ne
  Ne289    1.0000 0.71095  0.66898  0.10161  Biso   1.000  Ne
  He289    1.0000 0.71825  0.63665  0.10673  Biso   1.000  He
  He290    1.0000 0.69184  0.61521  0.10433  Biso   1.000  He
  Ne290    1.0000 0.70008  0.58322  0.11357  Biso   1.000  Ne
  Ne291    1.0000 0.91628  0.12867  0.90743  Biso   1.000  Ne
  He291    1.0000 0.90434  0.09817  0.90909  Biso   1.000  He
  He292    1.0000 0.92205  0.07888  0.89158  Biso   1.000  He
  Ne292    1.0000 0.92096  0.04649  0.90110  Biso   1.000  Ne
  Ne293    1.0000 0.82915  0.12281  0.84616  Biso   1.000  Ne
  He293    1.0000 0.83640  0.11009  0.87491  Biso   1.000  He
  He294    1.0000 0.81280  0.09631  0.89035  Biso   1.000  He
  Ne294    1.0000 0.81841  0.08825  0.92161  Biso   1.000  Ne
  Ne295    1.0000 0.28917  0.39533  0.48922  Biso   1.000  Ne
  He295    1.0000 0.29349  0.39207  0.45814  Biso   1.000  He
  He296    1.0000 0.26939  0.38650  0.43989  Biso   1.000  He
  Ne296    1.0000 0.27768  0.38125  0.40678  Biso   1.000  Ne
  Ne297    1.0000 0.60508  0.70816  0.73709  Biso   1.000  Ne
  He297    1.0000 0.62134  0.68952  0.72041  Biso   1.000  He
  He298    1.0000 0.65293  0.68579  0.73268  Biso   1.000  He
  Ne298    1.0000 0.67211  0.66838  0.71353  Biso   1.000  Ne
  Ne299    1.0000 0.75315  0.37597  0.59891  Biso   1.000  Ne
  He299    1.0000 0.76192  0.34961  0.61760  Biso   1.000  He
  He300    1.0000 0.75757  0.32020  0.60537  Biso   1.000  He
  Ne300    1.0000 0.76617  0.29248  0.62168  Biso   1.000  Ne
  Ne301    1.0000 0.18154  0.76681  0.40746  Biso   1.000  Ne
  He301    1.0000 0.15500  0.75160  0.39956  Biso   1.000  He
  He302    1.0000 0.16218  0.72513  0.38014  Biso   1.000  He
  Ne302    1.0000 0.13834  0.71321  0.36623  Biso   1.000  Ne
  Ne303    1.0000 0.21714  0.15073  0.58331  Biso   1.000  Ne
  He303    1.0000 0.20552  0.17958  0.57981  Biso   1.000  He
  He304    1.0000 0.22018  0.20198  0.59880  Biso   1.000  He
  Ne304    1.0000 0.21102  0.23081  0.59120  Biso   1.000  Ne
  Ne305    1.0000 0.95378  0.01397  0.73623  Biso   1.000  Ne
  He305    1.0000 0.93010  0.03521  0.72612  Biso   1.000  He
  He306    1.0000 0.93666  0.06657  0.73327  Biso   1.000  He
  Ne306    1.0000 0.91335  0.09086  0.72695  Biso   1.000  Ne
  Ne307    1.0000 0.23918  0.07727  0.81492  Biso   1.000  Ne
  He307    1.0000 0.24766  0.10390  0.80152  Biso   1.000  He
  He308    1.0000 0.25955  0.10006  0.77174  Biso   1.000  He
  Ne308    1.0000 0.27826  0.12647  0.76427  Biso   1.000  Ne
  Ne309    1.0000 0.64177  0.09190  0.30062  Biso   1.000  Ne
  He309    1.0000 0.63072  0.08916  0.26891  Biso   1.000  He
  He310    1.0000 0.63265  0.05709  0.25721  Biso   1.000  He
  Ne310    1.0000 0.62803  0.05680  0.22392  Biso   1.000  Ne
  Ne311    1.0000 0.27906  0.63827  0.31087  Biso   1.000  Ne
  He311    1.0000 0.27047  0.65334  0.28268  Biso   1.000  He
  He312    1.0000 0.24747  0.67551  0.28486  Biso   1.000  He
  Ne312    1.0000 0.23843  0.68750  0.25606  Biso   1.000  Ne
  Ne313    1.0000 0.05152  0.90277  0.04368  Biso   1.000  Ne
  He313    1.0000 0.02515  0.90871  0.06362  Biso   1.000  He
  He314    1.0000 0.01284  0.93950  0.05916  Biso   1.000  He
  Ne314    1.0000 0.98781  0.94881  0.07835  Biso   1.000  Ne
  Ne315    1.0000 0.99991  0.56759  0.90933  Biso   1.000  Ne
  He315    1.0000 0.02789  0.55233  0.92264  Biso   1.000  He
  He316    1.0000 0.03994  0.56554  0.94879  Biso   1.000  He
  Ne316    1.0000 0.06450  0.55046  0.96550  Biso   1.000  Ne
  Ne317    1.0000 0.10964  0.83798  0.91734  Biso   1.000  Ne
  He317    1.0000 0.12374  0.86460  0.93141  Biso   1.000  He
  He318    1.0000 0.15229  0.86994  0.91860  Biso   1.000  He
  Ne318    1.0000 0.16797  0.89981  0.92647  Biso   1.000  Ne
  Ne319    1.0000 0.61727  0.96646  0.20245  Biso   1.000  Ne
  He319    1.0000 0.64073  0.97067  0.17827  Biso   1.000  He
  He320    1.0000 0.65894  0.94017  0.17594  Biso   1.000  He
  Ne320    1.0000 0.68716  0.93752  0.15627  Biso   1.000  Ne
  Ne321    1.0000 0.88397  0.64666  0.59786  Biso   1.000  Ne
  He321    1.0000 0.88164  0.67322  0.61532  Biso   1.000  He
  He322    1.0000 0.87879  0.66747  0.64654  Biso   1.000  He
  Ne322    1.0000 0.87847  0.69408  0.66509  Biso   1.000  Ne
  Ne323    1.0000 0.18595  0.59140  0.35058  Biso   1.000  Ne
  He323    1.0000 0.16222  0.61264  0.36173  Biso   1.000  He
  He324    1.0000 0.16757  0.62270  0.39243  Biso   1.000  He
  Ne324    1.0000 0.14500  0.64331  0.40208  Biso   1.000  Ne
  Ne325    1.0000 0.16461  0.52532  0.06910  Biso   1.000  Ne
  He325    1.0000 0.18482  0.53739  0.08795  Biso   1.000  He
  He326    1.0000 0.21216  0.54819  0.07121  Biso   1.000  He
  Ne326    1.0000 0.23981  0.55824  0.09272  Biso   1.000  Ne
  Ne327    1.0000 0.31689  0.07478  0.71410  Biso   1.000  Ne
  He327    1.0000 0.33565  0.09729  0.69624  Biso   1.000  He
  He328    1.0000 0.35784  0.08621  0.67553  Biso   1.000  He
  Ne328    1.0000 0.38270  0.10822  0.66760  Biso   1.000  Ne
  Ne329    1.0000 0.57562  0.20444  0.70250  Biso   1.000  Ne
  He329    1.0000 0.60115  0.21164  0.68513  Biso   1.000  He
  He330    1.0000 0.62242  0.22660  0.70298  Biso   1.000  He
  Ne330    1.0000 0.64839  0.23971  0.68829  Biso   1.000  Ne
  Ne331    1.0000 0.01880  0.42628  0.83222  Biso   1.000  Ne
  He331    1.0000 0.00996  0.44908  0.81265  Biso   1.000  He
  He332    1.0000 0.01189  0.48002  0.82708  Biso   1.000  He
  Ne332    1.0000 0.00318  0.50557  0.80770  Biso   1.000  Ne
  Ne333    1.0000 0.52169  0.55121  0.98090  Biso   1.000  Ne
  He333    1.0000 0.50234  0.56484  0.00163  Biso   1.000  He
  He334    1.0000 0.50951  0.55791  0.03358  Biso   1.000  He
  Ne334    1.0000 0.49429  0.57303  0.05526  Biso   1.000  Ne
  Ne335    1.0000 0.50003  0.28885  0.36486  Biso   1.000  Ne
  He335    1.0000 0.50256  0.32350  0.36530  Biso   1.000  He
  He336    1.0000 0.50977  0.33256  0.39704  Biso   1.000  He
  Ne336    1.0000 0.51901  0.36483  0.39984  Biso   1.000  Ne
  Ne337    1.0000 0.05543  0.89377  0.68713  Biso   1.000  Ne
  He337    1.0000 0.08481  0.89215  0.70512  Biso   1.000  He
  He338    1.0000 0.09165  0.86165  0.70910  Biso   1.000  He
  Ne338    1.0000 0.09693  0.85285  0.74072  Biso   1.000  Ne
  Ne339    1.0000 0.86477  0.31089  0.67545  Biso   1.000  Ne
  He339    1.0000 0.88322  0.30292  0.64965  Biso   1.000  He
  He340    1.0000 0.88952  0.32882  0.63131  Biso   1.000  He
  Ne340    1.0000 0.90487  0.32644  0.60316  Biso   1.000  Ne
  Ne341    1.0000 0.56011  0.60116  0.30077  Biso   1.000  Ne
  He341    1.0000 0.58684  0.61709  0.30563  Biso   1.000  He
  He342    1.0000 0.58912  0.64703  0.28875  Biso   1.000  He
  Ne342    1.0000 0.61754  0.65810  0.28721  Biso   1.000  Ne
  Ne343    1.0000 0.74411  0.10329  0.91578  Biso   1.000  Ne
  He343    1.0000 0.73793  0.12423  0.94046  Biso   1.000  He
  He344    1.0000 0.70984  0.14060  0.93327  Biso   1.000  He
  Ne344    1.0000 0.69882  0.16181  0.95705  Biso   1.000  Ne
  Ne345    1.0000 0.65337  0.60028  0.78644  Biso   1.000  Ne
  He345    1.0000 0.66412  0.59817  0.75462  Biso   1.000  He
  He346    1.0000 0.64679  0.57925  0.73216  Biso   1.000  He
  Ne346    1.0000 0.65585  0.58636  0.69852  Biso   1.000  Ne
  Ne347    1.0000 0.92990  0.28828  0.18207  Biso   1.000  Ne
  He347    1.0000 0.92075  0.29394  0.21389  Biso   1.000  He
  He348    1.0000 0.94039  0.31537  0.23068  Biso   1.000  He
  Ne348    1.0000 0.93408  0.31670  0.26305  Biso   1.000  Ne
  Ne349    1.0000 0.29827  0.79022  0.91272  Biso   1.000  Ne
  He349    1.0000 0.28522  0.76469  0.90406  Biso   1.000  He
  He350    1.0000 0.30427  0.74517  0.88628  Biso   1.000  He
  Ne350    1.0000 0.28906  0.71631  0.87884  Biso   1.000  Ne
  Ne351    1.0000 0.79021  0.38523  0.39351  Biso   1.000  Ne
  He351    1.0000 0.77429  0.35924  0.40315  Biso   1.000  He
  He352    1.0000 0.79785  0.33588  0.41123  Biso   1.000  He
  Ne352    1.0000 0.78570  0.30679  0.42093  Biso   1.000  Ne
  Ne353    1.0000 0.32068  0.40266  0.77905  Biso   1.000  Ne
  He353    1.0000 0.29275  0.38391  0.78856  Biso   1.000  He
  He354    1.0000 0.27416  0.39690  0.81345  Biso   1.000  He
  Ne354    1.0000 0.24751  0.37986  0.82062  Biso   1.000  Ne
  Ne355    1.0000 0.31002  0.09788  0.61767  Biso   1.000  Ne
  He355    1.0000 0.27777  0.08642  0.61857  Biso   1.000  He
  He356    1.0000 0.26430  0.08708  0.59040  Biso   1.000  He
  Ne356    1.0000 0.23271  0.07653  0.58792  Biso   1.000  Ne
  Ne357    1.0000 0.54567  0.92589  0.26878  Biso   1.000  Ne
  He357    1.0000 0.57403  0.90771  0.27256  Biso   1.000  He
  He358    1.0000 0.57805  0.88689  0.24704  Biso   1.000  He
  Ne358    1.0000 0.60129  0.86236  0.24977  Biso   1.000  Ne
  Ne359    1.0000 0.71736  0.24909  0.18697  Biso   1.000  Ne
  He359    1.0000 0.71899  0.22105  0.20786  Biso   1.000  He
  He360    1.0000 0.74980  0.21324  0.21306  Biso   1.000  He
  Ne360    1.0000 0.75456  0.18378  0.22829  Biso   1.000  Ne
  Ne361    1.0000 0.66643  0.71781  0.60408  Biso   1.000  Ne
  He361    1.0000 0.68747  0.70838  0.62666  Biso   1.000  He
  He362    1.0000 0.70804  0.68353  0.62017  Biso   1.000  He
  Ne362    1.0000 0.73501  0.68199  0.63917  Biso   1.000  Ne
  Ne363    1.0000 0.42346  0.73515  0.19779  Biso   1.000  Ne
  He363    1.0000 0.39720  0.73043  0.21924  Biso   1.000  He
  He364    1.0000 0.39547  0.75190  0.24179  Biso   1.000  He
  Ne364    1.0000 0.36597  0.75083  0.26093  Biso   1.000  Ne
  Ne365    1.0000 0.91481  0.08450  0.14427  Biso   1.000  Ne
  He365    1.0000 0.89745  0.09762  0.11967  Biso   1.000  He
  He366    1.0000 0.91114  0.12596  0.10671  Biso   1.000  He
  Ne366    1.0000 0.90123  0.13583  0.07674  Biso   1.000  Ne
  Ne367    1.0000 0.88201  0.28977  0.03740  Biso   1.000  Ne
  He367    1.0000 0.89614  0.26245  0.05296  Biso   1.000  He
  He368    1.0000 0.88160  0.25336  0.08019  Biso   1.000  He
  Ne368    1.0000 0.86203  0.22541  0.07889  Biso   1.000  Ne
  Ne369    1.0000 0.56756  0.15540  0.33111  Biso   1.000  Ne
  He369    1.0000 0.56554  0.12108  0.32374  Biso   1.000  He
  He370    1.0000 0.57990  0.10020  0.34284  Biso   1.000  He
  Ne370    1.0000 0.57197  0.06754  0.33830  Biso   1.000  Ne
  Ne371    1.0000 0.68579  0.89606  0.59874  Biso   1.000  Ne
  He371    1.0000 0.66930  0.87617  0.61879  Biso   1.000  He
  He372    1.0000 0.67668  0.84352  0.61094  Biso   1.000  He
  Ne372    1.0000 0.66166  0.81880  0.62726  Biso   1.000  Ne
  Ne373    1.0000 0.73162  0.40889  0.69995  Biso   1.000  Ne
  He373    1.0000 0.70057  0.40127  0.70866  Biso   1.000  He
  He374    1.0000 0.67887  0.42191  0.69485  Biso   1.000  He
  Ne374    1.0000 0.64843  0.41411  0.69858  Biso   1.000  Ne
  Ne375    1.0000 0.35900  0.09592  0.77564  Biso   1.000  Ne
  He375    1.0000 0.38594  0.08125  0.78834  Biso   1.000  He
  He376    1.0000 0.40483  0.10041  0.80479  Biso   1.000  He
  Ne376    1.0000 0.43127  0.08172  0.81343  Biso   1.000  Ne
  Ne377    1.0000 0.15992  0.72935  0.11981  Biso   1.000  Ne
  He377    1.0000 0.17735  0.70163  0.12115  Biso   1.000  He
  He378    1.0000 0.20510  0.70151  0.13827  Biso   1.000  He
  Ne378    1.0000 0.22742  0.67724  0.13227  Biso   1.000  Ne
  Ne379    1.0000 0.10389  0.57756  0.44389  Biso   1.000  Ne
  He379    1.0000 0.07657  0.57390  0.46559  Biso   1.000  He
  He380    1.0000 0.07886  0.54988  0.48785  Biso   1.000  He
  Ne380    1.0000 0.05260  0.54309  0.50873  Biso   1.000  Ne
  Ne381    1.0000 0.82779  0.49597  0.82321  Biso   1.000  Ne
  He381    1.0000 0.84396  0.46623  0.83089  Biso   1.000  He
  He382    1.0000 0.82449  0.43994  0.83311  Biso   1.000  He
  Ne382    1.0000 0.83907  0.41150  0.84051  Biso   1.000  Ne
  Ne383    1.0000 0.34669  0.20307  0.73990  Biso   1.000  Ne
  He383    1.0000 0.36430  0.17647  0.74790  Biso   1.000  He
  He384    1.0000 0.39584  0.18380  0.74906  Biso   1.000  He
  Ne384    1.0000 0.41195  0.15638  0.75289  Biso   1.000  Ne
  Ne385    1.0000 0.85081  0.11163  0.34469  Biso   1.000  Ne
  He385    1.0000 0.82491  0.10154  0.33039  Biso   1.000  He
  He386    1.0000 0.82624  0.06803  0.32549  Biso   1.000  He
  Ne386    1.0000 0.80196  0.05359  0.31230  Biso   1.000  Ne
  Ne387    1.0000 0.73325  0.24721  0.73992  Biso   1.000  Ne
  He387    1.0000 0.75794  0.23533  0.72010  Biso   1.000  He
  He388    1.0000 0.78394  0.24880  0.72845  Biso   1.000  He
  Ne388    1.0000 0.80834  0.24348  0.70641  Biso   1.000  Ne
  Ne389    1.0000 0.06094  0.56596  0.24671  Biso   1.000  Ne
  He389    1.0000 0.09163  0.57090  0.23753  Biso   1.000  He
  He390    1.0000 0.10892  0.58230  0.26174  Biso   1.000  He
  Ne390    1.0000 0.14020  0.59074  0.25206  Biso   1.000  Ne
  Ne391    1.0000 0.40650  0.57378  0.21464  Biso   1.000  Ne
  He391    1.0000 0.38224  0.56520  0.19489  Biso   1.000  He
  He392    1.0000 0.35294  0.56574  0.20775  Biso   1.000  He
  Ne392    1.0000 0.32716  0.55758  0.18796  Biso   1.000  Ne
  Ne393    1.0000 0.09280  0.70714  0.83853  Biso   1.000  Ne
  He393    1.0000 0.08851  0.68147  0.85547  Biso   1.000  He
  He394    1.0000 0.06712  0.68293  0.88304  Biso   1.000  He
  Ne394    1.0000 0.06143  0.65499  0.90348  Biso   1.000  Ne
  Ne395    1.0000 0.71968  0.22487  0.62478  Biso   1.000  Ne
  He395    1.0000 0.71701  0.19764  0.60785  Biso   1.000  He
  He396    1.0000 0.68537  0.19861  0.59439  Biso   1.000  He
  Ne396    1.0000 0.67885  0.17196  0.57693  Biso   1.000  Ne
  Ne397    1.0000 0.39915  0.85574  0.64291  Biso   1.000  Ne
  He397    1.0000 0.40478  0.87427  0.66855  Biso   1.000  He
  He398    1.0000 0.40200  0.90426  0.66172  Biso   1.000  He
  Ne398    1.0000 0.40892  0.92466  0.68698  Biso   1.000  Ne
  Ne399    1.0000 0.59485  0.10775  0.69192  Biso   1.000  Ne
  He399    1.0000 0.58838  0.09740  0.72531  Biso   1.000  He
  He400    1.0000 0.56200  0.11510  0.74090  Biso   1.000  He
  Ne400    1.0000 0.55961  0.10559  0.77267  Biso   1.000  Ne
  Ne401    1.0000 0.13808  0.57992  0.80020  Biso   1.000  Ne
  He401    1.0000 0.16139  0.59793  0.81265  Biso   1.000  He
  He402    1.0000 0.18513  0.58148  0.82782  Biso   1.000  He
  Ne402    1.0000 0.21603  0.58216  0.81016  Biso   1.000  Ne
  Ne403    1.0000 0.17356  0.55882  0.17939  Biso   1.000  Ne
  He403    1.0000 0.14258  0.54897  0.17420  Biso   1.000  He
  He404    1.0000 0.12360  0.56809  0.15068  Biso   1.000  He
  Ne404    1.0000 0.09160  0.55988  0.15187  Biso   1.000  Ne
  Ne405    1.0000 0.17325  0.62126  0.99552  Biso   1.000  Ne
  He405    1.0000 0.14536  0.64324  0.99653  Biso   1.000  He
  He406    1.0000 0.14832  0.67052  0.01538  Biso   1.000  He
  Ne406    1.0000 0.12000  0.68940  0.01739  Biso   1.000  Ne
  Ne407    1.0000 0.85934  0.65804  0.15968  Biso   1.000  Ne
  He407    1.0000 0.86958  0.68807  0.16727  Biso   1.000  He
  He408    1.0000 0.89803  0.69781  0.15206  Biso   1.000  He
  Ne408    1.0000 0.90614  0.72908  0.16236  Biso   1.000  Ne
  Ne409    1.0000 0.32994  0.58799  0.86657  Biso   1.000  Ne
  He409    1.0000 0.33491  0.59403  0.89874  Biso   1.000  He
  He410    1.0000 0.31641  0.58050  0.92327  Biso   1.000  He
  Ne410    1.0000 0.32799  0.58822  0.95293  Biso   1.000  Ne
  Ne411    1.0000 0.29640  0.65567  0.11706  Biso   1.000  Ne
  He411    1.0000 0.29214  0.62301  0.11271  Biso   1.000  He
  He412    1.0000 0.32088  0.60641  0.11194  Biso   1.000  He
  Ne412    1.0000 0.32133  0.57470  0.10651  Biso   1.000  Ne
  Ne413    1.0000 0.81643  0.56121  0.62704  Biso   1.000  Ne
  He413    1.0000 0.80597  0.58311  0.60854  Biso   1.000  He
  He414    1.0000 0.79871  0.61341  0.62300  Biso   1.000  He
  Ne414    1.0000 0.79278  0.63702  0.59860  Biso   1.000  Ne
  Ne415    1.0000 0.30159  0.21613  0.18028  Biso   1.000  Ne
  He415    1.0000 0.27357  0.21821  0.19368  Biso   1.000  He
  He416    1.0000 0.26379  0.25132  0.20112  Biso   1.000  He
  Ne416    1.0000 0.23328  0.25463  0.21075  Biso   1.000  Ne
  Ne417    1.0000 0.32580  0.16071  0.40642  Biso   1.000  Ne
  He417    1.0000 0.31422  0.18911  0.39387  Biso   1.000  He
  He418    1.0000 0.32529  0.21613  0.40683  Biso   1.000  He
  Ne418    1.0000 0.30959  0.24333  0.39900  Biso   1.000  Ne
  Ne419    1.0000 0.10028  0.91468  0.81549  Biso   1.000  Ne
  He419    1.0000 0.10629  0.89056  0.83705  Biso   1.000  He
  He420    1.0000 0.07988  0.88080  0.85562  Biso   1.000  He
  Ne420    1.0000 0.07801  0.89477  0.88384  Biso   1.000  Ne
  Ne421    1.0000 0.16723  0.89667  0.76279  Biso   1.000  Ne
  He421    1.0000 0.18377  0.91286  0.73841  Biso   1.000  He
  He422    1.0000 0.19692  0.89392  0.71544  Biso   1.000  He
  Ne422    1.0000 0.22010  0.90904  0.69808  Biso   1.000  Ne
  Ne423    1.0000 0.39424  0.72784  0.91214  Biso   1.000  Ne
  He423    1.0000 0.37426  0.69914  0.91570  Biso   1.000  He
  He424    1.0000 0.36977  0.69240  0.94755  Biso   1.000  He
  Ne424    1.0000 0.34663  0.66890  0.95204  Biso   1.000  Ne
  Ne425    1.0000 0.31657  0.06730  0.32047  Biso   1.000  Ne
  He425    1.0000 0.33758  0.07840  0.29978  Biso   1.000  He
  He426    1.0000 0.36864  0.06675  0.30025  Biso   1.000  He
  Ne426    1.0000 0.38993  0.08614  0.28353  Biso   1.000  Ne
  Ne427    1.0000 0.17092  0.86561  0.46709  Biso   1.000  Ne
  He427    1.0000 0.20168  0.87144  0.45282  Biso   1.000  He
  He428    1.0000 0.21803  0.84306  0.44678  Biso   1.000  He
  Ne428    1.0000 0.24483  0.84971  0.42617  Biso   1.000  Ne
  Ne429    1.0000 0.68107  0.90282  0.27487  Biso   1.000  Ne
  He429    1.0000 0.70920  0.88723  0.26246  Biso   1.000  He
  He430    1.0000 0.71810  0.89577  0.23182  Biso   1.000  He
  Ne430    1.0000 0.74232  0.87770  0.21625  Biso   1.000  Ne
  Ne431    1.0000 0.85950  0.75802  0.72143  Biso   1.000  Ne
  He431    1.0000 0.83292  0.77709  0.71563  Biso   1.000  He
  He432    1.0000 0.81503  0.76915  0.68965  Biso   1.000  He
  Ne432    1.0000 0.78668  0.78609  0.68698  Biso   1.000  Ne
  Ne433    1.0000 0.36120  0.09142  0.87873  Biso   1.000  Ne
  He433    1.0000 0.37747  0.11964  0.88570  Biso   1.000  He
  He434    1.0000 0.36181  0.13822  0.90767  Biso   1.000  He
  Ne434    1.0000 0.36768  0.17028  0.90356  Biso   1.000  Ne
  Ne435    1.0000 0.86029  0.92667  0.59969  Biso   1.000  Ne
  He435    1.0000 0.85675  0.94468  0.57225  Biso   1.000  He
  He436    1.0000 0.87777  0.97057  0.57147  Biso   1.000  He
  Ne436    1.0000 0.87844  0.98861  0.54601  Biso   1.000  Ne
  Ne437    1.0000 0.40580  0.51785  0.07569  Biso   1.000  Ne
  He437    1.0000 0.42140  0.53099  0.10200  Biso   1.000  He
  He438    1.0000 0.41468  0.56222  0.10638  Biso   1.000  He
  Ne438    1.0000 0.43338  0.57575  0.13209  Biso   1.000  Ne
  Ne439    1.0000 0.65832  0.14118  0.66648  Biso   1.000  Ne
  He439    1.0000 0.69028  0.13582  0.67489  Biso   1.000  He
  He440    1.0000 0.69109  0.10743  0.68597  Biso   1.000  He
  Ne440    1.0000 0.72084  0.09817  0.69387  Biso   1.000  Ne
  Ne441    1.0000 0.21763  0.39135  0.75197  Biso   1.000  Ne
  He441    1.0000 0.20478  0.39507  0.72133  Biso   1.000  He
  He442    1.0000 0.21852  0.42344  0.70623  Biso   1.000  He
  Ne442    1.0000 0.20617  0.43093  0.67699  Biso   1.000  Ne
  Ne443    1.0000 0.30413  0.00926  0.11762  Biso   1.000  Ne
  He443    1.0000 0.29762  0.03799  0.12686  Biso   1.000  He
  He444    1.0000 0.26491  0.04744  0.13336  Biso   1.000  He
  Ne444    1.0000 0.26129  0.08050  0.14065  Biso   1.000  Ne
  Ne445    1.0000 0.65151  0.09400  0.39794  Biso   1.000  Ne
  He445    1.0000 0.66629  0.12537  0.39899  Biso   1.000  He
  He446    1.0000 0.64718  0.14787  0.41639  Biso   1.000  He
  Ne446    1.0000 0.65778  0.17840  0.41586  Biso   1.000  Ne
  Ne447    1.0000 0.35579  0.27609  0.66217  Biso   1.000  Ne
  He447    1.0000 0.37490  0.25985  0.68246  Biso   1.000  He
  He448    1.0000 0.39026  0.23662  0.66454  Biso   1.000  He
  Ne448    1.0000 0.41364  0.21721  0.67895  Biso   1.000  Ne
  Ne449    1.0000 0.30069  0.80150  0.71312  Biso   1.000  Ne
  He449    1.0000 0.30144  0.76986  0.71582  Biso   1.000  He
  He450    1.0000 0.28269  0.75439  0.69282  Biso   1.000  He
  Ne450    1.0000 0.28530  0.72287  0.69371  Biso   1.000  Ne
  Ne451    1.0000 0.67245  0.25738  0.30460  Biso   1.000  Ne
  He451    1.0000 0.67509  0.26532  0.27209  Biso   1.000  He
  He452    1.0000 0.68079  0.29780  0.26687  Biso   1.000  He
  Ne452    1.0000 0.68147  0.30377  0.23354  Biso   1.000  Ne
  Ne453    1.0000 0.70688  0.41146  0.54554  Biso   1.000  Ne
  He453    1.0000 0.69122  0.44145  0.54792  Biso   1.000  He
  He454    1.0000 0.69342  0.46427  0.51919  Biso   1.000  He
  Ne454    1.0000 0.67203  0.49090  0.52175  Biso   1.000  Ne
  Ne455    1.0000 0.94576  0.37394  0.89995  Biso   1.000  Ne
  He455    1.0000 0.94873  0.34047  0.90598  Biso   1.000  He
  He456    1.0000 0.92099  0.32587  0.91592  Biso   1.000  He
  Ne456    1.0000 0.92372  0.29425  0.92685  Biso   1.000  Ne
  Ne457    1.0000 0.08326  0.36422  0.58336  Biso   1.000  Ne
  He457    1.0000 0.10552  0.34189  0.57810  Biso   1.000  He
  He458    1.0000 0.09392  0.31151  0.58265  Biso   1.000  He
  Ne458    1.0000 0.11626  0.28699  0.57644  Biso   1.000  Ne
  Ne459    1.0000 0.05136  0.27989  0.09511  Biso   1.000  Ne
  He459    1.0000 0.07814  0.27221  0.11170  Biso   1.000  He
  He460    1.0000 0.07243  0.27533  0.14597  Biso   1.000  He
  Ne460    1.0000 0.09761  0.26778  0.16492  Biso   1.000  Ne
  Ne461    1.0000 0.38572  0.36044  0.81291  Biso   1.000  Ne
  He461    1.0000 0.38658  0.33724  0.78786  Biso   1.000  He
  He462    1.0000 0.41209  0.34261  0.76526  Biso   1.000  He
  Ne462    1.0000 0.40899  0.32071  0.74166  Biso   1.000  Ne
  Ne463    1.0000 0.74501  0.09828  0.82604  Biso   1.000  Ne
  He463    1.0000 0.75467  0.11471  0.80123  Biso   1.000  He
  He464    1.0000 0.76911  0.09400  0.77716  Biso   1.000  He
  Ne464    1.0000 0.77893  0.11130  0.75126  Biso   1.000  Ne
  Ne465    1.0000 0.38511  0.71130  0.53223  Biso   1.000  Ne
  He465    1.0000 0.41586  0.69995  0.53680  Biso   1.000  He
  He466    1.0000 0.43656  0.71433  0.51343  Biso   1.000  He
  Ne466    1.0000 0.46927  0.70758  0.51852  Biso   1.000  Ne
  Ne467    1.0000 0.48539  0.94121  0.58245  Biso   1.000  Ne
  He467    1.0000 0.48495  0.97239  0.59120  Biso   1.000  He
  He468    1.0000 0.45540  0.98928  0.59275  Biso   1.000  He
  Ne468    1.0000 0.46172  0.02168  0.59800  Biso   1.000  Ne
  Ne469    1.0000 0.90780  0.85898  0.10366  Biso   1.000  Ne
  He469    1.0000 0.90643  0.88964  0.11779  Biso   1.000  He
  He470    1.0000 0.91660  0.91716  0.10329  Biso   1.000  He
  Ne470    1.0000 0.91238  0.94412  0.12274  Biso   1.000  Ne
  Ne471    1.0000 0.60036  0.34240  0.50136  Biso   1.000  Ne
  He471    1.0000 0.57520  0.32546  0.49469  Biso   1.000  He
  He472    1.0000 0.58021  0.29184  0.49012  Biso   1.000  He
  Ne472    1.0000 0.55248  0.27705  0.48600  Biso   1.000  Ne
  Ne473    1.0000 0.74899  0.13154  0.42168  Biso   1.000  Ne
  He473    1.0000 0.74760  0.16337  0.41317  Biso   1.000  He
  He474    1.0000 0.77546  0.17824  0.41084  Biso   1.000  He
  Ne474    1.0000 0.77185  0.21264  0.40677  Biso   1.000  Ne
  Ne475    1.0000 0.27541  0.31090  0.06901  Biso   1.000  Ne
  He475    1.0000 0.27487  0.28235  0.08263  Biso   1.000  He
  He476    1.0000 0.30415  0.27812  0.09889  Biso   1.000  He
  Ne476    1.0000 0.30937  0.24727  0.10715  Biso   1.000  Ne
  Ne477    1.0000 0.24584  0.61926  0.17985  Biso   1.000  Ne
  He477    1.0000 0.24204  0.60793  0.20949  Biso   1.000  He
  He478    1.0000 0.26066  0.58079  0.21649  Biso   1.000  He
  Ne478    1.0000 0.25865  0.56951  0.24809  Biso   1.000  Ne
  Ne479    1.0000 0.57949  0.23414  0.26985  Biso   1.000  Ne
  He479    1.0000 0.58851  0.20986  0.25067  Biso   1.000  He
  He480    1.0000 0.62035  0.20111  0.25322  Biso   1.000  He
  Ne480    1.0000 0.62738  0.17754  0.23165  Biso   1.000  Ne
  Ne481    1.0000 0.32538  0.84061  0.25294  Biso   1.000  Ne
  He481    1.0000 0.34488  0.86193  0.27128  Biso   1.000  He
  He482    1.0000 0.37513  0.84958  0.28001  Biso   1.000  He
  Ne482    1.0000 0.39437  0.86832  0.29953  Biso   1.000  Ne
  Ne483    1.0000 0.40412  0.03895  0.48491  Biso   1.000  Ne
  He483    1.0000 0.43500  0.02837  0.47770  Biso   1.000  He
  He484    1.0000 0.44325  0.02090  0.44521  Biso   1.000  He
  Ne484    1.0000 0.47118  0.00291  0.43984  Biso   1.000  Ne
  Ne485    1.0000 0.07024  0.56549  0.61718  Biso   1.000  Ne
  He485    1.0000 0.03791  0.57103  0.61189  Biso   1.000  He
  He486    1.0000 0.02816  0.57054  0.58145  Biso   1.000  He
  Ne486    1.0000 0.99675  0.57576  0.57603  Biso   1.000  Ne
  Ne487    1.0000 0.39457  0.80723  0.35733  Biso   1.000  Ne
  He487    1.0000 0.37854  0.77858  0.35228  Biso   1.000  He
  He488    1.0000 0.39867  0.75025  0.35354  Biso   1.000  He
  Ne488    1.0000 0.38743  0.72026  0.34218  Biso   1.000  Ne
  Ne489    1.0000 0.77054  0.17081  0.65980  Biso   1.000  Ne
  He489    1.0000 0.79437  0.15383  0.67698  Biso   1.000  He
  He490    1.0000 0.80916  0.13158  0.65874  Biso   1.000  He
  Ne490    1.0000 0.83172  0.11479  0.67361  Biso   1.000  Ne
  Ne491    1.0000 0.94810  0.43516  0.42099  Biso   1.000  Ne
  He491    1.0000 0.91386  0.43890  0.42614  Biso   1.000  He
  He492    1.0000 0.89853  0.41033  0.43000  Biso   1.000  He
  Ne492    1.0000 0.86472  0.41446  0.43290  Biso   1.000  Ne
  Ne493    1.0000 0.17862  0.38606  0.97527  Biso   1.000  Ne
  He493    1.0000 0.19712  0.36701  0.99451  Biso   1.000  He
  He494    1.0000 0.18199  0.35563  0.02416  Biso   1.000  He
  Ne494    1.0000 0.20120  0.33950  0.04407  Biso   1.000  Ne
  Ne495    1.0000 0.52807  0.00635  0.51061  Biso   1.000  Ne
  He495    1.0000 0.53357  0.03998  0.52002  Biso   1.000  He
  He496    1.0000 0.51058  0.05054  0.54109  Biso   1.000  He
  Ne496    1.0000 0.51606  0.07930  0.55247  Biso   1.000  Ne
  Ne497    1.0000 0.40015  0.42914  0.75201  Biso   1.000  Ne
  He497    1.0000 0.42119  0.44629  0.72940  Biso   1.000  He
  He498    1.0000 0.42095  0.43417  0.69824  Biso   1.000  He
  Ne498    1.0000 0.44000  0.45234  0.67693  Biso   1.000  Ne
  Ne499    1.0000 0.87831  0.31317  0.42077  Biso   1.000  Ne
  He499    1.0000 0.90231  0.29190  0.42897  Biso   1.000  He
  He500    1.0000 0.91671  0.27469  0.40248  Biso   1.000  He
  Ne500    1.0000 0.94321  0.25887  0.41086  Biso   1.000  Ne
  Ne501    1.0000 0.80318  0.55715  0.24623  Biso   1.000  Ne
  He501    1.0000 0.83608  0.55859  0.25461  Biso   1.000  He
  He502    1.0000 0.85616  0.56916  0.23119  Biso   1.000  He
  Ne502    1.0000 0.88600  0.56741  0.24131  Biso   1.000  Ne
  Ne503    1.0000 0.39520  0.12280  0.35619  Biso   1.000  Ne
  He503    1.0000 0.41515  0.12389  0.38354  Biso   1.000  He
  He504    1.0000 0.40431  0.10469  0.40881  Biso   1.000  He
  Ne504    1.0000 0.42330  0.10989  0.43395  Biso   1.000  Ne
  Ne505    1.0000 0.40988  0.20814  0.39404  Biso   1.000  Ne
  He505    1.0000 0.39147  0.20780  0.36816  Biso   1.000  He
  He506    1.0000 0.40951  0.19982  0.34050  Biso   1.000  He
  Ne506    1.0000 0.39509  0.19604  0.31211  Biso   1.000  Ne
  Ne507    1.0000 0.17087  0.07214  0.09627  Biso   1.000  Ne
  He507    1.0000 0.17088  0.09331  0.11862  Biso   1.000  He
  He508    1.0000 0.14977  0.12011  0.11947  Biso   1.000  He
  Ne508    1.0000 0.16646  0.14519  0.10283  Biso   1.000  Ne
  Ne509    1.0000 0.23745  0.34877  0.90177  Biso   1.000  Ne
  He509    1.0000 0.25731  0.37008  0.91838  Biso   1.000  He
  He510    1.0000 0.27347  0.39326  0.89927  Biso   1.000  He
  Ne510    1.0000 0.29508  0.41101  0.91533  Biso   1.000  Ne
  Ne511    1.0000 0.80449  0.14537  0.07526  Biso   1.000  Ne
  He511    1.0000 0.82482  0.13118  0.09773  Biso   1.000  He
  He512    1.0000 0.81690  0.10060  0.11192  Biso   1.000  He
  Ne512    1.0000 0.82816  0.07552  0.09529  Biso   1.000  Ne
  Ne513    1.0000 0.68331  0.19082  0.13528  Biso   1.000  Ne
  He513    1.0000 0.65758  0.21157  0.14337  Biso   1.000  He
  He514    1.0000 0.62988  0.20256  0.13181  Biso   1.000  He
  Ne514    1.0000 0.60294  0.22058  0.14086  Biso   1.000  Ne
  Ne515    1.0000 0.67159  0.81243  0.72619  Biso   1.000  Ne
  He515    1.0000 0.65529  0.81049  0.75775  Biso   1.000  He
  He516    1.0000 0.67900  0.81656  0.78038  Biso   1.000  He
  Ne516    1.0000 0.66575  0.81651  0.81248  Biso   1.000  Ne
  Ne517    1.0000 0.27128  0.10154  0.96003  Biso   1.000  Ne
  He517    1.0000 0.28016  0.13000  0.94257  Biso   1.000  He
  He518    1.0000 0.27207  0.12708  0.90871  Biso   1.000  He
  Ne518    1.0000 0.28381  0.15265  0.89269  Biso   1.000  Ne
  Ne519    1.0000 0.38446  0.57474  0.79689  Biso   1.000  Ne
  He519    1.0000 0.35480  0.57057  0.78075  Biso   1.000  He
  He520    1.0000 0.33636  0.59600  0.78356  Biso   1.000  He
  Ne520    1.0000 0.30938  0.59277  0.76361  Biso   1.000  Ne
  Ne521    1.0000 0.24355  0.15437  0.17553  Biso   1.000  Ne
  He521    1.0000 0.21249  0.14551  0.18395  Biso   1.000  He
  He522    1.0000 0.21180  0.11663  0.19800  Biso   1.000  He
  Ne522    1.0000 0.17866  0.10846  0.20455  Biso   1.000  Ne
  Ne523    1.0000 0.09219  0.35624  0.81957  Biso   1.000  Ne
  He523    1.0000 0.09427  0.35148  0.78529  Biso   1.000  He
  He524    1.0000 0.06755  0.33696  0.77272  Biso   1.000  He
  Ne524    1.0000 0.06644  0.32957  0.74049  Biso   1.000  Ne
  Ne525    1.0000 0.27966  0.67997  0.76782  Biso   1.000  Ne
  He525    1.0000 0.25134  0.66473  0.76725  Biso   1.000  He
  He526    1.0000 0.22795  0.68862  0.76318  Biso   1.000  He
  Ne526    1.0000 0.19794  0.67446  0.75436  Biso   1.000  Ne
  Ne527    1.0000 0.93200  0.71430  0.02270  Biso   1.000  Ne
  He527    1.0000 0.95347  0.70543  0.04617  Biso   1.000  He
  He528    1.0000 0.94700  0.71148  0.07728  Biso   1.000  He
  Ne528    1.0000 0.97111  0.69846  0.09829  Biso   1.000  Ne
  Ne529    1.0000 0.30839  0.71723  0.54514  Biso   1.000  Ne
  He529    1.0000 0.30766  0.68984  0.52788  Biso   1.000  He
  He530    1.0000 0.28670  0.69210  0.50181  Biso   1.000  He
  Ne530    1.0000 0.28658  0.66799  0.48049  Biso   1.000  Ne
  Ne531    1.0000 0.30820  0.44812  0.72002  Biso   1.000  Ne
  He531    1.0000 0.30632  0.44484  0.68688  Biso   1.000  He
  He532    1.0000 0.32198  0.41785  0.67753  Biso   1.000  He
  Ne532    1.0000 0.32503  0.41394  0.64660  Biso   1.000  Ne
  Ne533    1.0000 0.74489  0.90839  0.11567  Biso   1.000  Ne
  He533    1.0000 0.77848  0.90947  0.12107  Biso   1.000  He
  He534    1.0000 0.79430  0.89640  0.09436  Biso   1.000  He
  Ne534    1.0000 0.82421  0.90971  0.09191  Biso   1.000  Ne
  Ne535    1.0000 0.83382  0.32730  0.79727  Biso   1.000  Ne
  He535    1.0000 0.83849  0.31355  0.82761  Biso   1.000  He
  He536    1.0000 0.81336  0.31905  0.84679  Biso   1.000  He
  Ne536    1.0000 0.81013  0.30676  0.87599  Biso   1.000  Ne
  Ne537    1.0000 0.68440  0.99412  0.08857  Biso   1.000  Ne
  He537    1.0000 0.68602  0.02530  0.10268  Biso   1.000  He
  He538    1.0000 0.67492  0.02542  0.13544  Biso   1.000  He
  Ne538    1.0000 0.68622  0.04974  0.15233  Biso   1.000  Ne
  Ne539    1.0000 0.90887  0.20139  0.88834  Biso   1.000  Ne
  He539    1.0000 0.88469  0.22526  0.88978  Biso   1.000  He
  He540    1.0000 0.87404  0.23053  0.92031  Biso   1.000  He
  Ne540    1.0000 0.84669  0.24801  0.91798  Biso   1.000  Ne
  Ne541    1.0000 0.37415  0.64292  0.29759  Biso   1.000  Ne
  He541    1.0000 0.37838  0.64041  0.26680  Biso   1.000  He
  He542    1.0000 0.35081  0.64804  0.24997  Biso   1.000  He
  Ne542    1.0000 0.35568  0.64818  0.21736  Biso   1.000  Ne
  Ne543    1.0000 0.88148  0.92842  0.25521  Biso   1.000  Ne
  He543    1.0000 0.85552  0.92745  0.23439  Biso   1.000  He
  He544    1.0000 0.82773  0.93829  0.24728  Biso   1.000  He
  Ne544    1.0000 0.80288  0.93405  0.22840  Biso   1.000  Ne
  Ne545    1.0000 0.86099  0.21614  0.78933  Biso   1.000  Ne
  He545    1.0000 0.87318  0.18480  0.78739  Biso   1.000  He
  He546    1.0000 0.90103  0.17700  0.80470  Biso   1.000  He
  Ne546    1.0000 0.91394  0.14565  0.79951  Biso   1.000  Ne
  Ne547    1.0000 0.55747  0.23284  0.94072  Biso   1.000  Ne
  He547    1.0000 0.55440  0.21760  0.96788  Biso   1.000  He
  He548    1.0000 0.52990  0.22686  0.98736  Biso   1.000  He
  Ne548    1.0000 0.52611  0.20847  0.01529  Biso   1.000  Ne
  Ne549    1.0000 0.28151  0.90739  0.94608  Biso   1.000  Ne
  He549    1.0000 0.26011  0.88198  0.95506  Biso   1.000  He
  He550    1.0000 0.24843  0.86474  0.93023  Biso   1.000  He
  Ne550    1.0000 0.23016  0.83917  0.93734  Biso   1.000  Ne
  Ne551    1.0000 0.47043  0.68921  0.38443  Biso   1.000  Ne
  He551    1.0000 0.47268  0.68008  0.41370  Biso   1.000  He
  He552    1.0000 0.50298  0.68879  0.42539  Biso   1.000  He
  Ne552    1.0000 0.50804  0.67936  0.45782  Biso   1.000  Ne
  Ne553    1.0000 0.35602  0.76814  0.99701  Biso   1.000  Ne
  He553    1.0000 0.33225  0.79051  0.99438  Biso   1.000  He
  He554    1.0000 0.31641  0.80039  0.02192  Biso   1.000  He
  Ne554    1.0000 0.29549  0.82621  0.01504  Biso   1.000  Ne
  Ne555    1.0000 0.76168  0.10322  0.18152  Biso   1.000  Ne
  He555    1.0000 0.74012  0.08745  0.19982  Biso   1.000  He
  He556    1.0000 0.74605  0.09130  0.23328  Biso   1.000  He
  Ne556    1.0000 0.72292  0.07836  0.25136  Biso   1.000  Ne
  Ne557    1.0000 0.58761  0.22025  0.36416  Biso   1.000  Ne
  He557    1.0000 0.57659  0.25176  0.37233  Biso   1.000  He
  He558    1.0000 0.59806  0.27686  0.36257  Biso   1.000  He
  Ne558    1.0000 0.58168  0.30552  0.36506  Biso   1.000  Ne
  Ne559    1.0000 0.30750  0.56699  0.67902  Biso   1.000  Ne
  He559    1.0000 0.28374  0.55398  0.66086  Biso   1.000  He
  He560    1.0000 0.27703  0.56622  0.63024  Biso   1.000  He
  Ne560    1.0000 0.24933  0.55572  0.61669  Biso   1.000  Ne
  Ne561    1.0000 0.58277  0.85298  0.73364  Biso   1.000  Ne
  He561    1.0000 0.57491  0.83912  0.76325  Biso   1.000  He
  He562    1.0000 0.54298  0.84571  0.77487  Biso   1.000  He
  Ne562    1.0000 0.53677  0.83615  0.80531  Biso   1.000  Ne
  Ne563    1.0000 0.44145  0.88340  0.23304  Biso   1.000  Ne
  He563    1.0000 0.44698  0.91521  0.23736  Biso   1.000  He
  He564    1.0000 0.47545  0.92322  0.22913  Biso   1.000  He
  Ne564    1.0000 0.48311  0.95743  0.23212  Biso   1.000  Ne
  Ne565    1.0000 0.02560  0.65709  0.24893  Biso   1.000  Ne
  He565    1.0000 0.02595  0.68732  0.25217  Biso   1.000  He
  He566    1.0000 0.05517  0.69995  0.25824  Biso   1.000  He
  Ne566    1.0000 0.05540  0.73089  0.26319  Biso   1.000  Ne
  Ne567    1.0000 0.83959  0.64856  0.27699  Biso   1.000  Ne
  He567    1.0000 0.83405  0.67771  0.26252  Biso   1.000  He
  He568    1.0000 0.86015  0.69957  0.26427  Biso   1.000  He
  Ne568    1.0000 0.85482  0.72971  0.24824  Biso   1.000  Ne
  Ne569    1.0000 0.33885  0.34306  0.91437  Biso   1.000  Ne
  He569    1.0000 0.36359  0.31847  0.91636  Biso   1.000  He
  He570    1.0000 0.39066  0.32597  0.89941  Biso   1.000  He
  Ne570    1.0000 0.41402  0.30157  0.89912  Biso   1.000  Ne
  Ne571    1.0000 0.88174  0.36669  0.01037  Biso   1.000  Ne
  He571    1.0000 0.91366  0.36027  0.00012  Biso   1.000  He
  He572    1.0000 0.92953  0.38815  0.99716  Biso   1.000  He
  Ne572    1.0000 0.96154  0.38628  0.98682  Biso   1.000  Ne
  Ne573    1.0000 0.17314  0.24238  0.15545  Biso   1.000  Ne
  He573    1.0000 0.20198  0.22773  0.14968  Biso   1.000  He
  He574    1.0000 0.20699  0.23079  0.11528  Biso   1.000  He
  Ne574    1.0000 0.23629  0.21774  0.10697  Biso   1.000  Ne
  Ne575    1.0000 0.37775  0.31887  0.15032  Biso   1.000  Ne
  He575    1.0000 0.37830  0.29440  0.12762  Biso   1.000  He
  He576    1.0000 0.38509  0.30973  0.09974  Biso   1.000  He
  Ne576    1.0000 0.39643  0.29391  0.07295  Biso   1.000  Ne
  Ne577    1.0000 0.04757  0.21164  0.49764  Biso   1.000  Ne
  He577    1.0000 0.02575  0.18760  0.49335  Biso   1.000  He
  He578    1.0000 0.00997  0.18059  0.52184  Biso   1.000  He
  Ne578    1.0000 0.99235  0.15518  0.52030  Biso   1.000  Ne
  Ne579    1.0000 0.03709  0.24872  0.81236  Biso   1.000  Ne
  He579    1.0000 0.02060  0.27446  0.82293  Biso   1.000  He
  He580    1.0000 0.03816  0.29554  0.84109  Biso   1.000  He
  Ne580    1.0000 0.02843  0.32330  0.86032  Biso   1.000  Ne
  Ne581    1.0000 0.69077  0.31098  0.65470  Biso   1.000  Ne
  He581    1.0000 0.66993  0.33346  0.64669  Biso   1.000  He
  He582    1.0000 0.68106  0.35913  0.63008  Biso   1.000  He
  Ne582    1.0000 0.65318  0.37744  0.62411  Biso   1.000  Ne
  Ne583    1.0000 0.70633  0.58352  0.89932  Biso   1.000  Ne
  He583    1.0000 0.67337  0.57916  0.89891  Biso   1.000  He
  He584    1.0000 0.66418  0.57216  0.93185  Biso   1.000  He
  Ne584    1.0000 0.63138  0.57253  0.93566  Biso   1.000  Ne
  Ne585    1.0000 0.46387  0.66781  0.64534  Biso   1.000  Ne
  He585    1.0000 0.48422  0.68854  0.66137  Biso   1.000  He
  He586    1.0000 0.47235  0.70217  0.69223  Biso   1.000  He
  Ne586    1.0000 0.48095  0.68718  0.72071  Biso   1.000  Ne
  Ne587    1.0000 0.22621  0.41702  0.35972  Biso   1.000  Ne
  He587    1.0000 0.24274  0.41251  0.33155  Biso   1.000  He
  He588    1.0000 0.27004  0.43245  0.33125  Biso   1.000  He
  Ne588    1.0000 0.29001  0.42920  0.30333  Biso   1.000  Ne
  Ne589    1.0000 0.12688  0.38983  0.69014  Biso   1.000  Ne
  He589    1.0000 0.09602  0.38957  0.67736  Biso   1.000  He
  He590    1.0000 0.08710  0.41760  0.66598  Biso   1.000  He
  Ne590    1.0000 0.05799  0.41268  0.65166  Biso   1.000  Ne
  Ne591    1.0000 0.07216  0.93253  0.96134  Biso   1.000  Ne
  He591    1.0000 0.04564  0.93836  0.94611  Biso   1.000  He
  He592    1.0000 0.03674  0.97122  0.94472  Biso   1.000  He
  Ne592    1.0000 0.00602  0.97487  0.93319  Biso   1.000  Ne
  Ne593    1.0000 0.63319  0.31108  0.82710  Biso   1.000  Ne
  He593    1.0000 0.61872  0.33967  0.82313  Biso   1.000  He
  He594    1.0000 0.58420  0.33540  0.82481  Biso   1.000  He
  Ne594    1.0000 0.56772  0.36291  0.82003  Biso   1.000  Ne
  Ne595    1.0000 0.24215  0.64617  0.57769  Biso   1.000  Ne
  He595    1.0000 0.25520  0.64699  0.60854  Biso   1.000  He
  He596    1.0000 0.28545  0.63928  0.61254  Biso   1.000  He
  Ne596    1.0000 0.29707  0.64106  0.64270  Biso   1.000  Ne
  Ne597    1.0000 0.68515  0.03239  0.87561  Biso   1.000  Ne
  He597    1.0000 0.67987  0.00337  0.86066  Biso   1.000  He
  He598    1.0000 0.67609  0.00750  0.82875  Biso   1.000  He
  Ne598    1.0000 0.67821  0.97834  0.81581  Biso   1.000  Ne
  Ne599    1.0000 0.03814  0.47664  0.43175  Biso   1.000  Ne
  He599    1.0000 0.06682  0.46509  0.41797  Biso   1.000  He
  He600    1.0000 0.09285  0.46536  0.43508  Biso   1.000  He
  Ne600    1.0000 0.11630  0.44775  0.41866  Biso   1.000  Ne
  Ne601    1.0000 0.83886  0.85357  0.60465  Biso   1.000  Ne
  He601    1.0000 0.84918  0.83188  0.58356  Biso   1.000  He
  He602    1.0000 0.82880  0.80669  0.58282  Biso   1.000  He
  Ne602    1.0000 0.84070  0.77552  0.57410  Biso   1.000  Ne
  Ne603    1.0000 0.20666  0.73090  0.85699  Biso   1.000  Ne
  He603    1.0000 0.21411  0.74667  0.82929  Biso   1.000  He
  He604    1.0000 0.24444  0.76113  0.83024  Biso   1.000  He
  Ne604    1.0000 0.25678  0.77398  0.79898  Biso   1.000  Ne
  Ne605    1.0000 0.17189  0.80903  0.78635  Biso   1.000  Ne
  He605    1.0000 0.19262  0.80022  0.76342  Biso   1.000  He
  He606    1.0000 0.18232  0.80277  0.73096  Biso   1.000  He
  Ne606    1.0000 0.20566  0.79266  0.71010  Biso   1.000  Ne
  Ne607    1.0000 0.30163  0.37440  0.12607  Biso   1.000  Ne
  He607    1.0000 0.30777  0.34764  0.14562  Biso   1.000  He
  He608    1.0000 0.30071  0.35115  0.17763  Biso   1.000  He
  Ne608    1.0000 0.30866  0.32434  0.20002  Biso   1.000  Ne
  Ne609    1.0000 0.27674  0.05068  0.89896  Biso   1.000  Ne
  He609    1.0000 0.28010  0.02272  0.91773  Biso   1.000  He
  He610    1.0000 0.27135  0.02237  0.95026  Biso   1.000  He
  Ne610    1.0000 0.26992  0.99215  0.96600  Biso   1.000  Ne
  Ne611    1.0000 0.11529  0.09499  0.28294  Biso   1.000  Ne
  He611    1.0000 0.09824  0.08626  0.25522  Biso   1.000  He
  He612    1.0000 0.09095  0.10994  0.23435  Biso   1.000  He
  Ne612    1.0000 0.07738  0.09976  0.20864  Biso   1.000  Ne
  Ne613    1.0000 0.25103  0.12455  0.45343  Biso   1.000  Ne
  He613    1.0000 0.24656  0.09141  0.45763  Biso   1.000  He
  He614    1.0000 0.21563  0.08202  0.45975  Biso   1.000  He
  Ne614    1.0000 0.20930  0.04877  0.46270  Biso   1.000  Ne
  Ne615    1.0000 0.59456  0.68247  0.90320  Biso   1.000  Ne
  He615    1.0000 0.57049  0.67194  0.92571  Biso   1.000  He
  He616    1.0000 0.56762  0.63873  0.92821  Biso   1.000  He
  Ne616    1.0000 0.54501  0.63083  0.95245  Biso   1.000  Ne
  Ne617    1.0000 0.54767  0.82215  0.42969  Biso   1.000  Ne
  He617    1.0000 0.57745  0.80334  0.42893  Biso   1.000  He
  He618    1.0000 0.60549  0.81569  0.44394  Biso   1.000  He
  Ne618    1.0000 0.63198  0.82435  0.42629  Biso   1.000  Ne
  Ne619    1.0000 0.17801  0.90534  0.15162  Biso   1.000  Ne
  He619    1.0000 0.19474  0.90742  0.12336  Biso   1.000  He
  He620    1.0000 0.21879  0.88236  0.12346  Biso   1.000  He
  Ne620    1.0000 0.24893  0.89367  0.12975  Biso   1.000  Ne
  Ne621    1.0000 0.78877  0.22071  0.30094  Biso   1.000  Ne
  He621    1.0000 0.76249  0.20202  0.30675  Biso   1.000  He
  He622    1.0000 0.76909  0.17496  0.32392  Biso   1.000  He
  Ne622    1.0000 0.74331  0.15572  0.33056  Biso   1.000  Ne
  Ne623    1.0000 0.85847  0.75999  0.80348  Biso   1.000  Ne
  He623    1.0000 0.87318  0.78751  0.81482  Biso   1.000  He
  He624    1.0000 0.89460  0.78485  0.84198  Biso   1.000  He
  Ne624    1.0000 0.90111  0.81269  0.85699  Biso   1.000  Ne
  Ne625    1.0000 0.19022  0.06466  0.88522  Biso   1.000  Ne
  He625    1.0000 0.17536  0.07614  0.91277  Biso   1.000  He
  He626    1.0000 0.14336  0.06955  0.91714  Biso   1.000  He
  Ne626    1.0000 0.13000  0.08105  0.94517  Biso   1.000  Ne
  Ne627    1.0000 0.87526  0.39927  0.31389  Biso   1.000  Ne
  He627    1.0000 0.90461  0.38272  0.31820  Biso   1.000  He
  He628    1.0000 0.90733  0.36818  0.34950  Biso   1.000  He
  Ne628    1.0000 0.93384  0.35004  0.35222  Biso   1.000  Ne
  Ne629    1.0000 0.18238  0.15724  0.27845  Biso   1.000  Ne
  He629    1.0000 0.15812  0.17891  0.28254  Biso   1.000  He
  He630    1.0000 0.14022  0.18249  0.25534  Biso   1.000  He
  Ne630    1.0000 0.11839  0.20531  0.25560  Biso   1.000  Ne
  Ne631    1.0000 0.90557  0.85668  0.70502  Biso   1.000  Ne
  He631    1.0000 0.93534  0.84298  0.71684  Biso   1.000  He
  He632    1.0000 0.94468  0.82069  0.69485  Biso   1.000  He
  Ne632    1.0000 0.97732  0.80841  0.69745  Biso   1.000  Ne
  Ne633    1.0000 0.67063  0.48297  0.32330  Biso   1.000  Ne
  He633    1.0000 0.68925  0.50769  0.33569  Biso   1.000  He
  He634    1.0000 0.70080  0.50407  0.36584  Biso   1.000  He
  Ne634    1.0000 0.71810  0.52945  0.37499  Biso   1.000  Ne
  Ne635    1.0000 0.09519  0.47368  0.22735  Biso   1.000  Ne
  He635    1.0000 0.09900  0.45286  0.19996  Biso   1.000  He
  He636    1.0000 0.09246  0.46653  0.17118  Biso   1.000  He
  Ne636    1.0000 0.09702  0.44549  0.14514  Biso   1.000  Ne
  Ne637    1.0000 0.66059  0.41356  0.93980  Biso   1.000  Ne
  He637    1.0000 0.67082  0.38328  0.92483  Biso   1.000  He
  He638    1.0000 0.65701  0.35341  0.93413  Biso   1.000  He
  Ne638    1.0000 0.66362  0.32796  0.91490  Biso   1.000  Ne
  Ne639    1.0000 0.75482  0.81784  0.61249  Biso   1.000  Ne
  He639    1.0000 0.75418  0.84023  0.63670  Biso   1.000  He
  He640    1.0000 0.76563  0.87063  0.62780  Biso   1.000  He
  Ne640    1.0000 0.75901  0.89866  0.64654  Biso   1.000  Ne
  Ne641    1.0000 0.13750  0.20792  0.80826  Biso   1.000  Ne
  He641    1.0000 0.14427  0.19144  0.78116  Biso   1.000  He
  He642    1.0000 0.15694  0.16198  0.78788  Biso   1.000  He
  Ne642    1.0000 0.16786  0.14499  0.76274  Biso   1.000  Ne
  Ne643    1.0000 0.42465  0.78110  0.13284  Biso   1.000  Ne
  He643    1.0000 0.41065  0.79883  0.10896  Biso   1.000  He
  He644    1.0000 0.40333  0.78139  0.08158  Biso   1.000  He
  Ne644    1.0000 0.42507  0.78685  0.05683  Biso   1.000  Ne
  Ne645    1.0000 0.66559  0.41579  0.09698  Biso   1.000  Ne
  He645    1.0000 0.68086  0.38638  0.10326  Biso   1.000  He
  He646    1.0000 0.66186  0.35814  0.09691  Biso   1.000  He
  Ne646    1.0000 0.67437  0.32838  0.10644  Biso   1.000  Ne
  Ne647    1.0000 0.74622  0.93475  0.83236  Biso   1.000  Ne
  He647    1.0000 0.75694  0.90185  0.82698  Biso   1.000  He
  He648    1.0000 0.76318  0.89557  0.79622  Biso   1.000  He
  Ne648    1.0000 0.76656  0.86309  0.78919  Biso   1.000  Ne
  Ne649    1.0000 0.41428  0.21992  0.19243  Biso   1.000  Ne
  He649    1.0000 0.41788  0.22769  0.15965  Biso   1.000  He
  He650    1.0000 0.43052  0.20175  0.13749  Biso   1.000  He
  Ne650    1.0000 0.42881  0.20714  0.10497  Biso   1.000  Ne
  Ne651    1.0000 0.82514  0.56340  0.33246  Biso   1.000  Ne
  He651    1.0000 0.85247  0.58201  0.32879  Biso   1.000  He
  He652    1.0000 0.87865  0.56531  0.31851  Biso   1.000  He
  Ne652    1.0000 0.90495  0.58197  0.31919  Biso   1.000  Ne
  Ne653    1.0000 0.74477  0.69281  0.40660  Biso   1.000  Ne
  He653    1.0000 0.75216  0.68407  0.37534  Biso   1.000  He
  He654    1.0000 0.77416  0.66088  0.36855  Biso   1.000  He
  Ne654    1.0000 0.77956  0.65297  0.33648  Biso   1.000  Ne
  Ne655    1.0000 0.88573  0.74984  0.36623  Biso   1.000  Ne
  He655    1.0000 0.87586  0.72186  0.35228  Biso   1.000  He
  He656    1.0000 0.88033  0.69328  0.36917  Biso   1.000  He
  Ne656    1.0000 0.86864  0.66816  0.35269  Biso   1.000  Ne
  Ne657    1.0000 0.88430  0.10150  0.26338  Biso   1.000  Ne
  He657    1.0000 0.85954  0.11046  0.24282  Biso   1.000  He
  He658    1.0000 0.86154  0.08849  0.21732  Biso   1.000  He
  Ne658    1.0000 0.84118  0.09419  0.19263  Biso   1.000  Ne
  Ne659    1.0000 0.58934  0.32735  0.71626  Biso   1.000  Ne
  He659    1.0000 0.62259  0.33275  0.72357  Biso   1.000  He
  He660    1.0000 0.63588  0.31241  0.74686  Biso   1.000  He
  Ne660    1.0000 0.66858  0.31851  0.74832  Biso   1.000  Ne
  Ne661    1.0000 0.15440  0.34557  0.13822  Biso   1.000  Ne
  He661    1.0000 0.18268  0.32643  0.14564  Biso   1.000  He
  He662    1.0000 0.21034  0.34297  0.15001  Biso   1.000  He
  Ne662    1.0000 0.23480  0.32151  0.15766  Biso   1.000  Ne
  Ne663    1.0000 0.56547  0.78122  0.60920  Biso   1.000  Ne
  He663    1.0000 0.58479  0.77840  0.63472  Biso   1.000  He
  He664    1.0000 0.57904  0.79763  0.66310  Biso   1.000  He
  Ne664    1.0000 0.60029  0.78951  0.68968  Biso   1.000  Ne
  Ne665    1.0000 0.80330  0.67763  0.02312  Biso   1.000  Ne
  He665    1.0000 0.81184  0.64661  0.01475  Biso   1.000  He
  He666    1.0000 0.80522  0.62205  0.04015  Biso   1.000  He
  Ne666    1.0000 0.77547  0.60479  0.03765  Biso   1.000  Ne
  Ne667    1.0000 0.40607  0.23006  0.82191  Biso   1.000  Ne
  He667    1.0000 0.42486  0.20535  0.83443  Biso   1.000  He
  He668    1.0000 0.44732  0.19273  0.81251  Biso   1.000  He
  Ne668    1.0000 0.46532  0.16884  0.82326  Biso   1.000  Ne
  Ne669    1.0000 0.06291  0.56535  0.79330  Biso   1.000  Ne
  He669    1.0000 0.05707  0.59173  0.81118  Biso   1.000  He
  He670    1.0000 0.02357  0.59985  0.81215  Biso   1.000  He
  Ne670    1.0000 0.01768  0.62645  0.83449  Biso   1.000  Ne
  Ne671    1.0000 0.60742  0.87210  0.89780  Biso   1.000  Ne
  He671    1.0000 0.63105  0.85096  0.90920  Biso   1.000  He
  He672    1.0000 0.62048  0.82060  0.92039  Biso   1.000  He
  Ne672    1.0000 0.61199  0.82054  0.95280  Biso   1.000  Ne
  Ne673    1.0000 0.73813  0.60073  0.41588  Biso   1.000  Ne
  He673    1.0000 0.76530  0.59323  0.43147  Biso   1.000  He
  He674    1.0000 0.78357  0.57273  0.41451  Biso   1.000  He
  Ne674    1.0000 0.81502  0.57014  0.42607  Biso   1.000  Ne
  Ne675    1.0000 0.19968  0.45641  0.87804  Biso   1.000  Ne
  He675    1.0000 0.19768  0.42713  0.86156  Biso   1.000  He
  He676    1.0000 0.16745  0.42227  0.84707  Biso   1.000  He
  Ne676    1.0000 0.16923  0.39017  0.83409  Biso   1.000  Ne
  Ne677    1.0000 0.78751  0.56269  0.71790  Biso   1.000  Ne
  He677    1.0000 0.77824  0.57095  0.74888  Biso   1.000  He
  He678    1.0000 0.80316  0.58739  0.76383  Biso   1.000  He
  Ne678    1.0000 0.79126  0.60007  0.79312  Biso   1.000  Ne
  Ne679    1.0000 0.16068  0.58569  0.62117  Biso   1.000  Ne
  He679    1.0000 0.15636  0.60168  0.64899  Biso   1.000  He
  He680    1.0000 0.18204  0.59761  0.66978  Biso   1.000  He
  Ne680    1.0000 0.18118  0.61813  0.69670  Biso   1.000  Ne
  Ne681    1.0000 0.07500  0.18585  0.75391  Biso   1.000  Ne
  He681    1.0000 0.08018  0.19007  0.72166  Biso   1.000  He
  He682    1.0000 0.09509  0.21929  0.71308  Biso   1.000  He
  Ne682    1.0000 0.09887  0.22678  0.68052  Biso   1.000  Ne
  Ne683    1.0000 0.57597  0.58437  0.19786  Biso   1.000  Ne
  He683    1.0000 0.60693  0.58771  0.18342  Biso   1.000  He
  He684    1.0000 0.62825  0.59781  0.20569  Biso   1.000  He
  Ne684    1.0000 0.65908  0.59274  0.19426  Biso   1.000  Ne
  Ne685    1.0000 0.23848  0.28067  0.42243  Biso   1.000  Ne
  He685    1.0000 0.20756  0.27321  0.42025  Biso   1.000  He
  He686    1.0000 0.20161  0.26347  0.38664  Biso   1.000  He
  Ne686    1.0000 0.17295  0.24777  0.38393  Biso   1.000  Ne
  Ne687    1.0000 0.58402  0.72079  0.82861  Biso   1.000  Ne
  He687    1.0000 0.56971  0.74858  0.83281  Biso   1.000  He
  He688    1.0000 0.54731  0.75032  0.85798  Biso   1.000  He
  Ne688    1.0000 0.52770  0.78018  0.85774  Biso   1.000  Ne
  Ne689    1.0000 0.32409  0.26375  0.27421  Biso   1.000  Ne
  He689    1.0000 0.29275  0.25262  0.28253  Biso   1.000  He
  He690    1.0000 0.29455  0.22708  0.30542  Biso   1.000  He
  Ne690    1.0000 0.26662  0.21630  0.31905  Biso   1.000  Ne
  Ne691    1.0000 0.76702  0.87788  0.54285  Biso   1.000  Ne
  He691    1.0000 0.78643  0.90432  0.54212  Biso   1.000  He
  He692    1.0000 0.77373  0.93404  0.53106  Biso   1.000  He
  Ne692    1.0000 0.79465  0.95934  0.53015  Biso   1.000  Ne
  Ne693    1.0000 0.03194  0.76625  0.92656  Biso   1.000  Ne
  He693    1.0000 0.06041  0.77281  0.91080  Biso   1.000  He
  He694    1.0000 0.08526  0.75659  0.92182  Biso   1.000  He
  Ne694    1.0000 0.11415  0.76219  0.90536  Biso   1.000  Ne
  Ne695    1.0000 0.44441  0.29542  0.63810  Biso   1.000  Ne
  He695    1.0000 0.47519  0.30831  0.64675  Biso   1.000  He
  He696    1.0000 0.47363  0.33532  0.66453  Biso   1.000  He
  Ne696    1.0000 0.50379  0.34386  0.67555  Biso   1.000  Ne
  Ne697    1.0000 0.07512  0.80760  0.64538  Biso   1.000  Ne
  He697    1.0000 0.06144  0.78121  0.65982  Biso   1.000  He
  He698    1.0000 0.04286  0.76080  0.64220  Biso   1.000  He
  Ne698    1.0000 0.03260  0.73359  0.65979  Biso   1.000  Ne
  Ne699    1.0000 0.52147  0.81583  0.01460  Biso   1.000  Ne
  He699    1.0000 0.50856  0.79743  0.03605  Biso   1.000  He
  He700    1.0000 0.52582  0.79561  0.06324  Biso   1.000  He
  Ne700    1.0000 0.51295  0.77482  0.08730  Biso   1.000  Ne
