data_image0
_cell_length_a       47.1207
_cell_length_b       46.5501
_cell_length_c       46.6275
_cell_angle_alpha    90
_cell_angle_beta     90
_cell_angle_gamma    90

_symmetry_space_group_name_H-M    "P 1"
_symmetry_int_tables_number       1

loop_
  _symmetry_equiv_pos_as_xyz
  'x, y, z'

loop_
  _atom_site_label
  _atom_site_occupancy
  _atom_site_fract_x
  _atom_site_fract_y
  _atom_site_fract_z
  _atom_site_thermal_displace_type
  _atom_site_B_iso_or_equiv
  _atom_site_type_symbol
  Ne1      1.0000 0.95139  0.83029  0.19451  Biso   1.000  Ne
  He1      1.0000 0.94188  0.86087  0.18913  Biso   1.000  He
  He2      1.0000 0.93687  0.86379  0.15627  Biso   1.000  He
  Ne2      1.0000 0.92588  0.89503  0.14480  Biso   1.000  Ne
  Ne3      1.0000 0.21055  0.57722  0.98105  Biso   1.000  Ne
  He3      1.0000 0.22841  0.55197  0.96792  Biso   1.000  He
  He4      1.0000 0.25846  0.56381  0.95600  Biso   1.000  He
  Ne4      1.0000 0.27966  0.54247  0.93985  Biso   1.000  Ne
  Ne5      1.0000 0.57170  0.03027  0.57608  Biso   1.000  Ne
  He5      1.0000 0.55523  0.05238  0.56265  Biso   1.000  He
  He6      1.0000 0.52502  0.04180  0.55159  Biso   1.000  He
  Ne6      1.0000 0.50917  0.06796  0.53901  Biso   1.000  Ne
  Ne7      1.0000 0.58350  0.39113  0.07242  Biso   1.000  Ne
  He7      1.0000 0.60765  0.40892  0.05642  Biso   1.000  He
  He8      1.0000 0.60532  0.44249  0.06573  Biso   1.000  He
  Ne8      1.0000 0.61766  0.46260  0.04092  Biso   1.000  Ne
  Ne9      1.0000 0.68964  0.20413  0.41555  Biso   1.000  Ne
  He9      1.0000 0.66620  0.18151  0.41792  Biso   1.000  He
  He10     1.0000 0.67685  0.15242  0.40256  Biso   1.000  He
  Ne10     1.0000 0.65528  0.12834  0.39693  Biso   1.000  Ne
  Ne11     1.0000 0.71429  0.64013  0.08457  Biso   1.000  Ne
  He11     1.0000 0.72042  0.60692  0.09098  Biso   1.000  He
  He12     1.0000 0.74598  0.60418  0.11344  Biso   1.000  He
  Ne12     1.0000 0.75663  0.57213  0.11408  Biso   1.000  Ne
  Ne13     1.0000 0.10233  0.61871  0.41377  Biso   1.000  Ne
  He13     1.0000 0.13018  0.63253  0.40625  Biso   1.000  He
  He14     1.0000 0.12751  0.66439  0.39401  Biso   1.000  He
  Ne14     1.0000 0.15538  0.67696  0.38693  Biso   1.000  Ne
  Ne15     1.0000 0.45225  0.52088  0.94842  Biso   1.000  Ne
  He15     1.0000 0.48024  0.50528  0.94102  Biso   1.000  He
  He16     1.0000 0.51009  0.52086  0.95098  Biso   1.000  He
  Ne16     1.0000 0.53990  0.51050  0.94010  Biso   1.000  Ne
  Ne17     1.0000 0.19284  0.05956  0.07071  Biso   1.000  Ne
  He17     1.0000 0.20348  0.08822  0.05781  Biso   1.000  He
  He18     1.0000 0.22271  0.10663  0.07497  Biso   1.000  He
  Ne18     1.0000 0.23415  0.13256  0.06116  Biso   1.000  Ne
  Ne19     1.0000 0.58845  0.90512  0.39338  Biso   1.000  Ne
  He19     1.0000 0.61678  0.89500  0.40637  Biso   1.000  He
  He20     1.0000 0.61067  0.88104  0.43712  Biso   1.000  He
  Ne20     1.0000 0.60400  0.84831  0.43755  Biso   1.000  Ne
  Ne21     1.0000 0.78182  0.56384  0.63486  Biso   1.000  Ne
  He21     1.0000 0.75385  0.54512  0.64024  Biso   1.000  He
  He22     1.0000 0.75335  0.51276  0.62937  Biso   1.000  He
  Ne22     1.0000 0.73495  0.49427  0.64760  Biso   1.000  Ne
  Ne23     1.0000 0.31438  0.88896  0.80963  Biso   1.000  Ne
  He23     1.0000 0.28569  0.87487  0.81347  Biso   1.000  He
  He24     1.0000 0.25953  0.89232  0.80595  Biso   1.000  He
  Ne24     1.0000 0.22827  0.87644  0.81289  Biso   1.000  Ne
  Ne25     1.0000 0.13752  0.82000  0.23417  Biso   1.000  Ne
  He25     1.0000 0.13190  0.84693  0.25361  Biso   1.000  He
  He26     1.0000 0.10553  0.86675  0.24377  Biso   1.000  He
  Ne26     1.0000 0.09732  0.89255  0.26612  Biso   1.000  Ne
  Ne27     1.0000 0.04567  0.55326  0.53244  Biso   1.000  Ne
  He27     1.0000 0.07037  0.53278  0.52540  Biso   1.000  He
  He28     1.0000 0.09779  0.54703  0.52988  Biso   1.000  He
  Ne28     1.0000 0.12242  0.52630  0.52677  Biso   1.000  Ne
  Ne29     1.0000 0.64392  0.06474  0.63599  Biso   1.000  Ne
  He29     1.0000 0.63867  0.06766  0.66889  Biso   1.000  He
  He30     1.0000 0.61812  0.09073  0.67982  Biso   1.000  He
  Ne30     1.0000 0.61696  0.09175  0.71318  Biso   1.000  Ne
  Ne31     1.0000 0.46327  0.36016  0.17276  Biso   1.000  Ne
  He31     1.0000 0.43838  0.37335  0.15541  Biso   1.000  He
  He32     1.0000 0.40756  0.36338  0.16624  Biso   1.000  He
  Ne32     1.0000 0.38778  0.38448  0.15340  Biso   1.000  Ne
  Ne33     1.0000 0.62791  0.84096  0.33779  Biso   1.000  Ne
  He33     1.0000 0.66066  0.85027  0.33043  Biso   1.000  He
  He34     1.0000 0.66370  0.88014  0.32371  Biso   1.000  He
  Ne34     1.0000 0.69550  0.89056  0.31999  Biso   1.000  Ne
  Ne35     1.0000 0.14021  0.07038  0.91416  Biso   1.000  Ne
  He35     1.0000 0.12845  0.06413  0.94502  Biso   1.000  He
  He36     1.0000 0.12355  0.03129  0.95198  Biso   1.000  He
  Ne36     1.0000 0.10851  0.02457  0.97994  Biso   1.000  Ne
  Ne37     1.0000 0.32984  0.61455  0.91235  Biso   1.000  Ne
  He37     1.0000 0.34467  0.58556  0.90787  Biso   1.000  He
  He38     1.0000 0.37482  0.59014  0.92312  Biso   1.000  He
  Ne38     1.0000 0.39585  0.56324  0.91976  Biso   1.000  Ne
  Ne39     1.0000 0.95992  0.48189  0.51268  Biso   1.000  Ne
  He39     1.0000 0.96564  0.51107  0.52761  Biso   1.000  He
  He40     1.0000 0.96393  0.51409  0.56007  Biso   1.000  He
  Ne40     1.0000 0.97134  0.54407  0.57290  Biso   1.000  Ne
  Ne41     1.0000 0.13710  0.05892  0.18817  Biso   1.000  Ne
  He41     1.0000 0.14303  0.05109  0.21945  Biso   1.000  He
  He42     1.0000 0.17556  0.04604  0.22604  Biso   1.000  He
  Ne42     1.0000 0.18100  0.03644  0.25712  Biso   1.000  Ne
  Ne43     1.0000 0.56912  0.41735  0.96861  Biso   1.000  Ne
  He43     1.0000 0.59246  0.40279  0.95486  Biso   1.000  He
  He44     1.0000 0.61315  0.42089  0.93547  Biso   1.000  He
  Ne44     1.0000 0.63967  0.40424  0.92271  Biso   1.000  Ne
  Ne45     1.0000 0.98806  0.48776  0.43602  Biso   1.000  Ne
  He45     1.0000 0.00306  0.51727  0.44284  Biso   1.000  He
  He46     1.0000 0.03596  0.52073  0.43390  Biso   1.000  He
  Ne46     1.0000 0.04644  0.54967  0.44516  Biso   1.000  Ne
  Ne47     1.0000 0.34449  0.56813  0.08986  Biso   1.000  Ne
  He47     1.0000 0.31871  0.54455  0.08907  Biso   1.000  He
  He48     1.0000 0.28832  0.55266  0.07670  Biso   1.000  He
  Ne48     1.0000 0.26268  0.53169  0.08244  Biso   1.000  Ne
  Ne49     1.0000 0.36240  0.51944  0.70371  Biso   1.000  Ne
  He49     1.0000 0.37795  0.53654  0.72972  Biso   1.000  He
  He50     1.0000 0.41191  0.54194  0.72520  Biso   1.000  He
  Ne50     1.0000 0.43034  0.55549  0.75287  Biso   1.000  Ne
  Ne51     1.0000 0.71522  0.84163  0.58833  Biso   1.000  Ne
  He51     1.0000 0.73445  0.85200  0.61397  Biso   1.000  He
  He52     1.0000 0.73764  0.88406  0.62077  Biso   1.000  He
  Ne52     1.0000 0.75152  0.88921  0.65138  Biso   1.000  Ne
  Ne53     1.0000 0.11349  0.59089  0.32352  Biso   1.000  Ne
  He53     1.0000 0.13097  0.57142  0.30367  Biso   1.000  He
  He54     1.0000 0.14629  0.54494  0.31934  Biso   1.000  He
  Ne54     1.0000 0.16300  0.52943  0.29949  Biso   1.000  Ne
  Ne55     1.0000 0.88324  0.89063  0.80693  Biso   1.000  Ne
  He55     1.0000 0.90505  0.89487  0.78207  Biso   1.000  He
  He56     1.0000 0.92880  0.91267  0.79643  Biso   1.000  He
  Ne56     1.0000 0.95103  0.91771  0.77289  Biso   1.000  Ne
  Ne57     1.0000 0.09210  0.72248  0.58338  Biso   1.000  Ne
  He57     1.0000 0.11806  0.70658  0.58842  Biso   1.000  He
  He58     1.0000 0.10704  0.67424  0.58840  Biso   1.000  He
  Ne58     1.0000 0.13067  0.65060  0.59397  Biso   1.000  Ne
  Ne59     1.0000 0.34437  0.52250  0.35247  Biso   1.000  Ne
  He59     1.0000 0.33163  0.49376  0.34411  Biso   1.000  He
  He60     1.0000 0.34696  0.46673  0.35602  Biso   1.000  He
  Ne60     1.0000 0.32888  0.43935  0.35618  Biso   1.000  Ne
  Ne61     1.0000 0.83647  0.38533  0.42840  Biso   1.000  Ne
  He61     1.0000 0.82684  0.36687  0.40398  Biso   1.000  He
  He62     1.0000 0.80472  0.38294  0.38710  Biso   1.000  He
  Ne62     1.0000 0.79181  0.36377  0.36154  Biso   1.000  Ne
  Ne63     1.0000 0.46955  0.85180  0.57308  Biso   1.000  Ne
  He63     1.0000 0.44448  0.87120  0.57804  Biso   1.000  He
  He64     1.0000 0.44252  0.89267  0.55200  Biso   1.000  He
  Ne64     1.0000 0.42391  0.91738  0.55858  Biso   1.000  Ne
  Ne65     1.0000 0.95127  0.30597  0.61289  Biso   1.000  Ne
  He65     1.0000 0.92268  0.30214  0.59631  Biso   1.000  He
  He66     1.0000 0.90034  0.32305  0.60668  Biso   1.000  He
  Ne66     1.0000 0.87370  0.31955  0.58584  Biso   1.000  Ne
  Ne67     1.0000 0.11434  0.31220  0.60227  Biso   1.000  Ne
  He67     1.0000 0.11462  0.33094  0.63056  Biso   1.000  He
  He68     1.0000 0.10421  0.31422  0.65668  Biso   1.000  He
  Ne68     1.0000 0.10777  0.33236  0.68495  Biso   1.000  Ne
  Ne69     1.0000 0.92542  0.65112  0.40956  Biso   1.000  Ne
  He69     1.0000 0.94950  0.65561  0.39016  Biso   1.000  He
  He70     1.0000 0.93960  0.65455  0.35704  Biso   1.000  He
  Ne70     1.0000 0.96509  0.66089  0.33476  Biso   1.000  Ne
  Ne71     1.0000 0.90033  0.15709  0.87078  Biso   1.000  Ne
  He71     1.0000 0.92306  0.18221  0.87384  Biso   1.000  He
  He72     1.0000 0.91957  0.20543  0.89725  Biso   1.000  He
  Ne72     1.0000 0.94336  0.22787  0.90240  Biso   1.000  Ne
  Ne73     1.0000 0.24821  0.30497  0.88746  Biso   1.000  Ne
  He73     1.0000 0.22638  0.27972  0.89233  Biso   1.000  He
  He74     1.0000 0.23158  0.25704  0.86949  Biso   1.000  He
  Ne74     1.0000 0.21262  0.22992  0.87334  Biso   1.000  Ne
  Ne75     1.0000 0.45392  0.41216  0.87042  Biso   1.000  Ne
  He75     1.0000 0.45211  0.40816  0.90288  Biso   1.000  He
  He76     1.0000 0.43043  0.42282  0.92282  Biso   1.000  He
  Ne76     1.0000 0.43231  0.41911  0.95441  Biso   1.000  Ne
  Ne77     1.0000 0.40220  0.18101  0.99296  Biso   1.000  Ne
  He77     1.0000 0.38957  0.16737  0.01667  Biso   1.000  He
  He78     1.0000 0.40675  0.14426  0.03469  Biso   1.000  He
  Ne78     1.0000 0.38687  0.13701  0.06090  Biso   1.000  Ne
  Ne79     1.0000 0.89312  0.62771  0.56675  Biso   1.000  Ne
  He79     1.0000 0.86967  0.61145  0.58590  Biso   1.000  He
  He80     1.0000 0.87685  0.58003  0.58968  Biso   1.000  He
  Ne80     1.0000 0.85184  0.56167  0.60337  Biso   1.000  Ne
  Ne81     1.0000 0.22961  0.35654  0.23184  Biso   1.000  Ne
  He81     1.0000 0.23454  0.34394  0.20415  Biso   1.000  He
  He82     1.0000 0.26795  0.34335  0.19616  Biso   1.000  He
  Ne82     1.0000 0.26987  0.32793  0.16649  Biso   1.000  Ne
  Ne83     1.0000 0.20905  0.78496  0.91094  Biso   1.000  Ne
  He83     1.0000 0.23304  0.78633  0.88733  Biso   1.000  He
  He84     1.0000 0.24704  0.75914  0.87683  Biso   1.000  He
  Ne84     1.0000 0.27073  0.76101  0.85293  Biso   1.000  Ne
  Ne85     1.0000 0.33655  0.63935  0.52432  Biso   1.000  Ne
  He85     1.0000 0.32644  0.61722  0.49901  Biso   1.000  He
  He86     1.0000 0.33779  0.62099  0.46952  Biso   1.000  He
  Ne86     1.0000 0.33154  0.59398  0.44988  Biso   1.000  Ne
  Ne87     1.0000 0.87287  0.91778  0.88540  Biso   1.000  Ne
  He87     1.0000 0.86359  0.88850  0.90074  Biso   1.000  He
  He88     1.0000 0.83168  0.88241  0.89661  Biso   1.000  He
  Ne88     1.0000 0.81697  0.85545  0.91100  Biso   1.000  Ne
  Ne89     1.0000 0.93256  0.58730  0.73267  Biso   1.000  Ne
  He89     1.0000 0.92904  0.59951  0.70396  Biso   1.000  He
  He90     1.0000 0.94957  0.58777  0.68035  Biso   1.000  He
  Ne90     1.0000 0.94505  0.59491  0.64788  Biso   1.000  Ne
  Ne91     1.0000 0.63840  0.91767  0.24291  Biso   1.000  Ne
  He91     1.0000 0.60846  0.92433  0.22849  Biso   1.000  He
  He92     1.0000 0.60786  0.92093  0.19633  Biso   1.000  He
  Ne92     1.0000 0.57940  0.92741  0.18468  Biso   1.000  Ne
  Ne93     1.0000 0.49919  0.57316  0.04649  Biso   1.000  Ne
  He93     1.0000 0.47674  0.56442  0.07214  Biso   1.000  He
  He94     1.0000 0.45381  0.58809  0.07981  Biso   1.000  He
  Ne94     1.0000 0.43408  0.58149  0.10745  Biso   1.000  Ne
  Ne95     1.0000 0.30470  0.39679  0.84037  Biso   1.000  Ne
  He95     1.0000 0.31449  0.38383  0.86895  Biso   1.000  He
  He96     1.0000 0.33571  0.40443  0.88406  Biso   1.000  He
  Ne96     1.0000 0.34572  0.39271  0.91401  Biso   1.000  Ne
  Ne97     1.0000 0.37139  0.91544  0.22473  Biso   1.000  Ne
  He97     1.0000 0.35686  0.88828  0.23478  Biso   1.000  He
  He98     1.0000 0.34164  0.89269  0.26421  Biso   1.000  He
  Ne98     1.0000 0.33581  0.86399  0.27905  Biso   1.000  Ne
  Ne99     1.0000 0.52555  0.70106  0.53496  Biso   1.000  Ne
  He99     1.0000 0.50839  0.70066  0.56239  Biso   1.000  He
  He100    1.0000 0.50850  0.67251  0.57733  Biso   1.000  He
  Ne100    1.0000 0.49179  0.67045  0.60797  Biso   1.000  Ne
  Ne101    1.0000 0.44602  0.14819  0.58378  Biso   1.000  Ne
  He101    1.0000 0.43856  0.16830  0.60698  Biso   1.000  He
  He102    1.0000 0.44545  0.15382  0.63651  Biso   1.000  He
  Ne102    1.0000 0.43472  0.16667  0.66503  Biso   1.000  Ne
  Ne103    1.0000 0.18166  0.87049  0.87140  Biso   1.000  Ne
  He103    1.0000 0.19933  0.87518  0.90111  Biso   1.000  He
  He104    1.0000 0.23162  0.87878  0.89556  Biso   1.000  He
  Ne104    1.0000 0.24987  0.87805  0.91931  Biso   1.000  Ne
  Ne105    1.0000 0.59945  0.38164  0.80632  Biso   1.000  Ne
  He105    1.0000 0.62070  0.40254  0.79529  Biso   1.000  He
  He106    1.0000 0.64774  0.38788  0.78749  Biso   1.000  He
  Ne106    1.0000 0.67167  0.41066  0.78388  Biso   1.000  Ne
  Ne107    1.0000 0.33592  0.81318  0.40376  Biso   1.000  Ne
  He107    1.0000 0.36590  0.80297  0.40885  Biso   1.000  He
  He108    1.0000 0.37254  0.77201  0.40666  Biso   1.000  He
  Ne108    1.0000 0.40536  0.76476  0.41193  Biso   1.000  Ne
  Ne109    1.0000 0.99771  0.17867  0.45449  Biso   1.000  Ne
  He109    1.0000 0.98764  0.19882  0.43294  Biso   1.000  He
  He110    1.0000 0.96394  0.21706  0.44891  Biso   1.000  He
  Ne110    1.0000 0.95232  0.23983  0.43223  Biso   1.000  Ne
  Ne111    1.0000 0.14465  0.19950  0.91913  Biso   1.000  Ne
  He111    1.0000 0.12928  0.17828  0.90024  Biso   1.000  He
  He112    1.0000 0.15058  0.16046  0.88238  Biso   1.000  He
  Ne112    1.0000 0.13568  0.13624  0.86308  Biso   1.000  Ne
  Ne113    1.0000 0.61386  0.56867  0.78701  Biso   1.000  Ne
  He113    1.0000 0.64194  0.58243  0.77606  Biso   1.000  He
  He114    1.0000 0.66090  0.56015  0.75798  Biso   1.000  He
  Ne114    1.0000 0.69360  0.57071  0.75294  Biso   1.000  Ne
  Ne115    1.0000 0.42692  0.75524  0.32188  Biso   1.000  Ne
  He115    1.0000 0.43107  0.78061  0.34448  Biso   1.000  He
  He116    1.0000 0.46307  0.79192  0.34519  Biso   1.000  He
  Ne116    1.0000 0.46550  0.81827  0.36472  Biso   1.000  Ne
  Ne117    1.0000 0.84681  0.76650  0.92321  Biso   1.000  Ne
  He117    1.0000 0.84146  0.73213  0.92963  Biso   1.000  He
  He118    1.0000 0.82797  0.71303  0.90754  Biso   1.000  He
  Ne118    1.0000 0.82789  0.67965  0.91496  Biso   1.000  Ne
  Ne119    1.0000 0.25312  0.64486  0.94457  Biso   1.000  Ne
  He119    1.0000 0.25703  0.66780  0.92222  Biso   1.000  He
  He120    1.0000 0.22930  0.68357  0.91159  Biso   1.000  He
  Ne120    1.0000 0.21851  0.67224  0.88362  Biso   1.000  Ne
  Ne121    1.0000 0.12455  0.19503  0.07660  Biso   1.000  Ne
  He121    1.0000 0.14430  0.17000  0.08514  Biso   1.000  He
  He122    1.0000 0.13881  0.16512  0.11618  Biso   1.000  He
  Ne122    1.0000 0.15910  0.14102  0.12454  Biso   1.000  Ne
  Ne123    1.0000 0.29443  0.52084  0.21589  Biso   1.000  Ne
  He123    1.0000 0.28032  0.52775  0.24761  Biso   1.000  He
  He124    1.0000 0.29818  0.54509  0.26733  Biso   1.000  He
  Ne124    1.0000 0.28338  0.55799  0.29245  Biso   1.000  Ne
  Ne125    1.0000 0.13426  0.41351  0.74420  Biso   1.000  Ne
  He125    1.0000 0.16652  0.41914  0.73728  Biso   1.000  He
  He126    1.0000 0.19074  0.41307  0.75622  Biso   1.000  He
  Ne126    1.0000 0.21970  0.42308  0.74235  Biso   1.000  Ne
  Ne127    1.0000 0.71592  0.40540  0.86592  Biso   1.000  Ne
  He127    1.0000 0.71315  0.37453  0.87391  Biso   1.000  He
  He128    1.0000 0.72176  0.37594  0.90727  Biso   1.000  He
  Ne128    1.0000 0.72891  0.34637  0.92019  Biso   1.000  Ne
  Ne129    1.0000 0.51606  0.65761  0.68635  Biso   1.000  Ne
  He129    1.0000 0.54789  0.65477  0.68612  Biso   1.000  He
  He130    1.0000 0.56372  0.66819  0.65815  Biso   1.000  He
  Ne130    1.0000 0.59506  0.66972  0.65948  Biso   1.000  Ne
  Ne131    1.0000 0.23478  0.20884  0.05869  Biso   1.000  Ne
  He131    1.0000 0.25415  0.23620  0.05811  Biso   1.000  He
  He132    1.0000 0.24023  0.25728  0.04070  Biso   1.000  He
  Ne132    1.0000 0.25646  0.28591  0.03657  Biso   1.000  Ne
  Ne133    1.0000 0.46589  0.45463  0.05137  Biso   1.000  Ne
  He133    1.0000 0.45723  0.42372  0.05548  Biso   1.000  He
  He134    1.0000 0.47905  0.40839  0.07080  Biso   1.000  He
  Ne134    1.0000 0.47487  0.37433  0.07439  Biso   1.000  Ne
  Ne135    1.0000 0.39724  0.35000  0.07940  Biso   1.000  Ne
  He135    1.0000 0.36175  0.35007  0.07725  Biso   1.000  He
  He136    1.0000 0.34876  0.32078  0.07288  Biso   1.000  He
  Ne136    1.0000 0.31537  0.32579  0.07121  Biso   1.000  Ne
  Ne137    1.0000 0.40514  0.14547  0.29363  Biso   1.000  Ne
  He137    1.0000 0.41579  0.17113  0.27164  Biso   1.000  He
  He138    1.0000 0.44825  0.17407  0.27274  Biso   1.000  He
  Ne138    1.0000 0.45895  0.19646  0.25388  Biso   1.000  Ne
  Ne139    1.0000 0.93164  0.55800  0.34089  Biso   1.000  Ne
  He139    1.0000 0.92642  0.56922  0.37279  Biso   1.000  He
  He140    1.0000 0.94902  0.55905  0.39452  Biso   1.000  He
  Ne140    1.0000 0.93835  0.56974  0.42471  Biso   1.000  Ne
  Ne141    1.0000 0.53876  0.50952  0.70677  Biso   1.000  Ne
  He141    1.0000 0.56362  0.49554  0.72070  Biso   1.000  He
  He142    1.0000 0.56314  0.46068  0.72046  Biso   1.000  He
  Ne142    1.0000 0.58986  0.44581  0.73154  Biso   1.000  Ne
  Ne143    1.0000 0.03674  0.00381  0.02075  Biso   1.000  Ne
  He143    1.0000 0.03266  0.03887  0.02717  Biso   1.000  He
  He144    1.0000 0.01212  0.04686  0.05133  Biso   1.000  He
  Ne144    1.0000 0.00995  0.07642  0.05634  Biso   1.000  Ne
  Ne145    1.0000 0.27095  0.58911  0.75522  Biso   1.000  Ne
  He145    1.0000 0.26961  0.60876  0.78231  Biso   1.000  He
  He146    1.0000 0.26906  0.59811  0.81164  Biso   1.000  He
  Ne146    1.0000 0.23857  0.59445  0.82439  Biso   1.000  Ne
  Ne147    1.0000 0.76409  0.07364  0.35818  Biso   1.000  Ne
  He147    1.0000 0.74345  0.05568  0.37990  Biso   1.000  He
  He148    1.0000 0.73960  0.07193  0.40759  Biso   1.000  He
  Ne148    1.0000 0.72288  0.05710  0.42961  Biso   1.000  Ne
  Ne149    1.0000 0.94780  0.06265  0.14042  Biso   1.000  Ne
  He149    1.0000 0.94300  0.04198  0.11571  Biso   1.000  He
  He150    1.0000 0.92463  0.05823  0.09104  Biso   1.000  He
  Ne150    1.0000 0.92150  0.03959  0.06323  Biso   1.000  Ne
  Ne151    1.0000 0.76874  0.37302  0.11613  Biso   1.000  Ne
  He151    1.0000 0.74955  0.39273  0.09712  Biso   1.000  He
  He152    1.0000 0.72075  0.38332  0.08926  Biso   1.000  He
  Ne152    1.0000 0.69705  0.40149  0.07364  Biso   1.000  Ne
  Ne153    1.0000 0.94501  0.10485  0.22803  Biso   1.000  Ne
  He153    1.0000 0.91980  0.08312  0.23553  Biso   1.000  He
  He154    1.0000 0.90920  0.06420  0.20924  Biso   1.000  He
  Ne154    1.0000 0.88184  0.07781  0.19039  Biso   1.000  Ne
  Ne155    1.0000 0.68553  0.15914  0.09292  Biso   1.000  Ne
  He155    1.0000 0.66382  0.17161  0.11709  Biso   1.000  He
  He156    1.0000 0.65096  0.19969  0.10715  Biso   1.000  He
  Ne156    1.0000 0.62782  0.20953  0.13247  Biso   1.000  Ne
  Ne157    1.0000 0.87268  0.28121  0.97834  Biso   1.000  Ne
  He157    1.0000 0.87609  0.26987  0.94823  Biso   1.000  He
  He158    1.0000 0.85524  0.24215  0.94165  Biso   1.000  He
  Ne158    1.0000 0.82633  0.24934  0.92424  Biso   1.000  Ne
  Ne159    1.0000 0.87150  0.31047  0.36835  Biso   1.000  Ne
  He159    1.0000 0.88076  0.28991  0.38843  Biso   1.000  He
  He160    1.0000 0.86608  0.25783  0.38523  Biso   1.000  He
  Ne160    1.0000 0.87455  0.23592  0.40757  Biso   1.000  Ne
  Ne161    1.0000 0.20023  0.34506  0.31034  Biso   1.000  Ne
  He161    1.0000 0.17891  0.35082  0.33291  Biso   1.000  He
  He162    1.0000 0.15054  0.35863  0.31806  Biso   1.000  He
  Ne162    1.0000 0.12484  0.36382  0.34105  Biso   1.000  Ne
  Ne163    1.0000 0.43745  0.05641  0.26236  Biso   1.000  Ne
  He163    1.0000 0.44302  0.06963  0.29254  Biso   1.000  He
  He164    1.0000 0.46109  0.09490  0.29227  Biso   1.000  He
  Ne164    1.0000 0.46840  0.11209  0.32085  Biso   1.000  Ne
  Ne165    1.0000 0.43836  0.27580  0.15743  Biso   1.000  Ne
  He165    1.0000 0.44703  0.26919  0.18887  Biso   1.000  He
  He166    1.0000 0.43153  0.29078  0.20920  Biso   1.000  He
  Ne166    1.0000 0.43617  0.28569  0.23804  Biso   1.000  Ne
  Ne167    1.0000 0.67410  0.06455  0.32403  Biso   1.000  Ne
  He167    1.0000 0.64351  0.05836  0.33665  Biso   1.000  He
  He168    1.0000 0.64500  0.04595  0.36597  Biso   1.000  He
  Ne168    1.0000 0.61584  0.03785  0.38236  Biso   1.000  Ne
  Ne169    1.0000 0.24148  0.20585  0.57738  Biso   1.000  Ne
  He169    1.0000 0.21170  0.22050  0.57458  Biso   1.000  He
  He170    1.0000 0.20850  0.24793  0.59260  Biso   1.000  He
  Ne170    1.0000 0.17983  0.26184  0.58695  Biso   1.000  Ne
  Ne171    1.0000 0.72261  0.27728  0.87464  Biso   1.000  Ne
  He171    1.0000 0.71636  0.25036  0.89188  Biso   1.000  He
  He172    1.0000 0.72479  0.25039  0.92508  Biso   1.000  He
  Ne172    1.0000 0.72055  0.22057  0.93822  Biso   1.000  Ne
  Ne173    1.0000 0.73046  0.72547  0.11194  Biso   1.000  Ne
  He173    1.0000 0.72293  0.74825  0.09347  Biso   1.000  He
  He174    1.0000 0.69435  0.73769  0.07757  Biso   1.000  He
  Ne174    1.0000 0.68254  0.75699  0.05261  Biso   1.000  Ne
  Ne175    1.0000 0.95778  0.72312  0.04046  Biso   1.000  Ne
  He175    1.0000 0.96003  0.75686  0.05196  Biso   1.000  He
  He176    1.0000 0.92908  0.77016  0.05542  Biso   1.000  He
  Ne176    1.0000 0.93088  0.79848  0.07077  Biso   1.000  Ne
  Ne177    1.0000 0.46792  0.68889  0.75452  Biso   1.000  Ne
  He177    1.0000 0.44414  0.67026  0.76768  Biso   1.000  He
  He178    1.0000 0.44972  0.66354  0.79866  Biso   1.000  He
  Ne178    1.0000 0.42217  0.65337  0.81444  Biso   1.000  Ne
  Ne179    1.0000 0.14772  0.56766  0.63775  Biso   1.000  Ne
  He179    1.0000 0.17556  0.58270  0.62688  Biso   1.000  He
  He180    1.0000 0.18646  0.58003  0.59535  Biso   1.000  He
  Ne180    1.0000 0.21680  0.59555  0.59089  Biso   1.000  Ne
  Ne181    1.0000 0.94488  0.89368  0.91478  Biso   1.000  Ne
  He181    1.0000 0.95778  0.91802  0.93421  Biso   1.000  He
  He182    1.0000 0.98791  0.91924  0.93315  Biso   1.000  He
  Ne182    1.0000 0.00336  0.94410  0.95329  Biso   1.000  Ne
  Ne183    1.0000 0.94151  0.69924  0.26200  Biso   1.000  Ne
  He183    1.0000 0.94010  0.73220  0.26852  Biso   1.000  He
  He184    1.0000 0.97047  0.74873  0.26594  Biso   1.000  He
  Ne184    1.0000 0.96896  0.78156  0.27243  Biso   1.000  Ne
  Ne185    1.0000 0.89132  0.40221  0.33927  Biso   1.000  Ne
  He185    1.0000 0.90790  0.37551  0.33068  Biso   1.000  He
  He186    1.0000 0.94118  0.37710  0.33579  Biso   1.000  He
  Ne186    1.0000 0.95461  0.34665  0.32884  Biso   1.000  Ne
  Ne187    1.0000 0.64473  0.64997  0.92131  Biso   1.000  Ne
  He187    1.0000 0.64682  0.66815  0.89244  Biso   1.000  He
  He188    1.0000 0.63067  0.69725  0.89143  Biso   1.000  He
  Ne188    1.0000 0.63738  0.71737  0.86560  Biso   1.000  Ne
  Ne189    1.0000 0.77800  0.93573  0.83271  Biso   1.000  Ne
  He189    1.0000 0.74611  0.94260  0.83478  Biso   1.000  He
  He190    1.0000 0.73940  0.97745  0.83295  Biso   1.000  He
  Ne190    1.0000 0.70758  0.98705  0.83000  Biso   1.000  Ne
  Ne191    1.0000 0.94892  0.33467  0.43144  Biso   1.000  Ne
  He191    1.0000 0.95417  0.36481  0.41950  Biso   1.000  He
  He192    1.0000 0.94304  0.39000  0.43991  Biso   1.000  He
  Ne192    1.0000 0.94996  0.42163  0.42822  Biso   1.000  Ne
  Ne193    1.0000 0.60703  0.04396  0.26079  Biso   1.000  Ne
  He193    1.0000 0.61612  0.06303  0.23547  Biso   1.000  He
  He194    1.0000 0.64378  0.05147  0.22171  Biso   1.000  He
  Ne194    1.0000 0.64707  0.06406  0.19057  Biso   1.000  Ne
  Ne195    1.0000 0.28904  0.19160  0.89633  Biso   1.000  Ne
  He195    1.0000 0.26769  0.16886  0.90531  Biso   1.000  He
  He196    1.0000 0.25111  0.14955  0.88142  Biso   1.000  He
  Ne196    1.0000 0.23200  0.12593  0.89661  Biso   1.000  Ne
  Ne197    1.0000 0.83446  0.08206  0.52095  Biso   1.000  Ne
  He197    1.0000 0.84782  0.06935  0.54800  Biso   1.000  He
  He198    1.0000 0.87459  0.08536  0.56081  Biso   1.000  He
  Ne198    1.0000 0.86581  0.10083  0.59069  Biso   1.000  Ne
  Ne199    1.0000 0.17459  0.40348  0.64753  Biso   1.000  Ne
  He199    1.0000 0.20499  0.39713  0.63481  Biso   1.000  He
  He200    1.0000 0.20710  0.39637  0.60181  Biso   1.000  He
  Ne200    1.0000 0.23539  0.38299  0.58990  Biso   1.000  Ne
  Ne201    1.0000 0.22401  0.56874  0.39305  Biso   1.000  Ne
  He201    1.0000 0.19321  0.56843  0.40409  Biso   1.000  He
  He202    1.0000 0.17381  0.54020  0.40001  Biso   1.000  He
  Ne202    1.0000 0.14215  0.54304  0.40891  Biso   1.000  Ne
  Ne203    1.0000 0.11296  0.90339  0.83916  Biso   1.000  Ne
  He203    1.0000 0.10349  0.89026  0.81021  Biso   1.000  He
  He204    1.0000 0.11085  0.85759  0.81282  Biso   1.000  He
  Ne204    1.0000 0.09975  0.83779  0.78641  Biso   1.000  Ne
  Ne205    1.0000 0.75892  0.56743  0.22059  Biso   1.000  Ne
  He205    1.0000 0.75044  0.60008  0.22326  Biso   1.000  He
  He206    1.0000 0.77363  0.62046  0.23416  Biso   1.000  He
  Ne206    1.0000 0.76202  0.65316  0.24253  Biso   1.000  Ne
  Ne207    1.0000 0.13922  0.21238  0.26261  Biso   1.000  Ne
  He207    1.0000 0.14399  0.17794  0.25759  Biso   1.000  He
  He208    1.0000 0.14152  0.17068  0.22551  Biso   1.000  He
  Ne208    1.0000 0.13948  0.13624  0.22132  Biso   1.000  Ne
  Ne209    1.0000 0.09617  0.84227  0.90241  Biso   1.000  Ne
  He209    1.0000 0.08326  0.86482  0.92057  Biso   1.000  He
  He210    1.0000 0.10235  0.89532  0.92513  Biso   1.000  He
  Ne210    1.0000 0.11736  0.89729  0.95271  Biso   1.000  Ne
  Ne211    1.0000 0.24392  0.44528  0.15760  Biso   1.000  Ne
  He211    1.0000 0.23370  0.41427  0.15318  Biso   1.000  He
  He212    1.0000 0.20158  0.41080  0.16199  Biso   1.000  He
  Ne212    1.0000 0.18615  0.38548  0.14517  Biso   1.000  Ne
  Ne213    1.0000 0.59616  0.99862  0.49365  Biso   1.000  Ne
  He213    1.0000 0.59468  0.02230  0.46947  Biso   1.000  He
  He214    1.0000 0.57092  0.04468  0.47486  Biso   1.000  He
  Ne214    1.0000 0.57016  0.06736  0.45086  Biso   1.000  Ne
  Ne215    1.0000 0.84286  0.74532  0.10564  Biso   1.000  Ne
  He215    1.0000 0.87300  0.73843  0.11953  Biso   1.000  He
  He216    1.0000 0.88983  0.71567  0.10362  Biso   1.000  He
  Ne216    1.0000 0.92281  0.71346  0.11455  Biso   1.000  Ne
  Ne217    1.0000 0.61906  0.91403  0.53818  Biso   1.000  Ne
  He217    1.0000 0.62616  0.89211  0.56187  Biso   1.000  He
  He218    1.0000 0.60106  0.87272  0.57025  Biso   1.000  He
  Ne218    1.0000 0.60748  0.85360  0.59503  Biso   1.000  Ne
  Ne219    1.0000 0.72179  0.71506  0.90770  Biso   1.000  Ne
  He219    1.0000 0.74083  0.74205  0.90796  Biso   1.000  He
  He220    1.0000 0.74012  0.76562  0.88393  Biso   1.000  He
  Ne220    1.0000 0.76350  0.78596  0.88211  Biso   1.000  Ne
  Ne221    1.0000 0.63015  0.28384  0.06454  Biso   1.000  Ne
  He221    1.0000 0.65691  0.30152  0.06273  Biso   1.000  He
  He222    1.0000 0.67505  0.29432  0.08755  Biso   1.000  He
  Ne222    1.0000 0.70736  0.30280  0.08261  Biso   1.000  Ne
  Ne223    1.0000 0.45176  0.56766  0.82797  Biso   1.000  Ne
  He223    1.0000 0.42568  0.57974  0.84805  Biso   1.000  He
  He224    1.0000 0.39641  0.56539  0.84535  Biso   1.000  He
  Ne224    1.0000 0.37706  0.58224  0.82604  Biso   1.000  Ne
  Ne225    1.0000 0.97321  0.13472  0.08890  Biso   1.000  Ne
  He225    1.0000 0.96282  0.16194  0.10599  Biso   1.000  He
  He226    1.0000 0.92930  0.16622  0.10598  Biso   1.000  He
  Ne226    1.0000 0.92035  0.19176  0.12243  Biso   1.000  Ne
  Ne227    1.0000 0.40373  0.33888  0.92388  Biso   1.000  Ne
  He227    1.0000 0.41999  0.30870  0.92512  Biso   1.000  He
  He228    1.0000 0.45367  0.30869  0.92848  Biso   1.000  He
  Ne228    1.0000 0.46550  0.27720  0.93088  Biso   1.000  Ne
  Ne229    1.0000 0.89742  0.09705  0.92777  Biso   1.000  Ne
  He229    1.0000 0.87918  0.08887  0.90007  Biso   1.000  He
  He230    1.0000 0.84757  0.08089  0.90359  Biso   1.000  He
  Ne230    1.0000 0.83372  0.07156  0.87442  Biso   1.000  Ne
  Ne231    1.0000 0.10938  0.19876  0.36750  Biso   1.000  Ne
  He231    1.0000 0.12589  0.22846  0.36460  Biso   1.000  He
  He232    1.0000 0.12092  0.24121  0.33744  Biso   1.000  He
  Ne232    1.0000 0.13786  0.26798  0.33016  Biso   1.000  Ne
  Ne233    1.0000 0.52944  0.89977  0.49136  Biso   1.000  Ne
  He233    1.0000 0.52064  0.90322  0.52528  Biso   1.000  He
  He234    1.0000 0.52152  0.93434  0.53960  Biso   1.000  He
  Ne234    1.0000 0.51578  0.93428  0.57190  Biso   1.000  Ne
  Ne235    1.0000 0.70844  0.37758  0.17977  Biso   1.000  Ne
  He235    1.0000 0.67983  0.39257  0.17568  Biso   1.000  He
  He236    1.0000 0.65838  0.37513  0.15697  Biso   1.000  He
  Ne236    1.0000 0.63223  0.39231  0.15155  Biso   1.000  Ne
  Ne237    1.0000 0.47201  0.97746  0.47991  Biso   1.000  Ne
  He237    1.0000 0.45805  0.98203  0.44889  Biso   1.000  He
  He238    1.0000 0.46098  0.01431  0.43759  Biso   1.000  He
  Ne238    1.0000 0.49255  0.02278  0.42418  Biso   1.000  Ne
  Ne239    1.0000 0.46365  0.19285  0.41558  Biso   1.000  Ne
  He239    1.0000 0.45175  0.21561  0.39667  Biso   1.000  He
  He240    1.0000 0.45755  0.21060  0.36592  Biso   1.000  He
  Ne240    1.0000 0.44432  0.23224  0.34402  Biso   1.000  Ne
  Ne241    1.0000 0.95531  0.41843  0.57835  Biso   1.000  Ne
  He241    1.0000 0.93613  0.41120  0.60533  Biso   1.000  He
  He242    1.0000 0.90383  0.41314  0.60136  Biso   1.000  He
  Ne242    1.0000 0.88640  0.40693  0.62661  Biso   1.000  Ne
  Ne243    1.0000 0.43767  0.35556  0.75739  Biso   1.000  Ne
  He243    1.0000 0.44519  0.32359  0.76268  Biso   1.000  He
  He244    1.0000 0.42313  0.30351  0.74721  Biso   1.000  He
  Ne244    1.0000 0.42772  0.27071  0.75431  Biso   1.000  Ne
  Ne245    1.0000 0.91517  0.69402  0.96909  Biso   1.000  Ne
  He245    1.0000 0.93936  0.70107  0.94678  Biso   1.000  He
  He246    1.0000 0.96892  0.69342  0.95924  Biso   1.000  He
  Ne246    1.0000 0.99528  0.70888  0.94423  Biso   1.000  Ne
  Ne247    1.0000 0.34698  0.83540  0.57593  Biso   1.000  Ne
  He247    1.0000 0.36372  0.80921  0.57509  Biso   1.000  He
  He248    1.0000 0.36584  0.79005  0.60345  Biso   1.000  He
  Ne248    1.0000 0.38544  0.76218  0.60518  Biso   1.000  Ne
  Ne249    1.0000 0.98924  0.89754  0.05146  Biso   1.000  Ne
  He249    1.0000 0.95934  0.88818  0.05675  Biso   1.000  He
  He250    1.0000 0.93627  0.91195  0.05251  Biso   1.000  He
  Ne250    1.0000 0.90300  0.90417  0.05510  Biso   1.000  Ne
  Ne251    1.0000 0.61000  0.59879  0.11787  Biso   1.000  Ne
  He251    1.0000 0.62772  0.62655  0.11749  Biso   1.000  He
  He252    1.0000 0.63497  0.63521  0.14794  Biso   1.000  He
  Ne252    1.0000 0.65520  0.66188  0.14800  Biso   1.000  Ne
  Ne253    1.0000 0.02316  0.85728  0.30720  Biso   1.000  Ne
  He253    1.0000 0.04658  0.83518  0.31482  Biso   1.000  He
  He254    1.0000 0.03849  0.80317  0.31764  Biso   1.000  He
  Ne254    1.0000 0.06524  0.78339  0.31866  Biso   1.000  Ne
  Ne255    1.0000 0.90455  0.18966  0.57176  Biso   1.000  Ne
  He255    1.0000 0.93793  0.18667  0.57697  Biso   1.000  He
  He256    1.0000 0.94798  0.18975  0.60961  Biso   1.000  He
  Ne256    1.0000 0.98162  0.18785  0.61364  Biso   1.000  Ne
  Ne257    1.0000 0.94584  0.68480  0.65470  Biso   1.000  Ne
  He257    1.0000 0.94702  0.70116  0.68665  Biso   1.000  He
  He258    1.0000 0.94587  0.73151  0.68601  Biso   1.000  He
  Ne258    1.0000 0.95203  0.74616  0.71304  Biso   1.000  Ne
  Ne259    1.0000 0.32160  0.92149  0.11448  Biso   1.000  Ne
  He259    1.0000 0.29553  0.92094  0.13306  Biso   1.000  He
  He260    1.0000 0.30157  0.90116  0.15785  Biso   1.000  He
  Ne260    1.0000 0.27653  0.89559  0.18004  Biso   1.000  Ne
  Ne261    1.0000 0.62450  0.23205  0.31099  Biso   1.000  Ne
  He261    1.0000 0.65226  0.23331  0.29063  Biso   1.000  He
  He262    1.0000 0.64657  0.25461  0.26422  Biso   1.000  He
  Ne262    1.0000 0.67266  0.25646  0.24325  Biso   1.000  Ne
  Ne263    1.0000 0.06921  0.38532  0.53798  Biso   1.000  Ne
  He263    1.0000 0.09047  0.39789  0.55543  Biso   1.000  He
  He264    1.0000 0.10073  0.42637  0.54731  Biso   1.000  He
  Ne264    1.0000 0.12354  0.44125  0.56609  Biso   1.000  Ne
  Ne265    1.0000 0.20003  0.64301  0.33654  Biso   1.000  Ne
  He265    1.0000 0.17819  0.65210  0.31181  Biso   1.000  He
  He266    1.0000 0.19050  0.64229  0.28092  Biso   1.000  He
  Ne266    1.0000 0.17138  0.65150  0.25699  Biso   1.000  Ne
  Ne267    1.0000 0.16075  0.36405  0.44607  Biso   1.000  Ne
  He267    1.0000 0.17064  0.33273  0.43590  Biso   1.000  He
  He268    1.0000 0.14624  0.31078  0.43128  Biso   1.000  He
  Ne268    1.0000 0.15396  0.28246  0.41893  Biso   1.000  Ne
  Ne269    1.0000 0.72681  0.07616  0.67558  Biso   1.000  Ne
  He269    1.0000 0.74838  0.07427  0.64835  Biso   1.000  He
  He270    1.0000 0.73434  0.05719  0.62472  Biso   1.000  He
  Ne270    1.0000 0.75545  0.04629  0.60057  Biso   1.000  Ne
  Ne271    1.0000 0.14080  0.25723  0.71259  Biso   1.000  Ne
  He271    1.0000 0.13597  0.23111  0.69471  Biso   1.000  He
  He272    1.0000 0.16194  0.22758  0.67330  Biso   1.000  He
  Ne272    1.0000 0.15752  0.19987  0.65549  Biso   1.000  Ne
  Ne273    1.0000 0.46640  0.85193  0.68660  Biso   1.000  Ne
  He273    1.0000 0.45174  0.87731  0.67169  Biso   1.000  He
  He274    1.0000 0.42154  0.86754  0.66233  Biso   1.000  He
  Ne274    1.0000 0.40388  0.89091  0.64566  Biso   1.000  Ne
  Ne275    1.0000 0.41660  0.05722  0.72305  Biso   1.000  Ne
  He275    1.0000 0.41313  0.07080  0.69395  Biso   1.000  He
  He276    1.0000 0.37910  0.07571  0.68696  Biso   1.000  He
  Ne276    1.0000 0.37167  0.08549  0.65679  Biso   1.000  Ne
  Ne277    1.0000 0.35374  0.29489  0.32133  Biso   1.000  Ne
  He277    1.0000 0.34117  0.31138  0.29395  Biso   1.000  He
  He278    1.0000 0.31543  0.32859  0.30140  Biso   1.000  He
  Ne278    1.0000 0.30079  0.33979  0.27496  Biso   1.000  Ne
  Ne279    1.0000 0.11017  0.66635  0.74039  Biso   1.000  Ne
  He279    1.0000 0.12017  0.68010  0.71135  Biso   1.000  He
  He280    1.0000 0.12657  0.71048  0.71512  Biso   1.000  He
  Ne280    1.0000 0.14029  0.72287  0.68725  Biso   1.000  Ne
  Ne281    1.0000 0.37831  0.14294  0.39693  Biso   1.000  Ne
  He281    1.0000 0.37115  0.11099  0.39383  Biso   1.000  He
  He282    1.0000 0.39960  0.09330  0.40012  Biso   1.000  He
  Ne282    1.0000 0.39864  0.06187  0.39289  Biso   1.000  Ne
  Ne283    1.0000 0.61596  0.58004  0.24760  Biso   1.000  Ne
  He283    1.0000 0.62973  0.57349  0.21805  Biso   1.000  He
  He284    1.0000 0.61720  0.54740  0.20406  Biso   1.000  He
  Ne284    1.0000 0.62903  0.54487  0.17464  Biso   1.000  Ne
  Ne285    1.0000 0.40427  0.26082  0.09128  Biso   1.000  Ne
  He285    1.0000 0.42767  0.23802  0.09259  Biso   1.000  He
  He286    1.0000 0.45842  0.24957  0.08622  Biso   1.000  He
  Ne286    1.0000 0.48353  0.22832  0.09189  Biso   1.000  Ne
  Ne287    1.0000 0.94883  0.79674  0.89121  Biso   1.000  Ne
  He287    1.0000 0.92526  0.79987  0.86636  Biso   1.000  He
  He288    1.0000 0.93827  0.79390  0.83556  Biso   1.000  He
  Ne288    1.0000 0.91873  0.79896  0.80955  Biso   1.000  Ne
  Ne289    1.0000 0.96542  0.09645  0.88316  Biso   1.000  Ne
  He289    1.0000 0.97130  0.06529  0.89548  Biso   1.000  He
  He290    1.0000 0.99851  0.06622  0.91422  Biso   1.000  He
  Ne290    1.0000 0.00600  0.03905  0.93130  Biso   1.000  Ne
  Ne291    1.0000 0.48217  0.39410  0.27257  Biso   1.000  Ne
  He291    1.0000 0.45359  0.37598  0.26756  Biso   1.000  He
  He292    1.0000 0.42478  0.39393  0.27181  Biso   1.000  He
  Ne292    1.0000 0.39492  0.37850  0.26590  Biso   1.000  Ne
  Ne293    1.0000 0.62965  0.90640  0.68338  Biso   1.000  Ne
  He293    1.0000 0.66349  0.90115  0.68320  Biso   1.000  He
  He294    1.0000 0.67621  0.90427  0.71346  Biso   1.000  He
  Ne294    1.0000 0.70882  0.90032  0.71601  Biso   1.000  Ne
  Ne295    1.0000 0.17556  0.89081  0.10007  Biso   1.000  Ne
  He295    1.0000 0.15291  0.88474  0.07374  Biso   1.000  He
  He296    1.0000 0.12294  0.88058  0.08282  Biso   1.000  He
  Ne296    1.0000 0.09906  0.87848  0.05825  Biso   1.000  Ne
  Ne297    1.0000 0.65778  0.80718  0.40441  Biso   1.000  Ne
  He297    1.0000 0.68707  0.81173  0.41519  Biso   1.000  He
  He298    1.0000 0.69503  0.84361  0.41209  Biso   1.000  He
  Ne298    1.0000 0.72463  0.85373  0.42329  Biso   1.000  Ne
  Ne299    1.0000 0.93113  0.39461  0.76658  Biso   1.000  Ne
  He299    1.0000 0.91003  0.39638  0.79095  Biso   1.000  He
  He300    1.0000 0.88501  0.37372  0.79076  Biso   1.000  He
  Ne300    1.0000 0.86926  0.37427  0.81919  Biso   1.000  Ne
  Ne301    1.0000 0.11942  0.22405  0.82633  Biso   1.000  Ne
  He301    1.0000 0.11629  0.25638  0.82303  Biso   1.000  He
  He302    1.0000 0.14402  0.27354  0.82522  Biso   1.000  He
  Ne302    1.0000 0.14252  0.30813  0.82432  Biso   1.000  Ne
  Ne303    1.0000 0.73150  0.82527  0.82743  Biso   1.000  Ne
  He303    1.0000 0.70173  0.82811  0.81184  Biso   1.000  He
  He304    1.0000 0.68103  0.85118  0.82267  Biso   1.000  He
  Ne304    1.0000 0.65073  0.84746  0.80947  Biso   1.000  Ne
  Ne305    1.0000 0.79887  0.22694  0.60218  Biso   1.000  Ne
  He305    1.0000 0.77603  0.20235  0.59039  Biso   1.000  He
  He306    1.0000 0.77064  0.17702  0.60944  Biso   1.000  He
  Ne306    1.0000 0.74471  0.15743  0.60135  Biso   1.000  Ne
  Ne307    1.0000 0.90328  0.78322  0.38568  Biso   1.000  Ne
  He307    1.0000 0.93603  0.77687  0.38795  Biso   1.000  He
  He308    1.0000 0.95077  0.77953  0.41799  Biso   1.000  He
  Ne308    1.0000 0.98172  0.76690  0.41967  Biso   1.000  Ne
  Ne309    1.0000 0.60006  0.36719  0.26279  Biso   1.000  Ne
  He309    1.0000 0.61413  0.35628  0.23303  Biso   1.000  He
  He310    1.0000 0.61930  0.32120  0.22994  Biso   1.000  He
  Ne310    1.0000 0.62605  0.31396  0.19518  Biso   1.000  Ne
  Ne311    1.0000 0.20202  0.04641  0.81280  Biso   1.000  Ne
  He311    1.0000 0.19679  0.04985  0.84509  Biso   1.000  He
  He312    1.0000 0.22434  0.03596  0.86030  Biso   1.000  He
  Ne312    1.0000 0.22184  0.03565  0.89282  Biso   1.000  Ne
  Ne313    1.0000 0.57996  0.56875  0.01682  Biso   1.000  Ne
  He313    1.0000 0.58343  0.54651  0.04097  Biso   1.000  He
  He314    1.0000 0.57044  0.55010  0.07112  Biso   1.000  He
  Ne314    1.0000 0.58126  0.52702  0.09279  Biso   1.000  Ne
  Ne315    1.0000 0.63050  0.58012  0.87130  Biso   1.000  Ne
  He315    1.0000 0.64187  0.56948  0.89982  Biso   1.000  He
  He316    1.0000 0.62209  0.54926  0.91848  Biso   1.000  He
  Ne316    1.0000 0.63779  0.53961  0.94380  Biso   1.000  Ne
  Ne317    1.0000 0.02992  0.41640  0.43856  Biso   1.000  Ne
  He317    1.0000 0.06153  0.42374  0.44534  Biso   1.000  He
  He318    1.0000 0.07287  0.44588  0.42304  Biso   1.000  He
  Ne318    1.0000 0.10203  0.45895  0.43146  Biso   1.000  Ne
  Ne319    1.0000 0.46234  0.87181  0.44756  Biso   1.000  Ne
  He319    1.0000 0.47303  0.89497  0.42318  Biso   1.000  He
  He320    1.0000 0.45137  0.89671  0.39743  Biso   1.000  He
  Ne320    1.0000 0.46311  0.92050  0.37653  Biso   1.000  Ne
  Ne321    1.0000 0.78478  0.34579  0.26008  Biso   1.000  Ne
  He321    1.0000 0.75651  0.36042  0.24896  Biso   1.000  He
  He322    1.0000 0.72716  0.34563  0.26039  Biso   1.000  He
  Ne322    1.0000 0.70185  0.36638  0.26683  Biso   1.000  Ne
  Ne323    1.0000 0.08796  0.62007  0.89266  Biso   1.000  Ne
  He323    1.0000 0.11378  0.64029  0.89811  Biso   1.000  He
  He324    1.0000 0.11246  0.65540  0.92615  Biso   1.000  He
  Ne324    1.0000 0.13821  0.67904  0.93029  Biso   1.000  Ne
  Ne325    1.0000 0.82911  0.53881  0.80245  Biso   1.000  Ne
  He325    1.0000 0.83586  0.54595  0.83372  Biso   1.000  He
  He326    1.0000 0.80556  0.55596  0.85067  Biso   1.000  He
  Ne326    1.0000 0.81029  0.56046  0.88388  Biso   1.000  Ne
  Ne327    1.0000 0.60328  0.16494  0.64095  Biso   1.000  Ne
  He327    1.0000 0.61198  0.14743  0.61358  Biso   1.000  He
  He328    1.0000 0.63900  0.15948  0.60364  Biso   1.000  He
  Ne328    1.0000 0.65631  0.14554  0.57940  Biso   1.000  Ne
  Ne329    1.0000 0.14689  0.77947  0.06087  Biso   1.000  Ne
  He329    1.0000 0.12228  0.78296  0.08560  Biso   1.000  He
  He330    1.0000 0.13344  0.80156  0.11011  Biso   1.000  He
  Ne330    1.0000 0.11026  0.80867  0.13050  Biso   1.000  Ne
  Ne331    1.0000 0.13500  0.27530  0.00705  Biso   1.000  Ne
  He331    1.0000 0.10389  0.26633  0.01040  Biso   1.000  He
  He332    1.0000 0.09424  0.27062  0.04129  Biso   1.000  He
  Ne332    1.0000 0.06179  0.26431  0.04572  Biso   1.000  Ne
  Ne333    1.0000 0.90961  0.27470  0.79344  Biso   1.000  Ne
  He333    1.0000 0.91576  0.24478  0.77649  Biso   1.000  He
  He334    1.0000 0.94062  0.22661  0.78892  Biso   1.000  He
  Ne334    1.0000 0.94685  0.19786  0.77530  Biso   1.000  Ne
  Ne335    1.0000 0.14445  0.14240  0.42817  Biso   1.000  Ne
  He335    1.0000 0.16471  0.15582  0.45014  Biso   1.000  He
  He336    1.0000 0.14681  0.17663  0.47248  Biso   1.000  He
  Ne336    1.0000 0.16591  0.18492  0.49965  Biso   1.000  Ne
  Ne337    1.0000 0.23042  0.08862  0.15655  Biso   1.000  Ne
  He337    1.0000 0.24585  0.09311  0.18552  Biso   1.000  He
  He338    1.0000 0.24216  0.12470  0.19861  Biso   1.000  He
  Ne338    1.0000 0.25583  0.12925  0.22865  Biso   1.000  Ne
  Ne339    1.0000 0.81663  0.89225  0.10194  Biso   1.000  Ne
  He339    1.0000 0.83734  0.86809  0.09253  Biso   1.000  He
  He340    1.0000 0.84565  0.84911  0.11832  Biso   1.000  He
  Ne340    1.0000 0.86114  0.82282  0.11098  Biso   1.000  Ne
  Ne341    1.0000 0.31704  0.05314  0.33947  Biso   1.000  Ne
  He341    1.0000 0.33649  0.07341  0.32143  Biso   1.000  He
  He342    1.0000 0.33026  0.07170  0.28878  Biso   1.000  He
  Ne342    1.0000 0.35001  0.09215  0.27138  Biso   1.000  Ne
  Ne343    1.0000 0.71845  0.56020  0.91127  Biso   1.000  Ne
  He343    1.0000 0.73946  0.57801  0.92865  Biso   1.000  He
  He344    1.0000 0.74149  0.61131  0.92105  Biso   1.000  He
  Ne344    1.0000 0.76443  0.63230  0.93329  Biso   1.000  Ne
  Ne345    1.0000 0.34163  0.15193  0.58596  Biso   1.000  Ne
  He345    1.0000 0.32471  0.12636  0.57496  Biso   1.000  He
  He346    1.0000 0.33970  0.09769  0.58019  Biso   1.000  He
  Ne346    1.0000 0.32340  0.07086  0.57170  Biso   1.000  Ne
  Ne347    1.0000 0.93113  0.23191  0.34152  Biso   1.000  Ne
  He347    1.0000 0.93100  0.25700  0.31865  Biso   1.000  He
  He348    1.0000 0.94328  0.24252  0.28869  Biso   1.000  He
  Ne348    1.0000 0.94666  0.26238  0.26065  Biso   1.000  Ne
  Ne349    1.0000 0.62175  0.27278  0.90640  Biso   1.000  Ne
  He349    1.0000 0.61717  0.29025  0.87697  Biso   1.000  He
  He350    1.0000 0.64292  0.28585  0.85712  Biso   1.000  He
  Ne350    1.0000 0.64667  0.30609  0.83106  Biso   1.000  Ne
  Ne351    1.0000 0.84195  0.13113  0.15101  Biso   1.000  Ne
  He351    1.0000 0.84815  0.12305  0.12232  Biso   1.000  He
  He352    1.0000 0.83621  0.09377  0.11125  Biso   1.000  He
  Ne352    1.0000 0.83766  0.09040  0.07879  Biso   1.000  Ne
  Ne353    1.0000 0.85550  0.56147  0.40798  Biso   1.000  Ne
  He353    1.0000 0.82611  0.56784  0.39454  Biso   1.000  He
  He354    1.0000 0.81147  0.59198  0.41262  Biso   1.000  He
  Ne354    1.0000 0.78256  0.60103  0.40350  Biso   1.000  Ne
  Ne355    1.0000 0.56419  0.80222  0.86427  Biso   1.000  Ne
  He355    1.0000 0.56942  0.78745  0.83532  Biso   1.000  He
  He356    1.0000 0.60063  0.77932  0.82758  Biso   1.000  He
  Ne356    1.0000 0.60257  0.75964  0.80019  Biso   1.000  Ne
  Ne357    1.0000 0.76955  0.17853  0.20513  Biso   1.000  Ne
  He357    1.0000 0.77543  0.19951  0.18301  Biso   1.000  He
  He358    1.0000 0.80813  0.20408  0.17580  Biso   1.000  He
  Ne358    1.0000 0.81291  0.22856  0.15102  Biso   1.000  Ne
  Ne359    1.0000 0.44598  0.05098  0.62115  Biso   1.000  Ne
  He359    1.0000 0.45370  0.03118  0.59668  Biso   1.000  He
  He360    1.0000 0.43272  0.03145  0.57044  Biso   1.000  He
  Ne360    1.0000 0.43824  0.00978  0.54388  Biso   1.000  Ne
