data_image0
_cell_length_a       46.7037
_cell_length_b       46.6314
_cell_length_c       46.4281
_cell_angle_alpha    90
_cell_angle_beta     90
_cell_angle_gamma    90

_symmetry_space_group_name_H-M    "P 1"
_symmetry_int_tables_number       1

loop_
  _symmetry_equiv_pos_as_xyz
  'x, y, z'

loop_
  _atom_site_label
  _atom_site_occupancy
  _atom_site_fract_x
  _atom_site_fract_y
  _atom_site_fract_z
  _atom_site_thermal_displace_type
  _atom_site_B_iso_or_equiv
  _atom_site_type_symbol
  Ne1      1.0000 0.59491  0.18735  0.39846  Biso   1.000  Ne
  He1      1.0000 0.60773  0.16057  0.40847  Biso   1.000  He
  He2      1.0000 0.62472  0.14248  0.38517  Biso   1.000  He
  Ne2      1.0000 0.64527  0.12109  0.40304  Biso   1.000  Ne
  Ne3      1.0000 0.29646  0.60198  0.86667  Biso   1.000  Ne
  He3      1.0000 0.27760  0.59427  0.89522  Biso   1.000  He
  He4      1.0000 0.28757  0.60806  0.92244  Biso   1.000  He
  Ne4      1.0000 0.26972  0.59439  0.94832  Biso   1.000  Ne
  Ne5      1.0000 0.79480  0.36478  0.57017  Biso   1.000  Ne
  He5      1.0000 0.82352  0.37536  0.55520  Biso   1.000  He
  He6      1.0000 0.84601  0.38409  0.57373  Biso   1.000  He
  Ne6      1.0000 0.87521  0.39581  0.55646  Biso   1.000  Ne
  Ne7      1.0000 0.62531  0.46441  0.37820  Biso   1.000  Ne
  He7      1.0000 0.62157  0.47335  0.34587  Biso   1.000  He
  He8      1.0000 0.59980  0.45429  0.32738  Biso   1.000  He
  Ne8      1.0000 0.59598  0.46612  0.29602  Biso   1.000  Ne
  Ne9      1.0000 0.85065  0.55355  0.68552  Biso   1.000  Ne
  He9      1.0000 0.87143  0.57563  0.67730  Biso   1.000  He
  He10     1.0000 0.89329  0.56806  0.65340  Biso   1.000  He
  Ne10     1.0000 0.91302  0.59303  0.64379  Biso   1.000  Ne
  Ne11     1.0000 0.16384  0.59486  0.61182  Biso   1.000  Ne
  He11     1.0000 0.19508  0.59384  0.60513  Biso   1.000  He
  He12     1.0000 0.21615  0.60608  0.62804  Biso   1.000  He
  Ne12     1.0000 0.24939  0.59896  0.62342  Biso   1.000  Ne
  Ne13     1.0000 0.08215  0.09657  0.05760  Biso   1.000  Ne
  He13     1.0000 0.06980  0.11164  0.08549  Biso   1.000  He
  He14     1.0000 0.07388  0.09232  0.11361  Biso   1.000  He
  Ne14     1.0000 0.06862  0.10885  0.14257  Biso   1.000  Ne
  Ne15     1.0000 0.91434  0.01329  0.70966  Biso   1.000  Ne
  He15     1.0000 0.92730  0.04118  0.70327  Biso   1.000  He
  He16     1.0000 0.90659  0.06794  0.70826  Biso   1.000  He
  Ne16     1.0000 0.91744  0.10062  0.70503  Biso   1.000  Ne
  Ne17     1.0000 0.71041  0.44015  0.05818  Biso   1.000  Ne
  He17     1.0000 0.70651  0.44246  0.09141  Biso   1.000  He
  He18     1.0000 0.69307  0.41720  0.10309  Biso   1.000  He
  Ne18     1.0000 0.69124  0.41691  0.13567  Biso   1.000  Ne
  Ne19     1.0000 0.67035  0.24216  0.56174  Biso   1.000  Ne
  He19     1.0000 0.66076  0.21413  0.57672  Biso   1.000  He
  He20     1.0000 0.68733  0.19677  0.58201  Biso   1.000  He
  Ne20     1.0000 0.68193  0.16681  0.59664  Biso   1.000  Ne
  Ne21     1.0000 0.34763  0.87842  0.77425  Biso   1.000  Ne
  He21     1.0000 0.31746  0.89166  0.76889  Biso   1.000  He
  He22     1.0000 0.32209  0.92082  0.75065  Biso   1.000  He
  Ne22     1.0000 0.32273  0.94829  0.76617  Biso   1.000  Ne
  Ne23     1.0000 0.43633  0.03444  0.58632  Biso   1.000  Ne
  He23     1.0000 0.44345  0.04867  0.55614  Biso   1.000  He
  He24     1.0000 0.43136  0.07842  0.55297  Biso   1.000  He
  Ne24     1.0000 0.43990  0.09138  0.52371  Biso   1.000  Ne
  Ne25     1.0000 0.42747  0.30057  0.08925  Biso   1.000  Ne
  He25     1.0000 0.39616  0.29929  0.09681  Biso   1.000  He
  He26     1.0000 0.37553  0.30625  0.07014  Biso   1.000  He
  Ne26     1.0000 0.34423  0.30500  0.07401  Biso   1.000  Ne
  Ne27     1.0000 0.59352  0.90054  0.43309  Biso   1.000  Ne
  He27     1.0000 0.56824  0.91936  0.44328  Biso   1.000  He
  He28     1.0000 0.56610  0.94847  0.42708  Biso   1.000  He
  Ne28     1.0000 0.54503  0.97093  0.43883  Biso   1.000  Ne
  Ne29     1.0000 0.75460  0.33830  0.29301  Biso   1.000  Ne
  He29     1.0000 0.75779  0.30646  0.29384  Biso   1.000  He
  He30     1.0000 0.74168  0.28992  0.31676  Biso   1.000  He
  Ne30     1.0000 0.75188  0.25777  0.31851  Biso   1.000  Ne
  Ne31     1.0000 0.20259  0.73843  0.90915  Biso   1.000  Ne
  He31     1.0000 0.21664  0.71842  0.93061  Biso   1.000  He
  He32     1.0000 0.22604  0.68973  0.92242  Biso   1.000  He
  Ne32     1.0000 0.25831  0.68755  0.91163  Biso   1.000  Ne
  Ne33     1.0000 0.12672  0.90024  0.58211  Biso   1.000  Ne
  He33     1.0000 0.09913  0.88441  0.57398  Biso   1.000  He
  He34     1.0000 0.10251  0.85602  0.55895  Biso   1.000  He
  Ne34     1.0000 0.07420  0.84018  0.55590  Biso   1.000  Ne
  Ne35     1.0000 0.13969  0.84345  0.25860  Biso   1.000  Ne
  He35     1.0000 0.14031  0.84177  0.22470  Biso   1.000  He
  He36     1.0000 0.11078  0.84556  0.21100  Biso   1.000  He
  Ne36     1.0000 0.11361  0.84490  0.17828  Biso   1.000  Ne
  Ne37     1.0000 0.73511  0.38347  0.74988  Biso   1.000  Ne
  He37     1.0000 0.70456  0.38117  0.73502  Biso   1.000  He
  He38     1.0000 0.70655  0.37896  0.70139  Biso   1.000  He
  Ne38     1.0000 0.67785  0.37603  0.68534  Biso   1.000  Ne
  Ne39     1.0000 0.62149  0.22238  0.78446  Biso   1.000  Ne
  He39     1.0000 0.64255  0.24993  0.78230  Biso   1.000  He
  He40     1.0000 0.66140  0.25395  0.75665  Biso   1.000  He
  Ne40     1.0000 0.67963  0.28058  0.75814  Biso   1.000  Ne
  Ne41     1.0000 0.99996  0.19055  0.52716  Biso   1.000  Ne
  He41     1.0000 0.02611  0.20687  0.53150  Biso   1.000  He
  He42     1.0000 0.05260  0.18604  0.53010  Biso   1.000  He
  Ne42     1.0000 0.08234  0.19709  0.53205  Biso   1.000  Ne
  Ne43     1.0000 0.38682  0.63751  0.35384  Biso   1.000  Ne
  He43     1.0000 0.36536  0.61922  0.33772  Biso   1.000  He
  He44     1.0000 0.37472  0.58908  0.32927  Biso   1.000  He
  Ne44     1.0000 0.35148  0.57348  0.31200  Biso   1.000  Ne
  Ne45     1.0000 0.33628  0.65507  0.73710  Biso   1.000  Ne
  He45     1.0000 0.35446  0.65985  0.70933  Biso   1.000  He
  He46     1.0000 0.34269  0.68578  0.69256  Biso   1.000  He
  Ne46     1.0000 0.35866  0.69152  0.66421  Biso   1.000  Ne
  Ne47     1.0000 0.35616  0.77119  0.37497  Biso   1.000  Ne
  He47     1.0000 0.34097  0.78090  0.34595  Biso   1.000  He
  He48     1.0000 0.32584  0.75495  0.32863  Biso   1.000  He
  Ne48     1.0000 0.30936  0.76367  0.29820  Biso   1.000  Ne
  Ne49     1.0000 0.12293  0.21998  0.66273  Biso   1.000  Ne
  He49     1.0000 0.10240  0.19801  0.64666  Biso   1.000  He
  He50     1.0000 0.06897  0.20839  0.64660  Biso   1.000  He
  Ne50     1.0000 0.04918  0.18787  0.63141  Biso   1.000  Ne
  Ne51     1.0000 0.16667  0.10343  0.06828  Biso   1.000  Ne
  He51     1.0000 0.16141  0.11415  0.09851  Biso   1.000  He
  He52     1.0000 0.17254  0.09304  0.12036  Biso   1.000  He
  Ne52     1.0000 0.17197  0.10573  0.15220  Biso   1.000  Ne
  Ne53     1.0000 0.19553  0.69441  0.23291  Biso   1.000  Ne
  He53     1.0000 0.18126  0.67803  0.20457  Biso   1.000  He
  He54     1.0000 0.19861  0.65316  0.19390  Biso   1.000  He
  Ne54     1.0000 0.18254  0.63653  0.16898  Biso   1.000  Ne
  Ne55     1.0000 0.27472  0.29066  0.12769  Biso   1.000  Ne
  He55     1.0000 0.26305  0.30959  0.10477  Biso   1.000  He
  He56     1.0000 0.26604  0.29106  0.07695  Biso   1.000  He
  Ne56     1.0000 0.25692  0.30891  0.05015  Biso   1.000  Ne
  Ne57     1.0000 0.37048  0.88656  0.16001  Biso   1.000  Ne
  He57     1.0000 0.36352  0.87040  0.18874  Biso   1.000  He
  He58     1.0000 0.33560  0.84948  0.18663  Biso   1.000  He
  Ne58     1.0000 0.33161  0.83278  0.21425  Biso   1.000  Ne
  Ne59     1.0000 0.28361  0.96824  0.09041  Biso   1.000  Ne
  He59     1.0000 0.28348  0.93517  0.07853  Biso   1.000  He
  He60     1.0000 0.27852  0.93905  0.04774  Biso   1.000  He
  Ne60     1.0000 0.27899  0.91108  0.02896  Biso   1.000  Ne
  Ne61     1.0000 0.07982  0.02541  0.38855  Biso   1.000  Ne
  He61     1.0000 0.05006  0.01497  0.37190  Biso   1.000  He
  He62     1.0000 0.04380  0.98136  0.37138  Biso   1.000  He
  Ne62     1.0000 0.01814  0.97676  0.34831  Biso   1.000  Ne
  Ne63     1.0000 0.50210  0.03385  0.87836  Biso   1.000  Ne
  He63     1.0000 0.50128  0.06519  0.88935  Biso   1.000  He
  He64     1.0000 0.51146  0.08784  0.86701  Biso   1.000  He
  Ne64     1.0000 0.51271  0.11884  0.87717  Biso   1.000  Ne
  Ne65     1.0000 0.67047  0.90355  0.34130  Biso   1.000  Ne
  He65     1.0000 0.64165  0.88724  0.33771  Biso   1.000  He
  He66     1.0000 0.62154  0.88717  0.36280  Biso   1.000  He
  Ne66     1.0000 0.59112  0.87601  0.35527  Biso   1.000  Ne
  Ne67     1.0000 0.69346  0.08730  0.82602  Biso   1.000  Ne
  He67     1.0000 0.70187  0.11519  0.81034  Biso   1.000  He
  He68     1.0000 0.67630  0.13413  0.80537  Biso   1.000  He
  Ne68     1.0000 0.68236  0.16066  0.78690  Biso   1.000  Ne
  Ne69     1.0000 0.00225  0.63531  0.17779  Biso   1.000  Ne
  He69     1.0000 0.97191  0.63539  0.17038  Biso   1.000  He
  He70     1.0000 0.96314  0.60643  0.15527  Biso   1.000  He
  Ne70     1.0000 0.92964  0.61367  0.14346  Biso   1.000  Ne
  Ne71     1.0000 0.06827  0.87546  0.08915  Biso   1.000  Ne
  He71     1.0000 0.06040  0.90826  0.08045  Biso   1.000  He
  He72     1.0000 0.06137  0.92754  0.10762  Biso   1.000  He
  Ne72     1.0000 0.05795  0.95845  0.10409  Biso   1.000  Ne
  Ne73     1.0000 0.03746  0.50398  0.20309  Biso   1.000  Ne
  He73     1.0000 0.01393  0.52653  0.20312  Biso   1.000  He
  He74     1.0000 0.01828  0.55396  0.22189  Biso   1.000  He
  Ne74     1.0000 0.98983  0.57324  0.22606  Biso   1.000  Ne
  Ne75     1.0000 0.08512  0.35391  0.22289  Biso   1.000  Ne
  He75     1.0000 0.09251  0.36074  0.19278  Biso   1.000  He
  He76     1.0000 0.07045  0.38448  0.18350  Biso   1.000  He
  Ne76     1.0000 0.07514  0.39656  0.15500  Biso   1.000  Ne
  Ne77     1.0000 0.95564  0.02687  0.91735  Biso   1.000  Ne
  He77     1.0000 0.96173  0.05456  0.93339  Biso   1.000  He
  He78     1.0000 0.95690  0.05335  0.96800  Biso   1.000  He
  Ne78     1.0000 0.96482  0.07932  0.98727  Biso   1.000  Ne
  Ne79     1.0000 0.05791  0.62016  0.02618  Biso   1.000  Ne
  He79     1.0000 0.06710  0.59742  0.00455  Biso   1.000  He
  He80     1.0000 0.09523  0.57989  0.01588  Biso   1.000  He
  Ne80     1.0000 0.10508  0.56203  0.99157  Biso   1.000  Ne
  Ne81     1.0000 0.24371  0.41445  0.63453  Biso   1.000  Ne
  He81     1.0000 0.25213  0.42948  0.66278  Biso   1.000  He
  He82     1.0000 0.22893  0.44792  0.67827  Biso   1.000  He
  Ne82     1.0000 0.23776  0.46293  0.70728  Biso   1.000  Ne
  Ne83     1.0000 0.86220  0.28802  0.40573  Biso   1.000  Ne
  He83     1.0000 0.85908  0.31676  0.39210  Biso   1.000  He
  He84     1.0000 0.82944  0.33001  0.39270  Biso   1.000  He
  Ne84     1.0000 0.82542  0.35915  0.37678  Biso   1.000  Ne
  Ne85     1.0000 0.22751  0.14998  0.21899  Biso   1.000  Ne
  He85     1.0000 0.24265  0.12843  0.19840  Biso   1.000  He
  He86     1.0000 0.24111  0.13539  0.16631  Biso   1.000  He
  Ne86     1.0000 0.25738  0.11276  0.14749  Biso   1.000  Ne
  Ne87     1.0000 0.69449  0.56499  0.29590  Biso   1.000  Ne
  He87     1.0000 0.69127  0.53713  0.28139  Biso   1.000  He
  He88     1.0000 0.70495  0.51041  0.29616  Biso   1.000  He
  Ne88     1.0000 0.70319  0.48193  0.27732  Biso   1.000  Ne
  Ne89     1.0000 0.59552  0.45972  0.03315  Biso   1.000  Ne
  He89     1.0000 0.58775  0.43356  0.05554  Biso   1.000  He
  He90     1.0000 0.59809  0.40623  0.04480  Biso   1.000  He
  Ne90     1.0000 0.58706  0.38158  0.06079  Biso   1.000  Ne
  Ne91     1.0000 0.82911  0.91216  0.91006  Biso   1.000  Ne
  He91     1.0000 0.79612  0.91517  0.91042  Biso   1.000  He
  He92     1.0000 0.78668  0.94645  0.91116  Biso   1.000  He
  Ne92     1.0000 0.75490  0.95084  0.91786  Biso   1.000  Ne
  Ne93     1.0000 0.58468  0.40087  0.61453  Biso   1.000  Ne
  He93     1.0000 0.61763  0.39201  0.60372  Biso   1.000  He
  He94     1.0000 0.63649  0.42211  0.59688  Biso   1.000  He
  Ne94     1.0000 0.66398  0.42522  0.61773  Biso   1.000  Ne
  Ne95     1.0000 0.74102  0.44523  0.38597  Biso   1.000  Ne
  He95     1.0000 0.71669  0.46527  0.38875  Biso   1.000  He
  He96     1.0000 0.71523  0.47806  0.41816  Biso   1.000  He
  Ne96     1.0000 0.69180  0.50308  0.41524  Biso   1.000  Ne
  Ne97     1.0000 0.69357  0.76042  0.80023  Biso   1.000  Ne
  He97     1.0000 0.68136  0.77773  0.77559  Biso   1.000  He
  He98     1.0000 0.70120  0.79536  0.75450  Biso   1.000  He
  Ne98     1.0000 0.68341  0.81220  0.73088  Biso   1.000  Ne
  Ne99     1.0000 0.66421  0.42944  0.23246  Biso   1.000  Ne
  He99     1.0000 0.68224  0.40299  0.22179  Biso   1.000  He
  He100    1.0000 0.71070  0.39893  0.23818  Biso   1.000  He
  Ne100    1.0000 0.73571  0.41532  0.22448  Biso   1.000  Ne
  Ne101    1.0000 0.20260  0.04236  0.60139  Biso   1.000  Ne
  He101    1.0000 0.21598  0.06522  0.57951  Biso   1.000  He
  He102    1.0000 0.19122  0.07582  0.56005  Biso   1.000  He
  Ne102    1.0000 0.20239  0.09557  0.53214  Biso   1.000  Ne
  Ne103    1.0000 0.99481  0.49328  0.57659  Biso   1.000  Ne
  He103    1.0000 0.98270  0.46232  0.56984  Biso   1.000  He
  He104    1.0000 0.95544  0.45022  0.58267  Biso   1.000  He
  Ne104    1.0000 0.94460  0.41947  0.57361  Biso   1.000  Ne
  Ne105    1.0000 0.51470  0.29174  0.49773  Biso   1.000  Ne
  He105    1.0000 0.48780  0.28438  0.47971  Biso   1.000  He
  He106    1.0000 0.49799  0.28217  0.44736  Biso   1.000  He
  Ne106    1.0000 0.47300  0.27464  0.42537  Biso   1.000  Ne
  Ne107    1.0000 0.14457  0.97584  0.32128  Biso   1.000  Ne
  He107    1.0000 0.16569  0.97036  0.34643  Biso   1.000  He
  He108    1.0000 0.15918  0.94453  0.36538  Biso   1.000  He
  Ne108    1.0000 0.18576  0.93754  0.38660  Biso   1.000  Ne
  Ne109    1.0000 0.59689  0.83554  0.77047  Biso   1.000  Ne
  He109    1.0000 0.60364  0.82864  0.73958  Biso   1.000  He
  He110    1.0000 0.59845  0.79735  0.73533  Biso   1.000  He
  Ne110    1.0000 0.60252  0.78743  0.70352  Biso   1.000  Ne
  Ne111    1.0000 0.23644  0.56921  0.44794  Biso   1.000  Ne
  He111    1.0000 0.23065  0.56469  0.41316  Biso   1.000  He
  He112    1.0000 0.19922  0.56897  0.40048  Biso   1.000  He
  Ne112    1.0000 0.19610  0.57339  0.36850  Biso   1.000  Ne
  Ne113    1.0000 0.85305  0.59400  0.58773  Biso   1.000  Ne
  He113    1.0000 0.82214  0.58626  0.59782  Biso   1.000  He
  He114    1.0000 0.80830  0.55917  0.58171  Biso   1.000  He
  Ne114    1.0000 0.77908  0.54991  0.59826  Biso   1.000  Ne
  Ne115    1.0000 0.24561  0.77591  0.24132  Biso   1.000  Ne
  He115    1.0000 0.24875  0.80960  0.25264  Biso   1.000  He
  He116    1.0000 0.22513  0.81827  0.27609  Biso   1.000  He
  Ne116    1.0000 0.22479  0.85061  0.28438  Biso   1.000  Ne
  Ne117    1.0000 0.08407  0.45994  0.57181  Biso   1.000  Ne
  He117    1.0000 0.08844  0.43516  0.55174  Biso   1.000  He
  He118    1.0000 0.06512  0.41035  0.55330  Biso   1.000  He
  Ne118    1.0000 0.07830  0.38514  0.56987  Biso   1.000  Ne
  Ne119    1.0000 0.57351  0.26698  0.30135  Biso   1.000  Ne
  He119    1.0000 0.57479  0.23208  0.29476  Biso   1.000  He
  He120    1.0000 0.59538  0.21285  0.31147  Biso   1.000  He
  Ne120    1.0000 0.59012  0.18180  0.31100  Biso   1.000  Ne
  Ne121    1.0000 0.93022  0.36815  0.77746  Biso   1.000  Ne
  He121    1.0000 0.93627  0.38142  0.74698  Biso   1.000  He
  He122    1.0000 0.91714  0.40517  0.73376  Biso   1.000  He
  Ne122    1.0000 0.92046  0.41105  0.70147  Biso   1.000  Ne
  Ne123    1.0000 0.11529  0.12212  0.20903  Biso   1.000  Ne
  He123    1.0000 0.11567  0.14632  0.23246  Biso   1.000  He
  He124    1.0000 0.14613  0.15401  0.24300  Biso   1.000  He
  Ne124    1.0000 0.14936  0.17297  0.26750  Biso   1.000  Ne
  Ne125    1.0000 0.55362  0.89851  0.80241  Biso   1.000  Ne
  He125    1.0000 0.57420  0.92226  0.78897  Biso   1.000  He
  He126    1.0000 0.58923  0.91160  0.76088  Biso   1.000  He
  Ne126    1.0000 0.60915  0.93233  0.74434  Biso   1.000  Ne
  Ne127    1.0000 0.09741  0.11556  0.55461  Biso   1.000  Ne
  He127    1.0000 0.11715  0.13216  0.57575  Biso   1.000  He
  He128    1.0000 0.13340  0.11526  0.60171  Biso   1.000  He
  Ne128    1.0000 0.15150  0.13420  0.61935  Biso   1.000  Ne
  Ne129    1.0000 0.26932  0.82405  0.03610  Biso   1.000  Ne
  He129    1.0000 0.26828  0.83937  0.06621  Biso   1.000  He
  He130    1.0000 0.23864  0.85012  0.07347  Biso   1.000  He
  Ne130    1.0000 0.23517  0.86622  0.10090  Biso   1.000  Ne
  Ne131    1.0000 0.56916  0.03674  0.80129  Biso   1.000  Ne
  He131    1.0000 0.58875  0.05607  0.78544  Biso   1.000  He
  He132    1.0000 0.57270  0.07947  0.76569  Biso   1.000  He
  Ne132    1.0000 0.59518  0.09819  0.75056  Biso   1.000  Ne
  Ne133    1.0000 0.17539  0.61321  0.79581  Biso   1.000  Ne
  He133    1.0000 0.16501  0.58316  0.80097  Biso   1.000  He
  He134    1.0000 0.13492  0.58379  0.79898  Biso   1.000  He
  Ne134    1.0000 0.12134  0.55525  0.80791  Biso   1.000  Ne
  Ne135    1.0000 0.92078  0.26954  0.57276  Biso   1.000  Ne
  He135    1.0000 0.90932  0.28554  0.60178  Biso   1.000  He
  He136    1.0000 0.91657  0.31535  0.59950  Biso   1.000  He
  Ne136    1.0000 0.90714  0.33278  0.62488  Biso   1.000  Ne
  Ne137    1.0000 0.61703  0.59495  0.13618  Biso   1.000  Ne
  He137    1.0000 0.58840  0.60898  0.12443  Biso   1.000  He
  He138    1.0000 0.59171  0.62750  0.09571  Biso   1.000  He
  Ne138    1.0000 0.56634  0.64463  0.08484  Biso   1.000  Ne
  Ne139    1.0000 0.25934  0.69458  0.45142  Biso   1.000  Ne
  He139    1.0000 0.22828  0.69965  0.44199  Biso   1.000  He
  He140    1.0000 0.22455  0.72755  0.42581  Biso   1.000  He
  Ne140    1.0000 0.19414  0.72840  0.41384  Biso   1.000  Ne
  Ne141    1.0000 0.99282  0.06669  0.51516  Biso   1.000  Ne
  He141    1.0000 0.02556  0.06296  0.51755  Biso   1.000  He
  He142    1.0000 0.03436  0.03040  0.51567  Biso   1.000  He
  Ne142    1.0000 0.06796  0.02474  0.52007  Biso   1.000  Ne
  Ne143    1.0000 0.90896  0.95624  0.39407  Biso   1.000  Ne
  He143    1.0000 0.88358  0.93472  0.38583  Biso   1.000  He
  He144    1.0000 0.87617  0.91284  0.41153  Biso   1.000  He
  Ne144    1.0000 0.84789  0.89663  0.40670  Biso   1.000  Ne
  Ne145    1.0000 0.15423  0.65506  0.05298  Biso   1.000  Ne
  He145    1.0000 0.14626  0.64967  0.02063  Biso   1.000  He
  He146    1.0000 0.17186  0.63637  0.00522  Biso   1.000  He
  Ne146    1.0000 0.18618  0.65481  0.98160  Biso   1.000  Ne
  Ne147    1.0000 0.25952  0.10611  0.90432  Biso   1.000  Ne
  He147    1.0000 0.24665  0.08058  0.92144  Biso   1.000  He
  He148    1.0000 0.22707  0.06004  0.90339  Biso   1.000  He
  Ne148    1.0000 0.21591  0.03506  0.92173  Biso   1.000  Ne
  Ne149    1.0000 0.93090  0.72565  0.17422  Biso   1.000  Ne
  He149    1.0000 0.89866  0.71797  0.16399  Biso   1.000  He
  He150    1.0000 0.87440  0.72784  0.18471  Biso   1.000  He
  Ne150    1.0000 0.84447  0.72344  0.17156  Biso   1.000  Ne
  Ne151    1.0000 0.38687  0.74683  0.27711  Biso   1.000  Ne
  He151    1.0000 0.37318  0.73474  0.24966  Biso   1.000  He
  He152    1.0000 0.35541  0.75549  0.23501  Biso   1.000  He
  Ne152    1.0000 0.34544  0.74339  0.20520  Biso   1.000  Ne
  Ne153    1.0000 0.91479  0.82492  0.67248  Biso   1.000  Ne
  He153    1.0000 0.94845  0.82858  0.66665  Biso   1.000  He
  He154    1.0000 0.96309  0.80095  0.67362  Biso   1.000  He
  Ne154    1.0000 0.97623  0.78858  0.64657  Biso   1.000  Ne
  Ne155    1.0000 0.81425  0.53066  0.14857  Biso   1.000  Ne
  He155    1.0000 0.83339  0.53666  0.12262  Biso   1.000  He
  He156    1.0000 0.84812  0.56515  0.12454  Biso   1.000  He
  Ne156    1.0000 0.86236  0.57143  0.09700  Biso   1.000  Ne
  Ne157    1.0000 0.60850  0.72307  0.77397  Biso   1.000  Ne
  He157    1.0000 0.61980  0.69754  0.75528  Biso   1.000  He
  He158    1.0000 0.60035  0.67475  0.74471  Biso   1.000  He
  Ne158    1.0000 0.61719  0.64661  0.74020  Biso   1.000  Ne
  Ne159    1.0000 0.35062  0.90133  0.41908  Biso   1.000  Ne
  He159    1.0000 0.31976  0.89648  0.40691  Biso   1.000  He
  He160    1.0000 0.30675  0.92585  0.39681  Biso   1.000  He
  Ne160    1.0000 0.27807  0.92722  0.38064  Biso   1.000  Ne
  Ne161    1.0000 0.14782  0.28448  0.78789  Biso   1.000  Ne
  He161    1.0000 0.16537  0.25965  0.77948  Biso   1.000  He
  He162    1.0000 0.19488  0.26028  0.79285  Biso   1.000  He
  Ne162    1.0000 0.21091  0.23617  0.78038  Biso   1.000  Ne
  Ne163    1.0000 0.84533  0.59338  0.34428  Biso   1.000  Ne
  He163    1.0000 0.82377  0.59568  0.36948  Biso   1.000  He
  He164    1.0000 0.83644  0.58576  0.39925  Biso   1.000  He
  Ne164    1.0000 0.81129  0.58832  0.42544  Biso   1.000  Ne
  Ne165    1.0000 0.19672  0.14388  0.44339  Biso   1.000  Ne
  He165    1.0000 0.21418  0.11806  0.43455  Biso   1.000  He
  He166    1.0000 0.24397  0.12443  0.42271  Biso   1.000  He
  Ne166    1.0000 0.25872  0.09540  0.40861  Biso   1.000  Ne
  Ne167    1.0000 0.07961  0.42293  0.67458  Biso   1.000  Ne
  He167    1.0000 0.11191  0.42134  0.67184  Biso   1.000  He
  He168    1.0000 0.12165  0.42526  0.63995  Biso   1.000  He
  Ne168    1.0000 0.15587  0.42608  0.63626  Biso   1.000  Ne
  Ne169    1.0000 0.84307  0.78524  0.57644  Biso   1.000  Ne
  He169    1.0000 0.84351  0.81318  0.58960  Biso   1.000  He
  He170    1.0000 0.81328  0.82074  0.60319  Biso   1.000  He
  Ne170    1.0000 0.81050  0.84976  0.62238  Biso   1.000  Ne
  Ne171    1.0000 0.61335  0.87615  0.01418  Biso   1.000  Ne
  He171    1.0000 0.61554  0.85597  0.03963  Biso   1.000  He
  He172    1.0000 0.64218  0.83389  0.03823  Biso   1.000  He
  Ne172    1.0000 0.64193  0.81157  0.06096  Biso   1.000  Ne
  Ne173    1.0000 0.90368  0.17764  0.49492  Biso   1.000  Ne
  He173    1.0000 0.87367  0.19242  0.49286  Biso   1.000  He
  He174    1.0000 0.85877  0.18989  0.52058  Biso   1.000  He
  Ne174    1.0000 0.82687  0.19273  0.51430  Biso   1.000  Ne
  Ne175    1.0000 0.20322  0.42185  0.95933  Biso   1.000  Ne
  He175    1.0000 0.21738  0.43061  0.92846  Biso   1.000  He
  He176    1.0000 0.20156  0.42206  0.90289  Biso   1.000  He
  Ne176    1.0000 0.21706  0.43192  0.87614  Biso   1.000  Ne
  Ne177    1.0000 0.66898  0.61526  0.48308  Biso   1.000  Ne
  He177    1.0000 0.64982  0.59850  0.46055  Biso   1.000  He
  He178    1.0000 0.65551  0.56766  0.45740  Biso   1.000  He
  Ne178    1.0000 0.63416  0.55499  0.43616  Biso   1.000  Ne
  Ne179    1.0000 0.93328  0.21030  0.07998  Biso   1.000  Ne
  He179    1.0000 0.90448  0.22662  0.07282  Biso   1.000  He
  He180    1.0000 0.88021  0.21890  0.09572  Biso   1.000  He
  Ne180    1.0000 0.85127  0.22280  0.08163  Biso   1.000  Ne
  Ne181    1.0000 0.98743  0.93046  0.72105  Biso   1.000  Ne
  He181    1.0000 0.01519  0.94650  0.70946  Biso   1.000  He
  He182    1.0000 0.01865  0.97993  0.71621  Biso   1.000  He
  Ne182    1.0000 0.04904  0.99105  0.70504  Biso   1.000  Ne
  Ne183    1.0000 0.25421  0.16527  0.56834  Biso   1.000  Ne
  He183    1.0000 0.27921  0.17930  0.58739  Biso   1.000  He
  He184    1.0000 0.28293  0.21223  0.58324  Biso   1.000  He
  Ne184    1.0000 0.30434  0.22887  0.60452  Biso   1.000  Ne
  Ne185    1.0000 0.12920  0.11618  0.91097  Biso   1.000  Ne
  He185    1.0000 0.10488  0.13737  0.91378  Biso   1.000  He
  He186    1.0000 0.09359  0.14995  0.88457  Biso   1.000  He
  Ne186    1.0000 0.07002  0.17596  0.88471  Biso   1.000  Ne
  Ne187    1.0000 0.49988  0.46553  0.07621  Biso   1.000  Ne
  He187    1.0000 0.48950  0.43987  0.05899  Biso   1.000  He
  He188    1.0000 0.49950  0.43624  0.02963  Biso   1.000  He
  Ne188    1.0000 0.48463  0.41431  0.01160  Biso   1.000  Ne
  Ne189    1.0000 0.60736  0.68869  0.54784  Biso   1.000  Ne
  He189    1.0000 0.59057  0.67097  0.56742  Biso   1.000  He
  He190    1.0000 0.56138  0.65921  0.55379  Biso   1.000  He
  Ne190    1.0000 0.53895  0.65268  0.57518  Biso   1.000  Ne
  Ne191    1.0000 0.43029  0.27152  0.66497  Biso   1.000  Ne
  He191    1.0000 0.41729  0.29888  0.67550  Biso   1.000  He
  He192    1.0000 0.43636  0.32627  0.67181  Biso   1.000  He
  Ne192    1.0000 0.42292  0.35604  0.68081  Biso   1.000  Ne
  Ne193    1.0000 0.32009  0.16879  0.89104  Biso   1.000  Ne
  He193    1.0000 0.29213  0.18499  0.89558  Biso   1.000  He
  He194    1.0000 0.29908  0.21696  0.89118  Biso   1.000  He
  Ne194    1.0000 0.27316  0.23555  0.89587  Biso   1.000  Ne
  Ne195    1.0000 0.71211  0.64970  0.54842  Biso   1.000  Ne
  He195    1.0000 0.73548  0.65554  0.57398  Biso   1.000  He
  He196    1.0000 0.74146  0.62932  0.59088  Biso   1.000  He
  Ne196    1.0000 0.76615  0.63284  0.61466  Biso   1.000  Ne
  Ne197    1.0000 0.33943  0.28282  0.56389  Biso   1.000  Ne
  He197    1.0000 0.34413  0.30064  0.59194  Biso   1.000  He
  He198    1.0000 0.34220  0.33346  0.58857  Biso   1.000  He
  Ne198    1.0000 0.33986  0.34946  0.61801  Biso   1.000  Ne
  Ne199    1.0000 0.25430  0.36034  0.30413  Biso   1.000  Ne
  He199    1.0000 0.24410  0.37907  0.32652  Biso   1.000  He
  He200    1.0000 0.25638  0.40771  0.32484  Biso   1.000  He
  Ne200    1.0000 0.25062  0.42778  0.35287  Biso   1.000  Ne
  Ne201    1.0000 0.89891  0.82763  0.48465  Biso   1.000  Ne
  He201    1.0000 0.86968  0.84369  0.48330  Biso   1.000  He
  He202    1.0000 0.84465  0.82579  0.49107  Biso   1.000  He
  Ne202    1.0000 0.81415  0.83872  0.49073  Biso   1.000  Ne
  Ne203    1.0000 0.76192  0.33629  0.08434  Biso   1.000  Ne
  He203    1.0000 0.75066  0.34640  0.11470  Biso   1.000  He
  He204    1.0000 0.72362  0.33041  0.12339  Biso   1.000  He
  Ne204    1.0000 0.71556  0.34170  0.15436  Biso   1.000  Ne
  Ne205    1.0000 0.55676  0.60422  0.34123  Biso   1.000  Ne
  He205    1.0000 0.54521  0.59603  0.37322  Biso   1.000  He
  He206    1.0000 0.52359  0.57389  0.37731  Biso   1.000  He
  Ne206    1.0000 0.51889  0.56707  0.40811  Biso   1.000  Ne
  Ne207    1.0000 0.31303  0.07431  0.58906  Biso   1.000  Ne
  He207    1.0000 0.30883  0.07370  0.62265  Biso   1.000  He
  He208    1.0000 0.27660  0.07382  0.63053  Biso   1.000  He
  Ne208    1.0000 0.27378  0.07587  0.66404  Biso   1.000  Ne
  Ne209    1.0000 0.19838  0.08944  0.27559  Biso   1.000  Ne
  He209    1.0000 0.18754  0.08753  0.30674  Biso   1.000  He
  He210    1.0000 0.20140  0.06367  0.32548  Biso   1.000  He
  Ne210    1.0000 0.19059  0.06363  0.35745  Biso   1.000  Ne
  Ne211    1.0000 0.84214  0.39082  0.23773  Biso   1.000  Ne
  He211    1.0000 0.83316  0.36822  0.21781  Biso   1.000  He
  He212    1.0000 0.80007  0.36211  0.21928  Biso   1.000  He
  Ne212    1.0000 0.78842  0.33707  0.20218  Biso   1.000  Ne
  Ne213    1.0000 0.41685  0.93812  0.77888  Biso   1.000  Ne
  He213    1.0000 0.44279  0.94869  0.79589  Biso   1.000  He
  He214    1.0000 0.46643  0.96706  0.78089  Biso   1.000  He
  Ne214    1.0000 0.46645  0.00135  0.78664  Biso   1.000  Ne
  Ne215    1.0000 0.82690  0.12384  0.56962  Biso   1.000  Ne
  He215    1.0000 0.84662  0.12717  0.59410  Biso   1.000  He
  He216    1.0000 0.87715  0.13801  0.58132  Biso   1.000  He
  Ne216    1.0000 0.90092  0.13962  0.60575  Biso   1.000  Ne
  Ne217    1.0000 0.61917  0.21729  0.07784  Biso   1.000  Ne
  He217    1.0000 0.64465  0.20097  0.06194  Biso   1.000  He
  He218    1.0000 0.64540  0.20776  0.02850  Biso   1.000  He
  Ne218    1.0000 0.63397  0.18324  0.01155  Biso   1.000  Ne
  Ne219    1.0000 0.10156  0.59549  0.09865  Biso   1.000  Ne
  He219    1.0000 0.07401  0.57810  0.09594  Biso   1.000  He
  He220    1.0000 0.06744  0.55948  0.12340  Biso   1.000  He
  Ne220    1.0000 0.04193  0.53809  0.11722  Biso   1.000  Ne
  Ne221    1.0000 0.39729  0.17740  0.66401  Biso   1.000  Ne
  He221    1.0000 0.40528  0.14448  0.67361  Biso   1.000  He
  He222    1.0000 0.38809  0.12387  0.65400  Biso   1.000  He
  Ne222    1.0000 0.39289  0.09262  0.66410  Biso   1.000  Ne
  Ne223    1.0000 0.24335  0.87739  0.93548  Biso   1.000  Ne
  He223    1.0000 0.27651  0.89056  0.93322  Biso   1.000  He
  He224    1.0000 0.27720  0.92451  0.92490  Biso   1.000  He
  Ne224    1.0000 0.30899  0.93579  0.91901  Biso   1.000  Ne
  Ne225    1.0000 0.84371  0.58493  0.94287  Biso   1.000  Ne
  He225    1.0000 0.87689  0.58897  0.94352  Biso   1.000  He
  He226    1.0000 0.89366  0.56617  0.96406  Biso   1.000  He
  Ne226    1.0000 0.92654  0.57310  0.96875  Biso   1.000  Ne
  Ne227    1.0000 0.15082  0.69713  0.80879  Biso   1.000  Ne
  He227    1.0000 0.12218  0.70681  0.79809  Biso   1.000  He
  He228    1.0000 0.10234  0.67974  0.79429  Biso   1.000  He
  Ne228    1.0000 0.07126  0.68712  0.78542  Biso   1.000  Ne
  Ne229    1.0000 0.40413  0.40615  0.82962  Biso   1.000  Ne
  He229    1.0000 0.38643  0.40049  0.79984  Biso   1.000  He
  He230    1.0000 0.38333  0.36825  0.79591  Biso   1.000  He
  Ne230    1.0000 0.36858  0.35913  0.76620  Biso   1.000  Ne
  Ne231    1.0000 0.10590  0.91392  0.78117  Biso   1.000  Ne
  He231    1.0000 0.09730  0.91499  0.74740  Biso   1.000  He
  He232    1.0000 0.09731  0.88666  0.73303  Biso   1.000  He
  Ne232    1.0000 0.08795  0.88680  0.70237  Biso   1.000  Ne
  Ne233    1.0000 0.54935  0.77799  0.88653  Biso   1.000  Ne
  He233    1.0000 0.56080  0.80953  0.89415  Biso   1.000  He
  He234    1.0000 0.58758  0.81973  0.87475  Biso   1.000  He
  Ne234    1.0000 0.59568  0.85081  0.88076  Biso   1.000  Ne
  Ne235    1.0000 0.81241  0.08587  0.17133  Biso   1.000  Ne
  He235    1.0000 0.82963  0.07243  0.19413  Biso   1.000  He
  He236    1.0000 0.85968  0.08751  0.20384  Biso   1.000  He
  Ne236    1.0000 0.87429  0.07551  0.22924  Biso   1.000  Ne
  Ne237    1.0000 0.10589  0.88116  0.31819  Biso   1.000  Ne
  He237    1.0000 0.07274  0.87756  0.31152  Biso   1.000  He
  He238    1.0000 0.05903  0.84738  0.31181  Biso   1.000  He
  Ne238    1.0000 0.02736  0.84856  0.30168  Biso   1.000  Ne
  Ne239    1.0000 0.61891  0.30234  0.05663  Biso   1.000  Ne
  He239    1.0000 0.64705  0.31519  0.06858  Biso   1.000  He
  He240    1.0000 0.65906  0.34065  0.04944  Biso   1.000  He
  Ne240    1.0000 0.68339  0.35572  0.06211  Biso   1.000  Ne
  Ne241    1.0000 0.93315  0.61877  0.36801  Biso   1.000  Ne
  He241    1.0000 0.93100  0.58770  0.38074  Biso   1.000  He
  He242    1.0000 0.92184  0.58808  0.41248  Biso   1.000  He
  Ne242    1.0000 0.91499  0.55855  0.42471  Biso   1.000  Ne
  Ne243    1.0000 0.76137  0.63928  0.00672  Biso   1.000  Ne
  He243    1.0000 0.77909  0.61233  0.01513  Biso   1.000  He
  He244    1.0000 0.81101  0.61442  0.01772  Biso   1.000  He
  Ne244    1.0000 0.82927  0.58953  0.03062  Biso   1.000  Ne
  Ne245    1.0000 0.92542  0.08259  0.14392  Biso   1.000  Ne
  He245    1.0000 0.89894  0.10050  0.14505  Biso   1.000  He
  He246    1.0000 0.89155  0.11998  0.11786  Biso   1.000  He
  Ne246    1.0000 0.86458  0.13658  0.12170  Biso   1.000  Ne
  Ne247    1.0000 0.42824  0.56710  0.16029  Biso   1.000  Ne
  He247    1.0000 0.42605  0.58736  0.18713  Biso   1.000  He
  He248    1.0000 0.41240  0.61593  0.17626  Biso   1.000  He
  Ne248    1.0000 0.40730  0.63939  0.20055  Biso   1.000  Ne
  Ne249    1.0000 0.44194  0.86962  0.23169  Biso   1.000  Ne
  He249    1.0000 0.43693  0.83712  0.23360  Biso   1.000  He
  He250    1.0000 0.42672  0.82111  0.20514  Biso   1.000  He
  Ne250    1.0000 0.43012  0.78635  0.20336  Biso   1.000  Ne
  Ne251    1.0000 0.42396  0.78817  0.68144  Biso   1.000  Ne
  He251    1.0000 0.41932  0.76802  0.65669  Biso   1.000  He
  He252    1.0000 0.40944  0.78023  0.62793  Biso   1.000  He
  Ne252    1.0000 0.41348  0.75559  0.60295  Biso   1.000  Ne
  Ne253    1.0000 0.28347  0.94425  0.16861  Biso   1.000  Ne
  He253    1.0000 0.26343  0.95035  0.19300  Biso   1.000  He
  He254    1.0000 0.25290  0.91956  0.20935  Biso   1.000  He
  Ne254    1.0000 0.22786  0.92635  0.23164  Biso   1.000  Ne
  Ne255    1.0000 0.90838  0.06071  0.44055  Biso   1.000  Ne
  He255    1.0000 0.89750  0.07681  0.41228  Biso   1.000  He
  He256    1.0000 0.87196  0.09331  0.41505  Biso   1.000  He
  Ne256    1.0000 0.84555  0.08194  0.40009  Biso   1.000  Ne
  Ne257    1.0000 0.62592  0.04766  0.28176  Biso   1.000  Ne
  He257    1.0000 0.60830  0.07387  0.29334  Biso   1.000  He
  He258    1.0000 0.60328  0.07539  0.32497  Biso   1.000  He
  Ne258    1.0000 0.58893  0.10314  0.33117  Biso   1.000  Ne
  Ne259    1.0000 0.83412  0.91749  0.74327  Biso   1.000  Ne
  He259    1.0000 0.86482  0.91826  0.73018  Biso   1.000  He
  He260    1.0000 0.86280  0.91660  0.69770  Biso   1.000  He
  Ne260    1.0000 0.89296  0.91830  0.68526  Biso   1.000  Ne
  Ne261    1.0000 0.75555  0.10132  0.55351  Biso   1.000  Ne
  He261    1.0000 0.72796  0.08940  0.56897  Biso   1.000  He
  He262    1.0000 0.73431  0.07618  0.59745  Biso   1.000  He
  Ne262    1.0000 0.71038  0.07138  0.61898  Biso   1.000  Ne
  Ne263    1.0000 0.41003  0.34286  0.36718  Biso   1.000  Ne
  He263    1.0000 0.43963  0.34229  0.35619  Biso   1.000  He
  He264    1.0000 0.43901  0.34986  0.32261  Biso   1.000  He
  Ne264    1.0000 0.47038  0.36230  0.31296  Biso   1.000  Ne
  Ne265    1.0000 0.35535  0.93958  0.83612  Biso   1.000  Ne
  He265    1.0000 0.37069  0.94757  0.86359  Biso   1.000  He
  He266    1.0000 0.37320  0.97921  0.87238  Biso   1.000  He
  Ne266    1.0000 0.40329  0.99437  0.86424  Biso   1.000  Ne
  Ne267    1.0000 0.90910  0.73164  0.82396  Biso   1.000  Ne
  He267    1.0000 0.90099  0.71314  0.79583  Biso   1.000  He
  He268    1.0000 0.87628  0.69155  0.80472  Biso   1.000  He
  Ne268    1.0000 0.87169  0.66744  0.78209  Biso   1.000  Ne
  Ne269    1.0000 0.78572  0.24507  0.40612  Biso   1.000  Ne
  He269    1.0000 0.80935  0.22961  0.39079  Biso   1.000  He
  He270    1.0000 0.82299  0.20288  0.41062  Biso   1.000  He
  Ne270    1.0000 0.84284  0.18240  0.39364  Biso   1.000  Ne
  Ne271    1.0000 0.01631  0.90924  0.40457  Biso   1.000  Ne
  He271    1.0000 0.01976  0.89842  0.43648  Biso   1.000  He
  He272    1.0000 0.99316  0.88011  0.44651  Biso   1.000  He
  Ne272    1.0000 0.99395  0.87153  0.47716  Biso   1.000  Ne
  Ne273    1.0000 0.94748  0.28841  0.12478  Biso   1.000  Ne
  He273    1.0000 0.93915  0.31370  0.14590  Biso   1.000  He
  He274    1.0000 0.91090  0.30827  0.16200  Biso   1.000  He
  Ne274    1.0000 0.90822  0.33217  0.18332  Biso   1.000  Ne
  Ne275    1.0000 0.73799  0.73210  0.93405  Biso   1.000  Ne
  He275    1.0000 0.76906  0.74433  0.93515  Biso   1.000  He
  He276    1.0000 0.77268  0.77527  0.92680  Biso   1.000  He
  Ne276    1.0000 0.80404  0.78500  0.93994  Biso   1.000  Ne
  Ne277    1.0000 0.35931  0.55931  0.56696  Biso   1.000  Ne
  He277    1.0000 0.32902  0.57556  0.56372  Biso   1.000  He
  He278    1.0000 0.33121  0.60269  0.54135  Biso   1.000  He
  Ne278    1.0000 0.30435  0.62075  0.53512  Biso   1.000  Ne
  Ne279    1.0000 0.49674  0.51043  0.97022  Biso   1.000  Ne
  He279    1.0000 0.46283  0.50993  0.96848  Biso   1.000  He
  He280    1.0000 0.45020  0.51570  0.99572  Biso   1.000  He
  Ne280    1.0000 0.41536  0.51771  0.99699  Biso   1.000  Ne
  Ne281    1.0000 0.33233  0.44954  0.35659  Biso   1.000  Ne
  He281    1.0000 0.32352  0.46448  0.38658  Biso   1.000  He
  He282    1.0000 0.31117  0.49646  0.38210  Biso   1.000  He
  Ne282    1.0000 0.30465  0.51000  0.41052  Biso   1.000  Ne
  Ne283    1.0000 0.23059  0.68430  0.82194  Biso   1.000  Ne
  He283    1.0000 0.25471  0.70592  0.83258  Biso   1.000  He
  He284    1.0000 0.27865  0.70829  0.80957  Biso   1.000  He
  Ne284    1.0000 0.29985  0.73126  0.81764  Biso   1.000  Ne
  Ne285    1.0000 0.07988  0.74444  0.60001  Biso   1.000  Ne
  He285    1.0000 0.06506  0.77486  0.60657  Biso   1.000  He
  He286    1.0000 0.07855  0.79550  0.63078  Biso   1.000  He
  Ne286    1.0000 0.05732  0.81764  0.64347  Biso   1.000  Ne
  Ne287    1.0000 0.58051  0.67695  0.93023  Biso   1.000  Ne
  He287    1.0000 0.61322  0.67994  0.92245  Biso   1.000  He
  He288    1.0000 0.62628  0.71128  0.92230  Biso   1.000  He
  Ne288    1.0000 0.65834  0.70983  0.92232  Biso   1.000  Ne
  Ne289    1.0000 0.80246  0.63093  0.23209  Biso   1.000  Ne
  He289    1.0000 0.76793  0.63164  0.23605  Biso   1.000  He
  He290    1.0000 0.75114  0.62566  0.20796  Biso   1.000  He
  Ne290    1.0000 0.72049  0.63299  0.21375  Biso   1.000  Ne
  Ne291    1.0000 0.80415  0.30399  0.65997  Biso   1.000  Ne
  He291    1.0000 0.79599  0.33313  0.67022  Biso   1.000  He
  He292    1.0000 0.81655  0.35730  0.66065  Biso   1.000  He
  Ne292    1.0000 0.80659  0.38743  0.67278  Biso   1.000  Ne
  Ne293    1.0000 0.21154  0.45819  0.03638  Biso   1.000  Ne
  He293    1.0000 0.22137  0.48611  0.05239  Biso   1.000  He
  He294    1.0000 0.19779  0.50931  0.05177  Biso   1.000  He
  Ne294    1.0000 0.20377  0.53592  0.07272  Biso   1.000  Ne
  Ne295    1.0000 0.26304  0.32598  0.88800  Biso   1.000  Ne
  He295    1.0000 0.25625  0.33506  0.85715  Biso   1.000  He
  He296    1.0000 0.27152  0.31624  0.83190  Biso   1.000  He
  Ne296    1.0000 0.26133  0.32687  0.80230  Biso   1.000  Ne
  Ne297    1.0000 0.77187  0.14172  0.91681  Biso   1.000  Ne
  He297    1.0000 0.79606  0.16351  0.91420  Biso   1.000  He
  He298    1.0000 0.82629  0.15040  0.92383  Biso   1.000  He
  Ne298    1.0000 0.85277  0.17171  0.92221  Biso   1.000  Ne
  Ne299    1.0000 0.40071  0.22575  0.24588  Biso   1.000  Ne
  He299    1.0000 0.39787  0.19209  0.25431  Biso   1.000  He
  He300    1.0000 0.42753  0.17930  0.25483  Biso   1.000  He
  Ne300    1.0000 0.43164  0.14795  0.26425  Biso   1.000  Ne
  Ne301    1.0000 0.77399  0.74593  0.78399  Biso   1.000  Ne
  He301    1.0000 0.78719  0.72184  0.80030  Biso   1.000  He
  He302    1.0000 0.78528  0.72628  0.83378  Biso   1.000  He
  Ne302    1.0000 0.79756  0.69990  0.85031  Biso   1.000  Ne
  Ne303    1.0000 0.42056  0.39447  0.14773  Biso   1.000  Ne
  He303    1.0000 0.42060  0.40193  0.11509  Biso   1.000  He
  He304    1.0000 0.39478  0.39115  0.09993  Biso   1.000  He
  Ne304    1.0000 0.39362  0.39584  0.06699  Biso   1.000  Ne
  Ne305    1.0000 0.89460  0.76933  0.32333  Biso   1.000  Ne
  He305    1.0000 0.89606  0.79677  0.30263  Biso   1.000  He
  He306    1.0000 0.92322  0.79772  0.28405  Biso   1.000  He
  Ne306    1.0000 0.93051  0.82843  0.27323  Biso   1.000  Ne
  Ne307    1.0000 0.92526  0.42098  0.45521  Biso   1.000  Ne
  He307    1.0000 0.93211  0.40449  0.42872  Biso   1.000  He
  He308    1.0000 0.91086  0.38035  0.42093  Biso   1.000  He
  Ne308    1.0000 0.92401  0.36412  0.39370  Biso   1.000  Ne
  Ne309    1.0000 0.73095  0.04176  0.30261  Biso   1.000  Ne
  He309    1.0000 0.71974  0.07108  0.30906  Biso   1.000  He
  He310    1.0000 0.69219  0.07125  0.32614  Biso   1.000  He
  Ne310    1.0000 0.68068  0.10329  0.33481  Biso   1.000  Ne
  Ne311    1.0000 0.93672  0.30687  0.30940  Biso   1.000  Ne
  He311    1.0000 0.91873  0.33391  0.30487  Biso   1.000  He
  He312    1.0000 0.88689  0.33430  0.31360  Biso   1.000  He
  Ne312    1.0000 0.87453  0.36273  0.31009  Biso   1.000  Ne
  Ne313    1.0000 0.06260  0.88478  0.94095  Biso   1.000  Ne
  He313    1.0000 0.05732  0.91290  0.95596  Biso   1.000  He
  He314    1.0000 0.04408  0.94062  0.94107  Biso   1.000  He
  Ne314    1.0000 0.04514  0.96866  0.95839  Biso   1.000  Ne
  Ne315    1.0000 0.39710  0.82434  0.32662  Biso   1.000  Ne
  He315    1.0000 0.41633  0.84965  0.31196  Biso   1.000  He
  He316    1.0000 0.41067  0.87711  0.32552  Biso   1.000  He
  Ne316    1.0000 0.41821  0.90985  0.30924  Biso   1.000  Ne
  Ne317    1.0000 0.99637  0.52929  0.93863  Biso   1.000  Ne
  He317    1.0000 0.99403  0.56105  0.92840  Biso   1.000  He
  He318    1.0000 0.01406  0.58205  0.94645  Biso   1.000  He
  Ne318    1.0000 0.01829  0.61261  0.93308  Biso   1.000  Ne
  Ne319    1.0000 0.12363  0.57829  0.43496  Biso   1.000  Ne
  He319    1.0000 0.09979  0.56284  0.45553  Biso   1.000  He
  He320    1.0000 0.07067  0.57860  0.45800  Biso   1.000  He
  Ne320    1.0000 0.04965  0.56739  0.47969  Biso   1.000  Ne
  Ne321    1.0000 0.89643  0.17722  0.84225  Biso   1.000  Ne
  He321    1.0000 0.89280  0.16879  0.81038  Biso   1.000  He
  He322    1.0000 0.88870  0.19520  0.79060  Biso   1.000  He
  Ne322    1.0000 0.88797  0.18783  0.75814  Biso   1.000  Ne
  Ne323    1.0000 0.82327  0.16219  0.68907  Biso   1.000  Ne
  He323    1.0000 0.84387  0.18095  0.67317  Biso   1.000  He
  He324    1.0000 0.83083  0.20680  0.65419  Biso   1.000  He
  Ne324    1.0000 0.85298  0.22372  0.63854  Biso   1.000  Ne
  Ne325    1.0000 0.28034  0.74769  0.08763  Biso   1.000  Ne
  He325    1.0000 0.26134  0.74844  0.11534  Biso   1.000  He
  He326    1.0000 0.27715  0.73453  0.14189  Biso   1.000  He
  Ne326    1.0000 0.25705  0.73442  0.16921  Biso   1.000  Ne
  Ne327    1.0000 0.21064  0.35452  0.41313  Biso   1.000  Ne
  He327    1.0000 0.19393  0.38389  0.42287  Biso   1.000  He
  He328    1.0000 0.16094  0.38033  0.42432  Biso   1.000  He
  Ne328    1.0000 0.14608  0.40872  0.43486  Biso   1.000  Ne
  Ne329    1.0000 0.36561  0.30435  0.42827  Biso   1.000  Ne
  He329    1.0000 0.33529  0.31723  0.43997  Biso   1.000  He
  He330    1.0000 0.32263  0.34196  0.41986  Biso   1.000  He
  Ne330    1.0000 0.29248  0.35382  0.43334  Biso   1.000  Ne
  Ne331    1.0000 0.11165  0.02033  0.62639  Biso   1.000  Ne
  He331    1.0000 0.07881  0.01180  0.61744  Biso   1.000  He
  He332    1.0000 0.07416  0.98012  0.60881  Biso   1.000  He
  Ne332    1.0000 0.04261  0.97135  0.60498  Biso   1.000  Ne
  Ne333    1.0000 0.83117  0.67587  0.40350  Biso   1.000  Ne
  He333    1.0000 0.86175  0.67641  0.41575  Biso   1.000  He
  He334    1.0000 0.88309  0.69562  0.39943  Biso   1.000  He
  Ne334    1.0000 0.91484  0.69656  0.40984  Biso   1.000  Ne
  Ne335    1.0000 0.86173  0.15311  0.30934  Biso   1.000  Ne
  He335    1.0000 0.83655  0.15204  0.28835  Biso   1.000  He
  He336    1.0000 0.84618  0.15053  0.25837  Biso   1.000  He
  Ne336    1.0000 0.82352  0.15684  0.23586  Biso   1.000  Ne
  Ne337    1.0000 0.41562  0.22596  0.55285  Biso   1.000  Ne
  He337    1.0000 0.39584  0.20776  0.57089  Biso   1.000  He
  He338    1.0000 0.40153  0.17543  0.56751  Biso   1.000  He
  Ne338    1.0000 0.37875  0.15407  0.57875  Biso   1.000  Ne
  Ne339    1.0000 0.55452  0.25215  0.81927  Biso   1.000  Ne
  He339    1.0000 0.55119  0.27492  0.79388  Biso   1.000  He
  He340    1.0000 0.56904  0.30144  0.79878  Biso   1.000  He
  Ne340    1.0000 0.56656  0.32510  0.77663  Biso   1.000  Ne
  Ne341    1.0000 0.41626  0.05475  0.79669  Biso   1.000  Ne
  He341    1.0000 0.43217  0.07234  0.77439  Biso   1.000  He
  He342    1.0000 0.41432  0.10000  0.76669  Biso   1.000  He
  Ne342    1.0000 0.42918  0.11453  0.74024  Biso   1.000  Ne
  Ne343    1.0000 0.13225  0.22976  0.39291  Biso   1.000  Ne
  He343    1.0000 0.10554  0.23689  0.41108  Biso   1.000  He
  He344    1.0000 0.09305  0.21150  0.42603  Biso   1.000  He
  Ne344    1.0000 0.06323  0.21373  0.43967  Biso   1.000  Ne
  Ne345    1.0000 0.24772  0.86391  0.43299  Biso   1.000  Ne
  He345    1.0000 0.24663  0.83029  0.42587  Biso   1.000  He
  He346    1.0000 0.27227  0.81728  0.40839  Biso   1.000  He
  Ne346    1.0000 0.26803  0.78561  0.40243  Biso   1.000  Ne
  Ne347    1.0000 0.31920  0.26014  0.72723  Biso   1.000  Ne
  He347    1.0000 0.34509  0.23620  0.72120  Biso   1.000  He
  He348    1.0000 0.34905  0.21336  0.74604  Biso   1.000  He
  Ne348    1.0000 0.36847  0.18907  0.74256  Biso   1.000  Ne
  Ne349    1.0000 0.64339  0.11035  0.68156  Biso   1.000  Ne
  He349    1.0000 0.61823  0.10180  0.66080  Biso   1.000  He
  He350    1.0000 0.58734  0.10147  0.67134  Biso   1.000  He
  Ne350    1.0000 0.56407  0.08995  0.64743  Biso   1.000  Ne
  Ne351    1.0000 0.53520  0.56859  0.71128  Biso   1.000  Ne
  He351    1.0000 0.53623  0.54622  0.68619  Biso   1.000  He
  He352    1.0000 0.55503  0.55679  0.66097  Biso   1.000  He
  Ne352    1.0000 0.55717  0.53572  0.63546  Biso   1.000  Ne
  Ne353    1.0000 0.32711  0.39757  0.51399  Biso   1.000  Ne
  He353    1.0000 0.34032  0.41697  0.53749  Biso   1.000  He
  He354    1.0000 0.35567  0.44379  0.52904  Biso   1.000  He
  Ne354    1.0000 0.37037  0.45837  0.55366  Biso   1.000  Ne
  Ne355    1.0000 0.71840  0.25749  0.04789  Biso   1.000  Ne
  He355    1.0000 0.74327  0.24369  0.06694  Biso   1.000  He
  He356    1.0000 0.75111  0.21096  0.06183  Biso   1.000  He
  Ne356    1.0000 0.77129  0.19869  0.08660  Biso   1.000  Ne
  Ne357    1.0000 0.27689  0.64750  0.18167  Biso   1.000  Ne
  He357    1.0000 0.28897  0.66387  0.20753  Biso   1.000  He
  He358    1.0000 0.29696  0.64415  0.23377  Biso   1.000  He
  Ne358    1.0000 0.31740  0.65910  0.25223  Biso   1.000  Ne
  Ne359    1.0000 0.82161  0.43311  0.31086  Biso   1.000  Ne
  He359    1.0000 0.83961  0.43565  0.34030  Biso   1.000  He
  He360    1.0000 0.87240  0.43512  0.34052  Biso   1.000  He
  Ne360    1.0000 0.88561  0.43743  0.37135  Biso   1.000  Ne
  Ne361    1.0000 0.38887  0.71845  0.74673  Biso   1.000  Ne
  He361    1.0000 0.38900  0.70299  0.77686  Biso   1.000  He
  He362    1.0000 0.41602  0.68788  0.78596  Biso   1.000  He
  Ne362    1.0000 0.41126  0.67266  0.81479  Biso   1.000  Ne
  Ne363    1.0000 0.66007  0.71166  0.68134  Biso   1.000  Ne
  He363    1.0000 0.68771  0.70393  0.70334  Biso   1.000  He
  He364    1.0000 0.71228  0.72757  0.70021  Biso   1.000  He
  Ne364    1.0000 0.73777  0.72648  0.72241  Biso   1.000  Ne
  Ne365    1.0000 0.33389  0.74356  0.59399  Biso   1.000  Ne
  He365    1.0000 0.30312  0.74688  0.60905  Biso   1.000  He
  He366    1.0000 0.28297  0.76770  0.59445  Biso   1.000  He
  Ne366    1.0000 0.25537  0.77569  0.60986  Biso   1.000  Ne
  Ne367    1.0000 0.10146  0.21735  0.07220  Biso   1.000  Ne
  He367    1.0000 0.09546  0.19312  0.09608  Biso   1.000  He
  He368    1.0000 0.10972  0.19946  0.12557  Biso   1.000  He
  Ne368    1.0000 0.10169  0.17855  0.14972  Biso   1.000  Ne
  Ne369    1.0000 0.73330  0.84835  0.59777  Biso   1.000  Ne
  He369    1.0000 0.71520  0.82002  0.60846  Biso   1.000  He
  He370    1.0000 0.73110  0.79217  0.60602  Biso   1.000  He
  Ne370    1.0000 0.71269  0.76599  0.61062  Biso   1.000  Ne
  Ne371    1.0000 0.48402  0.48969  0.34462  Biso   1.000  Ne
  He371    1.0000 0.49689  0.48190  0.31325  Biso   1.000  He
  He372    1.0000 0.50484  0.45037  0.31279  Biso   1.000  He
  Ne372    1.0000 0.51462  0.43842  0.28236  Biso   1.000  Ne
  Ne373    1.0000 0.16450  0.35003  0.83730  Biso   1.000  Ne
  He373    1.0000 0.14455  0.33011  0.85323  Biso   1.000  He
  He374    1.0000 0.16411  0.31335  0.87621  Biso   1.000  He
  Ne374    1.0000 0.14646  0.29182  0.89480  Biso   1.000  Ne
  Ne375    1.0000 0.35077  0.00369  0.20193  Biso   1.000  Ne
  He375    1.0000 0.36420  0.98766  0.17533  Biso   1.000  He
  He376    1.0000 0.34521  0.98674  0.14999  Biso   1.000  He
  Ne376    1.0000 0.35630  0.96874  0.12870  Biso   1.000  Ne
  Ne377    1.0000 0.81838  0.80288  0.09952  Biso   1.000  Ne
  He377    1.0000 0.82829  0.83113  0.09978  Biso   1.000  He
  He378    1.0000 0.85904  0.83011  0.08573  Biso   1.000  He
  Ne378    1.0000 0.87215  0.85925  0.08770  Biso   1.000  Ne
  Ne379    1.0000 0.48908  0.20439  0.01022  Biso   1.000  Ne
  He379    1.0000 0.45690  0.19864  0.00718  Biso   1.000  He
  He380    1.0000 0.44515  0.16695  0.01660  Biso   1.000  He
  Ne380    1.0000 0.41118  0.16385  0.01361  Biso   1.000  Ne
  Ne381    1.0000 0.89660  0.53126  0.54909  Biso   1.000  Ne
  He381    1.0000 0.92121  0.53569  0.52662  Biso   1.000  He
  He382    1.0000 0.93675  0.56497  0.52905  Biso   1.000  He
  Ne382    1.0000 0.96037  0.57344  0.50739  Biso   1.000  Ne
  Ne383    1.0000 0.43515  0.13449  0.35020  Biso   1.000  Ne
  He383    1.0000 0.43108  0.16773  0.35089  Biso   1.000  He
  He384    1.0000 0.42308  0.17645  0.38406  Biso   1.000  He
  Ne384    1.0000 0.42267  0.20908  0.39184  Biso   1.000  Ne
  Ne385    1.0000 0.93521  0.40197  0.25923  Biso   1.000  Ne
  He385    1.0000 0.94939  0.41333  0.22915  Biso   1.000  He
  He386    1.0000 0.95216  0.39009  0.20662  Biso   1.000  He
  Ne386    1.0000 0.96053  0.40119  0.17529  Biso   1.000  Ne
  Ne387    1.0000 0.13168  0.79599  0.93393  Biso   1.000  Ne
  He387    1.0000 0.12714  0.82984  0.92980  Biso   1.000  He
  He388    1.0000 0.15415  0.84736  0.93115  Biso   1.000  He
  Ne388    1.0000 0.14745  0.88139  0.92850  Biso   1.000  Ne
  Ne389    1.0000 0.82558  0.28239  0.58388  Biso   1.000  Ne
  He389    1.0000 0.79256  0.27730  0.57561  Biso   1.000  He
  He390    1.0000 0.77645  0.25076  0.59256  Biso   1.000  He
  Ne390    1.0000 0.74531  0.24872  0.58712  Biso   1.000  Ne
  Ne391    1.0000 0.41747  0.32085  0.19441  Biso   1.000  Ne
  He391    1.0000 0.43471  0.30579  0.21912  Biso   1.000  He
  He392    1.0000 0.42587  0.31596  0.24908  Biso   1.000  He
  Ne392    1.0000 0.44719  0.30055  0.27068  Biso   1.000  Ne
  Ne393    1.0000 0.58537  0.20754  0.89529  Biso   1.000  Ne
  He393    1.0000 0.56054  0.19318  0.91270  Biso   1.000  He
  He394    1.0000 0.53741  0.21811  0.92381  Biso   1.000  He
  Ne394    1.0000 0.51301  0.20502  0.94002  Biso   1.000  Ne
  Ne395    1.0000 0.06838  0.96520  0.27271  Biso   1.000  Ne
  He395    1.0000 0.09415  0.95842  0.25467  Biso   1.000  He
  He396    1.0000 0.08669  0.95164  0.22380  Biso   1.000  He
  Ne396    1.0000 0.11464  0.95252  0.20239  Biso   1.000  Ne
  Ne397    1.0000 0.74869  0.88211  0.67532  Biso   1.000  Ne
  He397    1.0000 0.74911  0.89283  0.70712  Biso   1.000  He
  He398    1.0000 0.74668  0.86884  0.73034  Biso   1.000  He
  Ne398    1.0000 0.74759  0.87898  0.76390  Biso   1.000  Ne
  Ne399    1.0000 0.89595  0.06622  0.88240  Biso   1.000  Ne
  He399    1.0000 0.90495  0.08090  0.85459  Biso   1.000  He
  He400    1.0000 0.88405  0.07203  0.82934  Biso   1.000  He
  Ne400    1.0000 0.89199  0.08014  0.79990  Biso   1.000  Ne
  Ne401    1.0000 0.98130  0.97307  0.26788  Biso   1.000  Ne
  He401    1.0000 0.96982  0.94372  0.27742  Biso   1.000  He
  He402    1.0000 0.94158  0.94445  0.29554  Biso   1.000  He
  Ne402    1.0000 0.92989  0.91324  0.29965  Biso   1.000  Ne
  Ne403    1.0000 0.60512  0.28400  0.52421  Biso   1.000  Ne
  He403    1.0000 0.62011  0.28433  0.49415  Biso   1.000  He
  He404    1.0000 0.62903  0.31327  0.48446  Biso   1.000  He
  Ne404    1.0000 0.64516  0.30776  0.45473  Biso   1.000  Ne
  Ne405    1.0000 0.05380  0.10154  0.61611  Biso   1.000  Ne
  He405    1.0000 0.01856  0.10729  0.61984  Biso   1.000  He
  He406    1.0000 0.00073  0.09928  0.59046  Biso   1.000  He
  Ne406    1.0000 0.96793  0.10154  0.59241  Biso   1.000  Ne
  Ne407    1.0000 0.57875  0.68300  0.36203  Biso   1.000  Ne
  He407    1.0000 0.54652  0.67328  0.36729  Biso   1.000  He
  He408    1.0000 0.53539  0.68845  0.39686  Biso   1.000  He
  Ne408    1.0000 0.50186  0.68069  0.40120  Biso   1.000  Ne
  Ne409    1.0000 0.09219  0.40789  0.84074  Biso   1.000  Ne
  He409    1.0000 0.11744  0.42992  0.83277  Biso   1.000  He
  He410    1.0000 0.11772  0.45655  0.85142  Biso   1.000  He
  Ne410    1.0000 0.14456  0.47752  0.84377  Biso   1.000  Ne
  Ne411    1.0000 0.69547  0.57293  0.56536  Biso   1.000  Ne
  He411    1.0000 0.71292  0.54957  0.54667  Biso   1.000  He
  He412    1.0000 0.69387  0.53161  0.52865  Biso   1.000  He
  Ne412    1.0000 0.70876  0.50710  0.51421  Biso   1.000  Ne
  Ne413    1.0000 0.05703  0.33822  0.80358  Biso   1.000  Ne
  He413    1.0000 0.05737  0.35640  0.77541  Biso   1.000  He
  He414    1.0000 0.08398  0.35298  0.75608  Biso   1.000  He
  Ne414    1.0000 0.08372  0.36973  0.72570  Biso   1.000  Ne
  Ne415    1.0000 0.07897  0.08660  0.47445  Biso   1.000  Ne
  He415    1.0000 0.09678  0.08733  0.44589  Biso   1.000  He
  He416    1.0000 0.12998  0.08183  0.45113  Biso   1.000  He
  Ne416    1.0000 0.14574  0.08698  0.42279  Biso   1.000  Ne
  Ne417    1.0000 0.14650  0.30088  0.69865  Biso   1.000  Ne
  He417    1.0000 0.12089  0.31589  0.68109  Biso   1.000  He
  He418    1.0000 0.09639  0.29468  0.67260  Biso   1.000  He
  Ne418    1.0000 0.07429  0.31050  0.65442  Biso   1.000  Ne
  Ne419    1.0000 0.75268  0.79843  0.39765  Biso   1.000  Ne
  He419    1.0000 0.78348  0.80074  0.41259  Biso   1.000  He
  He420    1.0000 0.80500  0.81874  0.39395  Biso   1.000  He
  Ne420    1.0000 0.83120  0.80306  0.38032  Biso   1.000  Ne
  Ne421    1.0000 0.45773  0.37159  0.46133  Biso   1.000  Ne
  He421    1.0000 0.43631  0.38579  0.44214  Biso   1.000  He
  He422    1.0000 0.40735  0.39118  0.45833  Biso   1.000  He
  Ne422    1.0000 0.38807  0.41295  0.44185  Biso   1.000  Ne
  Ne423    1.0000 0.11794  0.74544  0.20204  Biso   1.000  Ne
  He423    1.0000 0.08597  0.75355  0.19685  Biso   1.000  He
  He424    1.0000 0.07027  0.74975  0.16549  Biso   1.000  He
  Ne424    1.0000 0.06914  0.77835  0.14766  Biso   1.000  Ne
  Ne425    1.0000 0.94436  0.03285  0.32178  Biso   1.000  Ne
  He425    1.0000 0.95308  0.06131  0.30739  Biso   1.000  He
  He426    1.0000 0.93997  0.06792  0.27907  Biso   1.000  He
  Ne426    1.0000 0.94278  0.09789  0.26814  Biso   1.000  Ne
  Ne427    1.0000 0.42643  0.31167  0.58703  Biso   1.000  Ne
  He427    1.0000 0.42727  0.32454  0.55564  Biso   1.000  He
  He428    1.0000 0.41383  0.30525  0.53058  Biso   1.000  He
  Ne428    1.0000 0.41652  0.31503  0.49865  Biso   1.000  Ne
  Ne429    1.0000 0.30315  0.37276  0.06478  Biso   1.000  Ne
  He429    1.0000 0.31023  0.38287  0.09619  Biso   1.000  He
  He430    1.0000 0.28542  0.38315  0.11751  Biso   1.000  He
  Ne430    1.0000 0.29478  0.39067  0.14766  Biso   1.000  Ne
  Ne431    1.0000 0.71858  0.32707  0.63823  Biso   1.000  Ne
  He431    1.0000 0.69408  0.30766  0.62695  Biso   1.000  He
  He432    1.0000 0.68640  0.28196  0.64683  Biso   1.000  He
  Ne432    1.0000 0.65953  0.26594  0.63900  Biso   1.000  Ne
  Ne433    1.0000 0.74713  0.16730  0.43676  Biso   1.000  Ne
  He433    1.0000 0.76456  0.14599  0.41610  Biso   1.000  He
  He434    1.0000 0.74547  0.13516  0.39366  Biso   1.000  He
  Ne434    1.0000 0.76200  0.11638  0.37292  Biso   1.000  Ne
  Ne435    1.0000 0.03285  0.21004  0.34120  Biso   1.000  Ne
  He435    1.0000 0.01653  0.19772  0.31472  Biso   1.000  He
  He436    1.0000 0.98957  0.21725  0.30474  Biso   1.000  He
  Ne436    1.0000 0.97220  0.19962  0.28133  Biso   1.000  Ne
  Ne437    1.0000 0.79428  0.70391  0.61507  Biso   1.000  Ne
  He437    1.0000 0.79688  0.71873  0.64346  Biso   1.000  He
  He438    1.0000 0.81354  0.70350  0.66693  Biso   1.000  He
  Ne438    1.0000 0.81996  0.71915  0.69420  Biso   1.000  Ne
  Ne439    1.0000 0.81376  0.28153  0.93100  Biso   1.000  Ne
  He439    1.0000 0.83162  0.30916  0.93737  Biso   1.000  He
  He440    1.0000 0.81461  0.32732  0.95620  Biso   1.000  He
  Ne440    1.0000 0.83097  0.35544  0.96883  Biso   1.000  Ne
  Ne441    1.0000 0.05345  0.79317  0.89263  Biso   1.000  Ne
  He441    1.0000 0.05556  0.81534  0.86754  Biso   1.000  He
  He442    1.0000 0.07273  0.80311  0.84079  Biso   1.000  He
  Ne442    1.0000 0.06941  0.82131  0.81445  Biso   1.000  Ne
  Ne443    1.0000 0.39154  0.74877  0.07907  Biso   1.000  Ne
  He443    1.0000 0.37692  0.73737  0.10644  Biso   1.000  He
  He444    1.0000 0.37466  0.70437  0.10606  Biso   1.000  He
  Ne444    1.0000 0.36451  0.68940  0.13391  Biso   1.000  Ne
  Ne445    1.0000 0.42341  0.92554  0.44790  Biso   1.000  Ne
  He445    1.0000 0.44243  0.91827  0.47424  Biso   1.000  He
  He446    1.0000 0.43664  0.93645  0.50291  Biso   1.000  He
  Ne446    1.0000 0.45429  0.92733  0.52951  Biso   1.000  Ne
  Ne447    1.0000 0.63410  0.56033  0.68639  Biso   1.000  Ne
  He447    1.0000 0.65742  0.54065  0.67362  Biso   1.000  He
  He448    1.0000 0.64401  0.52142  0.64857  Biso   1.000  He
  Ne448    1.0000 0.66673  0.50129  0.63431  Biso   1.000  Ne
  Ne449    1.0000 0.73359  0.63960  0.86970  Biso   1.000  Ne
  He449    1.0000 0.73810  0.64463  0.83759  Biso   1.000  He
  He450    1.0000 0.71271  0.63718  0.81705  Biso   1.000  He
  Ne450    1.0000 0.72364  0.64142  0.78484  Biso   1.000  Ne
  Ne451    1.0000 0.06105  0.27314  0.15020  Biso   1.000  Ne
  He451    1.0000 0.07880  0.29646  0.13463  Biso   1.000  He
  He452    1.0000 0.10379  0.28582  0.11578  Biso   1.000  He
  Ne452    1.0000 0.11446  0.31315  0.09692  Biso   1.000  Ne
  Ne453    1.0000 0.60091  0.14378  0.58255  Biso   1.000  Ne
  He453    1.0000 0.57810  0.16559  0.58656  Biso   1.000  He
  He454    1.0000 0.58338  0.19724  0.57426  Biso   1.000  He
  Ne454    1.0000 0.55593  0.21473  0.57427  Biso   1.000  Ne
  Ne455    1.0000 0.41644  0.29995  0.89417  Biso   1.000  Ne
  He455    1.0000 0.39724  0.32458  0.90564  Biso   1.000  He
  He456    1.0000 0.38163  0.34125  0.88128  Biso   1.000  He
  Ne456    1.0000 0.35814  0.36325  0.89201  Biso   1.000  Ne
  Ne457    1.0000 0.68836  0.91701  0.79551  Biso   1.000  Ne
  He457    1.0000 0.69209  0.94640  0.81294  Biso   1.000  He
  He458    1.0000 0.67152  0.96948  0.80259  Biso   1.000  He
  Ne458    1.0000 0.67708  0.99647  0.82169  Biso   1.000  Ne
  Ne459    1.0000 0.82880  0.11383  0.75090  Biso   1.000  Ne
  He459    1.0000 0.83013  0.12940  0.78072  Biso   1.000  He
  He460    1.0000 0.79987  0.13273  0.79625  Biso   1.000  He
  Ne460    1.0000 0.80251  0.14855  0.82696  Biso   1.000  Ne
  Ne461    1.0000 0.29970  0.23743  0.19129  Biso   1.000  Ne
  He461    1.0000 0.26777  0.23503  0.20199  Biso   1.000  He
  He462    1.0000 0.24724  0.23120  0.17724  Biso   1.000  He
  Ne462    1.0000 0.21683  0.22228  0.18439  Biso   1.000  Ne
  Ne463    1.0000 0.60053  0.96113  0.13644  Biso   1.000  Ne
  He463    1.0000 0.62625  0.97134  0.11905  Biso   1.000  He
  He464    1.0000 0.64835  0.94940  0.10931  Biso   1.000  He
  Ne464    1.0000 0.67359  0.96201  0.08922  Biso   1.000  Ne
  Ne465    1.0000 0.57138  0.95704  0.57629  Biso   1.000  Ne
  He465    1.0000 0.54842  0.97518  0.56070  Biso   1.000  He
  He466    1.0000 0.53829  0.96331  0.52792  Biso   1.000  He
  Ne466    1.0000 0.51676  0.98379  0.51567  Biso   1.000  Ne
  Ne467    1.0000 0.06871  0.64456  0.85860  Biso   1.000  Ne
  He467    1.0000 0.05300  0.66865  0.87685  Biso   1.000  He
  He468    1.0000 0.03277  0.68722  0.85888  Biso   1.000  He
  Ne468    1.0000 0.01197  0.70429  0.87910  Biso   1.000  Ne
  Ne469    1.0000 0.87057  0.66696  0.10944  Biso   1.000  Ne
  He469    1.0000 0.83962  0.66209  0.09794  Biso   1.000  He
  He470    1.0000 0.81610  0.68648  0.10161  Biso   1.000  He
  Ne470    1.0000 0.78519  0.67568  0.09525  Biso   1.000  Ne
  Ne471    1.0000 0.18746  0.93225  0.52489  Biso   1.000  Ne
  He471    1.0000 0.18634  0.95318  0.49848  Biso   1.000  He
  He472    1.0000 0.20770  0.98095  0.49960  Biso   1.000  He
  Ne472    1.0000 0.20158  0.00029  0.47608  Biso   1.000  Ne
  Ne473    1.0000 0.94500  0.91872  0.57706  Biso   1.000  Ne
  He473    1.0000 0.97403  0.90961  0.58879  Biso   1.000  He
  He474    1.0000 0.97139  0.90545  0.62265  Biso   1.000  He
  Ne474    1.0000 0.00221  0.90449  0.63626  Biso   1.000  Ne
  Ne475    1.0000 0.17565  0.25003  0.08795  Biso   1.000  Ne
  He475    1.0000 0.20356  0.23135  0.09173  Biso   1.000  He
  He476    1.0000 0.19428  0.20012  0.09168  Biso   1.000  He
  Ne476    1.0000 0.21873  0.17569  0.09364  Biso   1.000  Ne
  Ne477    1.0000 0.18195  0.29531  0.00455  Biso   1.000  Ne
  He477    1.0000 0.19067  0.32294  0.98883  Biso   1.000  He
  He478    1.0000 0.20937  0.31765  0.96189  Biso   1.000  He
  Ne478    1.0000 0.22157  0.34319  0.94684  Biso   1.000  Ne
  Ne479    1.0000 0.82941  0.86854  0.30286  Biso   1.000  Ne
  He479    1.0000 0.84351  0.86953  0.27526  Biso   1.000  He
  He480    1.0000 0.83337  0.89367  0.25439  Biso   1.000  He
  Ne480    1.0000 0.84874  0.89722  0.22453  Biso   1.000  Ne
  Ne481    1.0000 0.18669  0.91934  0.16534  Biso   1.000  Ne
  He481    1.0000 0.18708  0.92346  0.13295  Biso   1.000  He
  He482    1.0000 0.15699  0.91848  0.11820  Biso   1.000  He
  Ne482    1.0000 0.15556  0.92281  0.08546  Biso   1.000  Ne
  Ne483    1.0000 0.18372  0.21859  0.91784  Biso   1.000  Ne
  He483    1.0000 0.17693  0.19028  0.90050  Biso   1.000  He
  He484    1.0000 0.19674  0.18993  0.87105  Biso   1.000  He
  Ne484    1.0000 0.19660  0.16445  0.85356  Biso   1.000  Ne
  Ne485    1.0000 0.22491  0.28125  0.58379  Biso   1.000  Ne
  He485    1.0000 0.22386  0.26051  0.61080  Biso   1.000  He
  He486    1.0000 0.19734  0.24427  0.61330  Biso   1.000  He
  Ne486    1.0000 0.19701  0.22625  0.64211  Biso   1.000  Ne
  Ne487    1.0000 0.51507  0.04625  0.46612  Biso   1.000  Ne
  He487    1.0000 0.54888  0.04020  0.46260  Biso   1.000  He
  He488    1.0000 0.56612  0.06578  0.44853  Biso   1.000  He
  Ne488    1.0000 0.59983  0.06377  0.44456  Biso   1.000  Ne
  Ne489    1.0000 0.91335  0.84135  0.15049  Biso   1.000  Ne
  He489    1.0000 0.89785  0.82152  0.16887  Biso   1.000  He
  He490    1.0000 0.89529  0.83057  0.19907  Biso   1.000  He
  Ne490    1.0000 0.87324  0.80975  0.21553  Biso   1.000  Ne
  Ne491    1.0000 0.54270  0.64849  0.66218  Biso   1.000  Ne
  He491    1.0000 0.51990  0.67176  0.66273  Biso   1.000  He
  He492    1.0000 0.51897  0.68976  0.68961  Biso   1.000  He
  Ne492    1.0000 0.49626  0.71565  0.68611  Biso   1.000  Ne
  Ne493    1.0000 0.61536  0.16986  0.16191  Biso   1.000  Ne
  He493    1.0000 0.60572  0.20035  0.15272  Biso   1.000  He
  He494    1.0000 0.57464  0.20885  0.15793  Biso   1.000  He
  Ne494    1.0000 0.57023  0.24044  0.14799  Biso   1.000  Ne
  Ne495    1.0000 0.84370  0.71979  0.27546  Biso   1.000  Ne
  He495    1.0000 0.85254  0.68994  0.28816  Biso   1.000  He
  He496    1.0000 0.87484  0.67278  0.26943  Biso   1.000  He
  Ne496    1.0000 0.88167  0.64324  0.28250  Biso   1.000  Ne
  Ne497    1.0000 0.13108  0.16579  0.80635  Biso   1.000  Ne
  He497    1.0000 0.11561  0.18915  0.78959  Biso   1.000  He
  He498    1.0000 0.09376  0.18038  0.76847  Biso   1.000  He
  Ne498    1.0000 0.07964  0.20560  0.75596  Biso   1.000  Ne
  Ne499    1.0000 0.37150  0.57170  0.96477  Biso   1.000  Ne
  He499    1.0000 0.40059  0.57309  0.95046  Biso   1.000  He
  He500    1.0000 0.40099  0.56422  0.91697  Biso   1.000  He
  Ne500    1.0000 0.43330  0.56665  0.90511  Biso   1.000  Ne
  Ne501    1.0000 0.65828  0.92690  0.67277  Biso   1.000  Ne
  He501    1.0000 0.63402  0.90340  0.67039  Biso   1.000  He
  He502    1.0000 0.60599  0.91468  0.65647  Biso   1.000  He
  Ne502    1.0000 0.58305  0.88902  0.65312  Biso   1.000  Ne
  Ne503    1.0000 0.14084  0.78288  0.56402  Biso   1.000  Ne
  He503    1.0000 0.16400  0.80251  0.55082  Biso   1.000  He
  He504    1.0000 0.16149  0.80323  0.51886  Biso   1.000  He
  Ne504    1.0000 0.18366  0.82322  0.50334  Biso   1.000  Ne
  Ne505    1.0000 0.52397  0.93384  0.17609  Biso   1.000  Ne
  He505    1.0000 0.50328  0.96004  0.17255  Biso   1.000  He
  He506    1.0000 0.50188  0.98072  0.20198  Biso   1.000  He
  Ne506    1.0000 0.47710  0.97076  0.22253  Biso   1.000  Ne
  Ne507    1.0000 0.39586  0.07529  0.90215  Biso   1.000  Ne
  He507    1.0000 0.39559  0.08120  0.93597  Biso   1.000  He
  He508    1.0000 0.36609  0.08682  0.94705  Biso   1.000  He
  Ne508    1.0000 0.36541  0.09767  0.97834  Biso   1.000  Ne
  Ne509    1.0000 0.02323  0.39779  0.99337  Biso   1.000  Ne
  He509    1.0000 0.01204  0.42517  0.00565  Biso   1.000  He
  He510    1.0000 0.02371  0.45091  0.98802  Biso   1.000  He
  Ne510    1.0000 0.01670  0.48117  0.00191  Biso   1.000  Ne
  Ne511    1.0000 0.36287  0.74195  0.87750  Biso   1.000  Ne
  He511    1.0000 0.39247  0.75333  0.86746  Biso   1.000  He
  He512    1.0000 0.39103  0.78513  0.85142  Biso   1.000  He
  Ne512    1.0000 0.41992  0.80315  0.84779  Biso   1.000  Ne
  Ne513    1.0000 0.91424  0.94703  0.91099  Biso   1.000  Ne
  He513    1.0000 0.92742  0.93357  0.94116  Biso   1.000  He
  He514    1.0000 0.90684  0.93553  0.96786  Biso   1.000  He
  Ne514    1.0000 0.92274  0.92850  0.99390  Biso   1.000  Ne
  Ne515    1.0000 0.39706  0.63384  0.88648  Biso   1.000  Ne
  He515    1.0000 0.38649  0.66088  0.90228  Biso   1.000  He
  He516    1.0000 0.35950  0.65536  0.91660  Biso   1.000  He
  Ne516    1.0000 0.35014  0.67733  0.94011  Biso   1.000  Ne
  Ne517    1.0000 0.02545  0.45756  0.41333  Biso   1.000  Ne
  He517    1.0000 0.99991  0.47389  0.42857  Biso   1.000  He
  He518    1.0000 0.99526  0.47096  0.46140  Biso   1.000  He
  Ne518    1.0000 0.96824  0.48825  0.47415  Biso   1.000  Ne
  Ne519    1.0000 0.68835  0.20618  0.94694  Biso   1.000  Ne
  He519    1.0000 0.70342  0.20184  0.91728  Biso   1.000  He
  He520    1.0000 0.68678  0.21670  0.89285  Biso   1.000  He
  Ne520    1.0000 0.69830  0.21305  0.86176  Biso   1.000  Ne
  Ne521    1.0000 0.60519  0.31402  0.67839  Biso   1.000  Ne
  He521    1.0000 0.58239  0.32933  0.65702  Biso   1.000  He
  He522    1.0000 0.55208  0.31567  0.65905  Biso   1.000  He
  Ne522    1.0000 0.53157  0.32624  0.63725  Biso   1.000  Ne
  Ne523    1.0000 0.64137  0.58124  0.80280  Biso   1.000  Ne
  He523    1.0000 0.62611  0.60130  0.82151  Biso   1.000  He
  He524    1.0000 0.60250  0.58456  0.83999  Biso   1.000  He
  Ne524    1.0000 0.57142  0.58811  0.82840  Biso   1.000  Ne
  Ne525    1.0000 0.59722  0.34767  0.89652  Biso   1.000  Ne
  He525    1.0000 0.62891  0.35222  0.88694  Biso   1.000  He
  He526    1.0000 0.64753  0.32385  0.88411  Biso   1.000  He
  Ne526    1.0000 0.67629  0.32628  0.87046  Biso   1.000  Ne
  Ne527    1.0000 0.54998  0.17880  0.71151  Biso   1.000  Ne
  He527    1.0000 0.58398  0.18412  0.70443  Biso   1.000  He
  He528    1.0000 0.59175  0.18681  0.66923  Biso   1.000  He
  Ne528    1.0000 0.62202  0.19017  0.65764  Biso   1.000  Ne
  Ne529    1.0000 0.11962  0.63826  0.31346  Biso   1.000  Ne
  He529    1.0000 0.11933  0.62943  0.28271  Biso   1.000  He
  He530    1.0000 0.10340  0.60193  0.27484  Biso   1.000  He
  Ne530    1.0000 0.10414  0.59322  0.24231  Biso   1.000  Ne
  Ne531    1.0000 0.07130  0.60638  0.76226  Biso   1.000  Ne
  He531    1.0000 0.03989  0.59318  0.76838  Biso   1.000  He
  He532    1.0000 0.03831  0.56214  0.77970  Biso   1.000  He
  Ne532    1.0000 0.00632  0.55166  0.78087  Biso   1.000  Ne
  Ne533    1.0000 0.23724  0.18507  0.36394  Biso   1.000  Ne
  He533    1.0000 0.20610  0.18194  0.37671  Biso   1.000  He
  He534    1.0000 0.18920  0.15791  0.36164  Biso   1.000  He
  Ne534    1.0000 0.15796  0.15702  0.37277  Biso   1.000  Ne
  Ne535    1.0000 0.64951  0.24315  0.22669  Biso   1.000  Ne
  He535    1.0000 0.67025  0.21394  0.22970  Biso   1.000  He
  He536    1.0000 0.66815  0.19635  0.25688  Biso   1.000  He
  Ne536    1.0000 0.68484  0.16822  0.25522  Biso   1.000  Ne
  Ne537    1.0000 0.83388  0.96776  0.32781  Biso   1.000  Ne
  He537    1.0000 0.84696  0.99854  0.33704  Biso   1.000  He
  He538    1.0000 0.86021  0.01793  0.31303  Biso   1.000  He
  Ne538    1.0000 0.86037  0.05023  0.32124  Biso   1.000  Ne
  Ne539    1.0000 0.68435  0.33700  0.54754  Biso   1.000  Ne
  He539    1.0000 0.71002  0.35624  0.54329  Biso   1.000  He
  He540    1.0000 0.70569  0.38167  0.52224  Biso   1.000  He
  Ne540    1.0000 0.72990  0.40152  0.51743  Biso   1.000  Ne
  Ne541    1.0000 0.93203  0.49344  0.08835  Biso   1.000  Ne
  He541    1.0000 0.92094  0.47893  0.11810  Biso   1.000  He
  He542    1.0000 0.90398  0.50043  0.13615  Biso   1.000  He
  Ne542    1.0000 0.89114  0.48719  0.16328  Biso   1.000  Ne
  Ne543    1.0000 0.64105  0.61040  0.21582  Biso   1.000  Ne
  He543    1.0000 0.63346  0.63346  0.23919  Biso   1.000  He
  He544    1.0000 0.61500  0.62036  0.26133  Biso   1.000  He
  Ne544    1.0000 0.60232  0.64341  0.28414  Biso   1.000  Ne
  Ne545    1.0000 0.34733  0.81260  0.96896  Biso   1.000  Ne
  He545    1.0000 0.31532  0.81908  0.96191  Biso   1.000  He
  He546    1.0000 0.30101  0.79462  0.94621  Biso   1.000  He
  Ne546    1.0000 0.27047  0.79918  0.93672  Biso   1.000  Ne
  Ne547    1.0000 0.74233  0.10468  0.11366  Biso   1.000  Ne
  He547    1.0000 0.72640  0.08895  0.09080  Biso   1.000  He
  He548    1.0000 0.74337  0.07197  0.07041  Biso   1.000  He
  Ne548    1.0000 0.72568  0.06116  0.04390  Biso   1.000  Ne
  Ne549    1.0000 0.15005  0.74709  0.32909  Biso   1.000  Ne
  He549    1.0000 0.13088  0.73322  0.30286  Biso   1.000  He
  He550    1.0000 0.09668  0.74150  0.30172  Biso   1.000  He
  Ne550    1.0000 0.07954  0.72819  0.27914  Biso   1.000  Ne
  Ne551    1.0000 0.65237  0.58563  0.05785  Biso   1.000  Ne
  He551    1.0000 0.66834  0.61179  0.07234  Biso   1.000  He
  He552    1.0000 0.69049  0.60640  0.09599  Biso   1.000  He
  Ne552    1.0000 0.70335  0.63544  0.10963  Biso   1.000  Ne
  Ne553    1.0000 0.28872  0.43115  0.79329  Biso   1.000  Ne
  He553    1.0000 0.29586  0.41604  0.82328  Biso   1.000  He
  He554    1.0000 0.30064  0.43712  0.84709  Biso   1.000  He
  Ne554    1.0000 0.30361  0.42066  0.87557  Biso   1.000  Ne
  Ne555    1.0000 0.74388  0.07155  0.69965  Biso   1.000  Ne
  He555    1.0000 0.77434  0.06396  0.70982  Biso   1.000  He
  He556    1.0000 0.78403  0.03385  0.70181  Biso   1.000  He
  Ne556    1.0000 0.81351  0.02562  0.71425  Biso   1.000  Ne
  Ne557    1.0000 0.97492  0.99277  0.64793  Biso   1.000  Ne
  He557    1.0000 0.95410  0.99012  0.62286  Biso   1.000  He
  He558    1.0000 0.93320  0.01719  0.61845  Biso   1.000  He
  Ne558    1.0000 0.90844  0.01135  0.59926  Biso   1.000  Ne
  Ne559    1.0000 0.25821  0.57590  0.21701  Biso   1.000  Ne
  He559    1.0000 0.22734  0.57184  0.22695  Biso   1.000  He
  He560    1.0000 0.21741  0.58589  0.25527  Biso   1.000  He
  Ne560    1.0000 0.18477  0.58247  0.26394  Biso   1.000  Ne
  Ne561    1.0000 0.29070  0.12705  0.05120  Biso   1.000  Ne
  He561    1.0000 0.26632  0.10246  0.05331  Biso   1.000  He
  He562    1.0000 0.27053  0.07817  0.07416  Biso   1.000  He
  Ne562    1.0000 0.24585  0.05562  0.07579  Biso   1.000  Ne
  Ne563    1.0000 0.42398  0.87652  0.70923  Biso   1.000  Ne
  He563    1.0000 0.41165  0.89450  0.68488  Biso   1.000  He
  He564    1.0000 0.37920  0.89408  0.68148  Biso   1.000  He
  Ne564    1.0000 0.37081  0.91802  0.66094  Biso   1.000  Ne
  Ne565    1.0000 0.87680  0.79763  0.87117  Biso   1.000  Ne
  He565    1.0000 0.89455  0.81955  0.88991  Biso   1.000  He
  He566    1.0000 0.87747  0.83852  0.91278  Biso   1.000  He
  Ne566    1.0000 0.89638  0.85542  0.93405  Biso   1.000  Ne
  Ne567    1.0000 0.53986  0.60998  0.89878  Biso   1.000  Ne
  He567    1.0000 0.53682  0.58438  0.91905  Biso   1.000  He
  He568    1.0000 0.56496  0.57212  0.93105  Biso   1.000  He
  Ne568    1.0000 0.56138  0.54437  0.95003  Biso   1.000  Ne
  Ne569    1.0000 0.71187  0.02885  0.17349  Biso   1.000  Ne
  He569    1.0000 0.73773  0.05054  0.18620  Biso   1.000  He
  He570    1.0000 0.73038  0.06621  0.21531  Biso   1.000  He
  Ne570    1.0000 0.75486  0.08430  0.22925  Biso   1.000  Ne
  Ne571    1.0000 0.41507  0.85717  0.58089  Biso   1.000  Ne
  He571    1.0000 0.38817  0.85212  0.59763  Biso   1.000  He
  He572    1.0000 0.36939  0.82720  0.58878  Biso   1.000  He
  Ne572    1.0000 0.33956  0.82966  0.60245  Biso   1.000  Ne
  Ne573    1.0000 0.61843  0.42776  0.69732  Biso   1.000  Ne
  He573    1.0000 0.61040  0.41596  0.72906  Biso   1.000  He
  He574    1.0000 0.58091  0.42197  0.73970  Biso   1.000  He
  Ne574    1.0000 0.57464  0.40446  0.76896  Biso   1.000  Ne
  Ne575    1.0000 0.26664  0.18803  0.66673  Biso   1.000  Ne
  He575    1.0000 0.29744  0.17354  0.67061  Biso   1.000  He
  He576    1.0000 0.29590  0.14607  0.68700  Biso   1.000  He
  Ne576    1.0000 0.32472  0.13036  0.69495  Biso   1.000  Ne
  Ne577    1.0000 0.19364  0.97411  0.64720  Biso   1.000  Ne
  He577    1.0000 0.17030  0.95865  0.66426  Biso   1.000  He
  He578    1.0000 0.15117  0.97754  0.68275  Biso   1.000  He
  Ne578    1.0000 0.12586  0.96038  0.69765  Biso   1.000  Ne
  Ne579    1.0000 0.64064  0.73240  0.09090  Biso   1.000  Ne
  He579    1.0000 0.67158  0.72185  0.09018  Biso   1.000  He
  He580    1.0000 0.69238  0.74623  0.09289  Biso   1.000  He
  Ne580    1.0000 0.72345  0.73586  0.09419  Biso   1.000  Ne
  Ne581    1.0000 0.44903  0.44812  0.52528  Biso   1.000  Ne
  He581    1.0000 0.46450  0.47779  0.52807  Biso   1.000  He
  He582    1.0000 0.44335  0.50337  0.53404  Biso   1.000  He
  Ne582    1.0000 0.45711  0.53454  0.53942  Biso   1.000  Ne
  Ne583    1.0000 0.01153  0.69732  0.10155  Biso   1.000  Ne
  He583    1.0000 0.04194  0.70947  0.10192  Biso   1.000  He
  He584    1.0000 0.06428  0.68680  0.09474  Biso   1.000  He
  Ne584    1.0000 0.09636  0.69698  0.09598  Biso   1.000  Ne
  Ne585    1.0000 0.80481  0.92241  0.56600  Biso   1.000  Ne
  He585    1.0000 0.83580  0.91053  0.57159  Biso   1.000  He
  He586    1.0000 0.84803  0.89064  0.54791  Biso   1.000  He
  Ne586    1.0000 0.87929  0.88368  0.55080  Biso   1.000  Ne
  Ne587    1.0000 0.67151  0.33217  0.37384  Biso   1.000  Ne
  He587    1.0000 0.70053  0.34807  0.37209  Biso   1.000  He
  He588    1.0000 0.71740  0.35336  0.40309  Biso   1.000  He
  Ne588    1.0000 0.74604  0.36930  0.39864  Biso   1.000  Ne
  Ne589    1.0000 0.15544  0.11229  0.74042  Biso   1.000  Ne
  He589    1.0000 0.15781  0.08163  0.73491  Biso   1.000  He
  He590    1.0000 0.18613  0.07085  0.75017  Biso   1.000  He
  Ne590    1.0000 0.18408  0.04050  0.76177  Biso   1.000  Ne
  Ne591    1.0000 0.95418  0.94565  0.48790  Biso   1.000  Ne
  He591    1.0000 0.93667  0.97445  0.49176  Biso   1.000  He
  He592    1.0000 0.90539  0.96930  0.49940  Biso   1.000  He
  Ne592    1.0000 0.88723  0.99759  0.50211  Biso   1.000  Ne
  Ne593    1.0000 0.60750  0.06013  0.54257  Biso   1.000  Ne
  He593    1.0000 0.57902  0.04792  0.54896  Biso   1.000  He
  He594    1.0000 0.55809  0.07200  0.55216  Biso   1.000  He
  Ne594    1.0000 0.52801  0.06074  0.55124  Biso   1.000  Ne
  Ne595    1.0000 0.14407  0.60870  0.71671  Biso   1.000  Ne
  He595    1.0000 0.16681  0.63183  0.70184  Biso   1.000  He
  He596    1.0000 0.16925  0.66494  0.71164  Biso   1.000  He
  Ne596    1.0000 0.19515  0.67834  0.69588  Biso   1.000  Ne
  Ne597    1.0000 0.15696  0.51609  0.94347  Biso   1.000  Ne
  He597    1.0000 0.18745  0.51952  0.95833  Biso   1.000  He
  He598    1.0000 0.20147  0.54927  0.95566  Biso   1.000  He
  Ne598    1.0000 0.19945  0.56643  0.98490  Biso   1.000  Ne
  Ne599    1.0000 0.30706  0.08659  0.33339  Biso   1.000  Ne
  He599    1.0000 0.29730  0.11777  0.33463  Biso   1.000  He
  He600    1.0000 0.29097  0.12841  0.30491  Biso   1.000  He
  Ne600    1.0000 0.27457  0.15654  0.30179  Biso   1.000  Ne
  Ne601    1.0000 0.51799  0.81465  0.98904  Biso   1.000  Ne
  He601    1.0000 0.53027  0.79556  0.01165  Biso   1.000  He
  He602    1.0000 0.55236  0.81116  0.03060  Biso   1.000  He
  Ne602    1.0000 0.56352  0.79410  0.05744  Biso   1.000  Ne
  Ne603    1.0000 0.96712  0.33620  0.85303  Biso   1.000  Ne
  He603    1.0000 0.95663  0.36859  0.86183  Biso   1.000  He
  He604    1.0000 0.94131  0.36797  0.89026  Biso   1.000  He
  Ne604    1.0000 0.92829  0.39886  0.89980  Biso   1.000  Ne
  Ne605    1.0000 0.92938  0.92253  0.15820  Biso   1.000  Ne
  He605    1.0000 0.93693  0.93273  0.12585  Biso   1.000  He
  He606    1.0000 0.90965  0.94402  0.10944  Biso   1.000  He
  Ne606    1.0000 0.91441  0.95928  0.07907  Biso   1.000  Ne
  Ne607    1.0000 0.64450  0.85817  0.58446  Biso   1.000  Ne
  He607    1.0000 0.61901  0.84267  0.59752  Biso   1.000  He
  He608    1.0000 0.61747  0.81071  0.59407  Biso   1.000  He
  Ne608    1.0000 0.58665  0.79842  0.60341  Biso   1.000  Ne
  Ne609    1.0000 0.70679  0.77094  0.21834  Biso   1.000  Ne
  He609    1.0000 0.71301  0.74579  0.19629  Biso   1.000  He
  He610    1.0000 0.74614  0.73810  0.19368  Biso   1.000  He
  Ne610    1.0000 0.75638  0.71679  0.17033  Biso   1.000  Ne
  Ne611    1.0000 0.06335  0.04175  0.88751  Biso   1.000  Ne
  He611    1.0000 0.05949  0.04832  0.91990  Biso   1.000  He
  He612    1.0000 0.04002  0.07415  0.92469  Biso   1.000  He
  Ne612    1.0000 0.03455  0.08525  0.95468  Biso   1.000  Ne
  Ne613    1.0000 0.36750  0.44497  0.72047  Biso   1.000  Ne
  He613    1.0000 0.39022  0.46352  0.70630  Biso   1.000  He
  He614    1.0000 0.38994  0.46436  0.67479  Biso   1.000  He
  Ne614    1.0000 0.41485  0.48169  0.66021  Biso   1.000  Ne
  Ne615    1.0000 0.63241  0.06230  0.18758  Biso   1.000  Ne
  He615    1.0000 0.60263  0.06503  0.20117  Biso   1.000  He
  He616    1.0000 0.58935  0.03731  0.20915  Biso   1.000  He
  Ne616    1.0000 0.55881  0.04170  0.22447  Biso   1.000  Ne
  Ne617    1.0000 0.95530  0.63135  0.81605  Biso   1.000  Ne
  He617    1.0000 0.95529  0.64572  0.84766  Biso   1.000  He
  He618    1.0000 0.92698  0.64073  0.86337  Biso   1.000  He
  Ne618    1.0000 0.92895  0.65264  0.89420  Biso   1.000  Ne
  Ne619    1.0000 0.71819  0.84104  0.07949  Biso   1.000  Ne
  He619    1.0000 0.73188  0.82283  0.10356  Biso   1.000  He
  He620    1.0000 0.73018  0.83584  0.13167  Biso   1.000  He
  Ne620    1.0000 0.74359  0.81811  0.15539  Biso   1.000  Ne
  Ne621    1.0000 0.96556  0.19098  0.61287  Biso   1.000  Ne
  He621    1.0000 0.95698  0.20497  0.64335  Biso   1.000  He
  He622    1.0000 0.93214  0.19004  0.65933  Biso   1.000  He
  Ne622    1.0000 0.93371  0.19960  0.69146  Biso   1.000  Ne
  Ne623    1.0000 0.31160  0.49054  0.62663  Biso   1.000  Ne
  He623    1.0000 0.29401  0.49658  0.60141  Biso   1.000  He
  He624    1.0000 0.27893  0.46852  0.58823  Biso   1.000  He
  Ne624    1.0000 0.26471  0.47423  0.56018  Biso   1.000  Ne
  Ne625    1.0000 0.42976  0.88840  0.05382  Biso   1.000  Ne
  He625    1.0000 0.46046  0.87807  0.04337  Biso   1.000  He
  He626    1.0000 0.48525  0.89881  0.05802  Biso   1.000  He
  Ne626    1.0000 0.51658  0.88967  0.04971  Biso   1.000  Ne
  Ne627    1.0000 0.93884  0.77180  0.57370  Biso   1.000  Ne
  He627    1.0000 0.94989  0.76674  0.54184  Biso   1.000  He
  He628    1.0000 0.97779  0.78330  0.53293  Biso   1.000  He
  Ne628    1.0000 0.99254  0.77455  0.50113  Biso   1.000  Ne
  Ne629    1.0000 0.61049  0.71431  0.21588  Biso   1.000  Ne
  He629    1.0000 0.57915  0.71896  0.20082  Biso   1.000  He
  He630    1.0000 0.57891  0.72618  0.16974  Biso   1.000  He
  Ne630    1.0000 0.54856  0.73341  0.15974  Biso   1.000  Ne
  Ne631    1.0000 0.13811  0.27120  0.29361  Biso   1.000  Ne
  He631    1.0000 0.16234  0.24694  0.29344  Biso   1.000  He
  He632    1.0000 0.18792  0.25624  0.27503  Biso   1.000  He
  Ne632    1.0000 0.21080  0.23320  0.26933  Biso   1.000  Ne
  Ne633    1.0000 0.08897  0.31834  0.39937  Biso   1.000  Ne
  He633    1.0000 0.08549  0.34915  0.38552  Biso   1.000  He
  He634    1.0000 0.07903  0.37199  0.40991  Biso   1.000  He
  Ne634    1.0000 0.07297  0.40352  0.39686  Biso   1.000  Ne
  Ne635    1.0000 0.40670  0.50519  0.45097  Biso   1.000  Ne
  He635    1.0000 0.43504  0.50001  0.43475  Biso   1.000  He
  He636    1.0000 0.45360  0.47005  0.43882  Biso   1.000  He
  Ne636    1.0000 0.48633  0.47352  0.42527  Biso   1.000  Ne
  Ne637    1.0000 0.11437  0.23410  0.21726  Biso   1.000  Ne
  He637    1.0000 0.13332  0.25004  0.19368  Biso   1.000  He
  He638    1.0000 0.15407  0.27392  0.20391  Biso   1.000  He
  Ne638    1.0000 0.16938  0.28732  0.17773  Biso   1.000  Ne
  Ne639    1.0000 0.06537  0.44010  0.75525  Biso   1.000  Ne
  He639    1.0000 0.04482  0.45795  0.77700  Biso   1.000  He
  He640    1.0000 0.01624  0.44437  0.77927  Biso   1.000  He
  Ne640    1.0000 0.99467  0.46151  0.79536  Biso   1.000  Ne
  Ne641    1.0000 0.70569  0.86472  0.93033  Biso   1.000  Ne
  He641    1.0000 0.72518  0.86041  0.90433  Biso   1.000  He
  He642    1.0000 0.72494  0.88159  0.87857  Biso   1.000  He
  Ne642    1.0000 0.75016  0.87632  0.85807  Biso   1.000  Ne
  Ne643    1.0000 0.08617  0.27029  0.55964  Biso   1.000  Ne
  He643    1.0000 0.11157  0.28054  0.57488  Biso   1.000  He
  He644    1.0000 0.11596  0.31288  0.56807  Biso   1.000  He
  Ne644    1.0000 0.14471  0.32258  0.57555  Biso   1.000  Ne
  Ne645    1.0000 0.24777  0.32878  0.21213  Biso   1.000  Ne
  He645    1.0000 0.27007  0.31901  0.23630  Biso   1.000  He
  He646    1.0000 0.30041  0.33382  0.23466  Biso   1.000  He
  Ne646    1.0000 0.32284  0.32763  0.25951  Biso   1.000  Ne
  Ne647    1.0000 0.59974  0.41576  0.15732  Biso   1.000  Ne
  He647    1.0000 0.60558  0.38333  0.16756  Biso   1.000  He
  He648    1.0000 0.60215  0.35928  0.14391  Biso   1.000  He
  Ne648    1.0000 0.60766  0.32961  0.15965  Biso   1.000  Ne
  Ne649    1.0000 0.45634  0.64699  0.30208  Biso   1.000  Ne
  He649    1.0000 0.46333  0.67411  0.32120  Biso   1.000  He
  He650    1.0000 0.43592  0.69098  0.32665  Biso   1.000  He
  Ne650    1.0000 0.44125  0.72111  0.34281  Biso   1.000  Ne
  Ne651    1.0000 0.30941  0.26321  0.30716  Biso   1.000  Ne
  He651    1.0000 0.31510  0.23309  0.32065  Biso   1.000  He
  He652    1.0000 0.33917  0.21455  0.30398  Biso   1.000  He
  Ne652    1.0000 0.34964  0.18792  0.32328  Biso   1.000  Ne
  Ne653    1.0000 0.92903  0.25603  0.22775  Biso   1.000  Ne
  He653    1.0000 0.91731  0.23308  0.20598  Biso   1.000  He
  He654    1.0000 0.92373  0.20195  0.21287  Biso   1.000  He
  Ne654    1.0000 0.91089  0.18422  0.18785  Biso   1.000  Ne
  Ne655    1.0000 0.70934  0.18197  0.13321  Biso   1.000  Ne
  He655    1.0000 0.71335  0.21485  0.14032  Biso   1.000  He
  He656    1.0000 0.73115  0.21862  0.16854  Biso   1.000  He
  Ne656    1.0000 0.73449  0.24936  0.17356  Biso   1.000  Ne
  Ne657    1.0000 0.30832  0.01180  0.01949  Biso   1.000  Ne
  He657    1.0000 0.31289  0.02241  0.98787  Biso   1.000  He
  He658    1.0000 0.29476  0.00821  0.96385  Biso   1.000  He
  Ne658    1.0000 0.30319  0.01774  0.93389  Biso   1.000  Ne
  Ne659    1.0000 0.50865  0.41386  0.38020  Biso   1.000  Ne
  He659    1.0000 0.51514  0.38341  0.39277  Biso   1.000  He
  He660    1.0000 0.54598  0.38169  0.40057  Biso   1.000  He
  Ne660    1.0000 0.55077  0.34928  0.41283  Biso   1.000  Ne
  Ne661    1.0000 0.21856  0.70736  0.61143  Biso   1.000  Ne
  He661    1.0000 0.18826  0.70363  0.59895  Biso   1.000  He
  He662    1.0000 0.17330  0.67633  0.61416  Biso   1.000  He
  Ne662    1.0000 0.14102  0.66751  0.60449  Biso   1.000  Ne
  Ne663    1.0000 0.97774  0.81127  0.42199  Biso   1.000  Ne
  He663    1.0000 0.96652  0.81576  0.39178  Biso   1.000  He
  He664    1.0000 0.94478  0.84277  0.38749  Biso   1.000  He
  Ne664    1.0000 0.93967  0.84914  0.35480  Biso   1.000  Ne
  Ne665    1.0000 0.26747  0.83534  0.80165  Biso   1.000  Ne
  He665    1.0000 0.24447  0.85752  0.80977  Biso   1.000  He
  He666    1.0000 0.24907  0.87619  0.83650  Biso   1.000  He
  Ne666    1.0000 0.22244  0.88930  0.85141  Biso   1.000  Ne
  Ne667    1.0000 0.01141  0.10638  0.37190  Biso   1.000  Ne
  He667    1.0000 0.03887  0.09799  0.35464  Biso   1.000  He
  He668    1.0000 0.06603  0.10974  0.36528  Biso   1.000  He
  Ne668    1.0000 0.09129  0.09997  0.34486  Biso   1.000  Ne
  Ne669    1.0000 0.58294  0.76820  0.26953  Biso   1.000  Ne
  He669    1.0000 0.59493  0.79614  0.25763  Biso   1.000  He
  He670    1.0000 0.58420  0.82457  0.26940  Biso   1.000  He
  Ne670    1.0000 0.56272  0.84239  0.24909  Biso   1.000  Ne
  Ne671    1.0000 0.02614  0.12234  0.71299  Biso   1.000  Ne
  He671    1.0000 0.05907  0.11670  0.70820  Biso   1.000  He
  He672    1.0000 0.06292  0.08493  0.69572  Biso   1.000  He
  Ne672    1.0000 0.08949  0.07395  0.68007  Biso   1.000  Ne
  Ne673    1.0000 0.82452  0.99420  0.61927  Biso   1.000  Ne
  He673    1.0000 0.79710  0.00023  0.60106  Biso   1.000  He
  He674    1.0000 0.80477  0.01976  0.57326  Biso   1.000  He
  Ne674    1.0000 0.78007  0.02124  0.55251  Biso   1.000  Ne
  Ne675    1.0000 0.41845  0.83998  0.40975  Biso   1.000  Ne
  He675    1.0000 0.41930  0.81515  0.42944  Biso   1.000  He
  He676    1.0000 0.42533  0.78561  0.41683  Biso   1.000  He
  Ne676    1.0000 0.42254  0.76070  0.44310  Biso   1.000  Ne
  Ne677    1.0000 0.52515  0.70303  0.48920  Biso   1.000  Ne
  He677    1.0000 0.49692  0.69477  0.50487  Biso   1.000  He
  He678    1.0000 0.48495  0.72203  0.52304  Biso   1.000  He
  Ne678    1.0000 0.45531  0.71695  0.53965  Biso   1.000  Ne
  Ne679    1.0000 0.34596  0.56612  0.71839  Biso   1.000  Ne
  He679    1.0000 0.32130  0.58777  0.72215  Biso   1.000  He
  He680    1.0000 0.30120  0.58997  0.69315  Biso   1.000  He
  Ne680    1.0000 0.27767  0.61623  0.69497  Biso   1.000  Ne
  Ne681    1.0000 0.41493  0.66209  0.47925  Biso   1.000  Ne
  He681    1.0000 0.39402  0.68427  0.48869  Biso   1.000  He
  He682    1.0000 0.37558  0.67625  0.51153  Biso   1.000  He
  Ne682    1.0000 0.35333  0.70172  0.51650  Biso   1.000  Ne
  Ne683    1.0000 0.29447  0.09383  0.76517  Biso   1.000  Ne
  He683    1.0000 0.27886  0.09052  0.79461  Biso   1.000  He
  He684    1.0000 0.25706  0.06558  0.79708  Biso   1.000  He
  Ne684    1.0000 0.23837  0.06726  0.82513  Biso   1.000  Ne
  Ne685    1.0000 0.56581  0.34712  0.33263  Biso   1.000  Ne
  He685    1.0000 0.57131  0.35218  0.29967  Biso   1.000  He
  He686    1.0000 0.60423  0.36206  0.29364  Biso   1.000  He
  Ne686    1.0000 0.60904  0.36782  0.26108  Biso   1.000  Ne
  Ne687    1.0000 0.45014  0.01006  0.42011  Biso   1.000  Ne
  He687    1.0000 0.45968  0.04194  0.41441  Biso   1.000  He
  He688    1.0000 0.44040  0.06615  0.42814  Biso   1.000  He
  Ne688    1.0000 0.44926  0.09975  0.42122  Biso   1.000  Ne
  Ne689    1.0000 0.82054  0.00713  0.41471  Biso   1.000  Ne
  He689    1.0000 0.79083  0.02145  0.41427  Biso   1.000  He
  He690    1.0000 0.77994  0.03148  0.44461  Biso   1.000  He
  Ne690    1.0000 0.74947  0.04634  0.44159  Biso   1.000  Ne
  Ne691    1.0000 0.08080  0.57961  0.68253  Biso   1.000  Ne
  He691    1.0000 0.08870  0.57652  0.65100  Biso   1.000  He
  He692    1.0000 0.07008  0.59768  0.63227  Biso   1.000  He
  Ne692    1.0000 0.08095  0.60195  0.60262  Biso   1.000  Ne
  Ne693    1.0000 0.40628  0.47660  0.29868  Biso   1.000  Ne
  He693    1.0000 0.42453  0.45587  0.31873  Biso   1.000  He
  He694    1.0000 0.41084  0.44750  0.34542  Biso   1.000  He
  Ne694    1.0000 0.42524  0.42245  0.35948  Biso   1.000  Ne
  Ne695    1.0000 0.54961  0.45133  0.94664  Biso   1.000  Ne
  He695    1.0000 0.55656  0.45889  0.91478  Biso   1.000  He
  He696    1.0000 0.57735  0.43493  0.89911  Biso   1.000  He
  Ne696    1.0000 0.57877  0.43414  0.86807  Biso   1.000  Ne
  Ne697    1.0000 0.92461  0.03766  0.07009  Biso   1.000  Ne
  He697    1.0000 0.95666  0.03159  0.05624  Biso   1.000  He
  He698    1.0000 0.98152  0.03838  0.07665  Biso   1.000  He
  Ne698    1.0000 0.01252  0.03253  0.06180  Biso   1.000  Ne
  Ne699    1.0000 0.11312  0.07886  0.80130  Biso   1.000  Ne
  He699    1.0000 0.13729  0.07995  0.82639  Biso   1.000  He
  He700    1.0000 0.13310  0.05430  0.84592  Biso   1.000  He
  Ne700    1.0000 0.15496  0.04897  0.87097  Biso   1.000  Ne
  Ne701    1.0000 0.92187  0.34368  0.01652  Biso   1.000  Ne
  He701    1.0000 0.91344  0.37381  0.00712  Biso   1.000  He
  He702    1.0000 0.93823  0.39233  0.99452  Biso   1.000  He
  Ne702    1.0000 0.92458  0.42402  0.98759  Biso   1.000  Ne
  Ne703    1.0000 0.12082  0.57996  0.88912  Biso   1.000  Ne
  He703    1.0000 0.15228  0.58820  0.89020  Biso   1.000  He
  He704    1.0000 0.15880  0.61599  0.90096  Biso   1.000  He
  Ne704    1.0000 0.18905  0.62243  0.89520  Biso   1.000  Ne
  Ne705    1.0000 0.09098  0.48069  0.08126  Biso   1.000  Ne
  He705    1.0000 0.10462  0.46693  0.05280  Biso   1.000  He
  He706    1.0000 0.08762  0.47587  0.02453  Biso   1.000  He
  Ne706    1.0000 0.09935  0.46583  0.99582  Biso   1.000  Ne
  Ne707    1.0000 0.11018  0.38818  0.95078  Biso   1.000  Ne
  He707    1.0000 0.08469  0.37795  0.93758  Biso   1.000  He
  He708    1.0000 0.09422  0.36246  0.91054  Biso   1.000  He
  Ne708    1.0000 0.06864  0.34758  0.89221  Biso   1.000  Ne
  Ne709    1.0000 0.39993  0.62918  0.08701  Biso   1.000  Ne
  He709    1.0000 0.40162  0.59436  0.09083  Biso   1.000  He
  He710    1.0000 0.41457  0.57699  0.06666  Biso   1.000  He
  Ne710    1.0000 0.42295  0.54712  0.07546  Biso   1.000  Ne
  Ne711    1.0000 0.04180  0.74900  0.70437  Biso   1.000  Ne
  He711    1.0000 0.05521  0.71939  0.69407  Biso   1.000  He
  He712    1.0000 0.07679  0.72039  0.66948  Biso   1.000  He
  Ne712    1.0000 0.08547  0.68914  0.66051  Biso   1.000  Ne
  Ne713    1.0000 0.11496  0.69974  0.95714  Biso   1.000  Ne
  He713    1.0000 0.08465  0.70995  0.96660  Biso   1.000  He
  He714    1.0000 0.06713  0.72388  0.94310  Biso   1.000  He
  Ne714    1.0000 0.03942  0.73937  0.95248  Biso   1.000  Ne
  Ne715    1.0000 0.34694  0.39686  0.23718  Biso   1.000  Ne
  He715    1.0000 0.37730  0.40617  0.25276  Biso   1.000  He
  He716    1.0000 0.39724  0.41550  0.22776  Biso   1.000  He
  Ne716    1.0000 0.42782  0.41963  0.23782  Biso   1.000  Ne
  Ne717    1.0000 0.27156  0.89201  0.59279  Biso   1.000  Ne
  He717    1.0000 0.30258  0.90661  0.59909  Biso   1.000  He
  He718    1.0000 0.32781  0.90290  0.57647  Biso   1.000  He
  Ne718    1.0000 0.35495  0.91990  0.57986  Biso   1.000  Ne
  Ne719    1.0000 0.12002  0.40674  0.32953  Biso   1.000  Ne
  He719    1.0000 0.11774  0.42498  0.30154  Biso   1.000  He
  He720    1.0000 0.13300  0.41242  0.27629  Biso   1.000  He
  Ne720    1.0000 0.12515  0.43152  0.25046  Biso   1.000  Ne
  Ne721    1.0000 0.82953  0.27124  0.21878  Biso   1.000  Ne
  He721    1.0000 0.84755  0.26070  0.24563  Biso   1.000  He
  He722    1.0000 0.83108  0.24088  0.26687  Biso   1.000  He
  Ne722    1.0000 0.84504  0.23997  0.29725  Biso   1.000  Ne
  Ne723    1.0000 0.49842  0.47943  0.69559  Biso   1.000  Ne
  He723    1.0000 0.48833  0.44932  0.69832  Biso   1.000  He
  He724    1.0000 0.50818  0.42689  0.68261  Biso   1.000  He
  Ne724    1.0000 0.49707  0.39628  0.69200  Biso   1.000  Ne
  Ne725    1.0000 0.92184  0.88693  0.82121  Biso   1.000  Ne
  He725    1.0000 0.89215  0.90253  0.81783  Biso   1.000  He
  He726    1.0000 0.86711  0.88282  0.82779  Biso   1.000  He
  Ne726    1.0000 0.83793  0.89672  0.82545  Biso   1.000  Ne
  Ne727    1.0000 0.91920  0.73649  0.63707  Biso   1.000  Ne
  He727    1.0000 0.89520  0.71539  0.62839  Biso   1.000  He
  He728    1.0000 0.89820  0.70713  0.59620  Biso   1.000  He
  Ne728    1.0000 0.88145  0.68282  0.58568  Biso   1.000  Ne
  Ne729    1.0000 0.67074  0.23942  0.40483  Biso   1.000  Ne
  He729    1.0000 0.66682  0.22226  0.37651  Biso   1.000  He
  He730    1.0000 0.69118  0.20175  0.36900  Biso   1.000  He
  Ne730    1.0000 0.69032  0.18300  0.34058  Biso   1.000  Ne
  Ne731    1.0000 0.08027  0.24592  0.92215  Biso   1.000  Ne
  He731    1.0000 0.05902  0.26361  0.90135  Biso   1.000  He
  He732    1.0000 0.06176  0.25275  0.87100  Biso   1.000  He
  Ne732    1.0000 0.04000  0.26456  0.84626  Biso   1.000  Ne
  Ne733    1.0000 0.20566  0.41242  0.79217  Biso   1.000  Ne
  He733    1.0000 0.20436  0.39768  0.76385  Biso   1.000  He
  He734    1.0000 0.17321  0.40219  0.74571  Biso   1.000  He
  Ne734    1.0000 0.17335  0.39255  0.71412  Biso   1.000  Ne
  Ne735    1.0000 0.40859  0.07891  0.22013  Biso   1.000  Ne
  He735    1.0000 0.40136  0.05721  0.24263  Biso   1.000  He
  He736    1.0000 0.40107  0.06807  0.27492  Biso   1.000  He
  Ne736    1.0000 0.37085  0.08165  0.28445  Biso   1.000  Ne
  Ne737    1.0000 0.36207  0.11560  0.42154  Biso   1.000  Ne
  He737    1.0000 0.35644  0.14850  0.41404  Biso   1.000  He
  He738    1.0000 0.32378  0.15992  0.41290  Biso   1.000  He
  Ne738    1.0000 0.32193  0.19136  0.40334  Biso   1.000  Ne
  Ne739    1.0000 0.03703  0.29635  0.04353  Biso   1.000  Ne
  He739    1.0000 0.03408  0.32024  0.06438  Biso   1.000  He
  He740    1.0000 0.00676  0.33436  0.06462  Biso   1.000  He
  Ne740    1.0000 0.00944  0.35655  0.09054  Biso   1.000  Ne
  Ne741    1.0000 0.75643  0.86366  0.32928  Biso   1.000  Ne
  He741    1.0000 0.74725  0.89255  0.33845  Biso   1.000  He
  He742    1.0000 0.76648  0.89892  0.36621  Biso   1.000  He
  Ne742    1.0000 0.76401  0.92972  0.37892  Biso   1.000  Ne
  Ne743    1.0000 0.07731  0.67520  0.37937  Biso   1.000  Ne
  He743    1.0000 0.08667  0.69646  0.40221  Biso   1.000  He
  He744    1.0000 0.10812  0.68746  0.42733  Biso   1.000  He
  Ne744    1.0000 0.10439  0.70912  0.45026  Biso   1.000  Ne
  Ne745    1.0000 0.50768  0.56707  0.06915  Biso   1.000  Ne
  He745    1.0000 0.53899  0.56320  0.06165  Biso   1.000  He
  He746    1.0000 0.54641  0.56141  0.02864  Biso   1.000  He
  Ne746    1.0000 0.57846  0.56602  0.02145  Biso   1.000  Ne
  Ne747    1.0000 0.26762  0.76877  0.69235  Biso   1.000  Ne
  He747    1.0000 0.28157  0.79876  0.70350  Biso   1.000  He
  He748    1.0000 0.31594  0.80293  0.70095  Biso   1.000  He
  Ne748    1.0000 0.32777  0.83521  0.70869  Biso   1.000  Ne
  Ne749    1.0000 0.31354  0.88160  0.32581  Biso   1.000  Ne
  He749    1.0000 0.31744  0.88858  0.29325  Biso   1.000  He
  He750    1.0000 0.34331  0.91014  0.28731  Biso   1.000  He
  Ne750    1.0000 0.33794  0.92205  0.25653  Biso   1.000  Ne
  Ne751    1.0000 0.44113  0.21351  0.83330  Biso   1.000  Ne
  He751    1.0000 0.43747  0.18747  0.85464  Biso   1.000  He
  He752    1.0000 0.41722  0.19546  0.87899  Biso   1.000  He
  Ne752    1.0000 0.41005  0.16861  0.89668  Biso   1.000  Ne
  Ne753    1.0000 0.58027  0.15721  0.81827  Biso   1.000  Ne
  He753    1.0000 0.55646  0.16991  0.79941  Biso   1.000  He
  He754    1.0000 0.53044  0.17089  0.81297  Biso   1.000  He
  Ne754    1.0000 0.50887  0.18678  0.79244  Biso   1.000  Ne
  Ne755    1.0000 0.35476  0.60791  0.80409  Biso   1.000  Ne
  He755    1.0000 0.37780  0.59839  0.78209  Biso   1.000  He
  He756    1.0000 0.40716  0.58917  0.79179  Biso   1.000  He
  Ne756    1.0000 0.42585  0.57711  0.76362  Biso   1.000  Ne
  Ne757    1.0000 0.41587  0.64865  0.58414  Biso   1.000  Ne
  He757    1.0000 0.40130  0.62457  0.60191  Biso   1.000  He
  He758    1.0000 0.37628  0.63424  0.62207  Biso   1.000  He
  Ne758    1.0000 0.36264  0.60863  0.64039  Biso   1.000  Ne
  Ne759    1.0000 0.15425  0.82586  0.70210  Biso   1.000  Ne
  He759    1.0000 0.15173  0.80583  0.72437  Biso   1.000  He
  He760    1.0000 0.12435  0.78436  0.72063  Biso   1.000  He
  Ne760    1.0000 0.12357  0.76447  0.74528  Biso   1.000  Ne
  Ne761    1.0000 0.31191  0.20221  0.08095  Biso   1.000  Ne
  He761    1.0000 0.33668  0.18279  0.09134  Biso   1.000  He
  He762    1.0000 0.33161  0.16201  0.11624  Biso   1.000  He
  Ne762    1.0000 0.35944  0.14319  0.12517  Biso   1.000  Ne
  Ne763    1.0000 0.68538  0.67905  0.42558  Biso   1.000  Ne
  He763    1.0000 0.67453  0.67053  0.39523  Biso   1.000  He
  He764    1.0000 0.69783  0.65199  0.37844  Biso   1.000  He
  Ne764    1.0000 0.69019  0.64003  0.35030  Biso   1.000  Ne
  Ne765    1.0000 0.86974  0.81957  0.72929  Biso   1.000  Ne
  He765    1.0000 0.87670  0.80548  0.75795  Biso   1.000  He
  He766    1.0000 0.84768  0.80219  0.77569  Biso   1.000  He
  Ne766    1.0000 0.84932  0.78634  0.80493  Biso   1.000  Ne
  Ne767    1.0000 0.86883  0.70291  0.93660  Biso   1.000  Ne
  He767    1.0000 0.84446  0.71566  0.95685  Biso   1.000  He
  He768    1.0000 0.84327  0.69638  0.98426  Biso   1.000  He
  Ne768    1.0000 0.81808  0.70744  0.00320  Biso   1.000  Ne
  Ne769    1.0000 0.59464  0.80079  0.38024  Biso   1.000  Ne
  He769    1.0000 0.62090  0.79375  0.39857  Biso   1.000  He
  He770    1.0000 0.64080  0.77338  0.38447  Biso   1.000  He
  Ne770    1.0000 0.66709  0.76441  0.40385  Biso   1.000  Ne
  Ne771    1.0000 0.77258  0.48760  0.01892  Biso   1.000  Ne
  He771    1.0000 0.79933  0.50232  0.00205  Biso   1.000  He
  He772    1.0000 0.82651  0.48016  0.00110  Biso   1.000  He
  Ne772    1.0000 0.85084  0.48823  0.98686  Biso   1.000  Ne
  Ne773    1.0000 0.75240  0.57928  0.68578  Biso   1.000  Ne
  He773    1.0000 0.75098  0.60984  0.70102  Biso   1.000  He
  He774    1.0000 0.77934  0.63133  0.69422  Biso   1.000  He
  Ne774    1.0000 0.78509  0.65085  0.72152  Biso   1.000  Ne
  Ne775    1.0000 0.47896  0.80272  0.13751  Biso   1.000  Ne
  He775    1.0000 0.50761  0.82136  0.13405  Biso   1.000  He
  He776    1.0000 0.50718  0.85384  0.14385  Biso   1.000  He
  Ne776    1.0000 0.53675  0.86608  0.14027  Biso   1.000  Ne
  Ne777    1.0000 0.79424  0.42066  0.08405  Biso   1.000  Ne
  He777    1.0000 0.79211  0.41573  0.11492  Biso   1.000  He
  He778    1.0000 0.78508  0.44263  0.13455  Biso   1.000  He
  Ne778    1.0000 0.78334  0.43794  0.16750  Biso   1.000  Ne
  Ne779    1.0000 0.45100  0.42485  0.91562  Biso   1.000  Ne
  He779    1.0000 0.42705  0.44934  0.92526  Biso   1.000  He
  He780    1.0000 0.40034  0.44556  0.90672  Biso   1.000  He
  Ne780    1.0000 0.37637  0.42941  0.92163  Biso   1.000  Ne
  Ne781    1.0000 0.98727  0.15335  0.46310  Biso   1.000  Ne
  He781    1.0000 0.96323  0.16109  0.44418  Biso   1.000  He
  He782    1.0000 0.97057  0.16001  0.40934  Biso   1.000  He
  Ne782    1.0000 0.94778  0.16900  0.38792  Biso   1.000  Ne
  Ne783    1.0000 0.87780  0.38863  0.10820  Biso   1.000  Ne
  He783    1.0000 0.87889  0.36635  0.08417  Biso   1.000  He
  He784    1.0000 0.85856  0.34134  0.09441  Biso   1.000  He
  Ne784    1.0000 0.85567  0.31324  0.07424  Biso   1.000  Ne
  Ne785    1.0000 0.64182  0.97501  0.95629  Biso   1.000  Ne
  He785    1.0000 0.65128  0.94349  0.95452  Biso   1.000  He
  He786    1.0000 0.65480  0.93057  0.98674  Biso   1.000  He
  Ne786    1.0000 0.68509  0.92854  0.99603  Biso   1.000  Ne
  Ne787    1.0000 0.75827  0.92027  0.07635  Biso   1.000  Ne
  He787    1.0000 0.77383  0.92158  0.10668  Biso   1.000  He
  He788    1.0000 0.80585  0.91606  0.10276  Biso   1.000  He
  Ne788    1.0000 0.82163  0.90768  0.13216  Biso   1.000  Ne
  Ne789    1.0000 0.25867  0.57842  0.13012  Biso   1.000  Ne
  He789    1.0000 0.29379  0.57862  0.12480  Biso   1.000  He
  He790    1.0000 0.30753  0.54873  0.12103  Biso   1.000  He
  Ne790    1.0000 0.34131  0.54917  0.11552  Biso   1.000  Ne
  Ne791    1.0000 0.18048  0.28150  0.41869  Biso   1.000  Ne
  He791    1.0000 0.21438  0.27654  0.40930  Biso   1.000  He
  He792    1.0000 0.22890  0.25447  0.42800  Biso   1.000  He
  Ne792    1.0000 0.25831  0.24593  0.41871  Biso   1.000  Ne
  Ne793    1.0000 0.66433  0.40117  0.82985  Biso   1.000  Ne
  He793    1.0000 0.69561  0.40144  0.83356  Biso   1.000  He
  He794    1.0000 0.70715  0.41075  0.86354  Biso   1.000  He
  Ne794    1.0000 0.73954  0.41572  0.85898  Biso   1.000  Ne
  Ne795    1.0000 0.78255  0.81553  0.23600  Biso   1.000  Ne
  He795    1.0000 0.75706  0.82943  0.24760  Biso   1.000  He
  He796    1.0000 0.75768  0.85999  0.23767  Biso   1.000  He
  Ne796    1.0000 0.72966  0.87711  0.24172  Biso   1.000  Ne
  Ne797    1.0000 0.61590  0.89808  0.22474  Biso   1.000  Ne
  He797    1.0000 0.60948  0.88464  0.19777  Biso   1.000  He
  He798    1.0000 0.62683  0.85744  0.19023  Biso   1.000  He
  Ne798    1.0000 0.62104  0.84454  0.15912  Biso   1.000  Ne
  Ne799    1.0000 0.76570  0.76233  0.31746  Biso   1.000  Ne
  He799    1.0000 0.75681  0.74181  0.29412  Biso   1.000  He
  He800    1.0000 0.75705  0.70957  0.30359  Biso   1.000  He
  Ne800    1.0000 0.74499  0.68982  0.28174  Biso   1.000  Ne
