data_image0
_cell_length_a       46.8937
_cell_length_b       47.0511
_cell_length_c       46.4544
_cell_angle_alpha    90
_cell_angle_beta     90
_cell_angle_gamma    90

_symmetry_space_group_name_H-M    "P 1"
_symmetry_int_tables_number       1

loop_
  _symmetry_equiv_pos_as_xyz
  'x, y, z'

loop_
  _atom_site_label
  _atom_site_occupancy
  _atom_site_fract_x
  _atom_site_fract_y
  _atom_site_fract_z
  _atom_site_thermal_displace_type
  _atom_site_B_iso_or_equiv
  _atom_site_type_symbol
  Ne1      1.0000 0.57598  0.69618  0.38379  Biso   1.000  Ne
  He1      1.0000 0.58392  0.66540  0.37272  Biso   1.000  He
  He2      1.0000 0.60467  0.66745  0.34672  Biso   1.000  He
  Ne2      1.0000 0.61814  0.63587  0.33757  Biso   1.000  Ne
  Ne3      1.0000 0.59861  0.68462  0.10597  Biso   1.000  Ne
  He3      1.0000 0.60304  0.71665  0.09686  Biso   1.000  He
  He4      1.0000 0.63106  0.72077  0.07956  Biso   1.000  He
  Ne4      1.0000 0.63197  0.75162  0.06548  Biso   1.000  Ne
  Ne5      1.0000 0.85079  0.83898  0.84974  Biso   1.000  Ne
  He5      1.0000 0.82112  0.84059  0.86690  Biso   1.000  He
  He6      1.0000 0.81070  0.87282  0.86565  Biso   1.000  He
  Ne6      1.0000 0.78174  0.87976  0.88447  Biso   1.000  Ne
  Ne7      1.0000 0.32879  0.38533  0.14439  Biso   1.000  Ne
  He7      1.0000 0.34620  0.39985  0.11788  Biso   1.000  He
  He8      1.0000 0.37362  0.38352  0.10917  Biso   1.000  He
  Ne8      1.0000 0.38852  0.39701  0.08397  Biso   1.000  Ne
  Ne9      1.0000 0.28915  0.30613  0.56231  Biso   1.000  Ne
  He9      1.0000 0.26275  0.31895  0.57580  Biso   1.000  He
  He10     1.0000 0.26429  0.32309  0.60877  Biso   1.000  He
  Ne10     1.0000 0.23558  0.33493  0.61975  Biso   1.000  Ne
  Ne11     1.0000 0.06212  0.49044  0.25275  Biso   1.000  Ne
  He11     1.0000 0.04847  0.51394  0.23219  Biso   1.000  He
  He12     1.0000 0.01761  0.52001  0.23877  Biso   1.000  He
  Ne12     1.0000 0.00580  0.54290  0.21840  Biso   1.000  Ne
  Ne13     1.0000 0.96964  0.94242  0.06164  Biso   1.000  Ne
  He13     1.0000 0.95200  0.91920  0.07937  Biso   1.000  He
  He14     1.0000 0.94962  0.89086  0.06055  Biso   1.000  He
  Ne14     1.0000 0.93482  0.86425  0.07826  Biso   1.000  Ne
  Ne15     1.0000 0.87406  0.10702  0.32576  Biso   1.000  Ne
  He15     1.0000 0.88810  0.13233  0.34256  Biso   1.000  He
  He16     1.0000 0.87423  0.16109  0.33726  Biso   1.000  He
  Ne16     1.0000 0.88997  0.18600  0.34951  Biso   1.000  Ne
  Ne17     1.0000 0.66178  0.75548  0.70593  Biso   1.000  Ne
  He17     1.0000 0.63198  0.76098  0.69300  Biso   1.000  He
  He18     1.0000 0.60974  0.73741  0.70243  Biso   1.000  He
  Ne18     1.0000 0.57679  0.74239  0.70222  Biso   1.000  Ne
  Ne19     1.0000 0.09988  0.28678  0.25394  Biso   1.000  Ne
  He19     1.0000 0.06975  0.28896  0.23782  Biso   1.000  He
  He20     1.0000 0.07179  0.27750  0.20844  Biso   1.000  He
  Ne20     1.0000 0.04414  0.27668  0.18802  Biso   1.000  Ne
  Ne21     1.0000 0.00293  0.38499  0.54709  Biso   1.000  Ne
  He21     1.0000 0.02392  0.38423  0.57376  Biso   1.000  He
  He22     1.0000 0.05411  0.39413  0.56526  Biso   1.000  He
  Ne22     1.0000 0.07322  0.39853  0.59203  Biso   1.000  Ne
  Ne23     1.0000 0.15772  0.91395  0.92556  Biso   1.000  Ne
  He23     1.0000 0.14099  0.91483  0.89703  Biso   1.000  He
  He24     1.0000 0.15952  0.90111  0.87136  Biso   1.000  He
  Ne24     1.0000 0.14497  0.89969  0.84162  Biso   1.000  Ne
  Ne25     1.0000 0.20004  0.07697  0.76487  Biso   1.000  Ne
  He25     1.0000 0.19317  0.08431  0.79649  Biso   1.000  He
  He26     1.0000 0.21388  0.07116  0.81807  Biso   1.000  He
  Ne26     1.0000 0.21011  0.08963  0.84743  Biso   1.000  Ne
  Ne27     1.0000 0.48937  0.54811  0.98888  Biso   1.000  Ne
  He27     1.0000 0.46020  0.53162  0.98015  Biso   1.000  He
  He28     1.0000 0.43671  0.55054  0.96539  Biso   1.000  He
  Ne28     1.0000 0.41424  0.56112  0.98789  Biso   1.000  Ne
  Ne29     1.0000 0.35222  0.05688  0.65040  Biso   1.000  Ne
  He29     1.0000 0.38124  0.05303  0.63148  Biso   1.000  He
  He30     1.0000 0.40739  0.07377  0.63739  Biso   1.000  He
  Ne30     1.0000 0.43322  0.06566  0.62047  Biso   1.000  Ne
  Ne31     1.0000 0.65068  0.00465  0.26346  Biso   1.000  Ne
  He31     1.0000 0.66750  0.03197  0.27462  Biso   1.000  He
  He32     1.0000 0.67004  0.03627  0.30728  Biso   1.000  He
  Ne32     1.0000 0.68895  0.05931  0.31643  Biso   1.000  Ne
  Ne33     1.0000 0.36567  0.54655  0.68452  Biso   1.000  Ne
  He33     1.0000 0.35757  0.51896  0.70047  Biso   1.000  He
  He34     1.0000 0.32588  0.51568  0.71401  Biso   1.000  He
  Ne34     1.0000 0.32455  0.52095  0.74591  Biso   1.000  Ne
  Ne35     1.0000 0.66983  0.64068  0.67158  Biso   1.000  Ne
  He35     1.0000 0.64158  0.62252  0.67675  Biso   1.000  He
  He36     1.0000 0.61321  0.63734  0.66372  Biso   1.000  He
  Ne36     1.0000 0.58604  0.62177  0.67602  Biso   1.000  Ne
  Ne37     1.0000 0.90814  0.40836  0.41014  Biso   1.000  Ne
  He37     1.0000 0.91252  0.38896  0.38353  Biso   1.000  He
  He38     1.0000 0.89235  0.39721  0.35707  Biso   1.000  He
  Ne38     1.0000 0.90351  0.38317  0.32989  Biso   1.000  Ne
  Ne39     1.0000 0.40136  0.71249  0.93676  Biso   1.000  Ne
  He39     1.0000 0.39686  0.68136  0.92599  Biso   1.000  He
  He40     1.0000 0.37576  0.66283  0.94591  Biso   1.000  He
  Ne40     1.0000 0.37537  0.63070  0.93707  Biso   1.000  Ne
  Ne41     1.0000 0.28970  0.65733  0.47477  Biso   1.000  Ne
  He41     1.0000 0.31966  0.67582  0.47390  Biso   1.000  He
  He42     1.0000 0.34666  0.65807  0.47263  Biso   1.000  He
  Ne42     1.0000 0.37239  0.67554  0.47717  Biso   1.000  Ne
  Ne43     1.0000 0.33736  0.55841  0.91937  Biso   1.000  Ne
  He43     1.0000 0.30660  0.56289  0.93177  Biso   1.000  He
  He44     1.0000 0.28613  0.58725  0.91926  Biso   1.000  He
  Ne44     1.0000 0.25528  0.59183  0.93397  Biso   1.000  Ne
  Ne45     1.0000 0.07845  0.25808  0.45812  Biso   1.000  Ne
  He45     1.0000 0.09496  0.23084  0.46362  Biso   1.000  He
  He46     1.0000 0.08635  0.21194  0.48891  Biso   1.000  He
  Ne46     1.0000 0.10472  0.18651  0.48994  Biso   1.000  Ne
  Ne47     1.0000 0.77029  0.54916  0.43429  Biso   1.000  Ne
  He47     1.0000 0.80319  0.54363  0.43790  Biso   1.000  He
  He48     1.0000 0.82405  0.56810  0.44665  Biso   1.000  He
  Ne48     1.0000 0.85372  0.55768  0.45381  Biso   1.000  Ne
  Ne49     1.0000 0.32056  0.56165  0.13451  Biso   1.000  Ne
  He49     1.0000 0.29967  0.56485  0.16135  Biso   1.000  He
  He50     1.0000 0.31432  0.56014  0.19039  Biso   1.000  He
  Ne50     1.0000 0.29415  0.56404  0.21762  Biso   1.000  Ne
  Ne51     1.0000 0.84459  0.17357  0.70080  Biso   1.000  Ne
  He51     1.0000 0.87547  0.18518  0.70608  Biso   1.000  He
  He52     1.0000 0.90010  0.16130  0.70581  Biso   1.000  He
  Ne52     1.0000 0.93503  0.17134  0.70980  Biso   1.000  Ne
  Ne53     1.0000 0.72870  0.57259  0.31576  Biso   1.000  Ne
  He53     1.0000 0.69484  0.57838  0.31080  Biso   1.000  He
  He54     1.0000 0.68475  0.55965  0.28605  Biso   1.000  He
  Ne54     1.0000 0.65430  0.56460  0.28043  Biso   1.000  Ne
  Ne55     1.0000 0.79505  0.12066  0.52593  Biso   1.000  Ne
  He55     1.0000 0.80531  0.15313  0.52603  Biso   1.000  He
  He56     1.0000 0.83880  0.15484  0.53269  Biso   1.000  He
  Ne56     1.0000 0.84945  0.18504  0.53359  Biso   1.000  Ne
  Ne57     1.0000 0.33604  0.12317  0.12832  Biso   1.000  Ne
  He57     1.0000 0.31514  0.14387  0.11382  Biso   1.000  He
  He58     1.0000 0.28844  0.12820  0.09868  Biso   1.000  He
  Ne58     1.0000 0.29047  0.12384  0.06519  Biso   1.000  Ne
  Ne59     1.0000 0.77188  0.32996  0.65054  Biso   1.000  Ne
  He59     1.0000 0.77814  0.34853  0.67608  Biso   1.000  He
  He60     1.0000 0.75857  0.37555  0.68017  Biso   1.000  He
  Ne60     1.0000 0.76981  0.39331  0.70525  Biso   1.000  Ne
  Ne61     1.0000 0.61711  0.11724  0.18466  Biso   1.000  Ne
  He61     1.0000 0.59660  0.13722  0.19405  Biso   1.000  He
  He62     1.0000 0.59028  0.13749  0.22729  Biso   1.000  He
  Ne62     1.0000 0.56605  0.15801  0.23409  Biso   1.000  Ne
  Ne63     1.0000 0.85045  0.20558  0.87625  Biso   1.000  Ne
  He63     1.0000 0.83828  0.18154  0.86485  Biso   1.000  He
  He64     1.0000 0.85690  0.16627  0.83980  Biso   1.000  He
  Ne64     1.0000 0.84526  0.13628  0.82920  Biso   1.000  Ne
  Ne65     1.0000 0.80632  0.83694  0.11923  Biso   1.000  Ne
  He65     1.0000 0.79224  0.80657  0.11129  Biso   1.000  He
  He66     1.0000 0.81272  0.78180  0.11995  Biso   1.000  He
  Ne66     1.0000 0.80524  0.75094  0.11701  Biso   1.000  Ne
  Ne67     1.0000 0.52575  0.54933  0.74390  Biso   1.000  Ne
  He67     1.0000 0.55351  0.56742  0.75634  Biso   1.000  He
  He68     1.0000 0.55319  0.59879  0.75741  Biso   1.000  He
  Ne68     1.0000 0.58172  0.61413  0.76262  Biso   1.000  Ne
  Ne69     1.0000 0.59594  0.10219  0.64855  Biso   1.000  Ne
  He69     1.0000 0.59924  0.12774  0.62682  Biso   1.000  He
  He70     1.0000 0.58085  0.15318  0.63400  Biso   1.000  He
  Ne70     1.0000 0.57656  0.18062  0.61472  Biso   1.000  Ne
  Ne71     1.0000 0.37111  0.85514  0.08201  Biso   1.000  Ne
  He71     1.0000 0.38265  0.84719  0.11252  Biso   1.000  He
  He72     1.0000 0.36655  0.85905  0.13972  Biso   1.000  He
  Ne72     1.0000 0.38244  0.85278  0.16860  Biso   1.000  Ne
  Ne73     1.0000 0.22895  0.68149  0.70018  Biso   1.000  Ne
  He73     1.0000 0.21613  0.68846  0.66952  Biso   1.000  He
  He74     1.0000 0.23817  0.70373  0.64765  Biso   1.000  He
  Ne74     1.0000 0.24483  0.68809  0.62030  Biso   1.000  Ne
  Ne75     1.0000 0.83048  0.64364  0.87230  Biso   1.000  Ne
  He75     1.0000 0.80806  0.66655  0.86084  Biso   1.000  He
  He76     1.0000 0.82053  0.69571  0.85084  Biso   1.000  He
  Ne76     1.0000 0.79504  0.71900  0.84624  Biso   1.000  Ne
  Ne77     1.0000 0.34712  0.13031  0.62404  Biso   1.000  Ne
  He77     1.0000 0.35720  0.16103  0.63055  Biso   1.000  He
  He78     1.0000 0.38862  0.16162  0.63804  Biso   1.000  He
  Ne78     1.0000 0.40596  0.19112  0.64189  Biso   1.000  Ne
  Ne79     1.0000 0.88786  0.24682  0.45583  Biso   1.000  Ne
  He79     1.0000 0.90591  0.27447  0.44437  Biso   1.000  He
  He80     1.0000 0.90018  0.27731  0.41130  Biso   1.000  He
  Ne80     1.0000 0.88415  0.30672  0.40609  Biso   1.000  Ne
  Ne81     1.0000 0.28794  0.55800  0.83859  Biso   1.000  Ne
  He81     1.0000 0.26669  0.53933  0.85734  Biso   1.000  He
  He82     1.0000 0.23907  0.52791  0.84220  Biso   1.000  He
  Ne82     1.0000 0.21448  0.51733  0.86378  Biso   1.000  Ne
  Ne83     1.0000 0.91346  0.94027  0.66067  Biso   1.000  Ne
  He83     1.0000 0.91605  0.96520  0.68144  Biso   1.000  He
  He84     1.0000 0.94881  0.97248  0.68683  Biso   1.000  He
  Ne84     1.0000 0.95513  0.99634  0.70517  Biso   1.000  Ne
  Ne85     1.0000 0.87565  0.80688  0.38084  Biso   1.000  Ne
  He85     1.0000 0.87535  0.79067  0.41130  Biso   1.000  He
  He86     1.0000 0.84605  0.78766  0.42791  Biso   1.000  He
  Ne86     1.0000 0.84923  0.76593  0.45318  Biso   1.000  Ne
  Ne87     1.0000 0.97451  0.30858  0.97890  Biso   1.000  Ne
  He87     1.0000 0.97182  0.29752  0.01000  Biso   1.000  He
  He88     1.0000 0.96570  0.26462  0.01027  Biso   1.000  He
  Ne88     1.0000 0.96135  0.25268  0.04416  Biso   1.000  Ne
  Ne89     1.0000 0.67763  0.78474  0.30098  Biso   1.000  Ne
  He89     1.0000 0.69306  0.75474  0.30585  Biso   1.000  He
  He90     1.0000 0.67416  0.73721  0.32692  Biso   1.000  He
  Ne90     1.0000 0.68797  0.71082  0.34101  Biso   1.000  Ne
  Ne91     1.0000 0.05884  0.89901  0.47547  Biso   1.000  Ne
  He91     1.0000 0.09168  0.89831  0.46402  Biso   1.000  He
  He92     1.0000 0.09512  0.91081  0.43294  Biso   1.000  He
  Ne92     1.0000 0.12784  0.91171  0.42414  Biso   1.000  Ne
  Ne93     1.0000 0.08697  0.33064  0.85052  Biso   1.000  Ne
  He93     1.0000 0.09705  0.34820  0.87646  Biso   1.000  He
  He94     1.0000 0.07436  0.35070  0.90117  Biso   1.000  He
  Ne94     1.0000 0.07844  0.37628  0.91910  Biso   1.000  Ne
  Ne95     1.0000 0.14747  0.31518  0.00029  Biso   1.000  Ne
  He95     1.0000 0.14189  0.32916  0.03025  Biso   1.000  He
  He96     1.0000 0.17008  0.33888  0.04657  Biso   1.000  He
  Ne96     1.0000 0.16329  0.36197  0.07037  Biso   1.000  Ne
  Ne97     1.0000 0.45347  0.87505  0.56883  Biso   1.000  Ne
  He97     1.0000 0.43422  0.88623  0.59350  Biso   1.000  He
  He98     1.0000 0.40375  0.89657  0.58529  Biso   1.000  He
  Ne98     1.0000 0.38525  0.90824  0.60833  Biso   1.000  Ne
  Ne99     1.0000 0.94664  0.29763  0.25944  Biso   1.000  Ne
  He99     1.0000 0.93631  0.28316  0.28543  Biso   1.000  He
  He100    1.0000 0.90551  0.29126  0.29745  Biso   1.000  He
  Ne100    1.0000 0.89999  0.27276  0.32339  Biso   1.000  Ne
  Ne101    1.0000 0.35063  0.56646  0.28707  Biso   1.000  Ne
  He101    1.0000 0.37859  0.56928  0.27143  Biso   1.000  He
  He102    1.0000 0.38557  0.54335  0.25175  Biso   1.000  He
  Ne102    1.0000 0.41336  0.54627  0.23341  Biso   1.000  Ne
  Ne103    1.0000 0.60821  0.39771  0.20964  Biso   1.000  Ne
  He103    1.0000 0.63083  0.38826  0.23171  Biso   1.000  He
  He104    1.0000 0.62360  0.35836  0.24422  Biso   1.000  He
  Ne104    1.0000 0.63740  0.34853  0.27385  Biso   1.000  Ne
  Ne105    1.0000 0.95183  0.75110  0.39188  Biso   1.000  Ne
  He105    1.0000 0.93701  0.73226  0.41471  Biso   1.000  He
  He106    1.0000 0.95113  0.72808  0.44587  Biso   1.000  He
  Ne106    1.0000 0.94212  0.75069  0.46944  Biso   1.000  Ne
  Ne107    1.0000 0.10103  0.05297  0.97262  Biso   1.000  Ne
  He107    1.0000 0.07590  0.03501  0.98135  Biso   1.000  He
  He108    1.0000 0.05134  0.05650  0.99312  Biso   1.000  He
  Ne108    1.0000 0.02196  0.04295  0.00235  Biso   1.000  Ne
  Ne109    1.0000 0.74857  0.07053  0.22409  Biso   1.000  Ne
  He109    1.0000 0.74853  0.10576  0.21980  Biso   1.000  He
  He110    1.0000 0.72232  0.11603  0.20166  Biso   1.000  He
  Ne110    1.0000 0.71649  0.15066  0.20407  Biso   1.000  Ne
  Ne111    1.0000 0.21150  0.90908  0.59017  Biso   1.000  Ne
  He111    1.0000 0.21196  0.87995  0.57475  Biso   1.000  He
  He112    1.0000 0.18424  0.87706  0.55484  Biso   1.000  He
  Ne112    1.0000 0.18030  0.84524  0.54752  Biso   1.000  Ne
  Ne113    1.0000 0.88123  0.28191  0.70495  Biso   1.000  Ne
  He113    1.0000 0.88761  0.28932  0.67261  Biso   1.000  He
  He114    1.0000 0.87137  0.26962  0.65326  Biso   1.000  He
  Ne114    1.0000 0.87909  0.27261  0.62179  Biso   1.000  Ne
  Ne115    1.0000 0.92750  0.51006  0.47944  Biso   1.000  Ne
  He115    1.0000 0.92419  0.54240  0.48293  Biso   1.000  He
  He116    1.0000 0.94166  0.56080  0.46500  Biso   1.000  He
  Ne116    1.0000 0.93842  0.59293  0.46813  Biso   1.000  Ne
  Ne117    1.0000 0.37148  0.04072  0.22864  Biso   1.000  Ne
  He117    1.0000 0.36032  0.01115  0.21782  Biso   1.000  He
  He118    1.0000 0.38380  0.98696  0.21971  Biso   1.000  He
  Ne118    1.0000 0.37308  0.95838  0.20964  Biso   1.000  Ne
  Ne119    1.0000 0.65546  0.25441  0.17869  Biso   1.000  Ne
  He119    1.0000 0.67077  0.25840  0.20944  Biso   1.000  He
  He120    1.0000 0.67948  0.23029  0.22351  Biso   1.000  He
  Ne120    1.0000 0.70419  0.23220  0.23959  Biso   1.000  Ne
  Ne121    1.0000 0.11790  0.06534  0.63307  Biso   1.000  Ne
  He121    1.0000 0.11474  0.09759  0.63820  Biso   1.000  He
  He122    1.0000 0.13466  0.11878  0.62213  Biso   1.000  He
  Ne122    1.0000 0.12995  0.15120  0.62746  Biso   1.000  Ne
  Ne123    1.0000 0.23401  0.73931  0.82016  Biso   1.000  Ne
  He123    1.0000 0.23929  0.77077  0.81179  Biso   1.000  He
  He124    1.0000 0.25657  0.78765  0.83377  Biso   1.000  He
  Ne124    1.0000 0.25837  0.82125  0.83261  Biso   1.000  Ne
  Ne125    1.0000 0.21062  0.95067  0.49585  Biso   1.000  Ne
  He125    1.0000 0.20130  0.92659  0.47274  Biso   1.000  He
  He126    1.0000 0.22542  0.91004  0.45780  Biso   1.000  He
  Ne126    1.0000 0.21513  0.88780  0.43572  Biso   1.000  Ne
  Ne127    1.0000 0.30103  0.80315  0.43410  Biso   1.000  Ne
  He127    1.0000 0.29076  0.83597  0.42684  Biso   1.000  He
  He128    1.0000 0.31311  0.85980  0.43233  Biso   1.000  He
  Ne128    1.0000 0.30452  0.89019  0.42401  Biso   1.000  Ne
  Ne129    1.0000 0.32878  0.62378  0.74206  Biso   1.000  Ne
  He129    1.0000 0.29867  0.62075  0.73539  Biso   1.000  He
  He130    1.0000 0.29295  0.61697  0.70160  Biso   1.000  He
  Ne130    1.0000 0.25942  0.61125  0.69555  Biso   1.000  Ne
  Ne131    1.0000 0.16465  0.23748  0.28835  Biso   1.000  Ne
  He131    1.0000 0.19022  0.23138  0.26622  Biso   1.000  He
  He132    1.0000 0.21865  0.24271  0.26767  Biso   1.000  He
  Ne132    1.0000 0.23763  0.23119  0.24200  Biso   1.000  Ne
  Ne133    1.0000 0.23792  0.89753  0.35014  Biso   1.000  Ne
  He133    1.0000 0.26541  0.90141  0.33142  Biso   1.000  He
  He134    1.0000 0.28898  0.88259  0.34643  Biso   1.000  He
  Ne134    1.0000 0.31857  0.88894  0.33351  Biso   1.000  Ne
  Ne135    1.0000 0.82730  0.17369  0.44499  Biso   1.000  Ne
  He135    1.0000 0.82839  0.14544  0.42912  Biso   1.000  He
  He136    1.0000 0.80244  0.13683  0.41033  Biso   1.000  He
  Ne136    1.0000 0.80502  0.10765  0.39701  Biso   1.000  Ne
  Ne137    1.0000 0.87084  0.00796  0.76423  Biso   1.000  Ne
  He137    1.0000 0.87007  0.03649  0.77864  Biso   1.000  He
  He138    1.0000 0.89690  0.05027  0.77055  Biso   1.000  He
  Ne138    1.0000 0.89624  0.08265  0.77777  Biso   1.000  Ne
  Ne139    1.0000 0.08119  0.97453  0.34208  Biso   1.000  Ne
  He139    1.0000 0.07280  0.00714  0.33389  Biso   1.000  He
  He140    1.0000 0.05796  0.01069  0.30510  Biso   1.000  He
  Ne140    1.0000 0.05988  0.04271  0.29776  Biso   1.000  Ne
  Ne141    1.0000 0.71596  0.65159  0.74659  Biso   1.000  Ne
  He141    1.0000 0.71601  0.62387  0.76523  Biso   1.000  He
  He142    1.0000 0.73022  0.59980  0.74588  Biso   1.000  He
  Ne142    1.0000 0.72827  0.56942  0.76134  Biso   1.000  Ne
  Ne143    1.0000 0.57202  0.20416  0.13414  Biso   1.000  Ne
  He143    1.0000 0.54451  0.19733  0.11868  Biso   1.000  He
  He144    1.0000 0.54527  0.17269  0.09901  Biso   1.000  He
  Ne144    1.0000 0.54323  0.18118  0.06645  Biso   1.000  Ne
  Ne145    1.0000 0.35107  0.88211  0.76527  Biso   1.000  Ne
  He145    1.0000 0.34437  0.86049  0.74136  Biso   1.000  He
  He146    1.0000 0.31413  0.86449  0.73068  Biso   1.000  He
  Ne146    1.0000 0.30603  0.84538  0.70652  Biso   1.000  Ne
  Ne147    1.0000 0.57950  0.14063  0.43679  Biso   1.000  Ne
  He147    1.0000 0.56851  0.16624  0.45617  Biso   1.000  He
  He148    1.0000 0.58319  0.19548  0.45236  Biso   1.000  He
  Ne148    1.0000 0.57737  0.21809  0.47651  Biso   1.000  Ne
  Ne149    1.0000 0.83398  0.87182  0.18334  Biso   1.000  Ne
  He149    1.0000 0.80747  0.87182  0.20355  Biso   1.000  He
  He150    1.0000 0.81344  0.86729  0.23667  Biso   1.000  He
  Ne150    1.0000 0.78833  0.86368  0.25616  Biso   1.000  Ne
  Ne151    1.0000 0.81821  0.26364  0.11619  Biso   1.000  Ne
  He151    1.0000 0.84408  0.28556  0.11118  Biso   1.000  He
  He152    1.0000 0.86542  0.27636  0.08797  Biso   1.000  He
  Ne152    1.0000 0.89046  0.29914  0.08073  Biso   1.000  Ne
  Ne153    1.0000 0.84398  0.80696  0.93422  Biso   1.000  Ne
  He153    1.0000 0.81803  0.82261  0.94889  Biso   1.000  He
  He154    1.0000 0.82602  0.85172  0.94914  Biso   1.000  He
  Ne154    1.0000 0.80276  0.87118  0.95868  Biso   1.000  Ne
  Ne155    1.0000 0.82750  0.63357  0.64995  Biso   1.000  Ne
  He155    1.0000 0.80495  0.60901  0.64222  Biso   1.000  He
  He156    1.0000 0.80426  0.58386  0.66454  Biso   1.000  He
  Ne156    1.0000 0.77788  0.58917  0.68591  Biso   1.000  Ne
  Ne157    1.0000 0.33512  0.01443  0.89133  Biso   1.000  Ne
  He157    1.0000 0.34177  0.00403  0.86282  Biso   1.000  He
  He158    1.0000 0.32770  0.97689  0.85097  Biso   1.000  He
  Ne158    1.0000 0.33692  0.96708  0.81948  Biso   1.000  Ne
  Ne159    1.0000 0.07053  0.15912  0.11638  Biso   1.000  Ne
  He159    1.0000 0.06384  0.18324  0.14015  Biso   1.000  He
  He160    1.0000 0.08761  0.17963  0.16268  Biso   1.000  He
  Ne160    1.0000 0.08799  0.20256  0.18586  Biso   1.000  Ne
  Ne161    1.0000 0.42154  0.83098  0.42780  Biso   1.000  Ne
  He161    1.0000 0.42788  0.85570  0.40255  Biso   1.000  He
  He162    1.0000 0.40355  0.86429  0.37902  Biso   1.000  He
  Ne162    1.0000 0.40793  0.89311  0.36354  Biso   1.000  Ne
  Ne163    1.0000 0.52111  0.07613  0.23552  Biso   1.000  Ne
  He163    1.0000 0.55331  0.06998  0.23241  Biso   1.000  He
  He164    1.0000 0.56351  0.05279  0.20633  Biso   1.000  He
  Ne164    1.0000 0.59633  0.04745  0.20614  Biso   1.000  Ne
  Ne165    1.0000 0.25978  0.42856  0.49049  Biso   1.000  Ne
  He165    1.0000 0.26408  0.40228  0.47212  Biso   1.000  He
  He166    1.0000 0.23669  0.38890  0.46317  Biso   1.000  He
  Ne166    1.0000 0.24240  0.36405  0.43925  Biso   1.000  Ne
  Ne167    1.0000 0.65633  0.22624  0.61382  Biso   1.000  Ne
  He167    1.0000 0.63882  0.24937  0.59534  Biso   1.000  He
  He168    1.0000 0.65375  0.26676  0.57283  Biso   1.000  He
  Ne168    1.0000 0.63743  0.29199  0.55814  Biso   1.000  Ne
  Ne169    1.0000 0.59150  0.03706  0.80834  Biso   1.000  Ne
  He169    1.0000 0.57481  0.00991  0.81045  Biso   1.000  He
  He170    1.0000 0.54744  0.00817  0.79741  Biso   1.000  He
  Ne170    1.0000 0.52995  0.98022  0.80234  Biso   1.000  Ne
  Ne171    1.0000 0.28936  0.61501  0.57918  Biso   1.000  Ne
  He171    1.0000 0.28949  0.59909  0.55142  Biso   1.000  He
  He172    1.0000 0.31679  0.60250  0.53346  Biso   1.000  He
  Ne172    1.0000 0.31962  0.57661  0.51343  Biso   1.000  Ne
  Ne173    1.0000 0.63196  0.86944  0.28953  Biso   1.000  Ne
  He173    1.0000 0.63120  0.85612  0.31902  Biso   1.000  He
  He174    1.0000 0.66256  0.85391  0.33455  Biso   1.000  He
  Ne174    1.0000 0.66085  0.85166  0.36813  Biso   1.000  Ne
  Ne175    1.0000 0.65061  0.09590  0.06697  Biso   1.000  Ne
  He175    1.0000 0.63965  0.08391  0.09777  Biso   1.000  He
  He176    1.0000 0.66036  0.06365  0.11372  Biso   1.000  He
  Ne176    1.0000 0.64548  0.05239  0.14199  Biso   1.000  Ne
  Ne177    1.0000 0.15000  0.34592  0.62562  Biso   1.000  Ne
  He177    1.0000 0.12499  0.32885  0.61412  Biso   1.000  He
  He178    1.0000 0.10423  0.31298  0.63421  Biso   1.000  He
  Ne178    1.0000 0.07967  0.29752  0.61822  Biso   1.000  Ne
  Ne179    1.0000 0.60145  0.66992  0.91027  Biso   1.000  Ne
  He179    1.0000 0.63093  0.66594  0.92120  Biso   1.000  He
  He180    1.0000 0.64413  0.63546  0.92487  Biso   1.000  He
  Ne180    1.0000 0.67637  0.63738  0.93710  Biso   1.000  Ne
  Ne181    1.0000 0.32465  0.05631  0.75781  Biso   1.000  Ne
  He181    1.0000 0.29551  0.06605  0.74758  Biso   1.000  He
  He182    1.0000 0.28348  0.05120  0.71876  Biso   1.000  He
  Ne182    1.0000 0.25193  0.06092  0.71112  Biso   1.000  Ne
  Ne183    1.0000 0.50013  0.27462  0.44179  Biso   1.000  Ne
  He183    1.0000 0.46992  0.25899  0.45217  Biso   1.000  He
  He184    1.0000 0.44736  0.27291  0.43557  Biso   1.000  He
  Ne184    1.0000 0.41983  0.26064  0.44667  Biso   1.000  Ne
  Ne185    1.0000 0.64211  0.77384  0.60208  Biso   1.000  Ne
  He185    1.0000 0.62609  0.74781  0.59312  Biso   1.000  He
  He186    1.0000 0.59314  0.75153  0.59279  Biso   1.000  He
  Ne186    1.0000 0.57509  0.72791  0.57748  Biso   1.000  Ne
  Ne187    1.0000 0.96589  0.89351  0.27558  Biso   1.000  Ne
  He187    1.0000 0.94709  0.86928  0.26644  Biso   1.000  He
  He188    1.0000 0.93023  0.87651  0.24017  Biso   1.000  He
  Ne188    1.0000 0.91898  0.85088  0.22095  Biso   1.000  Ne
  Ne189    1.0000 0.89601  0.55564  0.61902  Biso   1.000  Ne
  He189    1.0000 0.91822  0.54638  0.59760  Biso   1.000  He
  He190    1.0000 0.93294  0.56968  0.57754  Biso   1.000  He
  Ne190    1.0000 0.95650  0.55533  0.55667  Biso   1.000  Ne
  Ne191    1.0000 0.79256  0.30864  0.45106  Biso   1.000  Ne
  He191    1.0000 0.76118  0.29395  0.45110  Biso   1.000  He
  He192    1.0000 0.74172  0.31478  0.43808  Biso   1.000  He
  Ne192    1.0000 0.70881  0.30677  0.43983  Biso   1.000  Ne
  Ne193    1.0000 0.77531  0.19969  0.33354  Biso   1.000  Ne
  He193    1.0000 0.80339  0.21451  0.34254  Biso   1.000  He
  He194    1.0000 0.80477  0.24756  0.33465  Biso   1.000  He
  Ne194    1.0000 0.82436  0.26303  0.35287  Biso   1.000  Ne
  Ne195    1.0000 0.10768  0.25036  0.75885  Biso   1.000  Ne
  He195    1.0000 0.07388  0.24918  0.75166  Biso   1.000  He
  He196    1.0000 0.06053  0.27892  0.75523  Biso   1.000  He
  Ne196    1.0000 0.03956  0.27983  0.78219  Biso   1.000  Ne
  Ne197    1.0000 0.17864  0.02048  0.30484  Biso   1.000  Ne
  He197    1.0000 0.15508  0.03770  0.32064  Biso   1.000  He
  He198    1.0000 0.14954  0.06789  0.31264  Biso   1.000  He
  Ne198    1.0000 0.12244  0.08091  0.32935  Biso   1.000  Ne
  Ne199    1.0000 0.88745  0.74271  0.22130  Biso   1.000  Ne
  He199    1.0000 0.91318  0.73092  0.20297  Biso   1.000  He
  He200    1.0000 0.90533  0.70401  0.18665  Biso   1.000  He
  Ne200    1.0000 0.93169  0.69130  0.16974  Biso   1.000  Ne
  Ne201    1.0000 0.29287  0.86906  0.62490  Biso   1.000  Ne
  He201    1.0000 0.30540  0.84230  0.61116  Biso   1.000  He
  He202    1.0000 0.31962  0.81882  0.62954  Biso   1.000  He
  Ne202    1.0000 0.32575  0.79478  0.61111  Biso   1.000  Ne
  Ne203    1.0000 0.10076  0.07267  0.73728  Biso   1.000  Ne
  He203    1.0000 0.07845  0.08075  0.76106  Biso   1.000  He
  He204    1.0000 0.05754  0.05644  0.76667  Biso   1.000  He
  Ne204    1.0000 0.03748  0.06328  0.79346  Biso   1.000  Ne
  Ne205    1.0000 0.56581  0.87879  0.39921  Biso   1.000  Ne
  He205    1.0000 0.58795  0.87227  0.42432  Biso   1.000  He
  He206    1.0000 0.61732  0.88812  0.42351  Biso   1.000  He
  Ne206    1.0000 0.63643  0.87707  0.44800  Biso   1.000  Ne
  Ne207    1.0000 0.45965  0.68119  0.46796  Biso   1.000  Ne
  He207    1.0000 0.48937  0.69430  0.47764  Biso   1.000  He
  He208    1.0000 0.51614  0.67916  0.46785  Biso   1.000  He
  Ne208    1.0000 0.54451  0.69802  0.46828  Biso   1.000  Ne
  Ne209    1.0000 0.09888  0.57147  0.36999  Biso   1.000  Ne
  He209    1.0000 0.08613  0.56149  0.34093  Biso   1.000  He
  He210    1.0000 0.09693  0.57718  0.31277  Biso   1.000  He
  Ne210    1.0000 0.07748  0.57501  0.28393  Biso   1.000  Ne
  Ne211    1.0000 0.16148  0.33114  0.31264  Biso   1.000  Ne
  He211    1.0000 0.15948  0.34108  0.34250  Biso   1.000  He
  He212    1.0000 0.15646  0.37317  0.34408  Biso   1.000  He
  Ne212    1.0000 0.15465  0.38649  0.37327  Biso   1.000  Ne
  Ne213    1.0000 0.66304  0.54636  0.17534  Biso   1.000  Ne
  He213    1.0000 0.69124  0.54326  0.15759  Biso   1.000  He
  He214    1.0000 0.69000  0.53699  0.12589  Biso   1.000  He
  Ne214    1.0000 0.72128  0.53657  0.11184  Biso   1.000  Ne
  Ne215    1.0000 0.46526  0.15579  0.95261  Biso   1.000  Ne
  He215    1.0000 0.49075  0.16588  0.93390  Biso   1.000  He
  He216    1.0000 0.48897  0.16194  0.90174  Biso   1.000  He
  Ne216    1.0000 0.51508  0.16866  0.88845  Biso   1.000  Ne
  Ne217    1.0000 0.66196  0.86861  0.84660  Biso   1.000  Ne
  He217    1.0000 0.66301  0.90290  0.84825  Biso   1.000  He
  He218    1.0000 0.63238  0.91423  0.84516  Biso   1.000  He
  Ne218    1.0000 0.62882  0.94765  0.84323  Biso   1.000  Ne
  Ne219    1.0000 0.79043  0.33332  0.81345  Biso   1.000  Ne
  He219    1.0000 0.81555  0.32022  0.79656  Biso   1.000  He
  He220    1.0000 0.84458  0.32645  0.81199  Biso   1.000  He
  Ne220    1.0000 0.87273  0.32137  0.79428  Biso   1.000  Ne
  Ne221    1.0000 0.19502  0.34518  0.91443  Biso   1.000  Ne
  He221    1.0000 0.18401  0.32406  0.89138  Biso   1.000  He
  He222    1.0000 0.20729  0.30608  0.87706  Biso   1.000  He
  Ne222    1.0000 0.19129  0.28528  0.85582  Biso   1.000  Ne
  Ne223    1.0000 0.65961  0.18074  0.10228  Biso   1.000  Ne
  He223    1.0000 0.68330  0.20355  0.11291  Biso   1.000  He
  He224    1.0000 0.70162  0.19098  0.13742  Biso   1.000  He
  Ne224    1.0000 0.72470  0.20923  0.15364  Biso   1.000  Ne
  Ne225    1.0000 0.74684  0.88349  0.15530  Biso   1.000  Ne
  He225    1.0000 0.72593  0.90483  0.14377  Biso   1.000  He
  He226    1.0000 0.70227  0.89080  0.12452  Biso   1.000  He
  Ne226    1.0000 0.71046  0.89479  0.09325  Biso   1.000  Ne
  Ne227    1.0000 0.75670  0.37108  0.90859  Biso   1.000  Ne
  He227    1.0000 0.76173  0.39924  0.88860  Biso   1.000  He
  He228    1.0000 0.77432  0.42616  0.90444  Biso   1.000  He
  Ne228    1.0000 0.78250  0.45210  0.88654  Biso   1.000  Ne
  Ne229    1.0000 0.93637  0.24585  0.20273  Biso   1.000  Ne
  He229    1.0000 0.92292  0.21792  0.21224  Biso   1.000  He
  He230    1.0000 0.89930  0.22401  0.23183  Biso   1.000  He
  Ne230    1.0000 0.88640  0.19358  0.24690  Biso   1.000  Ne
  Ne231    1.0000 0.07894  0.21161  0.64461  Biso   1.000  Ne
  He231    1.0000 0.06105  0.19087  0.66689  Biso   1.000  He
  He232    1.0000 0.03104  0.20137  0.67819  Biso   1.000  He
  Ne232    1.0000 0.01715  0.17766  0.69668  Biso   1.000  Ne
  Ne233    1.0000 0.12536  0.71510  0.23657  Biso   1.000  Ne
  He233    1.0000 0.12208  0.74592  0.23764  Biso   1.000  He
  He234    1.0000 0.09387  0.75773  0.25224  Biso   1.000  He
  Ne234    1.0000 0.08939  0.79108  0.25155  Biso   1.000  Ne
  Ne235    1.0000 0.42069  0.12451  0.05435  Biso   1.000  Ne
  He235    1.0000 0.39462  0.13462  0.04019  Biso   1.000  He
  He236    1.0000 0.38594  0.16418  0.04891  Biso   1.000  He
  Ne236    1.0000 0.35565  0.17463  0.03896  Biso   1.000  Ne
  Ne237    1.0000 0.19435  0.58127  0.73684  Biso   1.000  Ne
  He237    1.0000 0.18591  0.55150  0.74615  Biso   1.000  He
  He238    1.0000 0.17219  0.54652  0.77860  Biso   1.000  He
  Ne238    1.0000 0.16667  0.51438  0.78428  Biso   1.000  Ne
  Ne239    1.0000 0.54410  0.59358  0.90630  Biso   1.000  Ne
  He239    1.0000 0.56480  0.59887  0.87867  Biso   1.000  He
  He240    1.0000 0.59013  0.57654  0.87605  Biso   1.000  He
  Ne240    1.0000 0.61153  0.58452  0.85221  Biso   1.000  Ne
  Ne241    1.0000 0.14053  0.05676  0.22875  Biso   1.000  Ne
  He241    1.0000 0.11319  0.07167  0.22107  Biso   1.000  He
  He242    1.0000 0.08856  0.05072  0.21275  Biso   1.000  He
  Ne242    1.0000 0.06712  0.06697  0.19536  Biso   1.000  Ne
  Ne243    1.0000 0.92355  0.45017  0.60397  Biso   1.000  Ne
  He243    1.0000 0.95699  0.45682  0.61221  Biso   1.000  He
  He244    1.0000 0.97149  0.48231  0.59590  Biso   1.000  He
  Ne244    1.0000 0.00197  0.48934  0.60378  Biso   1.000  Ne
  Ne245    1.0000 0.72186  0.28020  0.75089  Biso   1.000  Ne
  He245    1.0000 0.75130  0.27438  0.76731  Biso   1.000  He
  He246    1.0000 0.74507  0.25589  0.79490  Biso   1.000  He
  Ne246    1.0000 0.77463  0.24839  0.80709  Biso   1.000  Ne
  Ne247    1.0000 0.22372  0.55363  0.45972  Biso   1.000  Ne
  He247    1.0000 0.19805  0.55907  0.43992  Biso   1.000  He
  He248    1.0000 0.16983  0.55632  0.45768  Biso   1.000  He
  Ne248    1.0000 0.14151  0.55821  0.44255  Biso   1.000  Ne
  Ne249    1.0000 0.84388  0.89826  0.30289  Biso   1.000  Ne
  He249    1.0000 0.87379  0.90033  0.31707  Biso   1.000  He
  He250    1.0000 0.87743  0.92336  0.34256  Biso   1.000  He
  Ne250    1.0000 0.90934  0.92830  0.35296  Biso   1.000  Ne
  Ne251    1.0000 0.89790  0.58696  0.13367  Biso   1.000  Ne
  He251    1.0000 0.86981  0.59376  0.14748  Biso   1.000  He
  He252    1.0000 0.87547  0.60125  0.17903  Biso   1.000  He
  Ne252    1.0000 0.85054  0.61252  0.19405  Biso   1.000  Ne
  Ne253    1.0000 0.80377  0.05531  0.28643  Biso   1.000  Ne
  He253    1.0000 0.79533  0.08560  0.29255  Biso   1.000  He
  He254    1.0000 0.80826  0.10900  0.27384  Biso   1.000  He
  Ne254    1.0000 0.79471  0.13842  0.28098  Biso   1.000  Ne
  Ne255    1.0000 0.42072  0.35995  0.25343  Biso   1.000  Ne
  He255    1.0000 0.42806  0.37865  0.22677  Biso   1.000  He
  He256    1.0000 0.41436  0.36771  0.19833  Biso   1.000  He
  Ne256    1.0000 0.42195  0.39056  0.17322  Biso   1.000  Ne
  Ne257    1.0000 0.58828  0.83093  0.65921  Biso   1.000  Ne
  He257    1.0000 0.60408  0.84390  0.63301  Biso   1.000  He
  He258    1.0000 0.58424  0.84951  0.61000  Biso   1.000  He
  Ne258    1.0000 0.59926  0.86416  0.58139  Biso   1.000  Ne
  Ne259    1.0000 0.29298  0.44442  0.65943  Biso   1.000  Ne
  He259    1.0000 0.31541  0.43589  0.67751  Biso   1.000  He
  He260    1.0000 0.34340  0.43065  0.66260  Biso   1.000  He
  Ne260    1.0000 0.36599  0.41988  0.68406  Biso   1.000  Ne
  Ne261    1.0000 0.80634  0.86526  0.45015  Biso   1.000  Ne
  He261    1.0000 0.77623  0.87019  0.43284  Biso   1.000  He
  He262    1.0000 0.74716  0.85122  0.44044  Biso   1.000  He
  Ne262    1.0000 0.72304  0.85378  0.41837  Biso   1.000  Ne
  Ne263    1.0000 0.79196  0.09705  0.62178  Biso   1.000  Ne
  He263    1.0000 0.81538  0.11723  0.60830  Biso   1.000  He
  He264    1.0000 0.84515  0.10945  0.61511  Biso   1.000  He
  Ne264    1.0000 0.86871  0.12851  0.60214  Biso   1.000  Ne
  Ne265    1.0000 0.36982  0.32659  0.62943  Biso   1.000  Ne
  He265    1.0000 0.35189  0.29859  0.64086  Biso   1.000  He
  He266    1.0000 0.34653  0.27757  0.61601  Biso   1.000  He
  Ne266    1.0000 0.32919  0.25224  0.62499  Biso   1.000  Ne
  Ne267    1.0000 0.37274  0.21036  0.47877  Biso   1.000  Ne
  He267    1.0000 0.38494  0.18540  0.46108  Biso   1.000  He
  He268    1.0000 0.40449  0.16328  0.47747  Biso   1.000  He
  Ne268    1.0000 0.41413  0.14011  0.45541  Biso   1.000  Ne
  Ne269    1.0000 0.24445  0.25321  0.47739  Biso   1.000  Ne
  He269    1.0000 0.27722  0.24355  0.47151  Biso   1.000  He
  He270    1.0000 0.30145  0.26190  0.48192  Biso   1.000  He
  Ne270    1.0000 0.31606  0.25089  0.51060  Biso   1.000  Ne
  Ne271    1.0000 0.53748  0.39776  0.75687  Biso   1.000  Ne
  He271    1.0000 0.56415  0.40517  0.77709  Biso   1.000  He
  He272    1.0000 0.57795  0.38280  0.79902  Biso   1.000  He
  Ne272    1.0000 0.60251  0.39346  0.81455  Biso   1.000  Ne
  Ne273    1.0000 0.59305  0.81112  0.74379  Biso   1.000  Ne
  He273    1.0000 0.58174  0.84089  0.74426  Biso   1.000  He
  He274    1.0000 0.56666  0.84920  0.77337  Biso   1.000  He
  Ne274    1.0000 0.55037  0.87887  0.77105  Biso   1.000  Ne
  Ne275    1.0000 0.91459  0.90302  0.74782  Biso   1.000  Ne
  He275    1.0000 0.90382  0.89061  0.77863  Biso   1.000  He
  He276    1.0000 0.91927  0.90256  0.80564  Biso   1.000  He
  Ne276    1.0000 0.90754  0.89215  0.83510  Biso   1.000  Ne
  Ne277    1.0000 0.72996  0.89219  0.59166  Biso   1.000  Ne
  He277    1.0000 0.71579  0.88716  0.62035  Biso   1.000  He
  He278    1.0000 0.68290  0.89366  0.62161  Biso   1.000  He
  Ne278    1.0000 0.66962  0.89775  0.65129  Biso   1.000  Ne
  Ne279    1.0000 0.42846  0.98756  0.53160  Biso   1.000  Ne
  He279    1.0000 0.44638  0.99799  0.55846  Biso   1.000  He
  He280    1.0000 0.43566  0.98372  0.58801  Biso   1.000  He
  Ne280    1.0000 0.45066  0.99089  0.61698  Biso   1.000  Ne
  Ne281    1.0000 0.02452  0.03658  0.09453  Biso   1.000  Ne
  He281    1.0000 0.04934  0.04410  0.11272  Biso   1.000  He
  He282    1.0000 0.07850  0.03600  0.10040  Biso   1.000  He
  Ne282    1.0000 0.10672  0.04205  0.11734  Biso   1.000  Ne
  Ne283    1.0000 0.62903  0.10672  0.38597  Biso   1.000  Ne
  He283    1.0000 0.61182  0.08909  0.36585  Biso   1.000  He
  He284    1.0000 0.61026  0.05652  0.37053  Biso   1.000  He
  Ne284    1.0000 0.59465  0.04011  0.34782  Biso   1.000  Ne
  Ne285    1.0000 0.30001  0.32064  0.86804  Biso   1.000  Ne
  He285    1.0000 0.30728  0.34854  0.88341  Biso   1.000  He
  He286    1.0000 0.27998  0.36251  0.88849  Biso   1.000  He
  Ne286    1.0000 0.28468  0.39011  0.90583  Biso   1.000  Ne
  Ne287    1.0000 0.32308  0.32851  0.96047  Biso   1.000  Ne
  He287    1.0000 0.29525  0.31285  0.97176  Biso   1.000  He
  He288    1.0000 0.28740  0.28597  0.95611  Biso   1.000  He
  Ne288    1.0000 0.26663  0.26435  0.97141  Biso   1.000  Ne
  Ne289    1.0000 0.53751  0.04803  0.53390  Biso   1.000  Ne
  He289    1.0000 0.52580  0.02351  0.51284  Biso   1.000  He
  He290    1.0000 0.50958  0.03414  0.48597  Biso   1.000  He
  Ne290    1.0000 0.50432  0.01172  0.46292  Biso   1.000  Ne
  Ne291    1.0000 0.53081  0.08788  0.09790  Biso   1.000  Ne
  He291    1.0000 0.50899  0.10698  0.07763  Biso   1.000  He
  He292    1.0000 0.50036  0.09313  0.04939  Biso   1.000  He
  Ne292    1.0000 0.48573  0.11369  0.02584  Biso   1.000  Ne
  Ne293    1.0000 0.74817  0.79363  0.64943  Biso   1.000  Ne
  He293    1.0000 0.76557  0.78689  0.67615  Biso   1.000  He
  He294    1.0000 0.74392  0.77048  0.69754  Biso   1.000  He
  Ne294    1.0000 0.75348  0.75928  0.72776  Biso   1.000  Ne
  Ne295    1.0000 0.54283  0.90267  0.53066  Biso   1.000  Ne
  He295    1.0000 0.54652  0.92523  0.50781  Biso   1.000  He
  He296    1.0000 0.57094  0.94581  0.51363  Biso   1.000  He
  Ne296    1.0000 0.57467  0.96616  0.48653  Biso   1.000  Ne
  Ne297    1.0000 0.87492  0.66785  0.45050  Biso   1.000  Ne
  He297    1.0000 0.85475  0.66841  0.42428  Biso   1.000  He
  He298    1.0000 0.86185  0.69077  0.40122  Biso   1.000  He
  Ne298    1.0000 0.84078  0.69048  0.37572  Biso   1.000  Ne
  Ne299    1.0000 0.39826  0.76745  0.07451  Biso   1.000  Ne
  He299    1.0000 0.40418  0.73712  0.08518  Biso   1.000  He
  He300    1.0000 0.43590  0.72718  0.08675  Biso   1.000  He
  Ne300    1.0000 0.44025  0.69559  0.09654  Biso   1.000  Ne
  Ne301    1.0000 0.42475  0.03619  0.46849  Biso   1.000  Ne
  He301    1.0000 0.43573  0.04956  0.43657  Biso   1.000  He
  He302    1.0000 0.41262  0.05230  0.41322  Biso   1.000  He
  Ne302    1.0000 0.43007  0.05665  0.38261  Biso   1.000  Ne
  Ne303    1.0000 0.44800  0.54243  0.09571  Biso   1.000  Ne
  He303    1.0000 0.43236  0.51222  0.09381  Biso   1.000  He
  He304    1.0000 0.42538  0.50216  0.06199  Biso   1.000  He
  Ne304    1.0000 0.40997  0.47160  0.06003  Biso   1.000  Ne
  Ne305    1.0000 0.26017  0.41882  0.10324  Biso   1.000  Ne
  He305    1.0000 0.24584  0.39984  0.12459  Biso   1.000  He
  He306    1.0000 0.23816  0.41689  0.15021  Biso   1.000  He
  Ne306    1.0000 0.21883  0.40145  0.17122  Biso   1.000  Ne
  Ne307    1.0000 0.40048  0.03433  0.77062  Biso   1.000  Ne
  He307    1.0000 0.40505  0.03325  0.80246  Biso   1.000  He
  He308    1.0000 0.42452  0.00640  0.81169  Biso   1.000  He
  Ne308    1.0000 0.42539  0.00349  0.84401  Biso   1.000  Ne
  Ne309    1.0000 0.38920  0.88203  0.47388  Biso   1.000  Ne
  He309    1.0000 0.39287  0.91364  0.46890  Biso   1.000  He
  He310    1.0000 0.42102  0.92104  0.45429  Biso   1.000  He
  Ne310    1.0000 0.42663  0.95361  0.45229  Biso   1.000  Ne
  Ne311    1.0000 0.91536  0.82885  0.90868  Biso   1.000  Ne
  He311    1.0000 0.92484  0.79520  0.90936  Biso   1.000  He
  He312    1.0000 0.92895  0.78672  0.94003  Biso   1.000  He
  Ne312    1.0000 0.93256  0.75378  0.93994  Biso   1.000  Ne
  Ne313    1.0000 0.90263  0.67665  0.69251  Biso   1.000  Ne
  He313    1.0000 0.90741  0.68826  0.66199  Biso   1.000  He
  He314    1.0000 0.92642  0.67065  0.64340  Biso   1.000  He
  Ne314    1.0000 0.93033  0.68231  0.61204  Biso   1.000  Ne
  Ne315    1.0000 0.76636  0.14121  0.91466  Biso   1.000  Ne
  He315    1.0000 0.73504  0.15440  0.91986  Biso   1.000  He
  He316    1.0000 0.73608  0.17536  0.94636  Biso   1.000  He
  Ne316    1.0000 0.70572  0.19188  0.95141  Biso   1.000  Ne
  Ne317    1.0000 0.17168  0.57339  0.34941  Biso   1.000  Ne
  He317    1.0000 0.19205  0.55577  0.32868  Biso   1.000  He
  He318    1.0000 0.21570  0.57316  0.31573  Biso   1.000  He
  Ne318    1.0000 0.23508  0.55742  0.29153  Biso   1.000  Ne
  Ne319    1.0000 0.07262  0.36599  0.30757  Biso   1.000  Ne
  He319    1.0000 0.06492  0.36913  0.27559  Biso   1.000  He
  He320    1.0000 0.04779  0.39337  0.26703  Biso   1.000  He
  Ne320    1.0000 0.03882  0.39308  0.23536  Biso   1.000  Ne
  Ne321    1.0000 0.76974  0.66246  0.11985  Biso   1.000  Ne
  He321    1.0000 0.78297  0.63125  0.12539  Biso   1.000  He
  He322    1.0000 0.77639  0.61125  0.09782  Biso   1.000  He
  Ne322    1.0000 0.78676  0.57935  0.10324  Biso   1.000  Ne
  Ne323    1.0000 0.57252  0.33752  0.86575  Biso   1.000  Ne
  He323    1.0000 0.58355  0.31965  0.89169  Biso   1.000  He
  He324    1.0000 0.57879  0.33800  0.91614  Biso   1.000  He
  Ne324    1.0000 0.58088  0.32348  0.94550  Biso   1.000  Ne
  Ne325    1.0000 0.23084  0.31617  0.69668  Biso   1.000  Ne
  He325    1.0000 0.22579  0.33827  0.72158  Biso   1.000  He
  He326    1.0000 0.20876  0.32661  0.74859  Biso   1.000  He
  Ne326    1.0000 0.20440  0.34949  0.77256  Biso   1.000  Ne
  Ne327    1.0000 0.64783  0.63415  0.18349  Biso   1.000  Ne
  He327    1.0000 0.65061  0.64810  0.15232  Biso   1.000  He
  He328    1.0000 0.66995  0.63556  0.13122  Biso   1.000  He
  Ne328    1.0000 0.66703  0.65018  0.10162  Biso   1.000  Ne
  Ne329    1.0000 0.19277  0.30913  0.15937  Biso   1.000  Ne
  He329    1.0000 0.18783  0.32208  0.19018  Biso   1.000  He
  He330    1.0000 0.19941  0.30285  0.21139  Biso   1.000  He
  Ne330    1.0000 0.20295  0.31513  0.24129  Biso   1.000  Ne
  Ne331    1.0000 0.70377  0.03206  0.85691  Biso   1.000  Ne
  He331    1.0000 0.68316  0.05840  0.84962  Biso   1.000  He
  He332    1.0000 0.65504  0.06044  0.87178  Biso   1.000  He
  Ne332    1.0000 0.63700  0.08694  0.86612  Biso   1.000  Ne
  Ne333    1.0000 0.22970  0.14095  0.61266  Biso   1.000  Ne
  He333    1.0000 0.25346  0.11657  0.60516  Biso   1.000  He
  He334    1.0000 0.24825  0.08695  0.61936  Biso   1.000  He
  Ne334    1.0000 0.27157  0.06536  0.61214  Biso   1.000  Ne
  Ne335    1.0000 0.25823  0.20835  0.87312  Biso   1.000  Ne
  He335    1.0000 0.25726  0.17595  0.88435  Biso   1.000  He
  He336    1.0000 0.23480  0.16952  0.90720  Biso   1.000  He
  Ne336    1.0000 0.23860  0.13926  0.92132  Biso   1.000  Ne
  Ne337    1.0000 0.36439  0.26907  0.72085  Biso   1.000  Ne
  He337    1.0000 0.33743  0.25111  0.72954  Biso   1.000  He
  He338    1.0000 0.32638  0.23260  0.70717  Biso   1.000  He
  Ne338    1.0000 0.29694  0.21688  0.71468  Biso   1.000  Ne
  Ne339    1.0000 0.73941  0.64609  0.37205  Biso   1.000  Ne
  He339    1.0000 0.76433  0.65129  0.35088  Biso   1.000  He
  He340    1.0000 0.75466  0.67649  0.32969  Biso   1.000  He
  Ne340    1.0000 0.77948  0.69322  0.31066  Biso   1.000  Ne
  Ne341    1.0000 0.89788  0.04990  0.86124  Biso   1.000  Ne
  He341    1.0000 0.89472  0.05185  0.89426  Biso   1.000  He
  He342    1.0000 0.91400  0.03316  0.91594  Biso   1.000  He
  Ne342    1.0000 0.90527  0.03681  0.94956  Biso   1.000  Ne
  Ne343    1.0000 0.43221  0.05856  0.99476  Biso   1.000  Ne
  He343    1.0000 0.42213  0.04976  0.96415  Biso   1.000  He
  He344    1.0000 0.41837  0.01724  0.95557  Biso   1.000  He
  Ne344    1.0000 0.40452  0.01525  0.92537  Biso   1.000  Ne
  Ne345    1.0000 0.29038  0.07594  0.29379  Biso   1.000  Ne
  He345    1.0000 0.26198  0.06529  0.27996  Biso   1.000  He
  He346    1.0000 0.25925  0.07681  0.25038  Biso   1.000  He
  Ne346    1.0000 0.23134  0.06776  0.23363  Biso   1.000  Ne
  Ne347    1.0000 0.72079  0.69200  0.17487  Biso   1.000  Ne
  He347    1.0000 0.70317  0.69313  0.20404  Biso   1.000  He
  He348    1.0000 0.72011  0.68190  0.22824  Biso   1.000  He
  Ne348    1.0000 0.70161  0.68218  0.25669  Biso   1.000  Ne
  Ne349    1.0000 0.87180  0.05820  0.68354  Biso   1.000  Ne
  He349    1.0000 0.89760  0.07360  0.69359  Biso   1.000  He
  He350    1.0000 0.92376  0.06704  0.67142  Biso   1.000  He
  Ne350    1.0000 0.95394  0.07278  0.68708  Biso   1.000  Ne
  Ne351    1.0000 0.89108  0.77111  0.77827  Biso   1.000  Ne
  He351    1.0000 0.87115  0.78709  0.75686  Biso   1.000  He
  He352    1.0000 0.84655  0.80570  0.77366  Biso   1.000  He
  Ne352    1.0000 0.82564  0.82339  0.75231  Biso   1.000  Ne
  Ne353    1.0000 0.56238  0.51651  0.94249  Biso   1.000  Ne
  He353    1.0000 0.55626  0.50271  0.97220  Biso   1.000  He
  He354    1.0000 0.58274  0.48506  0.98137  Biso   1.000  He
  Ne354    1.0000 0.58469  0.48326  0.01289  Biso   1.000  Ne
  Ne355    1.0000 0.59047  0.13740  0.78161  Biso   1.000  Ne
  He355    1.0000 0.59071  0.17108  0.78969  Biso   1.000  He
  He356    1.0000 0.58221  0.17893  0.82222  Biso   1.000  He
  Ne356    1.0000 0.57789  0.21285  0.83039  Biso   1.000  Ne
  Ne357    1.0000 0.19608  0.04089  0.48256  Biso   1.000  Ne
  He357    1.0000 0.19676  0.05753  0.51154  Biso   1.000  He
  He358    1.0000 0.16712  0.06215  0.52345  Biso   1.000  He
  Ne358    1.0000 0.16616  0.08175  0.55085  Biso   1.000  Ne
  Ne359    1.0000 0.77316  0.04156  0.52326  Biso   1.000  Ne
  He359    1.0000 0.77197  0.00702  0.51950  Biso   1.000  He
  He360    1.0000 0.79205  0.99050  0.53987  Biso   1.000  He
  Ne360    1.0000 0.78369  0.95890  0.53577  Biso   1.000  Ne
  Ne361    1.0000 0.79921  0.61670  0.00486  Biso   1.000  Ne
  He361    1.0000 0.78956  0.63182  0.97636  Biso   1.000  He
  He362    1.0000 0.76606  0.61284  0.96170  Biso   1.000  He
  Ne362    1.0000 0.75863  0.61935  0.92957  Biso   1.000  Ne
  Ne363    1.0000 0.12473  0.70870  0.97662  Biso   1.000  Ne
  He363    1.0000 0.14047  0.73598  0.96353  Biso   1.000  He
  He364    1.0000 0.12101  0.76410  0.96073  Biso   1.000  He
  Ne364    1.0000 0.13751  0.78608  0.94226  Biso   1.000  Ne
  Ne365    1.0000 0.57837  0.37331  0.32803  Biso   1.000  Ne
  He365    1.0000 0.56539  0.38340  0.35484  Biso   1.000  He
  He366    1.0000 0.54412  0.36062  0.37005  Biso   1.000  He
  Ne366    1.0000 0.53267  0.37363  0.39751  Biso   1.000  Ne
  Ne367    1.0000 0.40682  0.61842  0.19157  Biso   1.000  Ne
  He367    1.0000 0.41080  0.62448  0.15931  Biso   1.000  He
  He368    1.0000 0.39360  0.60285  0.14244  Biso   1.000  He
  Ne368    1.0000 0.39087  0.60799  0.10855  Biso   1.000  Ne
  Ne369    1.0000 0.14588  0.14357  0.70437  Biso   1.000  Ne
  He369    1.0000 0.17887  0.15132  0.69898  Biso   1.000  He
  He370    1.0000 0.18923  0.17060  0.72407  Biso   1.000  He
  Ne370    1.0000 0.22062  0.17858  0.72914  Biso   1.000  Ne
  Ne371    1.0000 0.79813  0.92927  0.35539  Biso   1.000  Ne
  He371    1.0000 0.78703  0.94905  0.38092  Biso   1.000  He
  He372    1.0000 0.79230  0.98303  0.37588  Biso   1.000  He
  Ne372    1.0000 0.79017  0.00027  0.40242  Biso   1.000  Ne
  Ne373    1.0000 0.08104  0.88110  0.14788  Biso   1.000  Ne
  He373    1.0000 0.08405  0.89168  0.11510  Biso   1.000  He
  He374    1.0000 0.08161  0.92562  0.10584  Biso   1.000  He
  Ne374    1.0000 0.08604  0.93058  0.07465  Biso   1.000  Ne
  Ne375    1.0000 0.36943  0.72979  0.79289  Biso   1.000  Ne
  He375    1.0000 0.36800  0.74047  0.82371  Biso   1.000  He
  He376    1.0000 0.36821  0.77252  0.82578  Biso   1.000  He
  Ne376    1.0000 0.36930  0.78430  0.85574  Biso   1.000  Ne
  Ne377    1.0000 0.77360  0.39864  0.98887  Biso   1.000  Ne
  He377    1.0000 0.77752  0.42596  0.00372  Biso   1.000  He
  He378    1.0000 0.81007  0.43558  0.01166  Biso   1.000  He
  Ne378    1.0000 0.81396  0.46301  0.03120  Biso   1.000  Ne
  Ne379    1.0000 0.77553  0.87202  0.78917  Biso   1.000  Ne
  He379    1.0000 0.75807  0.85044  0.81248  Biso   1.000  He
  He380    1.0000 0.75149  0.82352  0.79967  Biso   1.000  He
  Ne380    1.0000 0.73729  0.80383  0.82033  Biso   1.000  Ne
  Ne381    1.0000 0.51751  0.09293  0.81806  Biso   1.000  Ne
  He381    1.0000 0.50301  0.09192  0.84898  Biso   1.000  He
  He382    1.0000 0.46972  0.09075  0.84761  Biso   1.000  He
  Ne382    1.0000 0.45411  0.08010  0.87667  Biso   1.000  Ne
  Ne383    1.0000 0.03769  0.55285  0.55952  Biso   1.000  Ne
  He383    1.0000 0.05296  0.55595  0.58970  Biso   1.000  He
  He384    1.0000 0.08639  0.55917  0.58481  Biso   1.000  He
  Ne384    1.0000 0.10375  0.55482  0.61194  Biso   1.000  Ne
  Ne385    1.0000 0.12580  0.49466  0.07032  Biso   1.000  Ne
  He385    1.0000 0.13574  0.52734  0.06459  Biso   1.000  He
  He386    1.0000 0.11735  0.54398  0.04362  Biso   1.000  He
  Ne386    1.0000 0.12769  0.57616  0.03915  Biso   1.000  Ne
  Ne387    1.0000 0.10892  0.65429  0.68790  Biso   1.000  Ne
  He387    1.0000 0.11301  0.65320  0.65434  Biso   1.000  He
  He388    1.0000 0.11538  0.68201  0.63604  Biso   1.000  He
  Ne388    1.0000 0.11541  0.67982  0.60151  Biso   1.000  Ne
  Ne389    1.0000 0.20554  0.29797  0.40180  Biso   1.000  Ne
  He389    1.0000 0.18175  0.31417  0.41774  Biso   1.000  He
  He390    1.0000 0.17228  0.30155  0.44637  Biso   1.000  He
  Ne390    1.0000 0.15005  0.31464  0.46394  Biso   1.000  Ne
  Ne391    1.0000 0.62586  0.80624  0.01791  Biso   1.000  Ne
  He391    1.0000 0.59949  0.80585  0.99960  Biso   1.000  He
  He392    1.0000 0.60520  0.80891  0.96571  Biso   1.000  He
  Ne392    1.0000 0.57986  0.80453  0.94698  Biso   1.000  Ne
  Ne393    1.0000 0.79404  0.91978  0.67591  Biso   1.000  Ne
  He393    1.0000 0.78434  0.94966  0.66335  Biso   1.000  He
  He394    1.0000 0.80858  0.97204  0.66069  Biso   1.000  He
  Ne394    1.0000 0.79810  0.00220  0.64909  Biso   1.000  Ne
  Ne395    1.0000 0.18071  0.75974  0.70005  Biso   1.000  Ne
  He395    1.0000 0.15022  0.74353  0.69431  Biso   1.000  He
  He396    1.0000 0.12453  0.76177  0.70401  Biso   1.000  He
  Ne396    1.0000 0.09515  0.74348  0.70581  Biso   1.000  Ne
  Ne397    1.0000 0.43396  0.37393  0.76105  Biso   1.000  Ne
  He397    1.0000 0.43528  0.37667  0.79313  Biso   1.000  He
  He398    1.0000 0.41199  0.35858  0.80828  Biso   1.000  He
  Ne398    1.0000 0.41955  0.35343  0.84035  Biso   1.000  Ne
  Ne399    1.0000 0.09209  0.79831  0.38850  Biso   1.000  Ne
  He399    1.0000 0.07662  0.79749  0.41795  Biso   1.000  He
  He400    1.0000 0.05775  0.77197  0.42359  Biso   1.000  He
  Ne400    1.0000 0.04378  0.76982  0.45578  Biso   1.000  Ne
  Ne401    1.0000 0.74364  0.62067  0.48842  Biso   1.000  Ne
  He401    1.0000 0.74462  0.64592  0.46474  Biso   1.000  He
  He402    1.0000 0.77534  0.65297  0.45393  Biso   1.000  He
  Ne402    1.0000 0.77414  0.67937  0.43075  Biso   1.000  Ne
  Ne403    1.0000 0.87636  0.66868  0.95844  Biso   1.000  Ne
  He403    1.0000 0.87768  0.69148  0.93471  Biso   1.000  He
  He404    1.0000 0.85074  0.71482  0.93685  Biso   1.000  He
  Ne404    1.0000 0.85230  0.73808  0.91237  Biso   1.000  Ne
  Ne405    1.0000 0.25198  0.04470  0.08718  Biso   1.000  Ne
  He405    1.0000 0.24851  0.05983  0.11790  Biso   1.000  He
  He406    1.0000 0.21727  0.06701  0.12426  Biso   1.000  He
  Ne406    1.0000 0.21478  0.08013  0.15521  Biso   1.000  Ne
  Ne407    1.0000 0.09080  0.69636  0.36720  Biso   1.000  Ne
  He407    1.0000 0.09511  0.69180  0.39724  Biso   1.000  He
  He408    1.0000 0.10667  0.66161  0.40442  Biso   1.000  He
  Ne408    1.0000 0.11345  0.65594  0.43727  Biso   1.000  Ne
  Ne409    1.0000 0.54416  0.94626  0.60170  Biso   1.000  Ne
  He409    1.0000 0.54772  0.97893  0.59677  Biso   1.000  He
  He410    1.0000 0.53866  0.99974  0.62265  Biso   1.000  He
  Ne410    1.0000 0.54717  0.03270  0.62162  Biso   1.000  Ne
  Ne411    1.0000 0.55467  0.59397  0.30516  Biso   1.000  Ne
  He411    1.0000 0.55194  0.58651  0.27199  Biso   1.000  He
  He412    1.0000 0.58002  0.58168  0.25441  Biso   1.000  He
  Ne412    1.0000 0.57281  0.57510  0.22141  Biso   1.000  Ne
  Ne413    1.0000 0.21136  0.47670  0.01126  Biso   1.000  Ne
  He413    1.0000 0.18619  0.45344  0.00954  Biso   1.000  He
  He414    1.0000 0.19854  0.42383  0.99498  Biso   1.000  He
  Ne414    1.0000 0.17419  0.39943  0.98969  Biso   1.000  Ne
  Ne415    1.0000 0.73185  0.03983  0.14510  Biso   1.000  Ne
  He415    1.0000 0.76384  0.04510  0.14927  Biso   1.000  He
  He416    1.0000 0.78049  0.04192  0.12033  Biso   1.000  He
  Ne416    1.0000 0.80983  0.05635  0.11603  Biso   1.000  Ne
  Ne417    1.0000 0.45169  0.06060  0.30528  Biso   1.000  Ne
  He417    1.0000 0.42980  0.08316  0.29542  Biso   1.000  He
  He418    1.0000 0.43857  0.10379  0.27254  Biso   1.000  He
  Ne418    1.0000 0.41388  0.12193  0.25920  Biso   1.000  Ne
  Ne419    1.0000 0.25548  0.93147  0.89875  Biso   1.000  Ne
  He419    1.0000 0.26466  0.90728  0.92035  Biso   1.000  He
  He420    1.0000 0.24928  0.90608  0.94813  Biso   1.000  He
  Ne420    1.0000 0.26199  0.88139  0.96752  Biso   1.000  Ne
  Ne421    1.0000 0.74092  0.24978  0.65574  Biso   1.000  Ne
  He421    1.0000 0.76181  0.25660  0.63172  Biso   1.000  He
  He422    1.0000 0.77321  0.23192  0.61373  Biso   1.000  He
  Ne422    1.0000 0.79848  0.24271  0.59237  Biso   1.000  Ne
  Ne423    1.0000 0.84099  0.52183  0.22951  Biso   1.000  Ne
  He423    1.0000 0.84093  0.54934  0.24882  Biso   1.000  He
  He424    1.0000 0.83275  0.54173  0.27878  Biso   1.000  He
  Ne424    1.0000 0.82462  0.56915  0.29678  Biso   1.000  Ne
  Ne425    1.0000 0.80411  0.25518  0.19280  Biso   1.000  Ne
  He425    1.0000 0.77908  0.25954  0.21605  Biso   1.000  He
  He426    1.0000 0.78927  0.27851  0.24280  Biso   1.000  He
  Ne426    1.0000 0.76871  0.28393  0.26686  Biso   1.000  Ne
  Ne427    1.0000 0.14708  0.14937  0.95434  Biso   1.000  Ne
  He427    1.0000 0.15657  0.11706  0.95268  Biso   1.000  He
  He428    1.0000 0.16233  0.10283  0.92333  Biso   1.000  He
  Ne428    1.0000 0.17755  0.07076  0.92142  Biso   1.000  Ne
  Ne429    1.0000 0.47997  0.24346  0.55461  Biso   1.000  Ne
  He429    1.0000 0.48881  0.26291  0.57918  Biso   1.000  He
  He430    1.0000 0.51484  0.25365  0.59813  Biso   1.000  He
  Ne430    1.0000 0.52207  0.27747  0.61660  Biso   1.000  Ne
  Ne431    1.0000 0.94765  0.88136  0.39801  Biso   1.000  Ne
  He431    1.0000 0.96927  0.86102  0.41730  Biso   1.000  He
  He432    1.0000 0.95626  0.85237  0.44679  Biso   1.000  He
  Ne432    1.0000 0.97755  0.83140  0.46531  Biso   1.000  Ne
  Ne433    1.0000 0.83695  0.58816  0.76348  Biso   1.000  Ne
  He433    1.0000 0.81384  0.56362  0.77334  Biso   1.000  He
  He434    1.0000 0.82016  0.54677  0.79969  Biso   1.000  He
  Ne434    1.0000 0.79463  0.52456  0.81005  Biso   1.000  Ne
  Ne435    1.0000 0.11067  0.72471  0.87794  Biso   1.000  Ne
  He435    1.0000 0.08592  0.70126  0.88379  Biso   1.000  He
  He436    1.0000 0.07098  0.70649  0.91177  Biso   1.000  He
  Ne436    1.0000 0.04518  0.68506  0.91614  Biso   1.000  Ne
  Ne437    1.0000 0.66240  0.95523  0.91997  Biso   1.000  Ne
  He437    1.0000 0.67757  0.93478  0.94245  Biso   1.000  He
  He438    1.0000 0.70150  0.91528  0.92718  Biso   1.000  He
  Ne438    1.0000 0.71384  0.89481  0.94856  Biso   1.000  Ne
  Ne439    1.0000 0.49726  0.85375  0.20997  Biso   1.000  Ne
  He439    1.0000 0.48468  0.82053  0.20412  Biso   1.000  He
  He440    1.0000 0.50408  0.80410  0.17982  Biso   1.000  He
  Ne440    1.0000 0.53027  0.78863  0.19130  Biso   1.000  Ne
  Ne441    1.0000 0.31338  0.22589  0.31677  Biso   1.000  Ne
  He441    1.0000 0.28895  0.21226  0.33262  Biso   1.000  He
  He442    1.0000 0.29592  0.19480  0.35955  Biso   1.000  He
  Ne442    1.0000 0.27075  0.17823  0.37336  Biso   1.000  Ne
  Ne443    1.0000 0.62907  0.04704  0.71251  Biso   1.000  Ne
  He443    1.0000 0.59602  0.04547  0.70173  Biso   1.000  He
  He444    1.0000 0.57228  0.04315  0.72550  Biso   1.000  He
  Ne444    1.0000 0.55709  0.07080  0.73534  Biso   1.000  Ne
  Ne445    1.0000 0.79600  0.79236  0.34701  Biso   1.000  Ne
  He445    1.0000 0.78074  0.82027  0.35657  Biso   1.000  He
  He446    1.0000 0.75596  0.82824  0.33725  Biso   1.000  He
  Ne446    1.0000 0.74770  0.85825  0.34198  Biso   1.000  Ne
  Ne447    1.0000 0.05883  0.06309  0.88870  Biso   1.000  Ne
  He447    1.0000 0.08843  0.05225  0.87798  Biso   1.000  He
  He448    1.0000 0.09627  0.06768  0.84972  Biso   1.000  He
  Ne448    1.0000 0.12595  0.05984  0.83917  Biso   1.000  Ne
  Ne449    1.0000 0.46222  0.00963  0.22656  Biso   1.000  Ne
  He449    1.0000 0.47605  0.98012  0.23722  Biso   1.000  He
  He450    1.0000 0.45234  0.95730  0.23592  Biso   1.000  He
  Ne450    1.0000 0.46437  0.92540  0.24038  Biso   1.000  Ne
  Ne451    1.0000 0.19603  0.65143  0.18174  Biso   1.000  Ne
  He451    1.0000 0.20975  0.67988  0.18790  Biso   1.000  He
  He452    1.0000 0.19000  0.70741  0.18471  Biso   1.000  He
  Ne452    1.0000 0.19774  0.73096  0.20363  Biso   1.000  Ne
  Ne453    1.0000 0.26441  0.05146  0.94501  Biso   1.000  Ne
  He453    1.0000 0.26432  0.02837  0.96825  Biso   1.000  He
  He454    1.0000 0.28104  0.99922  0.95963  Biso   1.000  He
  Ne454    1.0000 0.28403  0.97584  0.98317  Biso   1.000  Ne
  Ne455    1.0000 0.07221  0.95566  0.96350  Biso   1.000  Ne
  He455    1.0000 0.04160  0.96684  0.96701  Biso   1.000  He
  He456    1.0000 0.01652  0.94544  0.95768  Biso   1.000  He
  Ne456    1.0000 0.98445  0.95781  0.96887  Biso   1.000  Ne
  Ne457    1.0000 0.17548  0.45182  0.91887  Biso   1.000  Ne
  He457    1.0000 0.15448  0.44181  0.89585  Biso   1.000  He
  He458    1.0000 0.17041  0.42255  0.87151  Biso   1.000  He
  Ne458    1.0000 0.15352  0.42124  0.84205  Biso   1.000  Ne
  Ne459    1.0000 0.08069  0.96432  0.56723  Biso   1.000  Ne
  He459    1.0000 0.08751  0.99635  0.56113  Biso   1.000  He
  He460    1.0000 0.09180  0.00232  0.52804  Biso   1.000  He
  Ne460    1.0000 0.09738  0.03483  0.51628  Biso   1.000  Ne
  Ne461    1.0000 0.38302  0.21032  0.37649  Biso   1.000  Ne
  He461    1.0000 0.38873  0.18130  0.36018  Biso   1.000  He
  He462    1.0000 0.41968  0.16769  0.36665  Biso   1.000  He
  Ne462    1.0000 0.42660  0.13706  0.35479  Biso   1.000  Ne
  Ne463    1.0000 0.76560  0.28231  0.88188  Biso   1.000  Ne
  He463    1.0000 0.73280  0.28019  0.87193  Biso   1.000  He
  He464    1.0000 0.71960  0.30804  0.86303  Biso   1.000  He
  Ne464    1.0000 0.68697  0.30365  0.85229  Biso   1.000  Ne
  Ne465    1.0000 0.77915  0.39050  0.43944  Biso   1.000  Ne
  He465    1.0000 0.81051  0.38032  0.43054  Biso   1.000  He
  He466    1.0000 0.83280  0.37609  0.45966  Biso   1.000  He
  Ne466    1.0000 0.85086  0.40194  0.46642  Biso   1.000  Ne
  Ne467    1.0000 0.65330  0.16620  0.26255  Biso   1.000  Ne
  He467    1.0000 0.67979  0.15169  0.27780  Biso   1.000  He
  He468    1.0000 0.68114  0.15676  0.30949  Biso   1.000  He
  Ne468    1.0000 0.70968  0.15160  0.32255  Biso   1.000  Ne
  Ne469    1.0000 0.16412  0.84892  0.78542  Biso   1.000  Ne
  He469    1.0000 0.15652  0.86824  0.76103  Biso   1.000  He
  He470    1.0000 0.15860  0.85493  0.73323  Biso   1.000  He
  Ne470    1.0000 0.16148  0.87109  0.70567  Biso   1.000  Ne
  Ne471    1.0000 0.12987  0.87758  0.23342  Biso   1.000  Ne
  He471    1.0000 0.15496  0.86601  0.25219  Biso   1.000  He
  He472    1.0000 0.14744  0.86525  0.28374  Biso   1.000  He
  Ne472    1.0000 0.17322  0.86513  0.30437  Biso   1.000  Ne
  Ne473    1.0000 0.98736  0.63075  0.21993  Biso   1.000  Ne
  He473    1.0000 0.96349  0.63922  0.23924  Biso   1.000  He
  He474    1.0000 0.96994  0.66600  0.25554  Biso   1.000  He
  Ne474    1.0000 0.94124  0.68025  0.26858  Biso   1.000  Ne
  Ne475    1.0000 0.17850  0.52881  0.66394  Biso   1.000  Ne
  He475    1.0000 0.19498  0.55637  0.65491  Biso   1.000  He
  He476    1.0000 0.18352  0.57495  0.62816  Biso   1.000  He
  Ne476    1.0000 0.20146  0.60281  0.62166  Biso   1.000  Ne
  Ne477    1.0000 0.43124  0.91930  0.02006  Biso   1.000  Ne
  He477    1.0000 0.40496  0.93196  0.00688  Biso   1.000  He
  He478    1.0000 0.39690  0.96345  0.01631  Biso   1.000  He
  Ne478    1.0000 0.36806  0.97333  0.00640  Biso   1.000  Ne
  Ne479    1.0000 0.12886  0.96623  0.71926  Biso   1.000  Ne
  He479    1.0000 0.09884  0.97786  0.72539  Biso   1.000  He
  He480    1.0000 0.07421  0.95534  0.73644  Biso   1.000  He
  Ne480    1.0000 0.04181  0.96747  0.73961  Biso   1.000  Ne
  Ne481    1.0000 0.40327  0.29189  0.12402  Biso   1.000  Ne
  He481    1.0000 0.40175  0.26541  0.14426  Biso   1.000  He
  He482    1.0000 0.36972  0.25432  0.14256  Biso   1.000  He
  Ne482    1.0000 0.36142  0.22643  0.16279  Biso   1.000  Ne
  Ne483    1.0000 0.99942  0.81201  0.34994  Biso   1.000  Ne
  He483    1.0000 0.00968  0.84305  0.35298  Biso   1.000  He
  He484    1.0000 0.03823  0.84849  0.33777  Biso   1.000  He
  Ne484    1.0000 0.05030  0.88049  0.34382  Biso   1.000  Ne
  Ne485    1.0000 0.33701  0.36963  0.78088  Biso   1.000  Ne
  He485    1.0000 0.32889  0.37495  0.74669  Biso   1.000  He
  He486    1.0000 0.32485  0.34731  0.73160  Biso   1.000  He
  Ne486    1.0000 0.31527  0.34937  0.69913  Biso   1.000  Ne
  Ne487    1.0000 0.58224  0.05134  0.04122  Biso   1.000  Ne
  He487    1.0000 0.58784  0.02328  0.02532  Biso   1.000  He
  He488    1.0000 0.56254  0.01301  0.00571  Biso   1.000  He
  Ne488    1.0000 0.57402  0.98824  0.98885  Biso   1.000  Ne
  Ne489    1.0000 0.69357  0.83437  0.71233  Biso   1.000  Ne
  He489    1.0000 0.68030  0.85159  0.73982  Biso   1.000  He
  He490    1.0000 0.70246  0.87548  0.75000  Biso   1.000  He
  Ne490    1.0000 0.69360  0.89443  0.77596  Biso   1.000  Ne
  Ne491    1.0000 0.19485  0.71550  0.88800  Biso   1.000  Ne
  He491    1.0000 0.19395  0.74647  0.89809  Biso   1.000  He
  He492    1.0000 0.21549  0.75249  0.92573  Biso   1.000  He
  Ne492    1.0000 0.21702  0.78539  0.93365  Biso   1.000  Ne
  Ne493    1.0000 0.43922  0.75945  0.15807  Biso   1.000  Ne
  He493    1.0000 0.40890  0.77640  0.16116  Biso   1.000  He
  He494    1.0000 0.38319  0.75468  0.15789  Biso   1.000  He
  Ne494    1.0000 0.35389  0.77046  0.16320  Biso   1.000  Ne
  Ne495    1.0000 0.43495  0.26967  0.67124  Biso   1.000  Ne
  He495    1.0000 0.45523  0.28940  0.68830  Biso   1.000  He
  He496    1.0000 0.45431  0.28568  0.72358  Biso   1.000  He
  Ne496    1.0000 0.47362  0.30874  0.73812  Biso   1.000  Ne
  Ne497    1.0000 0.98713  0.00585  0.60091  Biso   1.000  Ne
  He497    1.0000 0.97523  0.00557  0.56959  Biso   1.000  He
  He498    1.0000 0.95110  0.98202  0.56234  Biso   1.000  He
  Ne498    1.0000 0.93675  0.98259  0.53409  Biso   1.000  Ne
  Ne499    1.0000 0.89432  0.45719  0.20461  Biso   1.000  Ne
  He499    1.0000 0.86371  0.45240  0.19414  Biso   1.000  He
  He500    1.0000 0.84246  0.43951  0.21666  Biso   1.000  He
  Ne500    1.0000 0.81148  0.43185  0.20941  Biso   1.000  Ne
  Ne501    1.0000 0.62077  0.76745  0.43468  Biso   1.000  Ne
  He501    1.0000 0.61425  0.78619  0.40810  Biso   1.000  He
  He502    1.0000 0.58204  0.78406  0.39617  Biso   1.000  He
  Ne502    1.0000 0.58076  0.80394  0.36863  Biso   1.000  Ne
  Ne503    1.0000 0.61317  0.47456  0.68384  Biso   1.000  Ne
  He503    1.0000 0.63502  0.45208  0.68693  Biso   1.000  He
  He504    1.0000 0.64149  0.44495  0.71892  Biso   1.000  He
  Ne504    1.0000 0.66894  0.42639  0.72302  Biso   1.000  Ne
  Ne505    1.0000 0.17855  0.14444  0.47169  Biso   1.000  Ne
  He505    1.0000 0.20124  0.12416  0.45577  Biso   1.000  He
  He506    1.0000 0.21827  0.13815  0.43302  Biso   1.000  He
  Ne506    1.0000 0.23739  0.11576  0.41958  Biso   1.000  Ne
  Ne507    1.0000 0.94447  0.53301  0.28734  Biso   1.000  Ne
  He507    1.0000 0.92947  0.52708  0.25751  Biso   1.000  He
  He508    1.0000 0.93288  0.54918  0.23361  Biso   1.000  He
  Ne508    1.0000 0.92383  0.53716  0.20595  Biso   1.000  Ne
  Ne509    1.0000 0.80335  0.30892  0.02824  Biso   1.000  Ne
  He509    1.0000 0.78119  0.32726  0.04329  Biso   1.000  He
  He510    1.0000 0.79656  0.34902  0.06165  Biso   1.000  He
  Ne510    1.0000 0.77757  0.37382  0.07649  Biso   1.000  Ne
  Ne511    1.0000 0.31257  0.99125  0.13858  Biso   1.000  Ne
  He511    1.0000 0.32395  0.96231  0.12113  Biso   1.000  He
  He512    1.0000 0.29768  0.94277  0.11083  Biso   1.000  He
  Ne512    1.0000 0.30632  0.91639  0.09398  Biso   1.000  Ne
  Ne513    1.0000 0.46316  0.75733  0.99257  Biso   1.000  Ne
  He513    1.0000 0.48100  0.75723  0.96208  Biso   1.000  He
  He514    1.0000 0.51190  0.74832  0.96161  Biso   1.000  He
  Ne514    1.0000 0.52883  0.75370  0.93274  Biso   1.000  Ne
  Ne515    1.0000 0.41900  0.27109  0.81133  Biso   1.000  Ne
  He515    1.0000 0.39258  0.24860  0.81932  Biso   1.000  He
  He516    1.0000 0.36386  0.26433  0.82316  Biso   1.000  He
  Ne516    1.0000 0.33753  0.24319  0.83208  Biso   1.000  Ne
  Ne517    1.0000 0.94994  0.41946  0.27179  Biso   1.000  Ne
  He517    1.0000 0.93642  0.40027  0.25083  Biso   1.000  He
  He518    1.0000 0.95455  0.39091  0.22382  Biso   1.000  He
  Ne518    1.0000 0.93847  0.37423  0.20025  Biso   1.000  Ne
  Ne519    1.0000 0.38418  0.03333  0.08671  Biso   1.000  Ne
  He519    1.0000 0.36847  0.04024  0.05783  Biso   1.000  He
  He520    1.0000 0.34224  0.06324  0.05708  Biso   1.000  He
  Ne520    1.0000 0.32829  0.06442  0.02588  Biso   1.000  Ne
  Ne521    1.0000 0.90326  0.79778  0.13002  Biso   1.000  Ne
  He521    1.0000 0.90323  0.76662  0.12508  Biso   1.000  He
  He522    1.0000 0.91262  0.76121  0.09505  Biso   1.000  He
  Ne522    1.0000 0.90993  0.72792  0.08709  Biso   1.000  Ne
  Ne523    1.0000 0.06133  0.54886  0.45210  Biso   1.000  Ne
  He523    1.0000 0.05024  0.52108  0.46837  Biso   1.000  He
  He524    1.0000 0.03429  0.49968  0.44972  Biso   1.000  He
  Ne524    1.0000 0.02004  0.47251  0.46628  Biso   1.000  Ne
  Ne525    1.0000 0.84535  0.26512  0.92781  Biso   1.000  Ne
  He525    1.0000 0.85579  0.29030  0.94954  Biso   1.000  He
  He526    1.0000 0.87397  0.31410  0.93278  Biso   1.000  He
  Ne526    1.0000 0.88084  0.34176  0.95241  Biso   1.000  Ne
  Ne527    1.0000 0.17506  0.13808  0.23701  Biso   1.000  Ne
  He527    1.0000 0.18704  0.15256  0.26599  Biso   1.000  He
  He528    1.0000 0.20938  0.13644  0.28497  Biso   1.000  He
  Ne528    1.0000 0.22337  0.15531  0.30923  Biso   1.000  Ne
  Ne529    1.0000 0.40688  0.84131  0.98825  Biso   1.000  Ne
  He529    1.0000 0.38293  0.82866  0.00405  Biso   1.000  He
  He530    1.0000 0.37554  0.79860  0.99673  Biso   1.000  He
  Ne530    1.0000 0.35093  0.78449  0.01584  Biso   1.000  Ne
  Ne531    1.0000 0.47129  0.91739  0.91796  Biso   1.000  Ne
  He531    1.0000 0.47496  0.95136  0.91414  Biso   1.000  He
  He532    1.0000 0.50675  0.96141  0.90269  Biso   1.000  He
  Ne532    1.0000 0.51096  0.99277  0.90360  Biso   1.000  Ne
  Ne533    1.0000 0.58813  0.59371  0.10465  Biso   1.000  Ne
  He533    1.0000 0.57195  0.56641  0.09307  Biso   1.000  He
  He534    1.0000 0.55227  0.54747  0.11739  Biso   1.000  He
  Ne534    1.0000 0.53995  0.51953  0.10616  Biso   1.000  Ne
  Ne535    1.0000 0.21145  0.80336  0.42142  Biso   1.000  Ne
  He535    1.0000 0.17793  0.79366  0.42552  Biso   1.000  He
  He536    1.0000 0.17242  0.78242  0.45580  Biso   1.000  He
  Ne536    1.0000 0.13983  0.77093  0.45786  Biso   1.000  Ne
  Ne537    1.0000 0.74640  0.80157  0.90173  Biso   1.000  Ne
  He537    1.0000 0.72900  0.81604  0.92818  Biso   1.000  He
  He538    1.0000 0.70977  0.79420  0.94232  Biso   1.000  He
  Ne538    1.0000 0.69390  0.80689  0.97023  Biso   1.000  Ne
  Ne539    1.0000 0.73608  0.05282  0.42589  Biso   1.000  Ne
  He539    1.0000 0.70022  0.04260  0.42730  Biso   1.000  He
  He540    1.0000 0.68238  0.05802  0.44697  Biso   1.000  He
  Ne540    1.0000 0.65097  0.04752  0.45021  Biso   1.000  Ne
  Ne541    1.0000 0.49566  0.99844  0.07816  Biso   1.000  Ne
  He541    1.0000 0.52356  0.98727  0.09147  Biso   1.000  He
  He542    1.0000 0.53275  0.00341  0.11868  Biso   1.000  He
  Ne542    1.0000 0.55910  0.99130  0.13496  Biso   1.000  Ne
  Ne543    1.0000 0.57518  0.29750  0.32419  Biso   1.000  Ne
  He543    1.0000 0.57283  0.27276  0.30231  Biso   1.000  He
  He544    1.0000 0.60381  0.26166  0.29273  Biso   1.000  He
  Ne544    1.0000 0.59981  0.23722  0.27068  Biso   1.000  Ne
  Ne545    1.0000 0.83777  0.37134  0.74313  Biso   1.000  Ne
  He545    1.0000 0.86107  0.38676  0.72564  Biso   1.000  He
  He546    1.0000 0.89164  0.37536  0.72620  Biso   1.000  He
  Ne546    1.0000 0.91224  0.39851  0.71223  Biso   1.000  Ne
  Ne547    1.0000 0.63777  0.38621  0.96610  Biso   1.000  Ne
  He547    1.0000 0.64216  0.39200  0.93365  Biso   1.000  He
  He548    1.0000 0.66428  0.37705  0.91670  Biso   1.000  He
  Ne548    1.0000 0.66689  0.39238  0.88665  Biso   1.000  Ne
  Ne549    1.0000 0.44198  0.62710  0.74490  Biso   1.000  Ne
  He549    1.0000 0.42391  0.60904  0.76821  Biso   1.000  He
  He550    1.0000 0.40593  0.58540  0.75643  Biso   1.000  He
  Ne550    1.0000 0.38955  0.56373  0.77746  Biso   1.000  Ne
  Ne551    1.0000 0.66372  0.34670  0.76093  Biso   1.000  Ne
  He551    1.0000 0.66171  0.34494  0.72801  Biso   1.000  He
  He552    1.0000 0.68943  0.34457  0.71199  Biso   1.000  He
  Ne552    1.0000 0.68476  0.33729  0.68032  Biso   1.000  Ne
  Ne553    1.0000 0.17498  0.95527  0.35567  Biso   1.000  Ne
  He553    1.0000 0.18448  0.97441  0.37948  Biso   1.000  He
  He554    1.0000 0.16046  0.99829  0.38379  Biso   1.000  He
  Ne554    1.0000 0.14049  0.99412  0.41176  Biso   1.000  Ne
  Ne555    1.0000 0.36927  0.38901  0.44036  Biso   1.000  Ne
  He555    1.0000 0.37262  0.35674  0.43730  Biso   1.000  He
  He556    1.0000 0.34678  0.34024  0.42279  Biso   1.000  He
  Ne556    1.0000 0.34901  0.30630  0.41829  Biso   1.000  Ne
  Ne557    1.0000 0.31408  0.17228  0.25154  Biso   1.000  Ne
  He557    1.0000 0.29530  0.17204  0.22523  Biso   1.000  He
  He558    1.0000 0.27164  0.14815  0.22510  Biso   1.000  He
  Ne558    1.0000 0.25154  0.15010  0.19897  Biso   1.000  Ne
  Ne559    1.0000 0.74643  0.52837  0.94412  Biso   1.000  Ne
  He559    1.0000 0.77502  0.51872  0.93598  Biso   1.000  He
  He560    1.0000 0.79035  0.50262  0.95868  Biso   1.000  He
  Ne560    1.0000 0.82099  0.49311  0.95063  Biso   1.000  Ne
  Ne561    1.0000 0.29802  0.43803  0.39272  Biso   1.000  Ne
  He561    1.0000 0.31975  0.46071  0.40682  Biso   1.000  He
  He562    1.0000 0.31025  0.47112  0.43749  Biso   1.000  He
  Ne562    1.0000 0.32727  0.49904  0.44740  Biso   1.000  Ne
  Ne563    1.0000 0.19194  0.40883  0.26532  Biso   1.000  Ne
  He563    1.0000 0.16890  0.40863  0.24239  Biso   1.000  He
  He564    1.0000 0.15560  0.37810  0.24183  Biso   1.000  He
  Ne564    1.0000 0.13209  0.38033  0.21518  Biso   1.000  Ne
  Ne565    1.0000 0.60914  0.50503  0.32318  Biso   1.000  Ne
  He565    1.0000 0.62869  0.47815  0.32431  Biso   1.000  He
  He566    1.0000 0.64046  0.46696  0.35443  Biso   1.000  He
  Ne566    1.0000 0.66120  0.44118  0.35311  Biso   1.000  Ne
  Ne567    1.0000 0.77017  0.28174  0.96215  Biso   1.000  Ne
  He567    1.0000 0.73645  0.27688  0.97203  Biso   1.000  He
  He568    1.0000 0.71479  0.28714  0.95167  Biso   1.000  He
  Ne568    1.0000 0.68404  0.28343  0.96165  Biso   1.000  Ne
  Ne569    1.0000 0.00868  0.04925  0.46587  Biso   1.000  Ne
  He569    1.0000 0.99564  0.04184  0.43616  Biso   1.000  He
  He570    1.0000 0.99808  0.00771  0.43136  Biso   1.000  He
  Ne570    1.0000 0.02450  0.99685  0.41220  Biso   1.000  Ne
  Ne571    1.0000 0.14123  0.78789  0.13679  Biso   1.000  Ne
  He571    1.0000 0.11466  0.77572  0.12264  Biso   1.000  He
  He572    1.0000 0.08917  0.76576  0.14317  Biso   1.000  He
  Ne572    1.0000 0.06384  0.75583  0.12451  Biso   1.000  Ne
  Ne573    1.0000 0.80811  0.76894  0.23132  Biso   1.000  Ne
  He573    1.0000 0.77585  0.77564  0.23951  Biso   1.000  He
  He574    1.0000 0.75573  0.77548  0.21325  Biso   1.000  He
  Ne574    1.0000 0.72314  0.78536  0.21819  Biso   1.000  Ne
  Ne575    1.0000 0.87467  0.48757  0.11758  Biso   1.000  Ne
  He575    1.0000 0.84641  0.48796  0.10074  Biso   1.000  He
  He576    1.0000 0.82139  0.48654  0.12219  Biso   1.000  He
  Ne576    1.0000 0.79126  0.48499  0.10753  Biso   1.000  Ne
  Ne577    1.0000 0.27444  0.74338  0.36450  Biso   1.000  Ne
  He577    1.0000 0.29217  0.72857  0.33991  Biso   1.000  He
  He578    1.0000 0.28727  0.69839  0.33509  Biso   1.000  He
  Ne578    1.0000 0.30581  0.68135  0.31260  Biso   1.000  Ne
  Ne579    1.0000 0.31935  0.08441  0.85156  Biso   1.000  Ne
  He579    1.0000 0.33514  0.10316  0.82919  Biso   1.000  He
  He580    1.0000 0.36293  0.11429  0.84284  Biso   1.000  He
  Ne580    1.0000 0.38087  0.13460  0.82359  Biso   1.000  Ne
  Ne581    1.0000 0.40978  0.83236  0.72307  Biso   1.000  Ne
  He581    1.0000 0.39864  0.83698  0.69150  Biso   1.000  He
  He582    1.0000 0.41046  0.81689  0.66967  Biso   1.000  He
  Ne582    1.0000 0.40084  0.82090  0.63968  Biso   1.000  Ne
  Ne583    1.0000 0.73074  0.69437  0.67752  Biso   1.000  Ne
  He583    1.0000 0.73855  0.70398  0.64544  Biso   1.000  He
  He584    1.0000 0.71833  0.72737  0.63159  Biso   1.000  He
  Ne584    1.0000 0.72918  0.74064  0.60320  Biso   1.000  Ne
  Ne585    1.0000 0.39816  0.21459  0.90025  Biso   1.000  Ne
  He585    1.0000 0.41859  0.22095  0.92487  Biso   1.000  He
  He586    1.0000 0.40416  0.23643  0.95144  Biso   1.000  He
  Ne586    1.0000 0.42615  0.24699  0.97554  Biso   1.000  Ne
  Ne587    1.0000 0.33307  0.67161  0.13269  Biso   1.000  Ne
  He587    1.0000 0.31375  0.65021  0.14653  Biso   1.000  He
  He588    1.0000 0.29943  0.65993  0.17642  Biso   1.000  He
  Ne588    1.0000 0.27815  0.63750  0.18786  Biso   1.000  Ne
  Ne589    1.0000 0.37278  0.34761  0.53540  Biso   1.000  Ne
  He589    1.0000 0.37366  0.31508  0.53737  Biso   1.000  He
  He590    1.0000 0.39586  0.30059  0.51504  Biso   1.000  He
  Ne590    1.0000 0.40899  0.27110  0.52726  Biso   1.000  Ne
  Ne591    1.0000 0.66165  0.14919  0.69509  Biso   1.000  Ne
  He591    1.0000 0.64608  0.17886  0.69737  Biso   1.000  He
  He592    1.0000 0.61504  0.17675  0.70513  Biso   1.000  He
  Ne592    1.0000 0.60366  0.20790  0.71267  Biso   1.000  Ne
  Ne593    1.0000 0.70627  0.24390  0.31583  Biso   1.000  Ne
  He593    1.0000 0.69042  0.23437  0.34654  Biso   1.000  He
  He594    1.0000 0.71178  0.24211  0.37163  Biso   1.000  He
  Ne594    1.0000 0.70154  0.23509  0.40261  Biso   1.000  Ne
  Ne595    1.0000 0.33792  0.70663  0.69875  Biso   1.000  Ne
  He595    1.0000 0.35305  0.70131  0.66742  Biso   1.000  He
  He596    1.0000 0.33075  0.70300  0.64296  Biso   1.000  He
  Ne596    1.0000 0.34524  0.68963  0.61506  Biso   1.000  Ne
  Ne597    1.0000 0.08741  0.40109  0.42196  Biso   1.000  Ne
  He597    1.0000 0.06466  0.40180  0.44471  Biso   1.000  He
  He598    1.0000 0.04823  0.37348  0.45099  Biso   1.000  He
  Ne598    1.0000 0.02701  0.37833  0.47508  Biso   1.000  Ne
  Ne599    1.0000 0.64196  0.10907  0.97612  Biso   1.000  Ne
  He599    1.0000 0.61285  0.09705  0.96695  Biso   1.000  He
  He600    1.0000 0.59748  0.11468  0.94122  Biso   1.000  He
  Ne600    1.0000 0.56838  0.10217  0.93266  Biso   1.000  Ne
  Ne601    1.0000 0.70547  0.46925  0.42341  Biso   1.000  Ne
  He601    1.0000 0.69678  0.47158  0.45583  Biso   1.000  He
  He602    1.0000 0.71834  0.45303  0.47684  Biso   1.000  He
  Ne602    1.0000 0.71675  0.45831  0.50954  Biso   1.000  Ne
  Ne603    1.0000 0.33416  0.81712  0.28056  Biso   1.000  Ne
  He603    1.0000 0.33401  0.84702  0.26794  Biso   1.000  He
  He604    1.0000 0.33887  0.85168  0.23541  Biso   1.000  He
  Ne604    1.0000 0.33952  0.88422  0.22860  Biso   1.000  Ne
  Ne605    1.0000 0.06794  0.56314  0.72306  Biso   1.000  Ne
  He605    1.0000 0.07623  0.56486  0.75523  Biso   1.000  He
  He606    1.0000 0.06736  0.54011  0.77432  Biso   1.000  He
  Ne606    1.0000 0.07625  0.54561  0.80587  Biso   1.000  Ne
  Ne607    1.0000 0.06791  0.89733  0.85242  Biso   1.000  Ne
  He607    1.0000 0.07450  0.86475  0.85335  Biso   1.000  He
  He608    1.0000 0.07352  0.85197  0.88483  Biso   1.000  He
  Ne608    1.0000 0.08479  0.82033  0.88951  Biso   1.000  Ne
  Ne609    1.0000 0.29995  0.73453  0.23010  Biso   1.000  Ne
  He609    1.0000 0.28101  0.74904  0.20756  Biso   1.000  He
  He610    1.0000 0.27777  0.78162  0.20892  Biso   1.000  He
  Ne610    1.0000 0.24984  0.79279  0.19196  Biso   1.000  Ne
  Ne611    1.0000 0.89870  0.04271  0.27757  Biso   1.000  Ne
  He611    1.0000 0.90831  0.03230  0.30834  Biso   1.000  He
  He612    1.0000 0.93458  0.01271  0.30925  Biso   1.000  He
  Ne612    1.0000 0.94442  0.00464  0.34163  Biso   1.000  Ne
  Ne613    1.0000 0.83581  0.35231  0.30443  Biso   1.000  Ne
  He613    1.0000 0.85727  0.35389  0.27972  Biso   1.000  He
  He614    1.0000 0.84782  0.33937  0.25168  Biso   1.000  He
  Ne614    1.0000 0.86492  0.34823  0.22802  Biso   1.000  Ne
  Ne615    1.0000 0.64319  0.38831  0.12007  Biso   1.000  Ne
  He615    1.0000 0.66269  0.36334  0.13223  Biso   1.000  He
  He616    1.0000 0.68605  0.35467  0.10786  Biso   1.000  He
  Ne616    1.0000 0.70403  0.32898  0.11686  Biso   1.000  Ne
  Ne617    1.0000 0.73802  0.35108  0.20125  Biso   1.000  Ne
  He617    1.0000 0.73446  0.37252  0.22834  Biso   1.000  He
  He618    1.0000 0.75911  0.37129  0.24943  Biso   1.000  He
  Ne618    1.0000 0.75772  0.39430  0.27336  Biso   1.000  Ne
  Ne619    1.0000 0.80505  0.14661  0.11483  Biso   1.000  Ne
  He619    1.0000 0.78938  0.16211  0.13653  Biso   1.000  He
  He620    1.0000 0.79885  0.15411  0.16638  Biso   1.000  He
  Ne620    1.0000 0.78697  0.17427  0.19004  Biso   1.000  Ne
  Ne621    1.0000 0.65017  0.96922  0.12388  Biso   1.000  Ne
  He621    1.0000 0.66214  0.95231  0.15054  Biso   1.000  He
  He622    1.0000 0.68369  0.97025  0.16837  Biso   1.000  He
  Ne622    1.0000 0.69647  0.95232  0.19557  Biso   1.000  Ne
  Ne623    1.0000 0.38775  0.52911  0.85690  Biso   1.000  Ne
  He623    1.0000 0.40047  0.56029  0.85697  Biso   1.000  He
  He624    1.0000 0.37705  0.58411  0.85132  Biso   1.000  He
  Ne624    1.0000 0.38829  0.61315  0.84460  Biso   1.000  Ne
  Ne625    1.0000 0.17528  0.07141  0.40570  Biso   1.000  Ne
  He625    1.0000 0.14940  0.08828  0.41841  Biso   1.000  He
  He626    1.0000 0.13264  0.11158  0.40014  Biso   1.000  He
  Ne626    1.0000 0.10440  0.12102  0.41408  Biso   1.000  Ne
  Ne627    1.0000 0.36746  0.42940  0.31668  Biso   1.000  Ne
  He627    1.0000 0.36658  0.44760  0.34381  Biso   1.000  He
  He628    1.0000 0.39214  0.47168  0.34368  Biso   1.000  He
  Ne628    1.0000 0.39039  0.49267  0.37153  Biso   1.000  Ne
  Ne629    1.0000 0.87572  0.06741  0.46327  Biso   1.000  Ne
  He629    1.0000 0.87862  0.04590  0.43817  Biso   1.000  He
  He630    1.0000 0.87811  0.01602  0.45207  Biso   1.000  He
  Ne630    1.0000 0.87718  0.99313  0.43009  Biso   1.000  Ne
  Ne631    1.0000 0.16032  0.62331  0.27873  Biso   1.000  Ne
  He631    1.0000 0.13119  0.62287  0.26015  Biso   1.000  He
  He632    1.0000 0.13436  0.61281  0.22794  Biso   1.000  He
  Ne632    1.0000 0.10426  0.61024  0.21138  Biso   1.000  Ne
  Ne633    1.0000 0.43291  0.68762  0.31567  Biso   1.000  Ne
  He633    1.0000 0.45619  0.68682  0.33857  Biso   1.000  He
  He634    1.0000 0.47359  0.65586  0.33834  Biso   1.000  He
  Ne634    1.0000 0.49948  0.65647  0.35727  Biso   1.000  Ne
  Ne635    1.0000 0.30820  0.38755  0.23533  Biso   1.000  Ne
  He635    1.0000 0.28952  0.36339  0.25006  Biso   1.000  He
  He636    1.0000 0.31033  0.33535  0.25736  Biso   1.000  He
  Ne636    1.0000 0.29632  0.31239  0.27667  Biso   1.000  Ne
  Ne637    1.0000 0.90313  0.77920  0.66756  Biso   1.000  Ne
  He637    1.0000 0.93778  0.77913  0.66748  Biso   1.000  He
  He638    1.0000 0.95038  0.76262  0.64208  Biso   1.000  He
  Ne638    1.0000 0.98228  0.75505  0.64080  Biso   1.000  Ne
  Ne639    1.0000 0.21692  0.63369  0.41843  Biso   1.000  Ne
  He639    1.0000 0.20452  0.66293  0.42425  Biso   1.000  He
  He640    1.0000 0.22265  0.68779  0.41409  Biso   1.000  He
  Ne640    1.0000 0.20535  0.71739  0.41393  Biso   1.000  Ne
  Ne641    1.0000 0.14677  0.17153  0.33588  Biso   1.000  Ne
  He641    1.0000 0.16418  0.17828  0.36218  Biso   1.000  He
  He642    1.0000 0.15525  0.20554  0.37887  Biso   1.000  He
  Ne642    1.0000 0.17325  0.21212  0.40496  Biso   1.000  Ne
  Ne643    1.0000 0.90234  0.03938  0.07126  Biso   1.000  Ne
  He643    1.0000 0.92054  0.03067  0.09900  Biso   1.000  He
  He644    1.0000 0.93137  0.05476  0.11646  Biso   1.000  He
  Ne644    1.0000 0.94881  0.04230  0.14184  Biso   1.000  Ne
  Ne645    1.0000 0.72941  0.74554  0.09375  Biso   1.000  Ne
  He645    1.0000 0.71703  0.76796  0.07252  Biso   1.000  He
  He646    1.0000 0.71216  0.79888  0.08466  Biso   1.000  He
  Ne646    1.0000 0.70525  0.82352  0.06301  Biso   1.000  Ne
  Ne647    1.0000 0.27265  0.52252  0.57586  Biso   1.000  Ne
  He647    1.0000 0.28930  0.49291  0.57979  Biso   1.000  He
  He648    1.0000 0.31907  0.49126  0.56288  Biso   1.000  He
  Ne648    1.0000 0.33449  0.46297  0.57003  Biso   1.000  Ne
  Ne649    1.0000 0.28887  0.53653  0.37622  Biso   1.000  Ne
  He649    1.0000 0.27345  0.56513  0.37816  Biso   1.000  He
  He650    1.0000 0.29202  0.59137  0.36796  Biso   1.000  He
  Ne650    1.0000 0.27663  0.61947  0.36468  Biso   1.000  Ne
  Ne651    1.0000 0.04229  0.49533  0.12968  Biso   1.000  Ne
  He651    1.0000 0.04922  0.46619  0.14609  Biso   1.000  He
  He652    1.0000 0.03913  0.44075  0.13048  Biso   1.000  He
  Ne652    1.0000 0.00632  0.43043  0.13945  Biso   1.000  Ne
  Ne653    1.0000 0.90337  0.72683  0.84961  Biso   1.000  Ne
  He653    1.0000 0.93059  0.71861  0.86419  Biso   1.000  He
  He654    1.0000 0.94996  0.69543  0.84787  Biso   1.000  He
  Ne654    1.0000 0.97634  0.68993  0.86663  Biso   1.000  Ne
  Ne655    1.0000 0.35507  0.65536  0.25172  Biso   1.000  Ne
  He655    1.0000 0.36664  0.68565  0.25231  Biso   1.000  He
  He656    1.0000 0.38699  0.69126  0.22662  Biso   1.000  He
  Ne656    1.0000 0.40094  0.72277  0.22616  Biso   1.000  Ne
  Ne657    1.0000 0.47196  0.55976  0.33023  Biso   1.000  Ne
  He657    1.0000 0.48529  0.53826  0.31015  Biso   1.000  He
  He658    1.0000 0.50781  0.51599  0.32441  Biso   1.000  He
  Ne658    1.0000 0.52123  0.49417  0.30429  Biso   1.000  Ne
  Ne659    1.0000 0.78882  0.79243  0.55928  Biso   1.000  Ne
  He659    1.0000 0.81074  0.81418  0.57200  Biso   1.000  He
  He660    1.0000 0.79903  0.84419  0.58523  Biso   1.000  He
  Ne660    1.0000 0.81178  0.87429  0.57747  Biso   1.000  Ne
  Ne661    1.0000 0.71650  0.05726  0.69663  Biso   1.000  Ne
  He661    1.0000 0.73434  0.06641  0.72370  Biso   1.000  He
  He662    1.0000 0.72779  0.04641  0.74835  Biso   1.000  He
  Ne662    1.0000 0.74233  0.05327  0.77819  Biso   1.000  Ne
  Ne663    1.0000 0.98131  0.68137  0.04935  Biso   1.000  Ne
  He663    1.0000 0.97443  0.66710  0.07953  Biso   1.000  He
  He664    1.0000 0.99917  0.66588  0.10003  Biso   1.000  He
  Ne664    1.0000 0.99244  0.65844  0.13224  Biso   1.000  Ne
  Ne665    1.0000 0.17310  0.14373  0.15396  Biso   1.000  Ne
  He665    1.0000 0.19163  0.16982  0.14964  Biso   1.000  He
  He666    1.0000 0.17869  0.19870  0.15970  Biso   1.000  He
  Ne666    1.0000 0.20157  0.22375  0.15336  Biso   1.000  Ne
  Ne667    1.0000 0.37494  0.12889  0.70918  Biso   1.000  Ne
  He667    1.0000 0.38717  0.14774  0.73299  Biso   1.000  He
  He668    1.0000 0.39763  0.17853  0.72113  Biso   1.000  He
  Ne668    1.0000 0.40900  0.19976  0.74379  Biso   1.000  Ne
  Ne669    1.0000 0.67835  0.55205  0.89015  Biso   1.000  Ne
  He669    1.0000 0.67312  0.55193  0.92309  Biso   1.000  He
  He670    1.0000 0.64490  0.54186  0.92977  Biso   1.000  He
  Ne670    1.0000 0.63240  0.54704  0.96252  Biso   1.000  Ne
  Ne671    1.0000 0.16710  0.89681  0.11129  Biso   1.000  Ne
  He671    1.0000 0.19806  0.88254  0.11822  Biso   1.000  He
  He672    1.0000 0.20480  0.85051  0.11192  Biso   1.000  He
  Ne672    1.0000 0.23811  0.84582  0.11440  Biso   1.000  Ne
  Ne673    1.0000 0.04110  0.06570  0.57865  Biso   1.000  Ne
  He673    1.0000 0.03482  0.08055  0.55114  Biso   1.000  He
  He674    1.0000 0.04448  0.11350  0.55420  Biso   1.000  He
  Ne674    1.0000 0.04054  0.13016  0.52571  Biso   1.000  Ne
  Ne675    1.0000 0.51360  0.77262  0.10373  Biso   1.000  Ne
  He675    1.0000 0.53574  0.75541  0.08254  Biso   1.000  He
  He676    1.0000 0.53290  0.76115  0.05064  Biso   1.000  He
  Ne676    1.0000 0.55096  0.74073  0.02932  Biso   1.000  Ne
  Ne677    1.0000 0.19864  0.63245  0.02726  Biso   1.000  Ne
  He677    1.0000 0.19140  0.65218  0.00301  Biso   1.000  He
  He678    1.0000 0.21096  0.64739  0.97710  Biso   1.000  He
  Ne678    1.0000 0.20998  0.67016  0.95362  Biso   1.000  Ne
  Ne679    1.0000 0.81519  0.37420  0.14750  Biso   1.000  Ne
  He679    1.0000 0.83774  0.37370  0.12367  Biso   1.000  He
  He680    1.0000 0.86856  0.37826  0.13252  Biso   1.000  He
  Ne680    1.0000 0.89103  0.37178  0.10896  Biso   1.000  Ne
  Ne681    1.0000 0.86886  0.04999  0.17879  Biso   1.000  Ne
  He681    1.0000 0.87402  0.07294  0.20031  Biso   1.000  He
  He682    1.0000 0.90483  0.08267  0.19653  Biso   1.000  He
  Ne682    1.0000 0.91204  0.10595  0.21915  Biso   1.000  Ne
  Ne683    1.0000 0.03858  0.59306  0.01608  Biso   1.000  Ne
  He683    1.0000 0.04336  0.61563  0.03962  Biso   1.000  He
  He684    1.0000 0.06422  0.64136  0.03105  Biso   1.000  He
  Ne684    1.0000 0.06321  0.66393  0.05257  Biso   1.000  Ne
  Ne685    1.0000 0.77759  0.14550  0.74636  Biso   1.000  Ne
  He685    1.0000 0.76666  0.16731  0.72268  Biso   1.000  He
  He686    1.0000 0.75199  0.14928  0.69752  Biso   1.000  He
  Ne686    1.0000 0.74716  0.16970  0.67142  Biso   1.000  Ne
  Ne687    1.0000 0.31165  0.82111  0.90207  Biso   1.000  Ne
  He687    1.0000 0.31319  0.79807  0.92675  Biso   1.000  He
  He688    1.0000 0.30975  0.76880  0.91258  Biso   1.000  He
  Ne688    1.0000 0.31396  0.74486  0.93838  Biso   1.000  Ne
  Ne689    1.0000 0.88417  0.63905  0.04302  Biso   1.000  Ne
  He689    1.0000 0.88003  0.64268  0.07569  Biso   1.000  He
  He690    1.0000 0.85532  0.66089  0.08394  Biso   1.000  He
  Ne690    1.0000 0.85314  0.66535  0.11509  Biso   1.000  Ne
  Ne691    1.0000 0.60680  0.91749  0.22878  Biso   1.000  Ne
  He691    1.0000 0.58148  0.93777  0.23990  Biso   1.000  He
  He692    1.0000 0.58529  0.97004  0.23576  Biso   1.000  He
  Ne692    1.0000 0.56502  0.98941  0.25823  Biso   1.000  Ne
  Ne693    1.0000 0.72681  0.04606  0.60751  Biso   1.000  Ne
  He693    1.0000 0.69973  0.06314  0.61150  Biso   1.000  He
  He694    1.0000 0.70644  0.09384  0.61334  Biso   1.000  He
  Ne694    1.0000 0.68167  0.11243  0.61660  Biso   1.000  Ne
  Ne695    1.0000 0.42806  0.34614  0.94846  Biso   1.000  Ne
  He695    1.0000 0.40235  0.33148  0.93598  Biso   1.000  He
  He696    1.0000 0.41346  0.31312  0.90916  Biso   1.000  He
  Ne696    1.0000 0.39217  0.29700  0.89048  Biso   1.000  Ne
  Ne697    1.0000 0.86552  0.20714  0.14012  Biso   1.000  Ne
  He697    1.0000 0.88170  0.17955  0.14879  Biso   1.000  He
  He698    1.0000 0.89515  0.16318  0.12473  Biso   1.000  He
  Ne698    1.0000 0.91179  0.13912  0.13706  Biso   1.000  Ne
  Ne699    1.0000 0.20311  0.75884  0.59432  Biso   1.000  Ne
  He699    1.0000 0.22480  0.77585  0.61171  Biso   1.000  He
  He700    1.0000 0.21203  0.80239  0.62396  Biso   1.000  He
  Ne700    1.0000 0.23439  0.81716  0.64569  Biso   1.000  Ne
  Ne701    1.0000 0.65896  0.55633  0.71018  Biso   1.000  Ne
  He701    1.0000 0.67178  0.54930  0.67955  Biso   1.000  He
  He702    1.0000 0.69024  0.52187  0.68090  Biso   1.000  He
  Ne702    1.0000 0.70140  0.51754  0.65115  Biso   1.000  Ne
  Ne703    1.0000 0.91634  0.43395  0.52642  Biso   1.000  Ne
  He703    1.0000 0.91056  0.40487  0.51018  Biso   1.000  He
  He704    1.0000 0.93682  0.39459  0.49529  Biso   1.000  He
  Ne704    1.0000 0.93329  0.36602  0.48116  Biso   1.000  Ne
  Ne705    1.0000 0.84201  0.39418  0.64193  Biso   1.000  Ne
  He705    1.0000 0.87157  0.38616  0.62619  Biso   1.000  He
  He706    1.0000 0.87626  0.35536  0.62072  Biso   1.000  He
  Ne706    1.0000 0.90435  0.34696  0.60698  Biso   1.000  Ne
  Ne707    1.0000 0.71091  0.06019  0.96834  Biso   1.000  Ne
  He707    1.0000 0.69546  0.03780  0.99050  Biso   1.000  He
  He708    1.0000 0.71345  0.01229  0.00043  Biso   1.000  He
  Ne708    1.0000 0.69977  0.99315  0.02526  Biso   1.000  Ne
  Ne709    1.0000 0.06859  0.16071  0.25227  Biso   1.000  Ne
  He709    1.0000 0.07407  0.15888  0.28526  Biso   1.000  He
  He710    1.0000 0.05475  0.13720  0.29990  Biso   1.000  He
  Ne710    1.0000 0.05267  0.13847  0.33405  Biso   1.000  Ne
  Ne711    1.0000 0.97778  0.81488  0.73201  Biso   1.000  Ne
  He711    1.0000 0.00626  0.80345  0.72188  Biso   1.000  He
  He712    1.0000 0.02527  0.80077  0.75015  Biso   1.000  He
  Ne712    1.0000 0.05727  0.79068  0.74620  Biso   1.000  Ne
  Ne713    1.0000 0.44383  0.91062  0.80802  Biso   1.000  Ne
  He713    1.0000 0.43608  0.88045  0.79783  Biso   1.000  He
  He714    1.0000 0.43368  0.85773  0.82119  Biso   1.000  He
  Ne714    1.0000 0.43065  0.82543  0.81034  Biso   1.000  Ne
  Ne715    1.0000 0.60438  0.14432  0.31755  Biso   1.000  Ne
  He715    1.0000 0.60682  0.16430  0.34276  Biso   1.000  He
  He716    1.0000 0.58980  0.19126  0.33893  Biso   1.000  He
  Ne716    1.0000 0.59068  0.21258  0.36528  Biso   1.000  Ne
  Ne717    1.0000 0.89723  0.11983  0.94605  Biso   1.000  Ne
  He717    1.0000 0.90127  0.15254  0.94141  Biso   1.000  He
  He718    1.0000 0.87744  0.17127  0.95486  Biso   1.000  He
  Ne718    1.0000 0.88385  0.20352  0.95144  Biso   1.000  Ne
  Ne719    1.0000 0.56221  0.85047  0.25912  Biso   1.000  Ne
  He719    1.0000 0.56112  0.81895  0.27171  Biso   1.000  He
  He720    1.0000 0.58751  0.80094  0.27080  Biso   1.000  He
  Ne720    1.0000 0.58269  0.77169  0.28577  Biso   1.000  Ne
  Ne721    1.0000 0.11794  0.23087  0.96058  Biso   1.000  Ne
  He721    1.0000 0.14528  0.23496  0.94080  Biso   1.000  He
  He722    1.0000 0.17062  0.24731  0.95808  Biso   1.000  He
  Ne722    1.0000 0.19880  0.24526  0.93931  Biso   1.000  Ne
  Ne723    1.0000 0.91589  0.56135  0.37993  Biso   1.000  Ne
  He723    1.0000 0.90977  0.59406  0.37215  Biso   1.000  He
  He724    1.0000 0.93395  0.61245  0.36115  Biso   1.000  He
  Ne724    1.0000 0.93266  0.64707  0.35652  Biso   1.000  Ne
  Ne725    1.0000 0.56934  0.85021  0.08482  Biso   1.000  Ne
  He725    1.0000 0.59099  0.82792  0.09733  Biso   1.000  He
  He726    1.0000 0.58739  0.82034  0.12972  Biso   1.000  He
  Ne726    1.0000 0.60904  0.79814  0.14408  Biso   1.000  Ne
  Ne727    1.0000 0.15357  0.52928  0.23573  Biso   1.000  Ne
  He727    1.0000 0.14527  0.52499  0.20146  Biso   1.000  He
  He728    1.0000 0.15562  0.49492  0.18762  Biso   1.000  He
  Ne728    1.0000 0.14883  0.49545  0.15407  Biso   1.000  Ne
  Ne729    1.0000 0.88506  0.42193  0.81411  Biso   1.000  Ne
  He729    1.0000 0.91448  0.43240  0.81914  Biso   1.000  He
  He730    1.0000 0.94004  0.40774  0.81697  Biso   1.000  He
  Ne730    1.0000 0.97200  0.41951  0.82244  Biso   1.000  Ne
  Ne731    1.0000 0.88371  0.91133  0.98696  Biso   1.000  Ne
  He731    1.0000 0.90516  0.89516  0.97060  Biso   1.000  He
  He732    1.0000 0.91147  0.90930  0.94115  Biso   1.000  He
  Ne732    1.0000 0.93661  0.89577  0.92564  Biso   1.000  Ne
  Ne733    1.0000 0.37487  0.93415  0.92459  Biso   1.000  Ne
  He733    1.0000 0.37394  0.90318  0.91791  Biso   1.000  He
  He734    1.0000 0.39738  0.88981  0.89684  Biso   1.000  He
  Ne734    1.0000 0.39754  0.85821  0.89219  Biso   1.000  Ne
  Ne735    1.0000 0.72938  0.59366  0.22005  Biso   1.000  Ne
  He735    1.0000 0.75563  0.57206  0.21664  Biso   1.000  He
  He736    1.0000 0.76353  0.56773  0.18295  Biso   1.000  He
  Ne736    1.0000 0.79010  0.54658  0.18033  Biso   1.000  Ne
  Ne737    1.0000 0.05267  0.80706  0.63466  Biso   1.000  Ne
  He737    1.0000 0.05051  0.79249  0.60422  Biso   1.000  He
  He738    1.0000 0.04292  0.81251  0.57967  Biso   1.000  He
  Ne738    1.0000 0.03796  0.79586  0.55187  Biso   1.000  Ne
  Ne739    1.0000 0.24258  0.23550  0.64292  Biso   1.000  Ne
  He739    1.0000 0.21748  0.24744  0.66446  Biso   1.000  He
  He740    1.0000 0.18589  0.24278  0.65327  Biso   1.000  He
  Ne740    1.0000 0.16146  0.25893  0.66999  Biso   1.000  Ne
  Ne741    1.0000 0.75931  0.41549  0.35062  Biso   1.000  Ne
  He741    1.0000 0.74346  0.38528  0.34984  Biso   1.000  He
  He742    1.0000 0.76398  0.35792  0.35776  Biso   1.000  He
  Ne742    1.0000 0.75734  0.33136  0.34599  Biso   1.000  Ne
  Ne743    1.0000 0.06469  0.14144  0.93472  Biso   1.000  Ne
  He743    1.0000 0.07408  0.17078  0.93266  Biso   1.000  He
  He744    1.0000 0.06400  0.18602  0.90523  Biso   1.000  He
  Ne744    1.0000 0.07921  0.21507  0.90015  Biso   1.000  Ne
  Ne745    1.0000 0.66784  0.31659  0.34486  Biso   1.000  Ne
  He745    1.0000 0.65032  0.33013  0.37016  Biso   1.000  He
  He746    1.0000 0.64012  0.30818  0.39586  Biso   1.000  He
  Ne746    1.0000 0.62404  0.32787  0.41922  Biso   1.000  Ne
  Ne747    1.0000 0.28148  0.66106  0.89642  Biso   1.000  Ne
  He747    1.0000 0.27770  0.66312  0.86515  Biso   1.000  He
  He748    1.0000 0.25922  0.63796  0.85176  Biso   1.000  He
  Ne748    1.0000 0.26201  0.63258  0.81962  Biso   1.000  Ne
  Ne749    1.0000 0.56680  0.32040  0.13098  Biso   1.000  Ne
  He749    1.0000 0.58175  0.30050  0.15127  Biso   1.000  He
  He750    1.0000 0.56809  0.28956  0.17943  Biso   1.000  He
  Ne750    1.0000 0.58339  0.30088  0.20777  Biso   1.000  Ne
  Ne751    1.0000 0.05405  0.68017  0.17404  Biso   1.000  Ne
  He751    1.0000 0.08591  0.68291  0.16341  Biso   1.000  He
  He752    1.0000 0.08629  0.67454  0.12999  Biso   1.000  He
  Ne752    1.0000 0.11751  0.67858  0.12014  Biso   1.000  Ne
  Ne753    1.0000 0.20359  0.55486  0.15868  Biso   1.000  Ne
  He753    1.0000 0.18422  0.56562  0.13480  Biso   1.000  He
  He754    1.0000 0.15978  0.58852  0.14411  Biso   1.000  He
  Ne754    1.0000 0.13633  0.59031  0.11958  Biso   1.000  Ne
  Ne755    1.0000 0.52239  0.40908  0.99509  Biso   1.000  Ne
  He755    1.0000 0.49860  0.43543  0.99924  Biso   1.000  He
  He756    1.0000 0.49746  0.45387  0.97280  Biso   1.000  He
  Ne756    1.0000 0.47293  0.44407  0.94994  Biso   1.000  Ne
  Ne757    1.0000 0.47862  0.67919  0.60728  Biso   1.000  Ne
  He757    1.0000 0.46617  0.68295  0.57621  Biso   1.000  He
  He758    1.0000 0.43508  0.69498  0.57651  Biso   1.000  He
  Ne758    1.0000 0.41284  0.66917  0.57579  Biso   1.000  Ne
  Ne759    1.0000 0.43063  0.17844  0.14330  Biso   1.000  Ne
  He759    1.0000 0.44912  0.18819  0.16862  Biso   1.000  He
  He760    1.0000 0.45729  0.16081  0.18465  Biso   1.000  He
  Ne760    1.0000 0.47808  0.16664  0.21054  Biso   1.000  Ne
  Ne761    1.0000 0.80338  0.03874  0.94912  Biso   1.000  Ne
  He761    1.0000 0.80587  0.03546  0.91655  Biso   1.000  He
  He762    1.0000 0.78136  0.04901  0.89685  Biso   1.000  He
  Ne762    1.0000 0.79036  0.04763  0.86488  Biso   1.000  Ne
  Ne763    1.0000 0.06117  0.37770  0.67980  Biso   1.000  Ne
  He763    1.0000 0.07002  0.35791  0.70622  Biso   1.000  He
  He764    1.0000 0.09828  0.36713  0.71786  Biso   1.000  He
  Ne764    1.0000 0.10357  0.35368  0.74671  Biso   1.000  Ne
  Ne765    1.0000 0.90201  0.73013  0.32584  Biso   1.000  Ne
  He765    1.0000 0.88140  0.74849  0.30594  Biso   1.000  He
  He766    1.0000 0.89366  0.77884  0.29685  Biso   1.000  He
  Ne766    1.0000 0.87187  0.79761  0.27563  Biso   1.000  Ne
  Ne767    1.0000 0.54855  0.42713  0.08511  Biso   1.000  Ne
  He767    1.0000 0.51996  0.41950  0.09358  Biso   1.000  He
  He768    1.0000 0.49695  0.44472  0.09329  Biso   1.000  He
  Ne768    1.0000 0.46774  0.43827  0.10766  Biso   1.000  Ne
  Ne769    1.0000 0.59632  0.68645  0.26962  Biso   1.000  Ne
  He769    1.0000 0.58673  0.69760  0.24043  Biso   1.000  He
  He770    1.0000 0.58927  0.67749  0.21561  Biso   1.000  He
  Ne770    1.0000 0.57567  0.68787  0.18672  Biso   1.000  Ne
  Ne771    1.0000 0.88590  0.58111  0.95523  Biso   1.000  Ne
  He771    1.0000 0.89707  0.57746  0.98633  Biso   1.000  He
  He772    1.0000 0.88412  0.55046  0.00017  Biso   1.000  He
  Ne772    1.0000 0.89199  0.54202  0.03320  Biso   1.000  Ne
  Ne773    1.0000 0.40871  0.77455  0.32544  Biso   1.000  Ne
  He773    1.0000 0.40875  0.77071  0.35816  Biso   1.000  He
  He774    1.0000 0.38943  0.74617  0.37129  Biso   1.000  He
  Ne774    1.0000 0.39073  0.74367  0.40530  Biso   1.000  Ne
  Ne775    1.0000 0.03342  0.16556  0.79484  Biso   1.000  Ne
  He775    1.0000 0.04963  0.16134  0.82183  Biso   1.000  He
  He776    1.0000 0.08192  0.15653  0.81744  Biso   1.000  He
  Ne776    1.0000 0.09876  0.15509  0.84684  Biso   1.000  Ne
  Ne777    1.0000 0.74586  0.16862  0.45674  Biso   1.000  Ne
  He777    1.0000 0.71588  0.15764  0.46195  Biso   1.000  He
  He778    1.0000 0.69961  0.15376  0.43489  Biso   1.000  He
  Ne778    1.0000 0.66443  0.14885  0.44048  Biso   1.000  Ne
  Ne779    1.0000 0.06062  0.91331  0.63499  Biso   1.000  Ne
  He779    1.0000 0.07150  0.88927  0.65688  Biso   1.000  He
  He780    1.0000 0.05676  0.88768  0.68613  Biso   1.000  He
  Ne780    1.0000 0.06612  0.86484  0.70874  Biso   1.000  Ne
  Ne781    1.0000 0.32329  0.18061  0.92958  Biso   1.000  Ne
  He781    1.0000 0.33538  0.14877  0.93115  Biso   1.000  He
  He782    1.0000 0.36318  0.14722  0.94669  Biso   1.000  He
  Ne782    1.0000 0.37197  0.11771  0.95119  Biso   1.000  Ne
  Ne783    1.0000 0.92694  0.13361  0.49595  Biso   1.000  Ne
  He783    1.0000 0.94937  0.15297  0.50973  Biso   1.000  He
  He784    1.0000 0.95296  0.18614  0.49771  Biso   1.000  He
  Ne784    1.0000 0.97162  0.20406  0.51846  Biso   1.000  Ne
  Ne785    1.0000 0.74103  0.77219  0.41952  Biso   1.000  Ne
  He785    1.0000 0.71250  0.75681  0.41657  Biso   1.000  He
  He786    1.0000 0.70676  0.73173  0.43908  Biso   1.000  He
  Ne786    1.0000 0.68149  0.71137  0.43016  Biso   1.000  Ne
  Ne787    1.0000 0.09341  0.30779  0.38309  Biso   1.000  Ne
  He787    1.0000 0.08863  0.28125  0.36264  Biso   1.000  He
  He788    1.0000 0.07236  0.25734  0.37664  Biso   1.000  He
  Ne788    1.0000 0.06578  0.23350  0.35575  Biso   1.000  Ne
  Ne789    1.0000 0.95470  0.12426  0.39746  Biso   1.000  Ne
  He789    1.0000 0.98344  0.13864  0.40986  Biso   1.000  He
  He790    1.0000 0.99081  0.16989  0.39603  Biso   1.000  He
  Ne790    1.0000 0.01457  0.18611  0.41121  Biso   1.000  Ne
  Ne791    1.0000 0.24924  0.72394  0.12974  Biso   1.000  Ne
  He791    1.0000 0.26292  0.75433  0.12384  Biso   1.000  He
  He792    1.0000 0.29089  0.75144  0.10760  Biso   1.000  He
  Ne792    1.0000 0.30165  0.78158  0.09503  Biso   1.000  Ne
  Ne793    1.0000 0.41593  0.27597  0.23677  Biso   1.000  Ne
  He793    1.0000 0.39886  0.24877  0.24952  Biso   1.000  He
  He794    1.0000 0.41523  0.21728  0.25238  Biso   1.000  He
  Ne794    1.0000 0.39809  0.19620  0.27451  Biso   1.000  Ne
  Ne795    1.0000 0.62221  0.20833  0.94149  Biso   1.000  Ne
  He795    1.0000 0.59894  0.22899  0.95505  Biso   1.000  He
  He796    1.0000 0.58190  0.21520  0.98025  Biso   1.000  He
  Ne796    1.0000 0.55738  0.23269  0.99365  Biso   1.000  Ne
  Ne797    1.0000 0.58614  0.71759  0.78356  Biso   1.000  Ne
  He797    1.0000 0.58480  0.71408  0.81564  Biso   1.000  He
  He798    1.0000 0.58254  0.74301  0.82899  Biso   1.000  He
  Ne798    1.0000 0.58033  0.74284  0.86398  Biso   1.000  Ne
  Ne799    1.0000 0.32580  0.05402  0.37538  Biso   1.000  Ne
  He799    1.0000 0.31012  0.07476  0.39800  Biso   1.000  He
  He800    1.0000 0.33068  0.09776  0.41075  Biso   1.000  He
  Ne800    1.0000 0.31962  0.11946  0.43400  Biso   1.000  Ne
