data_image0
_cell_length_a       46.7069
_cell_length_b       46.5755
_cell_length_c       46.4781
_cell_angle_alpha    90
_cell_angle_beta     90
_cell_angle_gamma    90

_symmetry_space_group_name_H-M    "P 1"
_symmetry_int_tables_number       1

loop_
  _symmetry_equiv_pos_as_xyz
  'x, y, z'

loop_
  _atom_site_label
  _atom_site_occupancy
  _atom_site_fract_x
  _atom_site_fract_y
  _atom_site_fract_z
  _atom_site_thermal_displace_type
  _atom_site_B_iso_or_equiv
  _atom_site_type_symbol
  Ne1      1.0000 0.59840  0.18979  0.14818  Biso   1.000  Ne
  He1      1.0000 0.61126  0.20567  0.12211  Biso   1.000  He
  He2      1.0000 0.64485  0.20373  0.12304  Biso   1.000  He
  Ne2      1.0000 0.66056  0.22173  0.09834  Biso   1.000  Ne
  Ne3      1.0000 0.60362  0.72949  0.27105  Biso   1.000  Ne
  He3      1.0000 0.57798  0.74408  0.25671  Biso   1.000  He
  He4      1.0000 0.58727  0.77072  0.23818  Biso   1.000  He
  Ne4      1.0000 0.56405  0.78697  0.22320  Biso   1.000  Ne
  Ne5      1.0000 0.12835  0.00509  0.71205  Biso   1.000  Ne
  He5      1.0000 0.15126  0.02867  0.71484  Biso   1.000  He
  He6      1.0000 0.17886  0.02651  0.69705  Biso   1.000  He
  Ne6      1.0000 0.20176  0.04980  0.69942  Biso   1.000  Ne
  Ne7      1.0000 0.32989  0.20121  0.14183  Biso   1.000  Ne
  He7      1.0000 0.33106  0.17262  0.15854  Biso   1.000  He
  He8      1.0000 0.35952  0.15586  0.15232  Biso   1.000  He
  Ne8      1.0000 0.36261  0.12800  0.17292  Biso   1.000  Ne
  Ne9      1.0000 0.32558  0.62835  0.46280  Biso   1.000  Ne
  He9      1.0000 0.34968  0.60699  0.46577  Biso   1.000  He
  He10     1.0000 0.34918  0.58936  0.49417  Biso   1.000  He
  Ne10     1.0000 0.37719  0.57435  0.49979  Biso   1.000  Ne
  Ne11     1.0000 0.66788  0.09317  0.29652  Biso   1.000  Ne
  He11     1.0000 0.64414  0.07120  0.30337  Biso   1.000  He
  He12     1.0000 0.64267  0.06909  0.33471  Biso   1.000  He
  Ne12     1.0000 0.62046  0.04882  0.34442  Biso   1.000  Ne
  Ne13     1.0000 0.08304  0.91260  0.25442  Biso   1.000  Ne
  He13     1.0000 0.11127  0.90040  0.23878  Biso   1.000  He
  He14     1.0000 0.11581  0.90986  0.20918  Biso   1.000  He
  Ne14     1.0000 0.14271  0.89494  0.19508  Biso   1.000  Ne
  Ne15     1.0000 0.26357  0.11871  0.29531  Biso   1.000  Ne
  He15     1.0000 0.29051  0.09389  0.29300  Biso   1.000  He
  He16     1.0000 0.29235  0.07876  0.26152  Biso   1.000  He
  Ne16     1.0000 0.31607  0.05792  0.25438  Biso   1.000  Ne
  Ne17     1.0000 0.06676  0.17890  0.11829  Biso   1.000  Ne
  He17     1.0000 0.09424  0.16692  0.11023  Biso   1.000  He
  He18     1.0000 0.11647  0.16941  0.13495  Biso   1.000  He
  Ne18     1.0000 0.14280  0.15844  0.12972  Biso   1.000  Ne
  Ne19     1.0000 0.95036  0.26710  0.94468  Biso   1.000  Ne
  He19     1.0000 0.94445  0.23553  0.93899  Biso   1.000  He
  He20     1.0000 0.92806  0.21931  0.96256  Biso   1.000  He
  Ne20     1.0000 0.91960  0.18744  0.95722  Biso   1.000  Ne
  Ne21     1.0000 0.89249  0.26676  0.46294  Biso   1.000  Ne
  He21     1.0000 0.89316  0.26840  0.42971  Biso   1.000  He
  He22     1.0000 0.87052  0.25151  0.41158  Biso   1.000  He
  Ne22     1.0000 0.87673  0.25959  0.38123  Biso   1.000  Ne
  Ne23     1.0000 0.58384  0.32369  0.22049  Biso   1.000  Ne
  He23     1.0000 0.56500  0.34476  0.20244  Biso   1.000  He
  He24     1.0000 0.56535  0.37668  0.21359  Biso   1.000  He
  Ne24     1.0000 0.54722  0.39714  0.19710  Biso   1.000  Ne
  Ne25     1.0000 0.16094  0.08196  0.83226  Biso   1.000  Ne
  He25     1.0000 0.12861  0.08276  0.83897  Biso   1.000  He
  He26     1.0000 0.10675  0.09127  0.81306  Biso   1.000  He
  Ne26     1.0000 0.07578  0.08813  0.82045  Biso   1.000  Ne
  Ne27     1.0000 0.73977  0.61728  0.45645  Biso   1.000  Ne
  He27     1.0000 0.76216  0.64367  0.45560  Biso   1.000  He
  He28     1.0000 0.75162  0.67402  0.44434  Biso   1.000  He
  Ne28     1.0000 0.77505  0.69580  0.44401  Biso   1.000  Ne
  Ne29     1.0000 0.07712  0.90909  0.92784  Biso   1.000  Ne
  He29     1.0000 0.07238  0.90068  0.89695  Biso   1.000  He
  He30     1.0000 0.09998  0.90944  0.87683  Biso   1.000  He
  Ne30     1.0000 0.09951  0.90134  0.84338  Biso   1.000  Ne
  Ne31     1.0000 0.22585  0.41626  0.43246  Biso   1.000  Ne
  He31     1.0000 0.25433  0.40687  0.44495  Biso   1.000  He
  He32     1.0000 0.26348  0.41896  0.47305  Biso   1.000  He
  Ne32     1.0000 0.29468  0.40917  0.48299  Biso   1.000  Ne
  Ne33     1.0000 0.22397  0.57299  0.59992  Biso   1.000  Ne
  He33     1.0000 0.20262  0.57948  0.62675  Biso   1.000  He
  He34     1.0000 0.17265  0.56839  0.62713  Biso   1.000  He
  Ne34     1.0000 0.15401  0.58200  0.65397  Biso   1.000  Ne
  Ne35     1.0000 0.21413  0.77108  0.90507  Biso   1.000  Ne
  He35     1.0000 0.18713  0.78847  0.89475  Biso   1.000  He
  He36     1.0000 0.19387  0.81246  0.87115  Biso   1.000  He
  Ne36     1.0000 0.16663  0.82873  0.85955  Biso   1.000  Ne
  Ne37     1.0000 0.99111  0.05479  0.95122  Biso   1.000  Ne
  He37     1.0000 0.01833  0.05482  0.97161  Biso   1.000  He
  He38     1.0000 0.01301  0.05357  0.00512  Biso   1.000  He
  Ne38     1.0000 0.04021  0.05165  0.02601  Biso   1.000  Ne
  Ne39     1.0000 0.84460  0.71994  0.61056  Biso   1.000  Ne
  He39     1.0000 0.85384  0.70872  0.63948  Biso   1.000  He
  He40     1.0000 0.88592  0.69812  0.64359  Biso   1.000  He
  Ne40     1.0000 0.89046  0.66692  0.63638  Biso   1.000  Ne
  Ne41     1.0000 0.39280  0.20501  0.07314  Biso   1.000  Ne
  He41     1.0000 0.42702  0.20680  0.07530  Biso   1.000  He
  He42     1.0000 0.43977  0.19517  0.10403  Biso   1.000  He
  Ne42     1.0000 0.47153  0.20259  0.10933  Biso   1.000  Ne
  Ne43     1.0000 0.54862  0.36882  0.92715  Biso   1.000  Ne
  He43     1.0000 0.54044  0.37752  0.95783  Biso   1.000  He
  He44     1.0000 0.52541  0.40479  0.95794  Biso   1.000  He
  Ne44     1.0000 0.52136  0.41787  0.98944  Biso   1.000  Ne
  Ne45     1.0000 0.77071  0.25651  0.97029  Biso   1.000  Ne
  He45     1.0000 0.74779  0.27535  0.95650  Biso   1.000  He
  He46     1.0000 0.71923  0.26193  0.96130  Biso   1.000  He
  Ne46     1.0000 0.69664  0.27642  0.93962  Biso   1.000  Ne
  Ne47     1.0000 0.44388  0.99251  0.23102  Biso   1.000  Ne
  He47     1.0000 0.44784  0.97319  0.20581  Biso   1.000  He
  He48     1.0000 0.45514  0.94055  0.21579  Biso   1.000  He
  Ne48     1.0000 0.46076  0.92180  0.18919  Biso   1.000  Ne
  Ne49     1.0000 0.80148  0.88536  0.13797  Biso   1.000  Ne
  He49     1.0000 0.78057  0.86613  0.11876  Biso   1.000  He
  He50     1.0000 0.78727  0.83373  0.11968  Biso   1.000  He
  Ne50     1.0000 0.76369  0.81231  0.10500  Biso   1.000  Ne
  Ne51     1.0000 0.92520  0.87800  0.29179  Biso   1.000  Ne
  He51     1.0000 0.93762  0.90835  0.29181  Biso   1.000  He
  He52     1.0000 0.96583  0.91452  0.30634  Biso   1.000  He
  Ne52     1.0000 0.98091  0.94472  0.30404  Biso   1.000  Ne
  Ne53     1.0000 0.93385  0.78674  0.55105  Biso   1.000  Ne
  He53     1.0000 0.96269  0.80302  0.55603  Biso   1.000  He
  He54     1.0000 0.98428  0.78451  0.53682  Biso   1.000  He
  Ne54     1.0000 0.01519  0.79236  0.54027  Biso   1.000  Ne
  Ne55     1.0000 0.31154  0.54942  0.68401  Biso   1.000  Ne
  He55     1.0000 0.27801  0.55048  0.68146  Biso   1.000  He
  He56     1.0000 0.26509  0.56877  0.70395  Biso   1.000  He
  Ne56     1.0000 0.23155  0.57570  0.70167  Biso   1.000  Ne
  Ne57     1.0000 0.67958  0.89849  0.27407  Biso   1.000  Ne
  He57     1.0000 0.71061  0.89832  0.26170  Biso   1.000  He
  He58     1.0000 0.71476  0.91586  0.23429  Biso   1.000  He
  Ne58     1.0000 0.74641  0.91692  0.22376  Biso   1.000  Ne
  Ne59     1.0000 0.12897  0.83744  0.92319  Biso   1.000  Ne
  He59     1.0000 0.09967  0.83176  0.93526  Biso   1.000  He
  He60     1.0000 0.07444  0.82634  0.91161  Biso   1.000  He
  Ne60     1.0000 0.04695  0.81292  0.92699  Biso   1.000  Ne
  Ne61     1.0000 0.26378  0.97053  0.94974  Biso   1.000  Ne
  He61     1.0000 0.26378  0.93910  0.93684  Biso   1.000  He
  He62     1.0000 0.27375  0.91601  0.95851  Biso   1.000  He
  Ne62     1.0000 0.27292  0.88559  0.94898  Biso   1.000  Ne
  Ne63     1.0000 0.06977  0.08107  0.20710  Biso   1.000  Ne
  He63     1.0000 0.06970  0.11347  0.21313  Biso   1.000  He
  He64     1.0000 0.08072  0.11998  0.24416  Biso   1.000  He
  Ne64     1.0000 0.08527  0.15263  0.24954  Biso   1.000  Ne
  Ne65     1.0000 0.27582  0.90825  0.43967  Biso   1.000  Ne
  He65     1.0000 0.29540  0.88439  0.42425  Biso   1.000  He
  He66     1.0000 0.32751  0.89377  0.42454  Biso   1.000  He
  Ne66     1.0000 0.34481  0.87161  0.40821  Biso   1.000  Ne
  Ne67     1.0000 0.68766  0.39354  0.22786  Biso   1.000  Ne
  He67     1.0000 0.67729  0.36484  0.21669  Biso   1.000  He
  He68     1.0000 0.69436  0.35303  0.19193  Biso   1.000  He
  Ne68     1.0000 0.67894  0.32720  0.17763  Biso   1.000  Ne
  Ne69     1.0000 0.14457  0.34649  0.99547  Biso   1.000  Ne
  He69     1.0000 0.17249  0.35659  0.97993  Biso   1.000  He
  He70     1.0000 0.18463  0.38115  0.99590  Biso   1.000  He
  Ne70     1.0000 0.21538  0.39106  0.98287  Biso   1.000  Ne
  Ne71     1.0000 0.73054  0.72619  0.65722  Biso   1.000  Ne
  He71     1.0000 0.70679  0.74126  0.63697  Biso   1.000  He
  He72     1.0000 0.68299  0.72214  0.62491  Biso   1.000  He
  Ne72     1.0000 0.66400  0.74449  0.60918  Biso   1.000  Ne
  Ne73     1.0000 0.14289  0.77510  0.10674  Biso   1.000  Ne
  He73     1.0000 0.11418  0.78086  0.09104  Biso   1.000  He
  He74     1.0000 0.08942  0.79204  0.11139  Biso   1.000  He
  Ne74     1.0000 0.06031  0.79370  0.09531  Biso   1.000  Ne
  Ne75     1.0000 0.58566  0.21642  0.26458  Biso   1.000  Ne
  He75     1.0000 0.59449  0.25173  0.26870  Biso   1.000  He
  He76     1.0000 0.62298  0.25363  0.28606  Biso   1.000  He
  Ne76     1.0000 0.63665  0.28659  0.29031  Biso   1.000  Ne
  Ne77     1.0000 0.66190  0.57345  0.91242  Biso   1.000  Ne
  He77     1.0000 0.67600  0.55881  0.93810  Biso   1.000  He
  He78     1.0000 0.71049  0.55776  0.93669  Biso   1.000  He
  Ne78     1.0000 0.72643  0.54385  0.96262  Biso   1.000  Ne
  Ne79     1.0000 0.71600  0.40701  0.39891  Biso   1.000  Ne
  He79     1.0000 0.74873  0.41406  0.39763  Biso   1.000  He
  He80     1.0000 0.76500  0.39661  0.42189  Biso   1.000  He
  Ne80     1.0000 0.79629  0.40358  0.42489  Biso   1.000  Ne
  Ne81     1.0000 0.17041  0.24390  0.62777  Biso   1.000  Ne
  He81     1.0000 0.20036  0.25407  0.61667  Biso   1.000  He
  He82     1.0000 0.22333  0.23262  0.62374  Biso   1.000  He
  Ne82     1.0000 0.25235  0.23859  0.60998  Biso   1.000  Ne
  Ne83     1.0000 0.42055  0.25741  0.17632  Biso   1.000  Ne
  He83     1.0000 0.42006  0.27664  0.14724  Biso   1.000  He
  He84     1.0000 0.39423  0.29823  0.14273  Biso   1.000  He
  Ne84     1.0000 0.39912  0.32032  0.12214  Biso   1.000  Ne
  Ne85     1.0000 0.84863  0.69225  0.26753  Biso   1.000  Ne
  He85     1.0000 0.86504  0.72265  0.27383  Biso   1.000  He
  He86     1.0000 0.86169  0.74441  0.24969  Biso   1.000  He
  Ne86     1.0000 0.87416  0.77519  0.25838  Biso   1.000  Ne
  Ne87     1.0000 0.20119  0.29620  0.42622  Biso   1.000  Ne
  He87     1.0000 0.19311  0.29479  0.39401  Biso   1.000  He
  He88     1.0000 0.19072  0.32216  0.37976  Biso   1.000  He
  Ne88     1.0000 0.18947  0.31966  0.34568  Biso   1.000  Ne
  Ne89     1.0000 0.34670  0.79121  0.79446  Biso   1.000  Ne
  He89     1.0000 0.37309  0.77928  0.80835  Biso   1.000  He
  He90     1.0000 0.39973  0.79560  0.80012  Biso   1.000  He
  Ne90     1.0000 0.42775  0.78120  0.81239  Biso   1.000  Ne
  Ne91     1.0000 0.56193  0.78622  0.37923  Biso   1.000  Ne
  He91     1.0000 0.56495  0.81664  0.38885  Biso   1.000  He
  He92     1.0000 0.56386  0.83783  0.36004  Biso   1.000  He
  Ne92     1.0000 0.56939  0.86802  0.36539  Biso   1.000  Ne
  Ne93     1.0000 0.89281  0.80617  0.14639  Biso   1.000  Ne
  He93     1.0000 0.89502  0.77321  0.14069  Biso   1.000  He
  He94     1.0000 0.88233  0.75280  0.16288  Biso   1.000  He
  Ne94     1.0000 0.88609  0.72067  0.15942  Biso   1.000  Ne
  Ne95     1.0000 0.81059  0.14390  0.85881  Biso   1.000  Ne
  He95     1.0000 0.81547  0.16377  0.88683  Biso   1.000  He
  He96     1.0000 0.79663  0.16074  0.91176  Biso   1.000  He
  Ne96     1.0000 0.80387  0.18011  0.93691  Biso   1.000  Ne
  Ne97     1.0000 0.09008  0.28406  0.73430  Biso   1.000  Ne
  He97     1.0000 0.09843  0.26865  0.70447  Biso   1.000  He
  He98     1.0000 0.08226  0.27932  0.67644  Biso   1.000  He
  Ne98     1.0000 0.09375  0.26219  0.64937  Biso   1.000  Ne
  Ne99     1.0000 0.90920  0.41414  0.64404  Biso   1.000  Ne
  He99     1.0000 0.91953  0.41812  0.61358  Biso   1.000  He
  He100    1.0000 0.94365  0.39947  0.60647  Biso   1.000  He
  Ne100    1.0000 0.95282  0.40116  0.57718  Biso   1.000  Ne
  Ne101    1.0000 0.89436  0.07951  0.85500  Biso   1.000  Ne
  He101    1.0000 0.88810  0.09634  0.88349  Biso   1.000  He
  He102    1.0000 0.90768  0.08812  0.90834  Biso   1.000  He
  Ne102    1.0000 0.90352  0.10425  0.93862  Biso   1.000  Ne
  Ne103    1.0000 0.02975  0.19560  0.38288  Biso   1.000  Ne
  He103    1.0000 0.03459  0.16744  0.36269  Biso   1.000  He
  He104    1.0000 0.01355  0.16271  0.33530  Biso   1.000  He
  Ne104    1.0000 0.02364  0.14157  0.31443  Biso   1.000  Ne
  Ne105    1.0000 0.04396  0.89346  0.09616  Biso   1.000  Ne
  He105    1.0000 0.07789  0.88774  0.10236  Biso   1.000  He
  He106    1.0000 0.09608  0.91730  0.10806  Biso   1.000  He
  Ne106    1.0000 0.12484  0.91669  0.09760  Biso   1.000  Ne
  Ne107    1.0000 0.47801  0.80940  0.13879  Biso   1.000  Ne
  He107    1.0000 0.48972  0.80475  0.16840  Biso   1.000  He
  He108    1.0000 0.47317  0.82159  0.19090  Biso   1.000  He
  Ne108    1.0000 0.48052  0.81944  0.22166  Biso   1.000  Ne
  Ne109    1.0000 0.07166  0.40378  0.42991  Biso   1.000  Ne
  He109    1.0000 0.10458  0.40283  0.43562  Biso   1.000  He
  He110    1.0000 0.11578  0.37541  0.42291  Biso   1.000  He
  Ne110    1.0000 0.14940  0.37063  0.42657  Biso   1.000  Ne
  Ne111    1.0000 0.72255  0.05225  0.39659  Biso   1.000  Ne
  He111    1.0000 0.69616  0.05516  0.41540  Biso   1.000  He
  He112    1.0000 0.69517  0.08465  0.42801  Biso   1.000  He
  Ne112    1.0000 0.66808  0.09050  0.44778  Biso   1.000  Ne
  Ne113    1.0000 0.79390  0.50612  0.25046  Biso   1.000  Ne
  He113    1.0000 0.82681  0.51182  0.24587  Biso   1.000  He
  He114    1.0000 0.84254  0.52606  0.27026  Biso   1.000  He
  Ne114    1.0000 0.87337  0.53145  0.26535  Biso   1.000  Ne
  Ne115    1.0000 0.23653  0.92651  0.19437  Biso   1.000  Ne
  He115    1.0000 0.26644  0.93326  0.18189  Biso   1.000  He
  He116    1.0000 0.26839  0.93306  0.14799  Biso   1.000  He
  Ne116    1.0000 0.29992  0.93012  0.13697  Biso   1.000  Ne
  Ne117    1.0000 0.38105  0.37587  0.82204  Biso   1.000  Ne
  He117    1.0000 0.38095  0.35831  0.79604  Biso   1.000  He
  He118    1.0000 0.39777  0.32935  0.80099  Biso   1.000  He
  Ne118    1.0000 0.40388  0.31091  0.77425  Biso   1.000  Ne
  Ne119    1.0000 0.83918  0.70299  0.39177  Biso   1.000  Ne
  He119    1.0000 0.85774  0.69724  0.42105  Biso   1.000  He
  He120    1.0000 0.89083  0.69525  0.41636  Biso   1.000  He
  Ne120    1.0000 0.90983  0.69427  0.44458  Biso   1.000  Ne
  Ne121    1.0000 0.05615  0.71781  0.61516  Biso   1.000  Ne
  He121    1.0000 0.06591  0.69379  0.63316  Biso   1.000  He
  He122    1.0000 0.04839  0.66542  0.63083  Biso   1.000  He
  Ne122    1.0000 0.05446  0.63919  0.64940  Biso   1.000  Ne
  Ne123    1.0000 0.57472  0.95149  0.23671  Biso   1.000  Ne
  He123    1.0000 0.57499  0.91791  0.24395  Biso   1.000  He
  He124    1.0000 0.55356  0.90885  0.26921  Biso   1.000  He
  Ne124    1.0000 0.55487  0.87362  0.27288  Biso   1.000  Ne
  Ne125    1.0000 0.50515  0.38878  0.30413  Biso   1.000  Ne
  He125    1.0000 0.52046  0.36204  0.31418  Biso   1.000  He
  He126    1.0000 0.54689  0.35258  0.29581  Biso   1.000  He
  Ne126    1.0000 0.56159  0.32305  0.30530  Biso   1.000  Ne
  Ne127    1.0000 0.87662  0.36845  0.25775  Biso   1.000  Ne
  He127    1.0000 0.90527  0.35573  0.24956  Biso   1.000  He
  He128    1.0000 0.90673  0.32561  0.24137  Biso   1.000  He
  Ne128    1.0000 0.93661  0.31595  0.24244  Biso   1.000  Ne
  Ne129    1.0000 0.11957  0.74732  0.75509  Biso   1.000  Ne
  He129    1.0000 0.13215  0.71515  0.75602  Biso   1.000  He
  He130    1.0000 0.12531  0.69808  0.72590  Biso   1.000  He
  Ne130    1.0000 0.13582  0.66794  0.71887  Biso   1.000  Ne
  Ne131    1.0000 0.01945  0.41052  0.52370  Biso   1.000  Ne
  He131    1.0000 0.00971  0.40872  0.49196  Biso   1.000  He
  He132    1.0000 0.98383  0.42965  0.48673  Biso   1.000  He
  Ne132    1.0000 0.96938  0.42944  0.45576  Biso   1.000  Ne
  Ne133    1.0000 0.37740  0.27046  0.95013  Biso   1.000  Ne
  He133    1.0000 0.39555  0.29535  0.94852  Biso   1.000  He
  He134    1.0000 0.38979  0.31610  0.92343  Biso   1.000  He
  Ne134    1.0000 0.41212  0.33758  0.91868  Biso   1.000  Ne
  Ne135    1.0000 0.92381  0.98332  0.97873  Biso   1.000  Ne
  He135    1.0000 0.93023  0.00663  0.00053  Biso   1.000  He
  He136    1.0000 0.92171  0.03537  0.99015  Biso   1.000  He
  Ne136    1.0000 0.93115  0.05865  0.01331  Biso   1.000  Ne
  Ne137    1.0000 0.52141  0.76385  0.08086  Biso   1.000  Ne
  He137    1.0000 0.51428  0.73847  0.10292  Biso   1.000  He
  He138    1.0000 0.53844  0.73812  0.12541  Biso   1.000  He
  Ne138    1.0000 0.53488  0.71444  0.14833  Biso   1.000  Ne
  Ne139    1.0000 0.81441  0.39181  0.63442  Biso   1.000  Ne
  He139    1.0000 0.82082  0.38353  0.66748  Biso   1.000  He
  He140    1.0000 0.80998  0.40726  0.69102  Biso   1.000  He
  Ne140    1.0000 0.81843  0.39980  0.72228  Biso   1.000  Ne
  Ne141    1.0000 0.93042  0.52752  0.44662  Biso   1.000  Ne
  He141    1.0000 0.90475  0.54330  0.45979  Biso   1.000  He
  He142    1.0000 0.90045  0.57508  0.44932  Biso   1.000  He
  Ne142    1.0000 0.87412  0.58947  0.46558  Biso   1.000  Ne
  Ne143    1.0000 0.34280  0.65876  0.88286  Biso   1.000  Ne
  He143    1.0000 0.36063  0.64036  0.90070  Biso   1.000  He
  He144    1.0000 0.36071  0.64591  0.93461  Biso   1.000  He
  Ne144    1.0000 0.38691  0.66267  0.94555  Biso   1.000  Ne
  Ne145    1.0000 0.60827  0.16649  0.02734  Biso   1.000  Ne
  He145    1.0000 0.63014  0.15232  0.04710  Biso   1.000  He
  He146    1.0000 0.66137  0.15921  0.04085  Biso   1.000  He
  Ne146    1.0000 0.67772  0.13749  0.02291  Biso   1.000  Ne
  Ne147    1.0000 0.60988  0.26675  0.95134  Biso   1.000  Ne
  He147    1.0000 0.60597  0.23549  0.94284  Biso   1.000  He
  He148    1.0000 0.62364  0.21788  0.96263  Biso   1.000  He
  Ne148    1.0000 0.62501  0.18587  0.95734  Biso   1.000  Ne
  Ne149    1.0000 0.23392  0.67597  0.45886  Biso   1.000  Ne
  He149    1.0000 0.21737  0.69534  0.43699  Biso   1.000  He
  He150    1.0000 0.22249  0.68667  0.40299  Biso   1.000  He
  Ne150    1.0000 0.21027  0.70821  0.37654  Biso   1.000  Ne
  Ne151    1.0000 0.31341  0.60935  0.79753  Biso   1.000  Ne
  He151    1.0000 0.30118  0.59497  0.82488  Biso   1.000  He
  He152    1.0000 0.27378  0.57793  0.81445  Biso   1.000  He
  Ne152    1.0000 0.25624  0.56727  0.83882  Biso   1.000  Ne
  Ne153    1.0000 0.14299  0.67041  0.61662  Biso   1.000  Ne
  He153    1.0000 0.16265  0.67607  0.64366  Biso   1.000  He
  He154    1.0000 0.19410  0.66422  0.64341  Biso   1.000  He
  Ne154    1.0000 0.21359  0.67204  0.67008  Biso   1.000  Ne
  Ne155    1.0000 0.06035  0.04012  0.11175  Biso   1.000  Ne
  He155    1.0000 0.09391  0.04443  0.11900  Biso   1.000  He
  He156    1.0000 0.11096  0.06103  0.09538  Biso   1.000  He
  Ne156    1.0000 0.14376  0.05857  0.09904  Biso   1.000  Ne
  Ne157    1.0000 0.34721  0.06479  0.67122  Biso   1.000  Ne
  He157    1.0000 0.35572  0.07093  0.70360  Biso   1.000  He
  He158    1.0000 0.37241  0.09955  0.70834  Biso   1.000  He
  Ne158    1.0000 0.37830  0.10567  0.74063  Biso   1.000  Ne
  Ne159    1.0000 0.68595  0.92368  0.81304  Biso   1.000  Ne
  He159    1.0000 0.69166  0.93014  0.84609  Biso   1.000  He
  He160    1.0000 0.70278  0.90423  0.86370  Biso   1.000  He
  Ne160    1.0000 0.71606  0.91083  0.89267  Biso   1.000  Ne
  Ne161    1.0000 0.17655  0.32444  0.62122  Biso   1.000  Ne
  He161    1.0000 0.17520  0.35939  0.62556  Biso   1.000  He
  He162    1.0000 0.18649  0.37474  0.59967  Biso   1.000  He
  Ne162    1.0000 0.18225  0.40808  0.60013  Biso   1.000  Ne
  Ne163    1.0000 0.42767  0.89916  0.61614  Biso   1.000  Ne
  He163    1.0000 0.45380  0.90737  0.59656  Biso   1.000  He
  He164    1.0000 0.46949  0.93595  0.60703  Biso   1.000  He
  Ne164    1.0000 0.48648  0.94765  0.58449  Biso   1.000  Ne
  Ne165    1.0000 0.40215  0.22809  0.69392  Biso   1.000  Ne
  He165    1.0000 0.38049  0.21247  0.71292  Biso   1.000  He
  He166    1.0000 0.35609  0.19431  0.69616  Biso   1.000  He
  Ne166    1.0000 0.33357  0.18121  0.71285  Biso   1.000  Ne
  Ne167    1.0000 0.07608  0.67077  0.45800  Biso   1.000  Ne
  He167    1.0000 0.06834  0.65573  0.42848  Biso   1.000  He
  He168    1.0000 0.05509  0.67478  0.40483  Biso   1.000  He
  Ne168    1.0000 0.05454  0.66179  0.37309  Biso   1.000  Ne
  Ne169    1.0000 0.87323  0.35881  0.35199  Biso   1.000  Ne
  He169    1.0000 0.88064  0.38144  0.37548  Biso   1.000  He
  He170    1.0000 0.88296  0.37153  0.40808  Biso   1.000  He
  Ne170    1.0000 0.89412  0.39246  0.42961  Biso   1.000  Ne
  Ne171    1.0000 0.52244  0.17141  0.16474  Biso   1.000  Ne
  He171    1.0000 0.50452  0.14889  0.17852  Biso   1.000  He
  He172    1.0000 0.48715  0.15835  0.20465  Biso   1.000  He
  Ne172    1.0000 0.46671  0.13767  0.22086  Biso   1.000  Ne
  Ne173    1.0000 0.18149  0.88032  0.69914  Biso   1.000  Ne
  He173    1.0000 0.15531  0.89067  0.71442  Biso   1.000  He
  He174    1.0000 0.14170  0.86559  0.73241  Biso   1.000  He
  Ne174    1.0000 0.11233  0.87383  0.74868  Biso   1.000  Ne
  Ne175    1.0000 0.90757  0.86306  0.84480  Biso   1.000  Ne
  He175    1.0000 0.88454  0.83756  0.84971  Biso   1.000  He
  He176    1.0000 0.85559  0.84557  0.86114  Biso   1.000  He
  Ne176    1.0000 0.83084  0.82005  0.86477  Biso   1.000  Ne
  Ne177    1.0000 0.89274  0.56567  0.33515  Biso   1.000  Ne
  He177    1.0000 0.87849  0.59495  0.34558  Biso   1.000  He
  He178    1.0000 0.89556  0.62188  0.33676  Biso   1.000  He
  Ne178    1.0000 0.88461  0.64992  0.34998  Biso   1.000  Ne
  Ne179    1.0000 0.48385  0.96067  0.43894  Biso   1.000  Ne
  He179    1.0000 0.51551  0.95733  0.45351  Biso   1.000  He
  He180    1.0000 0.54088  0.94359  0.43740  Biso   1.000  He
  Ne180    1.0000 0.56540  0.94080  0.45970  Biso   1.000  Ne
  Ne181    1.0000 0.81959  0.63633  0.70433  Biso   1.000  Ne
  He181    1.0000 0.84580  0.62187  0.72068  Biso   1.000  He
  He182    1.0000 0.86104  0.64435  0.73777  Biso   1.000  He
  Ne182    1.0000 0.88616  0.63265  0.75158  Biso   1.000  Ne
  Ne183    1.0000 0.47452  0.68339  0.45202  Biso   1.000  Ne
  He183    1.0000 0.47557  0.68446  0.48717  Biso   1.000  He
  He184    1.0000 0.46538  0.65449  0.50052  Biso   1.000  He
  Ne184    1.0000 0.46790  0.65798  0.53185  Biso   1.000  Ne
  Ne185    1.0000 0.28102  0.83080  0.63125  Biso   1.000  Ne
  He185    1.0000 0.30788  0.84984  0.62114  Biso   1.000  He
  He186    1.0000 0.30998  0.88028  0.63448  Biso   1.000  He
  Ne186    1.0000 0.33500  0.89714  0.62371  Biso   1.000  Ne
  Ne187    1.0000 0.32057  0.03164  0.80954  Biso   1.000  Ne
  He187    1.0000 0.31725  0.00066  0.82360  Biso   1.000  He
  He188    1.0000 0.31494  0.00249  0.85925  Biso   1.000  He
  Ne188    1.0000 0.31565  0.97336  0.87601  Biso   1.000  Ne
  Ne189    1.0000 0.56847  0.68953  0.94712  Biso   1.000  Ne
  He189    1.0000 0.60009  0.68480  0.94946  Biso   1.000  He
  He190    1.0000 0.60655  0.65752  0.93302  Biso   1.000  He
  Ne190    1.0000 0.63601  0.65052  0.93432  Biso   1.000  Ne
  Ne191    1.0000 0.92302  0.35218  0.77858  Biso   1.000  Ne
  He191    1.0000 0.92148  0.37251  0.75280  Biso   1.000  He
  He192    1.0000 0.90375  0.39849  0.75447  Biso   1.000  He
  Ne192    1.0000 0.90302  0.41708  0.72556  Biso   1.000  Ne
  Ne193    1.0000 0.88467  0.88328  0.20360  Biso   1.000  Ne
  He193    1.0000 0.85710  0.87367  0.22177  Biso   1.000  He
  He194    1.0000 0.84281  0.89802  0.23933  Biso   1.000  He
  Ne194    1.0000 0.81400  0.88997  0.25348  Biso   1.000  Ne
  Ne195    1.0000 0.91711  0.08266  0.15341  Biso   1.000  Ne
  He195    1.0000 0.91605  0.05412  0.13818  Biso   1.000  He
  He196    1.0000 0.91817  0.05212  0.10434  Biso   1.000  He
  Ne196    1.0000 0.91887  0.02185  0.09149  Biso   1.000  Ne
  Ne197    1.0000 0.39368  0.71140  0.48434  Biso   1.000  Ne
  He197    1.0000 0.39629  0.74062  0.46623  Biso   1.000  He
  He198    1.0000 0.37004  0.74772  0.44696  Biso   1.000  He
  Ne198    1.0000 0.37752  0.77289  0.42564  Biso   1.000  Ne
  Ne199    1.0000 0.56183  0.80066  0.61937  Biso   1.000  Ne
  He199    1.0000 0.56604  0.82890  0.63865  Biso   1.000  He
  He200    1.0000 0.56654  0.85762  0.62568  Biso   1.000  He
  Ne200    1.0000 0.57256  0.88401  0.64634  Biso   1.000  Ne
  Ne201    1.0000 0.60835  0.36039  0.12031  Biso   1.000  Ne
  He201    1.0000 0.60211  0.32793  0.12713  Biso   1.000  He
  He202    1.0000 0.60015  0.30517  0.10025  Biso   1.000  He
  Ne202    1.0000 0.58921  0.27358  0.10936  Biso   1.000  Ne
  Ne203    1.0000 0.80493  0.06040  0.20003  Biso   1.000  Ne
  He203    1.0000 0.81993  0.07589  0.17340  Biso   1.000  He
  He204    1.0000 0.81071  0.06415  0.14343  Biso   1.000  He
  Ne204    1.0000 0.82598  0.08000  0.11711  Biso   1.000  Ne
  Ne205    1.0000 0.71379  0.37433  0.96684  Biso   1.000  Ne
  He205    1.0000 0.72203  0.39367  0.94030  Biso   1.000  He
  He206    1.0000 0.75301  0.39621  0.93591  Biso   1.000  He
  Ne206    1.0000 0.75951  0.40725  0.90752  Biso   1.000  Ne
  Ne207    1.0000 0.47374  0.53463  0.98939  Biso   1.000  Ne
  He207    1.0000 0.49930  0.51916  0.98986  Biso   1.000  He
  He208    1.0000 0.51620  0.51946  0.01802  Biso   1.000  He
  Ne208    1.0000 0.54669  0.50389  0.01730  Biso   1.000  Ne
  Ne209    1.0000 0.30735  0.20998  0.98419  Biso   1.000  Ne
  He209    1.0000 0.31246  0.18438  0.00408  Biso   1.000  He
  He210    1.0000 0.33258  0.16054  0.99341  Biso   1.000  He
  Ne210    1.0000 0.33978  0.13878  0.02119  Biso   1.000  Ne
  Ne211    1.0000 0.43180  0.38756  0.08795  Biso   1.000  Ne
  He211    1.0000 0.44200  0.40807  0.06511  Biso   1.000  He
  He212    1.0000 0.46884  0.42729  0.07100  Biso   1.000  He
  Ne212    1.0000 0.47344  0.45321  0.04942  Biso   1.000  Ne
  Ne213    1.0000 0.91945  0.93485  0.90440  Biso   1.000  Ne
  He213    1.0000 0.90651  0.92104  0.93038  Biso   1.000  He
  He214    1.0000 0.92235  0.89203  0.93768  Biso   1.000  He
  Ne214    1.0000 0.91193  0.87112  0.95900  Biso   1.000  Ne
  Ne215    1.0000 0.30858  0.80569  0.22262  Biso   1.000  Ne
  He215    1.0000 0.32478  0.83538  0.22063  Biso   1.000  He
  He216    1.0000 0.32361  0.85855  0.24599  Biso   1.000  He
  Ne216    1.0000 0.33844  0.88924  0.24502  Biso   1.000  Ne
  Ne217    1.0000 0.27615  0.90697  0.33418  Biso   1.000  Ne
  He217    1.0000 0.30540  0.91078  0.31981  Biso   1.000  He
  He218    1.0000 0.33389  0.90744  0.33571  Biso   1.000  He
  Ne218    1.0000 0.35954  0.91171  0.31485  Biso   1.000  Ne
  Ne219    1.0000 0.90008  0.75255  0.83272  Biso   1.000  Ne
  He219    1.0000 0.89061  0.74845  0.79948  Biso   1.000  He
  He220    1.0000 0.86518  0.76805  0.79578  Biso   1.000  He
  Ne220    1.0000 0.85518  0.76789  0.76328  Biso   1.000  Ne
  Ne221    1.0000 0.94182  0.77107  0.46465  Biso   1.000  Ne
  He221    1.0000 0.93708  0.77188  0.43251  Biso   1.000  He
  He222    1.0000 0.93954  0.80222  0.41860  Biso   1.000  He
  Ne222    1.0000 0.93865  0.80117  0.38605  Biso   1.000  Ne
  Ne223    1.0000 0.81493  0.84097  0.94726  Biso   1.000  Ne
  He223    1.0000 0.81553  0.86932  0.93069  Biso   1.000  He
  He224    1.0000 0.82661  0.89668  0.95236  Biso   1.000  He
  Ne224    1.0000 0.82856  0.92593  0.93842  Biso   1.000  Ne
  Ne225    1.0000 0.08485  0.36127  0.70660  Biso   1.000  Ne
  He225    1.0000 0.09057  0.35421  0.67312  Biso   1.000  He
  He226    1.0000 0.06724  0.36233  0.65135  Biso   1.000  He
  Ne226    1.0000 0.07479  0.35490  0.62031  Biso   1.000  Ne
  Ne227    1.0000 0.57408  0.42378  0.06878  Biso   1.000  Ne
  He227    1.0000 0.55669  0.41816  0.09423  Biso   1.000  He
  He228    1.0000 0.54036  0.44584  0.10405  Biso   1.000  He
  Ne228    1.0000 0.51946  0.44233  0.12916  Biso   1.000  Ne
  Ne229    1.0000 0.34043  0.15478  0.42395  Biso   1.000  Ne
  He229    1.0000 0.34653  0.12395  0.41512  Biso   1.000  He
  He230    1.0000 0.32868  0.10333  0.43239  Biso   1.000  He
  Ne230    1.0000 0.34002  0.07177  0.43232  Biso   1.000  Ne
  Ne231    1.0000 0.38898  0.14813  0.33353  Biso   1.000  Ne
  He231    1.0000 0.40766  0.12909  0.31459  Biso   1.000  He
  He232    1.0000 0.39112  0.10286  0.30271  Biso   1.000  He
  Ne232    1.0000 0.41023  0.08197  0.28296  Biso   1.000  Ne
  Ne233    1.0000 0.75128  0.86881  0.67881  Biso   1.000  Ne
  He233    1.0000 0.76458  0.84940  0.65422  Biso   1.000  He
  He234    1.0000 0.75327  0.85717  0.62335  Biso   1.000  He
  Ne234    1.0000 0.76555  0.84257  0.59805  Biso   1.000  Ne
  Ne235    1.0000 0.66569  0.68276  0.21721  Biso   1.000  Ne
  He235    1.0000 0.69024  0.70319  0.20869  Biso   1.000  He
  He236    1.0000 0.67899  0.73036  0.19230  Biso   1.000  He
  Ne236    1.0000 0.67499  0.75309  0.21364  Biso   1.000  Ne
  Ne237    1.0000 0.85550  0.72054  0.92066  Biso   1.000  Ne
  He237    1.0000 0.87562  0.74974  0.91665  Biso   1.000  He
  He238    1.0000 0.86304  0.77363  0.93248  Biso   1.000  He
  Ne238    1.0000 0.88203  0.80175  0.93604  Biso   1.000  Ne
  Ne239    1.0000 0.41309  0.99424  0.55709  Biso   1.000  Ne
  He239    1.0000 0.41170  0.00225  0.58976  Biso   1.000  He
  He240    1.0000 0.42474  0.02919  0.60208  Biso   1.000  He
  Ne240    1.0000 0.41219  0.03442  0.63480  Biso   1.000  Ne
  Ne241    1.0000 0.14604  0.19373  0.87796  Biso   1.000  Ne
  He241    1.0000 0.12168  0.17443  0.87389  Biso   1.000  He
  He242    1.0000 0.09087  0.19072  0.87166  Biso   1.000  He
  Ne242    1.0000 0.06795  0.16964  0.86546  Biso   1.000  Ne
  Ne243    1.0000 0.07702  0.43111  0.59736  Biso   1.000  Ne
  He243    1.0000 0.06073  0.45863  0.59447  Biso   1.000  He
  He244    1.0000 0.02941  0.45117  0.59894  Biso   1.000  He
  Ne244    1.0000 0.00997  0.47739  0.59641  Biso   1.000  Ne
  Ne245    1.0000 0.49723  0.05635  0.23205  Biso   1.000  Ne
  He245    1.0000 0.48981  0.06297  0.19917  Biso   1.000  He
  He246    1.0000 0.50584  0.04582  0.17379  Biso   1.000  He
  Ne246    1.0000 0.49464  0.05107  0.14503  Biso   1.000  Ne
  Ne247    1.0000 0.24714  0.14152  0.88684  Biso   1.000  Ne
  He247    1.0000 0.24433  0.14778  0.91730  Biso   1.000  He
  He248    1.0000 0.24404  0.12005  0.93405  Biso   1.000  He
  Ne248    1.0000 0.23943  0.12812  0.96737  Biso   1.000  Ne
  Ne249    1.0000 0.60691  0.25399  0.38547  Biso   1.000  Ne
  He249    1.0000 0.58167  0.24842  0.36676  Biso   1.000  He
  He250    1.0000 0.55368  0.26455  0.37570  Biso   1.000  He
  Ne250    1.0000 0.52728  0.26572  0.35340  Biso   1.000  Ne
  Ne251    1.0000 0.41286  0.78719  0.65409  Biso   1.000  Ne
  He251    1.0000 0.39058  0.81368  0.65463  Biso   1.000  He
  He252    1.0000 0.40382  0.83999  0.66985  Biso   1.000  He
  Ne252    1.0000 0.38308  0.86411  0.67474  Biso   1.000  Ne
  Ne253    1.0000 0.08486  0.32376  0.79814  Biso   1.000  Ne
  He253    1.0000 0.08032  0.35476  0.78292  Biso   1.000  He
  He254    1.0000 0.07211  0.37848  0.80584  Biso   1.000  He
  Ne254    1.0000 0.06705  0.41069  0.79570  Biso   1.000  Ne
  Ne255    1.0000 0.04267  0.55527  0.34809  Biso   1.000  Ne
  He255    1.0000 0.03974  0.55110  0.38201  Biso   1.000  He
  He256    1.0000 0.04641  0.57841  0.39817  Biso   1.000  He
  Ne256    1.0000 0.04245  0.57858  0.43209  Biso   1.000  Ne
  Ne257    1.0000 0.12260  0.56273  0.35137  Biso   1.000  Ne
  He257    1.0000 0.11800  0.59237  0.34014  Biso   1.000  He
  He258    1.0000 0.14535  0.61039  0.34734  Biso   1.000  He
  Ne258    1.0000 0.14819  0.64016  0.33430  Biso   1.000  Ne
  Ne259    1.0000 0.90319  0.18549  0.86358  Biso   1.000  Ne
  He259    1.0000 0.90045  0.19988  0.83561  Biso   1.000  He
  He260    1.0000 0.90560  0.17892  0.81009  Biso   1.000  He
  Ne260    1.0000 0.90332  0.19212  0.78284  Biso   1.000  Ne
  Ne261    1.0000 0.80636  0.64377  0.61001  Biso   1.000  Ne
  He261    1.0000 0.79913  0.61257  0.61713  Biso   1.000  He
  He262    1.0000 0.81803  0.59617  0.63772  Biso   1.000  He
  Ne262    1.0000 0.81133  0.56537  0.63582  Biso   1.000  Ne
  Ne263    1.0000 0.27050  0.79242  0.37118  Biso   1.000  Ne
  He263    1.0000 0.27786  0.76337  0.38699  Biso   1.000  He
  He264    1.0000 0.29969  0.74361  0.36859  Biso   1.000  He
  Ne264    1.0000 0.30536  0.71611  0.38115  Biso   1.000  Ne
  Ne265    1.0000 0.54967  0.05351  0.56832  Biso   1.000  Ne
  He265    1.0000 0.54505  0.02102  0.56237  Biso   1.000  He
  He266    1.0000 0.56631  0.01068  0.53833  Biso   1.000  He
  Ne266    1.0000 0.56092  0.97974  0.53009  Biso   1.000  Ne
  Ne267    1.0000 0.70481  0.42090  0.64941  Biso   1.000  Ne
  He267    1.0000 0.70237  0.43108  0.68032  Biso   1.000  He
  He268    1.0000 0.67737  0.45357  0.67977  Biso   1.000  He
  Ne268    1.0000 0.67117  0.46648  0.70923  Biso   1.000  Ne
  Ne269    1.0000 0.06387  0.57966  0.69461  Biso   1.000  Ne
  He269    1.0000 0.08312  0.57034  0.72061  Biso   1.000  He
  He270    1.0000 0.08357  0.59320  0.74034  Biso   1.000  He
  Ne270    1.0000 0.09618  0.58454  0.76850  Biso   1.000  Ne
  Ne271    1.0000 0.42589  0.05915  0.42606  Biso   1.000  Ne
  He271    1.0000 0.45530  0.04994  0.43770  Biso   1.000  He
  He272    1.0000 0.45731  0.05913  0.47027  Biso   1.000  He
  Ne272    1.0000 0.48734  0.05000  0.47995  Biso   1.000  Ne
  Ne273    1.0000 0.19209  0.81296  0.25469  Biso   1.000  Ne
  He273    1.0000 0.18690  0.84415  0.26000  Biso   1.000  He
  He274    1.0000 0.18533  0.85497  0.28999  Biso   1.000  He
  Ne274    1.0000 0.18028  0.88787  0.29320  Biso   1.000  Ne
  Ne275    1.0000 0.67959  0.07385  0.59706  Biso   1.000  Ne
  He275    1.0000 0.65848  0.08181  0.62127  Biso   1.000  He
  He276    1.0000 0.62643  0.07562  0.61169  Biso   1.000  He
  Ne276    1.0000 0.60696  0.08788  0.63088  Biso   1.000  Ne
  Ne277    1.0000 0.58940  0.56065  0.16291  Biso   1.000  Ne
  He277    1.0000 0.59117  0.55502  0.12920  Biso   1.000  He
  He278    1.0000 0.56698  0.56890  0.11080  Biso   1.000  He
  Ne278    1.0000 0.56459  0.55966  0.07943  Biso   1.000  Ne
  Ne279    1.0000 0.75251  0.07042  0.94342  Biso   1.000  Ne
  He279    1.0000 0.78026  0.08118  0.95816  Biso   1.000  He
  He280    1.0000 0.80698  0.07782  0.93879  Biso   1.000  He
  Ne280    1.0000 0.83376  0.09223  0.95332  Biso   1.000  Ne
  Ne281    1.0000 0.38706  0.37025  0.18616  Biso   1.000  Ne
  He281    1.0000 0.39456  0.39479  0.16448  Biso   1.000  He
  He282    1.0000 0.36829  0.40962  0.14946  Biso   1.000  He
  Ne282    1.0000 0.37414  0.42849  0.12213  Biso   1.000  Ne
  Ne283    1.0000 0.30627  0.56952  0.90601  Biso   1.000  Ne
  He283    1.0000 0.33760  0.55973  0.90344  Biso   1.000  He
  He284    1.0000 0.35021  0.55673  0.93365  Biso   1.000  He
  Ne284    1.0000 0.38226  0.54578  0.93268  Biso   1.000  Ne
  Ne285    1.0000 0.39288  0.57058  0.79914  Biso   1.000  Ne
  He285    1.0000 0.40386  0.58480  0.82551  Biso   1.000  He
  He286    1.0000 0.40425  0.61859  0.81870  Biso   1.000  He
  Ne286    1.0000 0.41575  0.63872  0.84146  Biso   1.000  Ne
  Ne287    1.0000 0.66007  0.91633  0.64029  Biso   1.000  Ne
  He287    1.0000 0.65039  0.89355  0.61865  Biso   1.000  He
  He288    1.0000 0.65164  0.86431  0.63556  Biso   1.000  He
  Ne288    1.0000 0.63882  0.83676  0.62197  Biso   1.000  Ne
  Ne289    1.0000 0.40084  0.48592  0.98462  Biso   1.000  Ne
  He289    1.0000 0.41191  0.47296  0.95547  Biso   1.000  He
  He290    1.0000 0.42962  0.44361  0.96163  Biso   1.000  He
  Ne290    1.0000 0.44008  0.42743  0.93627  Biso   1.000  Ne
  Ne291    1.0000 0.33361  0.07384  0.59095  Biso   1.000  Ne
  He291    1.0000 0.32837  0.10292  0.60545  Biso   1.000  He
  He292    1.0000 0.35056  0.12626  0.59564  Biso   1.000  He
  Ne292    1.0000 0.34118  0.15664  0.60506  Biso   1.000  Ne
  Ne293    1.0000 0.76639  0.02151  0.34583  Biso   1.000  Ne
  He293    1.0000 0.79920  0.01665  0.33935  Biso   1.000  He
  He294    1.0000 0.81802  0.04364  0.34401  Biso   1.000  He
  Ne294    1.0000 0.85230  0.04051  0.33813  Biso   1.000  Ne
  Ne295    1.0000 0.88550  0.56755  0.66959  Biso   1.000  Ne
  He295    1.0000 0.90725  0.58192  0.64787  Biso   1.000  He
  He296    1.0000 0.91256  0.55925  0.62536  Biso   1.000  He
  Ne296    1.0000 0.93567  0.56891  0.59990  Biso   1.000  Ne
  Ne297    1.0000 0.02715  0.55180  0.55094  Biso   1.000  Ne
  He297    1.0000 0.02497  0.52536  0.52928  Biso   1.000  He
  He298    1.0000 0.05525  0.51473  0.51613  Biso   1.000  He
  Ne298    1.0000 0.05028  0.49005  0.49404  Biso   1.000  Ne
  Ne299    1.0000 0.18681  0.08536  0.19949  Biso   1.000  Ne
  He299    1.0000 0.17360  0.06620  0.22213  Biso   1.000  He
  He300    1.0000 0.16391  0.08215  0.25178  Biso   1.000  He
  Ne300    1.0000 0.16162  0.06496  0.27956  Biso   1.000  Ne
  Ne301    1.0000 0.55358  0.07463  0.77086  Biso   1.000  Ne
  He301    1.0000 0.57570  0.08889  0.75189  Biso   1.000  He
  He302    1.0000 0.58971  0.06407  0.73316  Biso   1.000  He
  Ne302    1.0000 0.61430  0.07254  0.71394  Biso   1.000  Ne
  Ne303    1.0000 0.88300  0.31323  0.96361  Biso   1.000  Ne
  He303    1.0000 0.86735  0.29463  0.93958  Biso   1.000  He
  He304    1.0000 0.85642  0.26268  0.94822  Biso   1.000  He
  Ne304    1.0000 0.84097  0.24621  0.92418  Biso   1.000  Ne
  Ne305    1.0000 0.17158  0.39282  0.77964  Biso   1.000  Ne
  He305    1.0000 0.17763  0.38271  0.74660  Biso   1.000  He
  He306    1.0000 0.16332  0.40654  0.72541  Biso   1.000  He
  Ne306    1.0000 0.16586  0.39541  0.69244  Biso   1.000  Ne
  Ne307    1.0000 0.59372  0.18040  0.44190  Biso   1.000  Ne
  He307    1.0000 0.57523  0.20323  0.45520  Biso   1.000  He
  He308    1.0000 0.59382  0.22578  0.46947  Biso   1.000  He
  Ne308    1.0000 0.57867  0.25024  0.48856  Biso   1.000  Ne
  Ne309    1.0000 0.59831  0.93058  0.81289  Biso   1.000  Ne
  He309    1.0000 0.58813  0.90138  0.79798  Biso   1.000  He
  He310    1.0000 0.58618  0.90079  0.76483  Biso   1.000  He
  Ne310    1.0000 0.61069  0.88682  0.74951  Biso   1.000  Ne
  Ne311    1.0000 0.90706  0.33582  0.68122  Biso   1.000  Ne
  He311    1.0000 0.88110  0.32453  0.66479  Biso   1.000  He
  He312    1.0000 0.88795  0.31284  0.63349  Biso   1.000  He
  Ne312    1.0000 0.86148  0.29581  0.62060  Biso   1.000  Ne
  Ne313    1.0000 0.57071  0.59892  0.87352  Biso   1.000  Ne
  He313    1.0000 0.60075  0.59434  0.86074  Biso   1.000  He
  He314    1.0000 0.60377  0.56520  0.84084  Biso   1.000  He
  Ne314    1.0000 0.63449  0.55769  0.83027  Biso   1.000  Ne
  Ne315    1.0000 0.84079  0.90765  0.79268  Biso   1.000  Ne
  He315    1.0000 0.86962  0.90899  0.77605  Biso   1.000  He
  He316    1.0000 0.88791  0.93054  0.79018  Biso   1.000  He
  Ne316    1.0000 0.91870  0.93254  0.77773  Biso   1.000  Ne
  Ne317    1.0000 0.57247  0.24083  0.72666  Biso   1.000  Ne
  He317    1.0000 0.56317  0.21304  0.74262  Biso   1.000  He
  He318    1.0000 0.55471  0.18640  0.72420  Biso   1.000  He
  Ne318    1.0000 0.54793  0.16035  0.74127  Biso   1.000  Ne
  Ne319    1.0000 0.10986  0.28232  0.24531  Biso   1.000  Ne
  He319    1.0000 0.10061  0.25063  0.23892  Biso   1.000  He
  He320    1.0000 0.08693  0.24853  0.20836  Biso   1.000  He
  Ne320    1.0000 0.07036  0.21941  0.20241  Biso   1.000  Ne
  Ne321    1.0000 0.18396  0.91244  0.80926  Biso   1.000  Ne
  He321    1.0000 0.21545  0.91890  0.80459  Biso   1.000  He
  He322    1.0000 0.23598  0.90388  0.82284  Biso   1.000  He
  Ne322    1.0000 0.26809  0.90473  0.81306  Biso   1.000  Ne
  Ne323    1.0000 0.55638  0.61192  0.96662  Biso   1.000  Ne
  He323    1.0000 0.56143  0.57867  0.96976  Biso   1.000  He
  He324    1.0000 0.58905  0.56751  0.95632  Biso   1.000  He
  Ne324    1.0000 0.59371  0.53194  0.95484  Biso   1.000  Ne
  Ne325    1.0000 0.41552  0.88154  0.45828  Biso   1.000  Ne
  He325    1.0000 0.41622  0.90736  0.48107  Biso   1.000  He
  He326    1.0000 0.40591  0.93348  0.46610  Biso   1.000  He
  Ne326    1.0000 0.40539  0.96031  0.48728  Biso   1.000  Ne
  Ne327    1.0000 0.99080  0.92174  0.99172  Biso   1.000  Ne
  He327    1.0000 0.01407  0.94361  0.98892  Biso   1.000  He
  He328    1.0000 0.02321  0.95855  0.01577  Biso   1.000  He
  Ne328    1.0000 0.05082  0.97620  0.01361  Biso   1.000  Ne
  Ne329    1.0000 0.38862  0.78639  0.28875  Biso   1.000  Ne
  He329    1.0000 0.39302  0.78983  0.32219  Biso   1.000  He
  He330    1.0000 0.38558  0.81929  0.33462  Biso   1.000  He
  Ne330    1.0000 0.39374  0.82174  0.36767  Biso   1.000  Ne
  Ne331    1.0000 0.09286  0.34291  0.32140  Biso   1.000  Ne
  He331    1.0000 0.07045  0.36358  0.33244  Biso   1.000  He
  He332    1.0000 0.07147  0.39134  0.31805  Biso   1.000  He
  Ne332    1.0000 0.04822  0.40937  0.33337  Biso   1.000  Ne
  Ne333    1.0000 0.04639  0.80402  0.77532  Biso   1.000  Ne
  He333    1.0000 0.06475  0.78290  0.79465  Biso   1.000  He
  He334    1.0000 0.05652  0.78393  0.82787  Biso   1.000  He
  Ne334    1.0000 0.07309  0.76431  0.84840  Biso   1.000  Ne
  Ne335    1.0000 0.29685  0.27128  0.93784  Biso   1.000  Ne
  He335    1.0000 0.28173  0.25530  0.91310  Biso   1.000  He
  He336    1.0000 0.29902  0.26441  0.88408  Biso   1.000  He
  Ne336    1.0000 0.29150  0.24871  0.85463  Biso   1.000  Ne
  Ne337    1.0000 0.54507  0.11881  0.66190  Biso   1.000  Ne
  He337    1.0000 0.55159  0.14878  0.65310  Biso   1.000  He
  He338    1.0000 0.54840  0.15350  0.62039  Biso   1.000  He
  Ne338    1.0000 0.55729  0.18524  0.61177  Biso   1.000  Ne
  Ne339    1.0000 0.92597  0.93931  0.09686  Biso   1.000  Ne
  He339    1.0000 0.90508  0.91741  0.11115  Biso   1.000  He
  He340    1.0000 0.89146  0.89656  0.08899  Biso   1.000  He
  Ne340    1.0000 0.86986  0.87485  0.10200  Biso   1.000  Ne
  Ne341    1.0000 0.44651  0.51358  0.11082  Biso   1.000  Ne
  He341    1.0000 0.42016  0.53196  0.10333  Biso   1.000  He
  He342    1.0000 0.41666  0.53855  0.07164  Biso   1.000  He
  Ne342    1.0000 0.38681  0.55289  0.06337  Biso   1.000  Ne
  Ne343    1.0000 0.87465  0.25586  0.73676  Biso   1.000  Ne
  He343    1.0000 0.88956  0.23678  0.71347  Biso   1.000  He
  He344    1.0000 0.86745  0.22220  0.69004  Biso   1.000  He
  Ne344    1.0000 0.88515  0.20688  0.66662  Biso   1.000  Ne
  Ne345    1.0000 0.31465  0.58306  0.10261  Biso   1.000  Ne
  He345    1.0000 0.29907  0.56265  0.12349  Biso   1.000  He
  He346    1.0000 0.26862  0.57099  0.12996  Biso   1.000  He
  Ne346    1.0000 0.24985  0.55044  0.14959  Biso   1.000  Ne
  Ne347    1.0000 0.66496  0.82113  0.94443  Biso   1.000  Ne
  He347    1.0000 0.67692  0.81825  0.91232  Biso   1.000  He
  He348    1.0000 0.70937  0.82387  0.91008  Biso   1.000  He
  Ne348    1.0000 0.72144  0.82422  0.87891  Biso   1.000  Ne
  Ne349    1.0000 0.70160  0.89609  0.46074  Biso   1.000  Ne
  He349    1.0000 0.66980  0.89655  0.44667  Biso   1.000  He
  He350    1.0000 0.66379  0.87550  0.42028  Biso   1.000  He
  Ne350    1.0000 0.63089  0.87333  0.41274  Biso   1.000  Ne
  Ne351    1.0000 0.06934  0.22335  0.46978  Biso   1.000  Ne
  He351    1.0000 0.06507  0.24134  0.44039  Biso   1.000  He
  He352    1.0000 0.05826  0.27403  0.44203  Biso   1.000  He
  Ne352    1.0000 0.05969  0.28840  0.41207  Biso   1.000  Ne
  Ne353    1.0000 0.55833  0.34834  0.84318  Biso   1.000  Ne
  He353    1.0000 0.56476  0.31717  0.84478  Biso   1.000  He
  He354    1.0000 0.55457  0.30349  0.87135  Biso   1.000  He
  Ne354    1.0000 0.55705  0.26964  0.87306  Biso   1.000  Ne
  Ne355    1.0000 0.22569  0.88421  0.10654  Biso   1.000  Ne
  He355    1.0000 0.21343  0.86209  0.08871  Biso   1.000  He
  He356    1.0000 0.22297  0.83175  0.09792  Biso   1.000  He
  Ne356    1.0000 0.21392  0.80514  0.07672  Biso   1.000  Ne
  Ne357    1.0000 0.34380  0.68779  0.56770  Biso   1.000  Ne
  He357    1.0000 0.31608  0.70288  0.58130  Biso   1.000  He
  He358    1.0000 0.32167  0.71465  0.61214  Biso   1.000  He
  Ne358    1.0000 0.29240  0.73057  0.62734  Biso   1.000  Ne
  Ne359    1.0000 0.70467  0.10494  0.09115  Biso   1.000  Ne
  He359    1.0000 0.71375  0.07643  0.10755  Biso   1.000  He
  He360    1.0000 0.72475  0.08227  0.13901  Biso   1.000  He
  Ne360    1.0000 0.72929  0.05393  0.15665  Biso   1.000  Ne
  Ne361    1.0000 0.25980  0.19040  0.17009  Biso   1.000  Ne
  He361    1.0000 0.24905  0.20632  0.14088  Biso   1.000  He
  He362    1.0000 0.22111  0.22014  0.14270  Biso   1.000  He
  Ne362    1.0000 0.21163  0.23672  0.11475  Biso   1.000  Ne
  Ne363    1.0000 0.59236  0.05095  0.41511  Biso   1.000  Ne
  He363    1.0000 0.57624  0.07778  0.41736  Biso   1.000  He
  He364    1.0000 0.58470  0.10101  0.39246  Biso   1.000  He
  Ne364    1.0000 0.56801  0.12928  0.38717  Biso   1.000  Ne
  Ne365    1.0000 0.27163  0.88403  0.70701  Biso   1.000  Ne
  He365    1.0000 0.29930  0.88103  0.72726  Biso   1.000  He
  He366    1.0000 0.30944  0.90853  0.74061  Biso   1.000  He
  Ne366    1.0000 0.34215  0.91082  0.74514  Biso   1.000  Ne
  Ne367    1.0000 0.68191  0.70954  0.10221  Biso   1.000  Ne
  He367    1.0000 0.65039  0.70413  0.10676  Biso   1.000  He
  He368    1.0000 0.64319  0.67743  0.12656  Biso   1.000  He
  Ne368    1.0000 0.61039  0.66791  0.12332  Biso   1.000  Ne
  Ne369    1.0000 0.37595  0.72094  0.14958  Biso   1.000  Ne
  He369    1.0000 0.38973  0.73748  0.17520  Biso   1.000  He
  He370    1.0000 0.38197  0.72606  0.20498  Biso   1.000  He
  Ne370    1.0000 0.39507  0.74462  0.22809  Biso   1.000  Ne
  Ne371    1.0000 0.15632  0.61258  0.44669  Biso   1.000  Ne
  He371    1.0000 0.18856  0.61152  0.45536  Biso   1.000  He
  He372    1.0000 0.20781  0.58490  0.44728  Biso   1.000  He
  Ne372    1.0000 0.23941  0.58696  0.45125  Biso   1.000  Ne
  Ne373    1.0000 0.38088  0.65707  0.12781  Biso   1.000  Ne
  He373    1.0000 0.38646  0.62381  0.12648  Biso   1.000  He
  He374    1.0000 0.37155  0.61118  0.15068  Biso   1.000  He
  Ne374    1.0000 0.37998  0.58203  0.15634  Biso   1.000  Ne
  Ne375    1.0000 0.14865  0.15558  0.94951  Biso   1.000  Ne
  He375    1.0000 0.12809  0.12910  0.95415  Biso   1.000  He
  He376    1.0000 0.13521  0.10187  0.93957  Biso   1.000  He
  Ne376    1.0000 0.11789  0.07426  0.94853  Biso   1.000  Ne
  Ne377    1.0000 0.28906  0.37988  0.91968  Biso   1.000  Ne
  He377    1.0000 0.31164  0.39206  0.90183  Biso   1.000  He
  He378    1.0000 0.33998  0.39685  0.91840  Biso   1.000  He
  Ne378    1.0000 0.36324  0.41215  0.90187  Biso   1.000  Ne
  Ne379    1.0000 0.05928  0.64894  0.28884  Biso   1.000  Ne
  He379    1.0000 0.03913  0.62427  0.27866  Biso   1.000  He
  He380    1.0000 0.05716  0.59623  0.27132  Biso   1.000  He
  Ne380    1.0000 0.03978  0.57382  0.25228  Biso   1.000  Ne
