data_image0
_cell_length_a       46.8477
_cell_length_b       46.5031
_cell_length_c       46.4532
_cell_angle_alpha    90
_cell_angle_beta     90
_cell_angle_gamma    90

_symmetry_space_group_name_H-M    "P 1"
_symmetry_int_tables_number       1

loop_
  _symmetry_equiv_pos_as_xyz
  'x, y, z'

loop_
  _atom_site_label
  _atom_site_occupancy
  _atom_site_fract_x
  _atom_site_fract_y
  _atom_site_fract_z
  _atom_site_thermal_displace_type
  _atom_site_B_iso_or_equiv
  _atom_site_type_symbol
  Ne1      1.0000 0.46026  0.89414  0.46223  Biso   1.000  Ne
  He1      1.0000 0.44330  0.91808  0.45050  Biso   1.000  He
  He2      1.0000 0.45389  0.94726  0.46329  Biso   1.000  He
  Ne2      1.0000 0.43225  0.97177  0.45947  Biso   1.000  Ne
  Ne3      1.0000 0.08799  0.40835  0.40108  Biso   1.000  Ne
  He3      1.0000 0.09041  0.39492  0.37027  Biso   1.000  He
  He4      1.0000 0.09830  0.36311  0.36525  Biso   1.000  He
  Ne4      1.0000 0.09586  0.35234  0.33311  Biso   1.000  Ne
  Ne5      1.0000 0.20225  0.28559  0.77717  Biso   1.000  Ne
  He5      1.0000 0.23114  0.29707  0.78383  Biso   1.000  He
  He6      1.0000 0.25594  0.28332  0.76588  Biso   1.000  He
  Ne6      1.0000 0.28325  0.29439  0.77787  Biso   1.000  Ne
  Ne7      1.0000 0.20836  0.91452  0.32005  Biso   1.000  Ne
  He7      1.0000 0.21843  0.92373  0.35093  Biso   1.000  He
  He8      1.0000 0.19556  0.92673  0.37304  Biso   1.000  He
  Ne8      1.0000 0.20996  0.93682  0.40022  Biso   1.000  Ne
  Ne9      1.0000 0.97393  0.94985  0.94352  Biso   1.000  Ne
  He9      1.0000 0.96403  0.97374  0.96458  Biso   1.000  He
  He10     1.0000 0.93234  0.97551  0.97225  Biso   1.000  He
  Ne10     1.0000 0.92570  0.99993  0.99214  Biso   1.000  Ne
  Ne11     1.0000 0.95453  0.58544  0.23499  Biso   1.000  Ne
  He11     1.0000 0.94566  0.60759  0.25981  Biso   1.000  He
  He12     1.0000 0.91686  0.62492  0.25232  Biso   1.000  He
  Ne12     1.0000 0.90627  0.64493  0.27736  Biso   1.000  Ne
  Ne13     1.0000 0.08198  0.13161  0.25846  Biso   1.000  Ne
  He13     1.0000 0.09005  0.10108  0.26574  Biso   1.000  He
  He14     1.0000 0.07749  0.07715  0.24904  Biso   1.000  He
  Ne14     1.0000 0.08802  0.04736  0.25919  Biso   1.000  Ne
  Ne15     1.0000 0.95796  0.89447  0.25667  Biso   1.000  Ne
  He15     1.0000 0.94033  0.86967  0.24024  Biso   1.000  He
  He16     1.0000 0.91598  0.85688  0.25686  Biso   1.000  He
  Ne16     1.0000 0.90259  0.83024  0.23937  Biso   1.000  Ne
  Ne17     1.0000 0.08166  0.18376  0.94293  Biso   1.000  Ne
  He17     1.0000 0.09478  0.21481  0.94581  Biso   1.000  He
  He18     1.0000 0.12585  0.21765  0.92858  Biso   1.000  He
  Ne18     1.0000 0.13837  0.24547  0.93453  Biso   1.000  Ne
  Ne19     1.0000 0.62211  0.74312  0.61929  Biso   1.000  Ne
  He19     1.0000 0.61879  0.73018  0.58640  Biso   1.000  He
  He20     1.0000 0.63106  0.69826  0.58328  Biso   1.000  He
  Ne20     1.0000 0.63157  0.68814  0.55109  Biso   1.000  Ne
  Ne21     1.0000 0.08276  0.55455  0.30006  Biso   1.000  Ne
  He21     1.0000 0.10651  0.55338  0.27618  Biso   1.000  He
  He22     1.0000 0.13814  0.54676  0.28824  Biso   1.000  He
  Ne22     1.0000 0.16198  0.54513  0.26383  Biso   1.000  Ne
  Ne23     1.0000 0.15772  0.87273  0.24587  Biso   1.000  Ne
  He23     1.0000 0.15875  0.85650  0.21611  Biso   1.000  He
  He24     1.0000 0.16025  0.82365  0.21855  Biso   1.000  He
  Ne24     1.0000 0.16272  0.80558  0.19132  Biso   1.000  Ne
  Ne25     1.0000 0.67267  0.59534  0.57660  Biso   1.000  Ne
  He25     1.0000 0.65609  0.59447  0.60695  Biso   1.000  He
  He26     1.0000 0.66235  0.62239  0.62418  Biso   1.000  He
  Ne26     1.0000 0.64463  0.62423  0.65324  Biso   1.000  Ne
  Ne27     1.0000 0.10932  0.66271  0.65459  Biso   1.000  Ne
  He27     1.0000 0.12895  0.66998  0.68319  Biso   1.000  He
  He28     1.0000 0.11802  0.65879  0.71324  Biso   1.000  He
  Ne28     1.0000 0.13829  0.66774  0.74174  Biso   1.000  Ne
  Ne29     1.0000 0.22533  0.42062  0.94467  Biso   1.000  Ne
  He29     1.0000 0.20567  0.43146  0.92070  Biso   1.000  He
  He30     1.0000 0.20262  0.41068  0.89411  Biso   1.000  He
  Ne30     1.0000 0.17960  0.41753  0.87413  Biso   1.000  Ne
  Ne31     1.0000 0.29235  0.70181  0.43982  Biso   1.000  Ne
  He31     1.0000 0.27013  0.67703  0.43719  Biso   1.000  He
  He32     1.0000 0.27049  0.65517  0.46242  Biso   1.000  He
  Ne32     1.0000 0.24821  0.63197  0.46205  Biso   1.000  Ne
  Ne33     1.0000 0.77383  0.33798  0.96933  Biso   1.000  Ne
  He33     1.0000 0.76088  0.32123  0.94504  Biso   1.000  He
  He34     1.0000 0.74204  0.29693  0.96160  Biso   1.000  He
  Ne34     1.0000 0.72195  0.28111  0.94043  Biso   1.000  Ne
  Ne35     1.0000 0.69551  0.13431  0.35943  Biso   1.000  Ne
  He35     1.0000 0.70804  0.12092  0.38637  Biso   1.000  He
  He36     1.0000 0.71645  0.14554  0.40698  Biso   1.000  He
  Ne36     1.0000 0.72509  0.13979  0.43727  Biso   1.000  Ne
  Ne37     1.0000 0.45812  0.17372  0.19578  Biso   1.000  Ne
  He37     1.0000 0.48452  0.18379  0.17775  Biso   1.000  He
  He38     1.0000 0.51425  0.18062  0.19271  Biso   1.000  He
  Ne38     1.0000 0.53943  0.19244  0.17463  Biso   1.000  Ne
  Ne39     1.0000 0.17245  0.45301  0.09049  Biso   1.000  Ne
  He39     1.0000 0.18501  0.44775  0.06045  Biso   1.000  He
  He40     1.0000 0.17238  0.46392  0.03580  Biso   1.000  He
  Ne40     1.0000 0.18851  0.45971  0.00400  Biso   1.000  Ne
  Ne41     1.0000 0.55549  0.55025  0.77528  Biso   1.000  Ne
  He41     1.0000 0.56619  0.56835  0.79963  Biso   1.000  He
  He42     1.0000 0.56530  0.59880  0.79166  Biso   1.000  He
  Ne42     1.0000 0.57705  0.62178  0.81347  Biso   1.000  Ne
  Ne43     1.0000 0.40781  0.66150  0.09857  Biso   1.000  Ne
  He43     1.0000 0.40609  0.63044  0.08821  Biso   1.000  He
  He44     1.0000 0.43365  0.61483  0.07233  Biso   1.000  He
  Ne44     1.0000 0.43443  0.58255  0.07198  Biso   1.000  Ne
  Ne45     1.0000 0.22997  0.83592  0.10236  Biso   1.000  Ne
  He45     1.0000 0.23256  0.84981  0.13527  Biso   1.000  He
  He46     1.0000 0.23889  0.88158  0.13580  Biso   1.000  He
  Ne46     1.0000 0.24180  0.89452  0.16823  Biso   1.000  Ne
  Ne47     1.0000 0.78579  0.18594  0.34022  Biso   1.000  Ne
  He47     1.0000 0.79617  0.15994  0.35726  Biso   1.000  He
  He48     1.0000 0.78440  0.13031  0.34775  Biso   1.000  He
  Ne48     1.0000 0.80428  0.11295  0.32593  Biso   1.000  Ne
  Ne49     1.0000 0.59843  0.10690  0.35224  Biso   1.000  Ne
  He49     1.0000 0.59616  0.09431  0.31957  Biso   1.000  He
  He50     1.0000 0.62559  0.08047  0.31048  Biso   1.000  He
  Ne50     1.0000 0.62344  0.06197  0.28181  Biso   1.000  Ne
  Ne51     1.0000 0.24865  0.68961  0.63440  Biso   1.000  Ne
  He51     1.0000 0.28005  0.68640  0.62306  Biso   1.000  He
  He52     1.0000 0.30073  0.71123  0.63361  Biso   1.000  He
  Ne52     1.0000 0.30699  0.73550  0.61208  Biso   1.000  Ne
  Ne53     1.0000 0.92544  0.43757  0.43107  Biso   1.000  Ne
  He53     1.0000 0.94476  0.41459  0.44326  Biso   1.000  He
  He54     1.0000 0.96359  0.42599  0.46991  Biso   1.000  He
  Ne54     1.0000 0.98770  0.40334  0.47967  Biso   1.000  Ne
  Ne55     1.0000 0.41276  0.53853  0.00306  Biso   1.000  Ne
  He55     1.0000 0.43561  0.54984  0.97956  Biso   1.000  He
  He56     1.0000 0.44553  0.52579  0.95870  Biso   1.000  He
  Ne56     1.0000 0.46632  0.53462  0.93445  Biso   1.000  Ne
  Ne57     1.0000 0.73745  0.80810  0.08073  Biso   1.000  Ne
  He57     1.0000 0.71686  0.78281  0.08206  Biso   1.000  He
  He58     1.0000 0.72999  0.75175  0.08504  Biso   1.000  He
  Ne58     1.0000 0.70699  0.72739  0.08739  Biso   1.000  Ne
  Ne59     1.0000 0.26265  0.83554  0.23337  Biso   1.000  Ne
  He59     1.0000 0.28878  0.81642  0.22305  Biso   1.000  He
  He60     1.0000 0.29456  0.81512  0.18935  Biso   1.000  He
  Ne60     1.0000 0.32342  0.80172  0.18003  Biso   1.000  Ne
  Ne61     1.0000 0.08389  0.44311  0.47694  Biso   1.000  Ne
  He61     1.0000 0.05703  0.46198  0.46801  Biso   1.000  He
  He62     1.0000 0.06232  0.49207  0.45536  Biso   1.000  He
  Ne62     1.0000 0.03679  0.50441  0.44044  Biso   1.000  Ne
  Ne63     1.0000 0.43877  0.01511  0.79568  Biso   1.000  Ne
  He63     1.0000 0.40752  0.99992  0.79785  Biso   1.000  He
  He64     1.0000 0.38541  0.01415  0.81635  Biso   1.000  He
  Ne64     1.0000 0.38315  0.99935  0.84677  Biso   1.000  Ne
  Ne65     1.0000 0.99975  0.79265  0.64969  Biso   1.000  Ne
  He65     1.0000 0.97695  0.81798  0.64968  Biso   1.000  He
  He66     1.0000 0.95865  0.81787  0.67520  Biso   1.000  He
  Ne66     1.0000 0.93545  0.84012  0.67952  Biso   1.000  Ne
  Ne67     1.0000 0.55795  0.99042  0.45558  Biso   1.000  Ne
  He67     1.0000 0.54700  0.00716  0.48120  Biso   1.000  He
  He68     1.0000 0.57001  0.02837  0.49404  Biso   1.000  He
  Ne68     1.0000 0.55739  0.04068  0.52169  Biso   1.000  Ne
  Ne69     1.0000 0.34899  0.32615  0.35362  Biso   1.000  Ne
  He69     1.0000 0.32371  0.32094  0.37477  Biso   1.000  He
  He70     1.0000 0.31759  0.28954  0.37902  Biso   1.000  He
  Ne70     1.0000 0.29013  0.28042  0.39392  Biso   1.000  Ne
  Ne71     1.0000 0.59632  0.72671  0.19568  Biso   1.000  Ne
  He71     1.0000 0.61600  0.70331  0.20671  Biso   1.000  He
  He72     1.0000 0.64186  0.70047  0.18462  Biso   1.000  He
  Ne72     1.0000 0.66429  0.67970  0.19663  Biso   1.000  Ne
  Ne73     1.0000 0.42608  0.53829  0.23222  Biso   1.000  Ne
  He73     1.0000 0.40138  0.54480  0.25298  Biso   1.000  He
  He74     1.0000 0.37342  0.53241  0.24416  Biso   1.000  He
  Ne74     1.0000 0.35117  0.53357  0.26997  Biso   1.000  Ne
  Ne75     1.0000 0.20337  0.14138  0.53152  Biso   1.000  Ne
  He75     1.0000 0.19591  0.12607  0.50064  Biso   1.000  He
  He76     1.0000 0.19587  0.09035  0.50047  Biso   1.000  He
  Ne76     1.0000 0.19551  0.07456  0.47271  Biso   1.000  Ne
  Ne77     1.0000 0.47430  0.97147  0.19150  Biso   1.000  Ne
  He77     1.0000 0.44882  0.97384  0.20749  Biso   1.000  He
  He78     1.0000 0.42368  0.98230  0.19279  Biso   1.000  He
  Ne78     1.0000 0.39743  0.98171  0.21059  Biso   1.000  Ne
  Ne79     1.0000 0.87877  0.14717  0.56454  Biso   1.000  Ne
  He79     1.0000 0.90717  0.13265  0.57007  Biso   1.000  He
  He80     1.0000 0.93396  0.14905  0.55952  Biso   1.000  He
  Ne80     1.0000 0.96499  0.13769  0.56565  Biso   1.000  Ne
  Ne81     1.0000 0.27157  0.51932  0.56868  Biso   1.000  Ne
  He81     1.0000 0.27948  0.51292  0.60016  Biso   1.000  He
  He82     1.0000 0.30986  0.49829  0.60692  Biso   1.000  He
  Ne82     1.0000 0.31360  0.48423  0.63644  Biso   1.000  Ne
  Ne83     1.0000 0.34473  0.75049  0.73154  Biso   1.000  Ne
  He83     1.0000 0.35466  0.72991  0.70656  Biso   1.000  He
  He84     1.0000 0.38211  0.73956  0.69142  Biso   1.000  He
  Ne84     1.0000 0.39218  0.71848  0.66860  Biso   1.000  Ne
  Ne85     1.0000 0.92728  0.47701  0.89153  Biso   1.000  Ne
  He85     1.0000 0.93329  0.44708  0.90076  Biso   1.000  He
  He86     1.0000 0.96659  0.44111  0.90356  Biso   1.000  He
  Ne86     1.0000 0.97167  0.40932  0.91620  Biso   1.000  Ne
  Ne87     1.0000 0.32616  0.32286  0.11553  Biso   1.000  Ne
  He87     1.0000 0.31781  0.35535  0.10956  Biso   1.000  He
  He88     1.0000 0.28644  0.36217  0.11920  Biso   1.000  He
  Ne88     1.0000 0.27506  0.39200  0.11412  Biso   1.000  Ne
  Ne89     1.0000 0.63756  0.05406  0.40919  Biso   1.000  Ne
  He89     1.0000 0.65688  0.05147  0.43409  Biso   1.000  He
  He90     1.0000 0.69019  0.05255  0.42410  Biso   1.000  He
  Ne90     1.0000 0.70819  0.05358  0.45172  Biso   1.000  Ne
  Ne91     1.0000 0.23447  0.56581  0.83146  Biso   1.000  Ne
  He91     1.0000 0.23839  0.58791  0.85482  Biso   1.000  He
  He92     1.0000 0.26205  0.58182  0.87526  Biso   1.000  He
  Ne92     1.0000 0.25355  0.56356  0.90458  Biso   1.000  Ne
  Ne93     1.0000 0.09802  0.61891  0.80997  Biso   1.000  Ne
  He93     1.0000 0.09545  0.59711  0.78411  Biso   1.000  He
  He94     1.0000 0.06575  0.57975  0.78289  Biso   1.000  He
  Ne94     1.0000 0.06199  0.56182  0.75602  Biso   1.000  Ne
  Ne95     1.0000 0.35028  0.38506  0.18884  Biso   1.000  Ne
  He95     1.0000 0.38046  0.37232  0.19648  Biso   1.000  He
  He96     1.0000 0.38251  0.34128  0.20312  Biso   1.000  He
  Ne96     1.0000 0.41409  0.33418  0.20756  Biso   1.000  Ne
  Ne97     1.0000 0.70932  0.06409  0.76572  Biso   1.000  Ne
  He97     1.0000 0.73205  0.04669  0.74674  Biso   1.000  He
  He98     1.0000 0.75477  0.06357  0.72659  Biso   1.000  He
  Ne98     1.0000 0.77185  0.04461  0.70815  Biso   1.000  Ne
  Ne99     1.0000 0.71262  0.84028  0.31219  Biso   1.000  Ne
  He99     1.0000 0.70558  0.86594  0.33506  Biso   1.000  He
  He100    1.0000 0.67320  0.87804  0.33140  Biso   1.000  He
  Ne100    1.0000 0.66214  0.90335  0.34928  Biso   1.000  Ne
  Ne101    1.0000 0.60344  0.82704  0.28151  Biso   1.000  Ne
  He101    1.0000 0.59839  0.79945  0.29656  Biso   1.000  He
  He102    1.0000 0.60790  0.77480  0.27751  Biso   1.000  He
  Ne102    1.0000 0.59976  0.74683  0.29000  Biso   1.000  Ne
  Ne103    1.0000 0.74985  0.38940  0.66608  Biso   1.000  Ne
  He103    1.0000 0.76727  0.37689  0.64209  Biso   1.000  He
  He104    1.0000 0.77617  0.34535  0.64494  Biso   1.000  He
  Ne104    1.0000 0.79882  0.33209  0.62304  Biso   1.000  Ne
  Ne105    1.0000 0.18773  0.86103  0.46718  Biso   1.000  Ne
  He105    1.0000 0.15611  0.86037  0.46995  Biso   1.000  He
  He106    1.0000 0.14246  0.83733  0.49075  Biso   1.000  He
  Ne106    1.0000 0.11025  0.84069  0.49196  Biso   1.000  Ne
  Ne107    1.0000 0.29087  0.33033  0.47257  Biso   1.000  Ne
  He107    1.0000 0.29567  0.35184  0.49848  Biso   1.000  He
  He108    1.0000 0.28999  0.38512  0.49483  Biso   1.000  He
  Ne108    1.0000 0.28979  0.40406  0.52420  Biso   1.000  Ne
  Ne109    1.0000 0.23588  0.73774  0.39299  Biso   1.000  Ne
  He109    1.0000 0.20930  0.74674  0.40889  Biso   1.000  He
  He110    1.0000 0.19789  0.77930  0.40372  Biso   1.000  He
  Ne110    1.0000 0.16878  0.78484  0.41623  Biso   1.000  Ne
  Ne111    1.0000 0.28746  0.15330  0.00777  Biso   1.000  Ne
  He111    1.0000 0.31118  0.17538  0.00296  Biso   1.000  He
  He112    1.0000 0.31187  0.18900  0.97153  Biso   1.000  He
  Ne112    1.0000 0.33543  0.21382  0.97263  Biso   1.000  Ne
  Ne113    1.0000 0.54183  0.43292  0.92808  Biso   1.000  Ne
  He113    1.0000 0.55088  0.40254  0.92306  Biso   1.000  He
  He114    1.0000 0.56507  0.39257  0.89476  Biso   1.000  He
  Ne114    1.0000 0.56953  0.35827  0.89177  Biso   1.000  Ne
  Ne115    1.0000 0.95183  0.22618  0.59049  Biso   1.000  Ne
  He115    1.0000 0.93511  0.21070  0.61569  Biso   1.000  He
  He116    1.0000 0.95707  0.19623  0.63565  Biso   1.000  He
  Ne116    1.0000 0.95927  0.21381  0.66404  Biso   1.000  Ne
  Ne117    1.0000 0.09945  0.08380  0.64399  Biso   1.000  Ne
  He117    1.0000 0.10907  0.11422  0.65417  Biso   1.000  He
  He118    1.0000 0.10933  0.13202  0.62669  Biso   1.000  He
  Ne118    1.0000 0.12510  0.16099  0.63046  Biso   1.000  Ne
  Ne119    1.0000 0.02102  0.89551  0.32806  Biso   1.000  Ne
  He119    1.0000 0.04696  0.91396  0.31622  Biso   1.000  He
  He120    1.0000 0.03965  0.94351  0.30230  Biso   1.000  He
  Ne120    1.0000 0.06866  0.95703  0.29002  Biso   1.000  Ne
  Ne121    1.0000 0.93226  0.84845  0.15923  Biso   1.000  Ne
  He121    1.0000 0.92491  0.82215  0.13999  Biso   1.000  He
  He122    1.0000 0.93109  0.82759  0.10745  Biso   1.000  He
  Ne122    1.0000 0.91243  0.80545  0.08846  Biso   1.000  Ne
  Ne123    1.0000 0.14125  0.38543  0.44648  Biso   1.000  Ne
  He123    1.0000 0.17136  0.37443  0.44197  Biso   1.000  He
  He124    1.0000 0.17397  0.34233  0.44649  Biso   1.000  He
  Ne124    1.0000 0.20204  0.32729  0.43996  Biso   1.000  Ne
  Ne125    1.0000 0.39023  0.81837  0.78656  Biso   1.000  Ne
  He125    1.0000 0.38457  0.85085  0.79401  Biso   1.000  He
  He126    1.0000 0.40992  0.87197  0.79243  Biso   1.000  He
  Ne126    1.0000 0.40736  0.90432  0.79466  Biso   1.000  Ne
  Ne127    1.0000 0.63122  0.87496  0.81412  Biso   1.000  Ne
  He127    1.0000 0.59943  0.86494  0.80923  Biso   1.000  He
  He128    1.0000 0.59084  0.84200  0.82985  Biso   1.000  He
  Ne128    1.0000 0.55787  0.83662  0.82899  Biso   1.000  Ne
  Ne129    1.0000 0.83917  0.69530  0.80332  Biso   1.000  Ne
  He129    1.0000 0.85062  0.69298  0.83505  Biso   1.000  He
  He130    1.0000 0.88413  0.68655  0.83678  Biso   1.000  He
  Ne130    1.0000 0.89357  0.68264  0.86611  Biso   1.000  Ne
  Ne131    1.0000 0.43021  0.10650  0.30084  Biso   1.000  Ne
  He131    1.0000 0.43312  0.08161  0.27728  Biso   1.000  He
  He132    1.0000 0.40711  0.07815  0.25446  Biso   1.000  He
  Ne132    1.0000 0.41040  0.06055  0.22612  Biso   1.000  Ne
  Ne133    1.0000 0.66387  0.65952  0.83128  Biso   1.000  Ne
  He133    1.0000 0.64342  0.68221  0.82080  Biso   1.000  He
  He134    1.0000 0.65058  0.69241  0.79008  Biso   1.000  He
  Ne134    1.0000 0.63141  0.71794  0.77862  Biso   1.000  Ne
  Ne135    1.0000 0.67764  0.15083  0.06959  Biso   1.000  Ne
  He135    1.0000 0.66742  0.13412  0.09485  Biso   1.000  He
  He136    1.0000 0.68577  0.10751  0.10386  Biso   1.000  He
  Ne136    1.0000 0.67156  0.09200  0.12751  Biso   1.000  Ne
  Ne137    1.0000 0.94243  0.50094  0.61075  Biso   1.000  Ne
  He137    1.0000 0.93755  0.47873  0.58508  Biso   1.000  He
  He138    1.0000 0.93723  0.49290  0.55290  Biso   1.000  He
  Ne138    1.0000 0.92056  0.47538  0.53084  Biso   1.000  Ne
  Ne139    1.0000 0.27538  0.05493  0.61006  Biso   1.000  Ne
  He139    1.0000 0.24890  0.04090  0.60043  Biso   1.000  He
  He140    1.0000 0.23646  0.05218  0.56977  Biso   1.000  He
  Ne140    1.0000 0.20882  0.03683  0.55829  Biso   1.000  Ne
  Ne141    1.0000 0.74167  0.90990  0.09679  Biso   1.000  Ne
  He141    1.0000 0.72064  0.93314  0.08220  Biso   1.000  He
  He142    1.0000 0.73484  0.95843  0.07023  Biso   1.000  He
  Ne142    1.0000 0.71706  0.97553  0.05185  Biso   1.000  Ne
  Ne143    1.0000 0.63723  0.84622  0.98540  Biso   1.000  Ne
  He143    1.0000 0.66043  0.82459  0.99591  Biso   1.000  He
  He144    1.0000 0.64899  0.79346  0.00260  Biso   1.000  He
  Ne144    1.0000 0.67203  0.77349  0.01638  Biso   1.000  Ne
  Ne145    1.0000 0.62496  0.51951  0.31490  Biso   1.000  Ne
  He145    1.0000 0.59576  0.51754  0.33066  Biso   1.000  He
  He146    1.0000 0.56913  0.51941  0.31003  Biso   1.000  He
  Ne146    1.0000 0.54055  0.52200  0.32698  Biso   1.000  Ne
  Ne147    1.0000 0.27834  0.04333  0.82713  Biso   1.000  Ne
  He147    1.0000 0.26660  0.04773  0.79589  Biso   1.000  He
  He148    1.0000 0.28956  0.05899  0.77294  Biso   1.000  He
  Ne148    1.0000 0.27765  0.06305  0.74209  Biso   1.000  Ne
  Ne149    1.0000 0.11496  0.76750  0.72493  Biso   1.000  Ne
  He149    1.0000 0.11298  0.80162  0.72849  Biso   1.000  He
  He150    1.0000 0.13892  0.81558  0.71742  Biso   1.000  He
  Ne150    1.0000 0.13947  0.84922  0.71833  Biso   1.000  Ne
  Ne151    1.0000 0.31121  0.21862  0.09247  Biso   1.000  Ne
  He151    1.0000 0.33435  0.19504  0.10148  Biso   1.000  He
  He152    1.0000 0.33925  0.17000  0.07936  Biso   1.000  He
  Ne152    1.0000 0.35879  0.14618  0.09062  Biso   1.000  Ne
  Ne153    1.0000 0.11946  0.55707  0.38799  Biso   1.000  Ne
  He153    1.0000 0.09577  0.58052  0.39521  Biso   1.000  He
  He154    1.0000 0.08981  0.58202  0.42800  Biso   1.000  He
  Ne154    1.0000 0.07068  0.60640  0.43968  Biso   1.000  Ne
  Ne155    1.0000 0.22806  0.08313  0.94098  Biso   1.000  Ne
  He155    1.0000 0.25193  0.10481  0.93251  Biso   1.000  He
  He156    1.0000 0.28417  0.09016  0.93758  Biso   1.000  He
  Ne156    1.0000 0.30807  0.10812  0.92525  Biso   1.000  Ne
  Ne157    1.0000 0.58369  0.56939  0.24593  Biso   1.000  Ne
  He157    1.0000 0.59352  0.58835  0.22115  Biso   1.000  He
  He158    1.0000 0.57174  0.59144  0.19605  Biso   1.000  He
  Ne158    1.0000 0.57981  0.61621  0.17565  Biso   1.000  Ne
  Ne159    1.0000 0.38631  0.76110  0.08544  Biso   1.000  Ne
  He159    1.0000 0.35369  0.76150  0.08602  Biso   1.000  He
  He160    1.0000 0.33922  0.78856  0.07191  Biso   1.000  He
  Ne160    1.0000 0.30762  0.78831  0.07585  Biso   1.000  Ne
  Ne161    1.0000 0.09254  0.94987  0.59583  Biso   1.000  Ne
  He161    1.0000 0.09703  0.96150  0.56571  Biso   1.000  He
  He162    1.0000 0.12037  0.98371  0.56611  Biso   1.000  He
  Ne162    1.0000 0.12973  0.99239  0.53590  Biso   1.000  Ne
  Ne163    1.0000 0.31332  0.34115  0.94989  Biso   1.000  Ne
  He163    1.0000 0.28443  0.32302  0.95509  Biso   1.000  He
  He164    1.0000 0.25673  0.34161  0.96434  Biso   1.000  He
  Ne164    1.0000 0.23119  0.32326  0.97042  Biso   1.000  Ne
  Ne165    1.0000 0.15611  0.97151  0.31391  Biso   1.000  Ne
  He165    1.0000 0.18367  0.98818  0.31131  Biso   1.000  He
  He166    1.0000 0.19179  0.00187  0.33999  Biso   1.000  He
  Ne166    1.0000 0.22171  0.01637  0.33577  Biso   1.000  Ne
  Ne167    1.0000 0.09559  0.83433  0.94760  Biso   1.000  Ne
  He167    1.0000 0.11652  0.82553  0.92264  Biso   1.000  He
  He168    1.0000 0.10436  0.82261  0.89142  Biso   1.000  He
  Ne168    1.0000 0.12597  0.81374  0.86823  Biso   1.000  Ne
  Ne169    1.0000 0.70631  0.29850  0.81198  Biso   1.000  Ne
  He169    1.0000 0.70034  0.27966  0.83989  Biso   1.000  He
  He170    1.0000 0.70395  0.24769  0.83606  Biso   1.000  He
  Ne170    1.0000 0.69377  0.23236  0.86215  Biso   1.000  Ne
  Ne171    1.0000 0.03501  0.41994  0.79091  Biso   1.000  Ne
  He171    1.0000 0.02680  0.45269  0.79796  Biso   1.000  He
  He172    1.0000 0.99741  0.46029  0.80684  Biso   1.000  He
  Ne172    1.0000 0.99570  0.49309  0.81450  Biso   1.000  Ne
  Ne173    1.0000 0.95166  0.07696  0.97930  Biso   1.000  Ne
  He173    1.0000 0.92447  0.08045  0.96072  Biso   1.000  He
  He174    1.0000 0.91996  0.05661  0.93403  Biso   1.000  He
  Ne174    1.0000 0.89042  0.05936  0.92053  Biso   1.000  Ne
  Ne175    1.0000 0.33530  0.76447  0.86683  Biso   1.000  Ne
  He175    1.0000 0.31590  0.78229  0.84922  Biso   1.000  He
  He176    1.0000 0.30391  0.80885  0.86749  Biso   1.000  He
  Ne176    1.0000 0.27953  0.82803  0.85443  Biso   1.000  Ne
  Ne177    1.0000 0.60400  0.25496  0.29343  Biso   1.000  Ne
  He177    1.0000 0.60118  0.23857  0.32410  Biso   1.000  He
  He178    1.0000 0.57595  0.24518  0.34027  Biso   1.000  He
  Ne178    1.0000 0.57327  0.22723  0.36871  Biso   1.000  Ne
  Ne179    1.0000 0.96823  0.77021  0.45483  Biso   1.000  Ne
  He179    1.0000 0.96609  0.78671  0.42587  Biso   1.000  He
  He180    1.0000 0.99060  0.78708  0.40759  Biso   1.000  He
  Ne180    1.0000 0.98941  0.80723  0.38270  Biso   1.000  Ne
  Ne181    1.0000 0.27180  0.57336  0.17569  Biso   1.000  Ne
  He181    1.0000 0.27740  0.57261  0.20789  Biso   1.000  He
  He182    1.0000 0.24675  0.56411  0.22395  Biso   1.000  He
  Ne182    1.0000 0.24659  0.56102  0.25739  Biso   1.000  Ne
  Ne183    1.0000 0.93407  0.76673  0.31049  Biso   1.000  Ne
  He183    1.0000 0.93465  0.74066  0.33366  Biso   1.000  He
  He184    1.0000 0.91457  0.71440  0.32836  Biso   1.000  He
  Ne184    1.0000 0.92265  0.69016  0.35067  Biso   1.000  Ne
  Ne185    1.0000 0.13729  0.58200  0.68142  Biso   1.000  Ne
  He185    1.0000 0.16445  0.56091  0.68128  Biso   1.000  He
  He186    1.0000 0.18968  0.57507  0.69387  Biso   1.000  He
  Ne186    1.0000 0.21532  0.55545  0.69585  Biso   1.000  Ne
  Ne187    1.0000 0.65173  0.77733  0.70993  Biso   1.000  Ne
  He187    1.0000 0.62030  0.78119  0.70820  Biso   1.000  He
  He188    1.0000 0.60933  0.80394  0.68557  Biso   1.000  He
  Ne188    1.0000 0.57506  0.81322  0.68768  Biso   1.000  Ne
  Ne189    1.0000 0.18262  0.61554  0.93289  Biso   1.000  Ne
  He189    1.0000 0.16578  0.63024  0.90822  Biso   1.000  He
  He190    1.0000 0.17408  0.66209  0.90534  Biso   1.000  He
  Ne190    1.0000 0.15497  0.67614  0.88143  Biso   1.000  Ne
  Ne191    1.0000 0.68794  0.33462  0.10799  Biso   1.000  Ne
  He191    1.0000 0.66319  0.35378  0.10493  Biso   1.000  He
  He192    1.0000 0.66827  0.38336  0.09190  Biso   1.000  He
  Ne192    1.0000 0.64032  0.39963  0.08718  Biso   1.000  Ne
  Ne193    1.0000 0.92292  0.01216  0.72033  Biso   1.000  Ne
  He193    1.0000 0.95108  0.03094  0.72336  Biso   1.000  He
  He194    1.0000 0.97632  0.01999  0.74373  Biso   1.000  He
  Ne194    1.0000 0.00545  0.03721  0.74043  Biso   1.000  Ne
  Ne195    1.0000 0.12185  0.37011  0.71408  Biso   1.000  Ne
  He195    1.0000 0.10591  0.39022  0.69632  Biso   1.000  He
  He196    1.0000 0.07338  0.39191  0.70263  Biso   1.000  He
  Ne196    1.0000 0.05936  0.41460  0.68298  Biso   1.000  Ne
  Ne197    1.0000 0.14750  0.14888  0.12622  Biso   1.000  Ne
  He197    1.0000 0.15468  0.17773  0.11490  Biso   1.000  He
  He198    1.0000 0.16401  0.19765  0.13786  Biso   1.000  He
  Ne198    1.0000 0.17169  0.22576  0.12278  Biso   1.000  Ne
  Ne199    1.0000 0.41876  0.71722  0.43329  Biso   1.000  Ne
  He199    1.0000 0.42604  0.70752  0.40506  Biso   1.000  He
  He200    1.0000 0.43142  0.73232  0.38506  Biso   1.000  He
  Ne200    1.0000 0.43717  0.72169  0.35337  Biso   1.000  Ne
  Ne201    1.0000 0.18360  0.37860  0.34917  Biso   1.000  Ne
  He201    1.0000 0.20957  0.38186  0.33174  Biso   1.000  He
  He202    1.0000 0.23611  0.37183  0.34885  Biso   1.000  He
  Ne202    1.0000 0.26420  0.37581  0.33211  Biso   1.000  Ne
  Ne203    1.0000 0.05418  0.85156  0.59191  Biso   1.000  Ne
  He203    1.0000 0.08368  0.85932  0.57710  Biso   1.000  He
  He204    1.0000 0.10932  0.84906  0.59449  Biso   1.000  He
  Ne204    1.0000 0.13706  0.86544  0.58706  Biso   1.000  Ne
  Ne205    1.0000 0.57286  0.33609  0.12487  Biso   1.000  Ne
  He205    1.0000 0.59416  0.31171  0.13337  Biso   1.000  He
  He206    1.0000 0.58650  0.29096  0.15592  Biso   1.000  He
  Ne206    1.0000 0.60521  0.26380  0.15438  Biso   1.000  Ne
  Ne207    1.0000 0.42581  0.86565  0.61878  Biso   1.000  Ne
  He207    1.0000 0.44681  0.87379  0.59325  Biso   1.000  He
  He208    1.0000 0.43350  0.88932  0.56675  Biso   1.000  He
  Ne208    1.0000 0.45598  0.89748  0.54586  Biso   1.000  Ne
  Ne209    1.0000 0.70864  0.43841  0.36027  Biso   1.000  Ne
  He209    1.0000 0.71374  0.40564  0.36111  Biso   1.000  He
  He210    1.0000 0.70024  0.39113  0.33332  Biso   1.000  He
  Ne210    1.0000 0.69995  0.35907  0.33290  Biso   1.000  Ne
  Ne211    1.0000 0.89245  0.78282  0.45083  Biso   1.000  Ne
  He211    1.0000 0.88842  0.80119  0.42250  Biso   1.000  He
  He212    1.0000 0.88037  0.78498  0.39375  Biso   1.000  He
  Ne212    1.0000 0.87689  0.80634  0.36772  Biso   1.000  Ne
  Ne213    1.0000 0.41685  0.11113  0.59204  Biso   1.000  Ne
  He213    1.0000 0.39063  0.09365  0.58741  Biso   1.000  He
  He214    1.0000 0.36124  0.10971  0.59054  Biso   1.000  He
  Ne214    1.0000 0.33688  0.08880  0.58062  Biso   1.000  Ne
  Ne215    1.0000 0.12050  0.31016  0.08548  Biso   1.000  Ne
  He215    1.0000 0.14547  0.33345  0.08294  Biso   1.000  He
  He216    1.0000 0.14974  0.34235  0.05107  Biso   1.000  He
  Ne216    1.0000 0.17552  0.36315  0.04585  Biso   1.000  Ne
  Ne217    1.0000 0.75582  0.67688  0.72897  Biso   1.000  Ne
  He217    1.0000 0.73549  0.65231  0.73927  Biso   1.000  He
  He218    1.0000 0.74112  0.62520  0.71886  Biso   1.000  He
  Ne218    1.0000 0.71462  0.60251  0.72150  Biso   1.000  Ne
  Ne219    1.0000 0.69046  0.66343  0.93045  Biso   1.000  Ne
  He219    1.0000 0.67451  0.63255  0.92846  Biso   1.000  He
  He220    1.0000 0.69612  0.60730  0.92690  Biso   1.000  He
  Ne220    1.0000 0.68190  0.57845  0.93669  Biso   1.000  Ne
  Ne221    1.0000 0.69343  0.09119  0.61143  Biso   1.000  Ne
  He221    1.0000 0.72560  0.08738  0.60784  Biso   1.000  He
  He222    1.0000 0.73447  0.05576  0.59792  Biso   1.000  He
  Ne222    1.0000 0.76599  0.05200  0.59157  Biso   1.000  Ne
  Ne223    1.0000 0.52529  0.47574  0.09409  Biso   1.000  Ne
  He223    1.0000 0.49261  0.48149  0.09178  Biso   1.000  He
  He224    1.0000 0.47789  0.50025  0.11308  Biso   1.000  He
  Ne224    1.0000 0.44877  0.50975  0.10344  Biso   1.000  Ne
  Ne225    1.0000 0.38473  0.42138  0.08521  Biso   1.000  Ne
  He225    1.0000 0.40571  0.40396  0.10154  Biso   1.000  He
  He226    1.0000 0.41754  0.42213  0.12818  Biso   1.000  He
  Ne226    1.0000 0.43690  0.40655  0.14889  Biso   1.000  Ne
  Ne227    1.0000 0.60296  0.37963  0.59947  Biso   1.000  Ne
  He227    1.0000 0.62143  0.39427  0.62267  Biso   1.000  He
  He228    1.0000 0.63608  0.37298  0.64230  Biso   1.000  He
  Ne228    1.0000 0.65551  0.38835  0.66402  Biso   1.000  Ne
  Ne229    1.0000 0.43774  0.27854  0.89195  Biso   1.000  Ne
  He229    1.0000 0.42017  0.27740  0.92159  Biso   1.000  He
  He230    1.0000 0.40426  0.30636  0.92703  Biso   1.000  He
  Ne230    1.0000 0.37816  0.30629  0.94645  Biso   1.000  Ne
  Ne231    1.0000 0.67811  0.47487  0.58480  Biso   1.000  Ne
  He231    1.0000 0.70506  0.49052  0.59611  Biso   1.000  He
  He232    1.0000 0.70236  0.52280  0.60009  Biso   1.000  He
  Ne232    1.0000 0.72682  0.53566  0.61850  Biso   1.000  Ne
  Ne233    1.0000 0.92256  0.93523  0.06815  Biso   1.000  Ne
  He233    1.0000 0.93657  0.94139  0.09727  Biso   1.000  He
  He234    1.0000 0.93568  0.91777  0.11918  Biso   1.000  He
  Ne234    1.0000 0.95155  0.92639  0.14595  Biso   1.000  Ne
  Ne235    1.0000 0.76849  0.12905  0.77242  Biso   1.000  Ne
  He235    1.0000 0.78784  0.10213  0.78103  Biso   1.000  He
  He236    1.0000 0.79788  0.10206  0.81365  Biso   1.000  He
  Ne236    1.0000 0.82089  0.07988  0.81881  Biso   1.000  Ne
  Ne237    1.0000 0.79278  0.45254  0.01636  Biso   1.000  Ne
  He237    1.0000 0.78696  0.47506  0.99099  Biso   1.000  He
  He238    1.0000 0.78444  0.50661  0.00165  Biso   1.000  He
  Ne238    1.0000 0.78228  0.53024  0.97808  Biso   1.000  Ne
  Ne239    1.0000 0.84910  0.40255  0.60286  Biso   1.000  Ne
  He239    1.0000 0.86920  0.40007  0.62858  Biso   1.000  He
  He240    1.0000 0.89258  0.37531  0.62640  Biso   1.000  He
  Ne240    1.0000 0.91027  0.36945  0.65278  Biso   1.000  Ne
  Ne241    1.0000 0.04513  0.19141  0.68781  Biso   1.000  Ne
  He241    1.0000 0.04689  0.15759  0.69670  Biso   1.000  He
  He242    1.0000 0.01327  0.14642  0.69650  Biso   1.000  He
  Ne242    1.0000 0.00872  0.11476  0.70913  Biso   1.000  Ne
  Ne243    1.0000 0.70414  0.66261  0.49621  Biso   1.000  Ne
  He243    1.0000 0.72069  0.66413  0.46674  Biso   1.000  He
  He244    1.0000 0.70598  0.65115  0.44056  Biso   1.000  He
  Ne244    1.0000 0.72739  0.65463  0.41384  Biso   1.000  Ne
  Ne245    1.0000 0.86941  0.51439  0.21559  Biso   1.000  Ne
  He245    1.0000 0.88660  0.48558  0.20789  Biso   1.000  He
  He246    1.0000 0.91219  0.48815  0.18808  Biso   1.000  He
  Ne246    1.0000 0.92845  0.46007  0.18410  Biso   1.000  Ne
  Ne247    1.0000 0.39444  0.79752  0.30778  Biso   1.000  Ne
  He247    1.0000 0.37494  0.81862  0.29019  Biso   1.000  He
  He248    1.0000 0.38231  0.81938  0.25543  Biso   1.000  He
  Ne248    1.0000 0.36701  0.84222  0.23887  Biso   1.000  Ne
  Ne249    1.0000 0.40752  0.87046  0.09433  Biso   1.000  Ne
  He249    1.0000 0.43216  0.84739  0.08638  Biso   1.000  He
  He250    1.0000 0.44556  0.83478  0.11279  Biso   1.000  He
  Ne250    1.0000 0.46930  0.81094  0.10865  Biso   1.000  Ne
  Ne251    1.0000 0.60629  0.26648  0.74910  Biso   1.000  Ne
  He251    1.0000 0.61640  0.27703  0.78214  Biso   1.000  He
  He252    1.0000 0.62570  0.25061  0.80299  Biso   1.000  He
  Ne252    1.0000 0.60295  0.23631  0.82165  Biso   1.000  Ne
  Ne253    1.0000 0.79785  0.30570  0.13723  Biso   1.000  Ne
  He253    1.0000 0.77220  0.29018  0.15071  Biso   1.000  He
  He254    1.0000 0.74779  0.28635  0.13309  Biso   1.000  He
  Ne254    1.0000 0.72277  0.27508  0.14722  Biso   1.000  Ne
  Ne255    1.0000 0.05786  0.76732  0.47283  Biso   1.000  Ne
  He255    1.0000 0.06050  0.75107  0.44198  Biso   1.000  He
  He256    1.0000 0.07490  0.72093  0.44550  Biso   1.000  He
  Ne256    1.0000 0.08068  0.70302  0.41418  Biso   1.000  Ne
  Ne257    1.0000 0.32987  0.15736  0.65608  Biso   1.000  Ne
  He257    1.0000 0.33544  0.13248  0.68029  Biso   1.000  He
  He258    1.0000 0.32928  0.09847  0.67130  Biso   1.000  He
  Ne258    1.0000 0.33536  0.07643  0.69590  Biso   1.000  Ne
  Ne259    1.0000 0.32713  0.23950  0.46493  Biso   1.000  Ne
  He259    1.0000 0.33532  0.26432  0.48622  Biso   1.000  He
  He260    1.0000 0.36762  0.26973  0.48949  Biso   1.000  He
  Ne260    1.0000 0.37436  0.28930  0.51400  Biso   1.000  Ne
  Ne261    1.0000 0.19424  0.27548  0.61687  Biso   1.000  Ne
  He261    1.0000 0.17307  0.25100  0.60462  Biso   1.000  He
  He262    1.0000 0.18777  0.22737  0.58466  Biso   1.000  He
  Ne262    1.0000 0.16947  0.20025  0.57624  Biso   1.000  Ne
  Ne263    1.0000 0.58758  0.91743  0.30475  Biso   1.000  Ne
  He263    1.0000 0.59726  0.93573  0.27742  Biso   1.000  He
  He264    1.0000 0.61710  0.91664  0.25884  Biso   1.000  He
  Ne264    1.0000 0.62401  0.92915  0.23086  Biso   1.000  Ne
  Ne265    1.0000 0.17361  0.93537  0.63118  Biso   1.000  Ne
  He265    1.0000 0.17955  0.96743  0.63158  Biso   1.000  He
  He266    1.0000 0.15630  0.99038  0.64562  Biso   1.000  He
  Ne266    1.0000 0.16881  0.01896  0.64535  Biso   1.000  Ne
  Ne267    1.0000 0.43190  0.10199  0.38911  Biso   1.000  Ne
  He267    1.0000 0.44831  0.08145  0.40871  Biso   1.000  He
  He268    1.0000 0.44270  0.08626  0.44159  Biso   1.000  He
  Ne268    1.0000 0.46450  0.06748  0.46061  Biso   1.000  Ne
  Ne269    1.0000 0.82456  0.87083  0.83787  Biso   1.000  Ne
  He269    1.0000 0.82076  0.89688  0.81580  Biso   1.000  He
  He270    1.0000 0.80395  0.89106  0.78961  Biso   1.000  He
  Ne270    1.0000 0.80627  0.91117  0.76479  Biso   1.000  Ne
  Ne271    1.0000 0.84268  0.32723  0.77012  Biso   1.000  Ne
  He271    1.0000 0.86243  0.33029  0.74079  Biso   1.000  He
  He272    1.0000 0.89403  0.31842  0.74044  Biso   1.000  He
  Ne272    1.0000 0.90829  0.32229  0.71105  Biso   1.000  Ne
  Ne273    1.0000 0.43648  0.34564  0.37105  Biso   1.000  Ne
  He273    1.0000 0.45211  0.32268  0.39342  Biso   1.000  He
  He274    1.0000 0.43302  0.30953  0.41527  Biso   1.000  He
  Ne274    1.0000 0.44923  0.28771  0.43547  Biso   1.000  Ne
  Ne275    1.0000 0.64767  0.18402  0.39563  Biso   1.000  Ne
  He275    1.0000 0.62282  0.18032  0.41629  Biso   1.000  He
  He276    1.0000 0.62150  0.15379  0.43717  Biso   1.000  He
  Ne276    1.0000 0.59292  0.15596  0.45422  Biso   1.000  Ne
  Ne277    1.0000 0.85904  0.05624  0.72144  Biso   1.000  Ne
  He277    1.0000 0.86355  0.07040  0.75278  Biso   1.000  He
  He278    1.0000 0.89598  0.07872  0.75649  Biso   1.000  He
  Ne278    1.0000 0.90709  0.08630  0.78663  Biso   1.000  Ne
  Ne279    1.0000 0.42338  0.07081  0.67436  Biso   1.000  Ne
  He279    1.0000 0.42984  0.09245  0.70139  Biso   1.000  He
  He280    1.0000 0.41800  0.08330  0.72993  Biso   1.000  He
  Ne280    1.0000 0.42913  0.10272  0.75457  Biso   1.000  Ne
  Ne281    1.0000 0.64317  0.55504  0.82151  Biso   1.000  Ne
  He281    1.0000 0.66561  0.56549  0.84296  Biso   1.000  He
  He282    1.0000 0.69050  0.57702  0.82716  Biso   1.000  He
  Ne282    1.0000 0.71606  0.58925  0.84093  Biso   1.000  Ne
  Ne283    1.0000 0.40541  0.64822  0.86121  Biso   1.000  Ne
  He283    1.0000 0.40845  0.67594  0.87989  Biso   1.000  He
  He284    1.0000 0.43002  0.67159  0.90723  Biso   1.000  He
  Ne284    1.0000 0.43504  0.69630  0.92702  Biso   1.000  Ne
  Ne285    1.0000 0.17668  0.25804  0.22614  Biso   1.000  Ne
  He285    1.0000 0.19739  0.24474  0.24711  Biso   1.000  He
  He286    1.0000 0.18731  0.23359  0.27414  Biso   1.000  He
  Ne286    1.0000 0.20827  0.21299  0.28988  Biso   1.000  Ne
  Ne287    1.0000 0.70202  0.26965  0.27551  Biso   1.000  Ne
  He287    1.0000 0.72314  0.25303  0.25457  Biso   1.000  He
  He288    1.0000 0.74400  0.23313  0.27078  Biso   1.000  He
  Ne288    1.0000 0.76343  0.21558  0.24903  Biso   1.000  Ne
  Ne289    1.0000 0.31649  0.16745  0.43431  Biso   1.000  Ne
  He289    1.0000 0.30943  0.17485  0.40441  Biso   1.000  He
  He290    1.0000 0.28069  0.19016  0.40176  Biso   1.000  He
  Ne290    1.0000 0.27023  0.19681  0.37119  Biso   1.000  Ne
  Ne291    1.0000 0.78405  0.67433  0.95676  Biso   1.000  Ne
  He291    1.0000 0.81388  0.68164  0.94363  Biso   1.000  He
  He292    1.0000 0.83497  0.69234  0.96748  Biso   1.000  He
  Ne292    1.0000 0.86522  0.70089  0.95525  Biso   1.000  Ne
  Ne293    1.0000 0.98361  0.56411  0.57099  Biso   1.000  Ne
  He293    1.0000 0.01368  0.55876  0.55807  Biso   1.000  He
  He294    1.0000 0.01783  0.56882  0.52670  Biso   1.000  He
  Ne294    1.0000 0.04966  0.56205  0.51468  Biso   1.000  Ne
  Ne295    1.0000 0.77641  0.89706  0.35386  Biso   1.000  Ne
  He295    1.0000 0.80998  0.89275  0.35232  Biso   1.000  He
  He296    1.0000 0.82278  0.89459  0.31967  Biso   1.000  He
  Ne296    1.0000 0.85534  0.89028  0.31608  Biso   1.000  Ne
  Ne297    1.0000 0.87252  0.37652  0.44347  Biso   1.000  Ne
  He297    1.0000 0.84974  0.40093  0.44014  Biso   1.000  He
  He298    1.0000 0.81956  0.38874  0.43898  Biso   1.000  He
  Ne298    1.0000 0.79758  0.41183  0.43208  Biso   1.000  Ne
  Ne299    1.0000 0.48976  0.07465  0.56275  Biso   1.000  Ne
  He299    1.0000 0.46975  0.05385  0.57984  Biso   1.000  He
  He300    1.0000 0.46291  0.02559  0.56237  Biso   1.000  He
  Ne300    1.0000 0.44136  0.00155  0.57451  Biso   1.000  Ne
  Ne301    1.0000 0.37088  0.68233  0.32503  Biso   1.000  Ne
  He301    1.0000 0.34213  0.68013  0.31124  Biso   1.000  He
  He302    1.0000 0.31777  0.67387  0.33352  Biso   1.000  He
  Ne302    1.0000 0.28810  0.66948  0.31815  Biso   1.000  Ne
  Ne303    1.0000 0.41307  0.42378  0.73256  Biso   1.000  Ne
  He303    1.0000 0.39518  0.44971  0.73831  Biso   1.000  He
  He304    1.0000 0.36723  0.45178  0.71782  Biso   1.000  He
  Ne304    1.0000 0.34588  0.47435  0.72421  Biso   1.000  Ne
  Ne305    1.0000 0.60888  0.20158  0.61839  Biso   1.000  Ne
  He305    1.0000 0.63426  0.18163  0.62235  Biso   1.000  He
  He306    1.0000 0.65959  0.19681  0.63670  Biso   1.000  He
  Ne306    1.0000 0.68670  0.18084  0.63061  Biso   1.000  Ne
  Ne307    1.0000 0.28260  0.82881  0.76821  Biso   1.000  Ne
  He307    1.0000 0.29041  0.85818  0.75125  Biso   1.000  He
  He308    1.0000 0.26455  0.86938  0.73779  Biso   1.000  He
  Ne308    1.0000 0.26899  0.89789  0.72230  Biso   1.000  Ne
  Ne309    1.0000 0.16195  0.67138  0.43238  Biso   1.000  Ne
  He309    1.0000 0.16592  0.64422  0.45037  Biso   1.000  He
  He310    1.0000 0.17511  0.61874  0.43466  Biso   1.000  He
  Ne310    1.0000 0.16896  0.59106  0.45162  Biso   1.000  Ne
  Ne311    1.0000 0.74033  0.85445  0.96292  Biso   1.000  Ne
  He311    1.0000 0.72551  0.87462  0.93859  Biso   1.000  He
  He312    1.0000 0.72650  0.90670  0.94713  Biso   1.000  He
  Ne312    1.0000 0.71398  0.92639  0.92751  Biso   1.000  Ne
  Ne313    1.0000 0.11168  0.18093  0.46162  Biso   1.000  Ne
  He313    1.0000 0.09959  0.20711  0.47816  Biso   1.000  He
  He314    1.0000 0.08683  0.22992  0.45773  Biso   1.000  He
  Ne314    1.0000 0.07851  0.25774  0.47360  Biso   1.000  Ne
  Ne315    1.0000 0.73306  0.04717  0.25210  Biso   1.000  Ne
  He315    1.0000 0.71483  0.04663  0.28018  Biso   1.000  He
  He316    1.0000 0.73272  0.04883  0.30808  Biso   1.000  He
  Ne316    1.0000 0.71291  0.04670  0.33675  Biso   1.000  Ne
  Ne317    1.0000 0.61372  0.22496  0.96636  Biso   1.000  Ne
  He317    1.0000 0.60091  0.25109  0.94691  Biso   1.000  He
  He318    1.0000 0.59548  0.27963  0.96273  Biso   1.000  He
  Ne318    1.0000 0.60557  0.30912  0.94844  Biso   1.000  Ne
  Ne319    1.0000 0.86453  0.19589  0.94840  Biso   1.000  Ne
  He319    1.0000 0.89205  0.21283  0.95279  Biso   1.000  He
  He320    1.0000 0.91229  0.21882  0.92659  Biso   1.000  He
  Ne320    1.0000 0.94027  0.23523  0.93565  Biso   1.000  Ne
  Ne321    1.0000 0.23013  0.42333  0.59147  Biso   1.000  Ne
  He321    1.0000 0.24870  0.40115  0.60706  Biso   1.000  He
  He322    1.0000 0.23079  0.37343  0.60911  Biso   1.000  He
  Ne322    1.0000 0.24642  0.34673  0.62320  Biso   1.000  Ne
  Ne323    1.0000 0.64128  0.57764  0.73122  Biso   1.000  Ne
  He323    1.0000 0.63512  0.55953  0.70204  Biso   1.000  He
  He324    1.0000 0.66066  0.53779  0.69445  Biso   1.000  He
  Ne324    1.0000 0.65458  0.51635  0.67049  Biso   1.000  Ne
  Ne325    1.0000 0.07473  0.31438  0.78700  Biso   1.000  Ne
  He325    1.0000 0.06395  0.33775  0.81325  Biso   1.000  He
  He326    1.0000 0.08793  0.35506  0.82845  Biso   1.000  He
  Ne326    1.0000 0.07836  0.37687  0.85232  Biso   1.000  Ne
  Ne327    1.0000 0.29566  0.35631  0.25302  Biso   1.000  Ne
  He327    1.0000 0.29752  0.32780  0.26847  Biso   1.000  He
  He328    1.0000 0.26887  0.31538  0.27717  Biso   1.000  He
  Ne328    1.0000 0.27294  0.28705  0.29332  Biso   1.000  Ne
  Ne329    1.0000 0.09856  0.73251  0.63128  Biso   1.000  Ne
  He329    1.0000 0.11673  0.74259  0.60572  Biso   1.000  He
  He330    1.0000 0.10290  0.76441  0.58921  Biso   1.000  He
  Ne330    1.0000 0.11959  0.77336  0.55815  Biso   1.000  Ne
  Ne331    1.0000 0.32383  0.31495  0.58491  Biso   1.000  Ne
  He331    1.0000 0.32879  0.29940  0.61648  Biso   1.000  He
  He332    1.0000 0.30420  0.27863  0.62552  Biso   1.000  He
  Ne332    1.0000 0.30683  0.26502  0.65646  Biso   1.000  Ne
  Ne333    1.0000 0.05584  0.50287  0.88214  Biso   1.000  Ne
  He333    1.0000 0.08469  0.50025  0.86553  Biso   1.000  He
  He334    1.0000 0.09032  0.46972  0.85478  Biso   1.000  He
  Ne334    1.0000 0.11755  0.46565  0.83261  Biso   1.000  Ne
  Ne335    1.0000 0.59662  0.54321  0.13581  Biso   1.000  Ne
  He335    1.0000 0.58734  0.54715  0.10538  Biso   1.000  He
  He336    1.0000 0.55716  0.56547  0.10365  Biso   1.000  He
  Ne336    1.0000 0.55004  0.57337  0.07323  Biso   1.000  Ne
  Ne337    1.0000 0.71952  0.35321  0.76534  Biso   1.000  Ne
  He337    1.0000 0.74399  0.37046  0.75468  Biso   1.000  He
  He338    1.0000 0.76688  0.35628  0.73642  Biso   1.000  He
  Ne338    1.0000 0.79074  0.37831  0.72858  Biso   1.000  Ne
  Ne339    1.0000 0.11877  0.24840  0.82540  Biso   1.000  Ne
  He339    1.0000 0.12295  0.22564  0.80303  Biso   1.000  He
  He340    1.0000 0.10685  0.23194  0.77182  Biso   1.000  He
  Ne340    1.0000 0.10656  0.20622  0.75162  Biso   1.000  Ne
  Ne341    1.0000 0.15777  0.37582  0.63398  Biso   1.000  Ne
  He341    1.0000 0.14743  0.40357  0.61936  Biso   1.000  He
  He342    1.0000 0.12414  0.39718  0.59807  Biso   1.000  He
  Ne342    1.0000 0.10795  0.42338  0.58647  Biso   1.000  Ne
  Ne343    1.0000 0.56782  0.57824  0.89456  Biso   1.000  Ne
  He343    1.0000 0.58620  0.60534  0.90014  Biso   1.000  He
  He344    1.0000 0.57899  0.61804  0.92868  Biso   1.000  He
  Ne344    1.0000 0.59531  0.64341  0.93909  Biso   1.000  Ne
  Ne345    1.0000 0.82485  0.79092  0.87850  Biso   1.000  Ne
  He345    1.0000 0.84719  0.77949  0.85758  Biso   1.000  He
  He346    1.0000 0.85466  0.79897  0.83566  Biso   1.000  He
  Ne346    1.0000 0.87449  0.78324  0.81372  Biso   1.000  Ne
  Ne347    1.0000 0.13211  0.91751  0.94248  Biso   1.000  Ne
  He347    1.0000 0.09901  0.91640  0.93869  Biso   1.000  He
  He348    1.0000 0.08272  0.94574  0.94320  Biso   1.000  He
  Ne348    1.0000 0.05094  0.93953  0.94021  Biso   1.000  Ne
  Ne349    1.0000 0.85012  0.15990  0.85056  Biso   1.000  Ne
  He349    1.0000 0.86972  0.13554  0.85620  Biso   1.000  He
  He350    1.0000 0.89438  0.14223  0.87641  Biso   1.000  He
  Ne350    1.0000 0.92324  0.15075  0.86332  Biso   1.000  Ne
  Ne351    1.0000 0.24347  0.83139  0.56913  Biso   1.000  Ne
  He351    1.0000 0.25247  0.80084  0.57074  Biso   1.000  He
  He352    1.0000 0.22981  0.77901  0.57659  Biso   1.000  He
  Ne352    1.0000 0.22677  0.77115  0.60724  Biso   1.000  Ne
  Ne353    1.0000 0.65034  0.89051  0.67985  Biso   1.000  Ne
  He353    1.0000 0.65160  0.87222  0.70745  Biso   1.000  He
  He354    1.0000 0.68290  0.86889  0.71816  Biso   1.000  He
  Ne354    1.0000 0.68997  0.85355  0.74698  Biso   1.000  Ne
  Ne355    1.0000 0.76346  0.24208  0.63197  Biso   1.000  Ne
  He355    1.0000 0.79421  0.23300  0.63477  Biso   1.000  He
  He356    1.0000 0.80476  0.21333  0.61226  Biso   1.000  He
  Ne356    1.0000 0.83872  0.20602  0.61660  Biso   1.000  Ne
  Ne357    1.0000 0.36980  0.90589  0.39306  Biso   1.000  Ne
  He357    1.0000 0.34882  0.89898  0.41625  Biso   1.000  He
  He358    1.0000 0.32238  0.88306  0.40174  Biso   1.000  He
  Ne358    1.0000 0.29944  0.87066  0.42226  Biso   1.000  Ne
  Ne359    1.0000 0.61686  0.27761  0.65514  Biso   1.000  Ne
  He359    1.0000 0.60813  0.29848  0.67542  Biso   1.000  He
  He360    1.0000 0.57444  0.30474  0.67602  Biso   1.000  He
  Ne360    1.0000 0.56366  0.33260  0.65999  Biso   1.000  Ne
  Ne361    1.0000 0.86880  0.19073  0.24949  Biso   1.000  Ne
  He361    1.0000 0.84616  0.17635  0.22795  Biso   1.000  He
  He362    1.0000 0.83942  0.14552  0.23532  Biso   1.000  He
  Ne362    1.0000 0.81310  0.13102  0.22139  Biso   1.000  Ne
  Ne363    1.0000 0.12326  0.08486  0.73151  Biso   1.000  Ne
  He363    1.0000 0.11440  0.07892  0.76092  Biso   1.000  He
  He364    1.0000 0.08106  0.08300  0.76670  Biso   1.000  He
  Ne364    1.0000 0.07114  0.07522  0.79539  Biso   1.000  Ne
  Ne365    1.0000 0.81499  0.56944  0.61051  Biso   1.000  Ne
  He365    1.0000 0.84611  0.57929  0.61459  Biso   1.000  He
  He366    1.0000 0.87089  0.55767  0.60206  Biso   1.000  He
  Ne366    1.0000 0.90145  0.56484  0.61118  Biso   1.000  Ne
  Ne367    1.0000 0.40520  0.56627  0.16043  Biso   1.000  Ne
  He367    1.0000 0.41782  0.59380  0.16963  Biso   1.000  He
  He368    1.0000 0.39534  0.61879  0.17682  Biso   1.000  He
  Ne368    1.0000 0.40878  0.64602  0.19045  Biso   1.000  Ne
  Ne369    1.0000 0.13404  0.73783  0.94589  Biso   1.000  Ne
  He369    1.0000 0.10379  0.73718  0.95946  Biso   1.000  He
  He370    1.0000 0.08187  0.71627  0.94371  Biso   1.000  He
  Ne370    1.0000 0.05050  0.71777  0.95635  Biso   1.000  Ne
  Ne371    1.0000 0.74760  0.70376  0.84913  Biso   1.000  Ne
  He371    1.0000 0.76899  0.68347  0.86501  Biso   1.000  He
  He372    1.0000 0.77699  0.65448  0.85015  Biso   1.000  He
  Ne372    1.0000 0.79606  0.63200  0.86782  Biso   1.000  Ne
  Ne373    1.0000 0.03497  0.28077  0.99152  Biso   1.000  Ne
  He373    1.0000 0.00884  0.26636  0.01130  Biso   1.000  He
  He374    1.0000 0.98281  0.28342  0.01313  Biso   1.000  He
  Ne374    1.0000 0.96453  0.27130  0.03762  Biso   1.000  Ne
  Ne375    1.0000 0.80937  0.88458  0.93473  Biso   1.000  Ne
  He375    1.0000 0.83486  0.88740  0.95361  Biso   1.000  He
  He376    1.0000 0.86170  0.89521  0.93514  Biso   1.000  He
  Ne376    1.0000 0.89158  0.89988  0.94983  Biso   1.000  Ne
  Ne377    1.0000 0.07061  0.55792  0.65727  Biso   1.000  Ne
  He377    1.0000 0.06524  0.56846  0.62715  Biso   1.000  He
  He378    1.0000 0.07187  0.59994  0.62155  Biso   1.000  He
  Ne378    1.0000 0.06583  0.61392  0.59071  Biso   1.000  Ne
  Ne379    1.0000 0.29919  0.61950  0.55775  Biso   1.000  Ne
  He379    1.0000 0.31411  0.62691  0.52899  Biso   1.000  He
  He380    1.0000 0.32182  0.65993  0.52812  Biso   1.000  He
  Ne380    1.0000 0.34243  0.66727  0.50254  Biso   1.000  Ne
  Ne381    1.0000 0.32786  0.04210  0.25726  Biso   1.000  Ne
  He381    1.0000 0.34511  0.05033  0.28471  Biso   1.000  He
  He382    1.0000 0.33559  0.07507  0.30146  Biso   1.000  He
  Ne382    1.0000 0.35611  0.08360  0.32764  Biso   1.000  Ne
  Ne383    1.0000 0.54962  0.40334  0.00799  Biso   1.000  Ne
  He383    1.0000 0.55589  0.42756  0.03195  Biso   1.000  He
  He384    1.0000 0.58497  0.44510  0.02798  Biso   1.000  He
  Ne384    1.0000 0.58830  0.47527  0.04501  Biso   1.000  Ne
  Ne385    1.0000 0.72683  0.13629  0.19573  Biso   1.000  Ne
  He385    1.0000 0.69918  0.15836  0.19324  Biso   1.000  He
  He386    1.0000 0.68856  0.16747  0.16330  Biso   1.000  He
  Ne386    1.0000 0.66162  0.18689  0.16583  Biso   1.000  Ne
  Ne387    1.0000 0.53032  0.63388  0.31130  Biso   1.000  Ne
  He387    1.0000 0.53926  0.64170  0.28125  Biso   1.000  He
  He388    1.0000 0.55480  0.66931  0.27934  Biso   1.000  He
  Ne388    1.0000 0.55853  0.68210  0.24813  Biso   1.000  Ne
  Ne389    1.0000 0.40035  0.36738  0.83569  Biso   1.000  Ne
  He389    1.0000 0.38174  0.39394  0.84441  Biso   1.000  He
  He390    1.0000 0.36655  0.38618  0.87347  Biso   1.000  He
  Ne390    1.0000 0.34643  0.40909  0.88678  Biso   1.000  Ne
  Ne391    1.0000 0.77160  0.75885  0.92389  Biso   1.000  Ne
  He391    1.0000 0.74383  0.75795  0.90927  Biso   1.000  He
  He392    1.0000 0.73201  0.78683  0.89993  Biso   1.000  He
  Ne392    1.0000 0.70120  0.78599  0.89258  Biso   1.000  Ne
  Ne393    1.0000 0.66100  0.36658  0.83015  Biso   1.000  Ne
  He393    1.0000 0.66697  0.35689  0.86089  Biso   1.000  He
  He394    1.0000 0.64969  0.37101  0.88409  Biso   1.000  He
  Ne394    1.0000 0.65978  0.36215  0.91373  Biso   1.000  Ne
  Ne395    1.0000 0.87847  0.41503  0.81179  Biso   1.000  Ne
  He395    1.0000 0.87057  0.40808  0.78138  Biso   1.000  He
  He396    1.0000 0.89494  0.41529  0.75843  Biso   1.000  He
  Ne396    1.0000 0.88725  0.41136  0.72665  Biso   1.000  Ne
  Ne397    1.0000 0.57617  0.90847  0.67467  Biso   1.000  Ne
  He397    1.0000 0.57606  0.91002  0.70516  Biso   1.000  He
  He398    1.0000 0.56625  0.88063  0.71915  Biso   1.000  He
  Ne398    1.0000 0.55626  0.88211  0.74795  Biso   1.000  Ne
  Ne399    1.0000 0.41653  0.82379  0.42376  Biso   1.000  Ne
  He399    1.0000 0.40004  0.79490  0.42969  Biso   1.000  He
  He400    1.0000 0.36711  0.79954  0.42613  Biso   1.000  He
  Ne400    1.0000 0.34991  0.77248  0.43215  Biso   1.000  Ne
  Ne401    1.0000 0.38328  0.67039  0.76577  Biso   1.000  Ne
  He401    1.0000 0.40325  0.64294  0.76158  Biso   1.000  He
  He402    1.0000 0.41427  0.63573  0.73141  Biso   1.000  He
  Ne402    1.0000 0.43766  0.61216  0.72882  Biso   1.000  Ne
  Ne403    1.0000 0.57943  0.66202  0.71849  Biso   1.000  Ne
  He403    1.0000 0.55802  0.68601  0.72106  Biso   1.000  He
  He404    1.0000 0.56413  0.71281  0.70473  Biso   1.000  He
  Ne404    1.0000 0.54281  0.73662  0.70998  Biso   1.000  Ne
  Ne405    1.0000 0.75172  0.55090  0.90444  Biso   1.000  Ne
  He405    1.0000 0.78270  0.53766  0.89336  Biso   1.000  He
  He406    1.0000 0.80848  0.55903  0.89355  Biso   1.000  He
  Ne406    1.0000 0.83718  0.54406  0.88491  Biso   1.000  Ne
  Ne407    1.0000 0.02922  0.25406  0.09716  Biso   1.000  Ne
  He407    1.0000 0.05222  0.23611  0.11517  Biso   1.000  He
  He408    1.0000 0.04634  0.20585  0.12305  Biso   1.000  He
  Ne408    1.0000 0.06880  0.19250  0.14257  Biso   1.000  Ne
  Ne409    1.0000 0.19734  0.69767  0.99392  Biso   1.000  Ne
  He409    1.0000 0.18077  0.68322  0.01968  Biso   1.000  He
  He410    1.0000 0.16843  0.65368  0.00906  Biso   1.000  He
  Ne410    1.0000 0.15498  0.63719  0.03310  Biso   1.000  Ne
  Ne411    1.0000 0.17422  0.63038  0.61613  Biso   1.000  Ne
  He411    1.0000 0.19310  0.60432  0.61412  Biso   1.000  He
  He412    1.0000 0.17726  0.57461  0.60749  Biso   1.000  He
  Ne412    1.0000 0.20105  0.55040  0.60860  Biso   1.000  Ne
  Ne413    1.0000 0.55466  0.74146  0.80664  Biso   1.000  Ne
  He413    1.0000 0.55926  0.73835  0.84089  Biso   1.000  He
  He414    1.0000 0.58829  0.74396  0.85627  Biso   1.000  He
  Ne414    1.0000 0.58598  0.73044  0.88775  Biso   1.000  Ne
  Ne415    1.0000 0.73835  0.62434  0.31349  Biso   1.000  Ne
  He415    1.0000 0.74084  0.65699  0.31425  Biso   1.000  He
  He416    1.0000 0.72252  0.67504  0.29385  Biso   1.000  He
  Ne416    1.0000 0.72577  0.70592  0.29697  Biso   1.000  Ne
  Ne417    1.0000 0.64386  0.44154  0.71666  Biso   1.000  Ne
  He417    1.0000 0.60944  0.44967  0.71649  Biso   1.000  He
  He418    1.0000 0.59570  0.44909  0.68687  Biso   1.000  He
  Ne418    1.0000 0.56359  0.46028  0.68499  Biso   1.000  Ne
  Ne419    1.0000 0.81498  0.83949  0.46646  Biso   1.000  Ne
  He419    1.0000 0.79226  0.82208  0.45089  Biso   1.000  He
  He420    1.0000 0.79756  0.81331  0.41983  Biso   1.000  He
  Ne420    1.0000 0.77514  0.79741  0.40602  Biso   1.000  Ne
  Ne421    1.0000 0.58184  0.81215  0.60810  Biso   1.000  Ne
  He421    1.0000 0.60910  0.83094  0.60111  Biso   1.000  He
  He422    1.0000 0.61389  0.85802  0.62092  Biso   1.000  He
  Ne422    1.0000 0.63872  0.87591  0.61283  Biso   1.000  Ne
  Ne423    1.0000 0.82184  0.31134  0.44192  Biso   1.000  Ne
  He423    1.0000 0.80781  0.27939  0.43861  Biso   1.000  He
  He424    1.0000 0.83094  0.25608  0.43932  Biso   1.000  He
  Ne424    1.0000 0.81891  0.22585  0.43979  Biso   1.000  Ne
  Ne425    1.0000 0.68626  0.29792  0.60764  Biso   1.000  Ne
  He425    1.0000 0.66299  0.30543  0.58860  Biso   1.000  He
  He426    1.0000 0.67144  0.30102  0.55550  Biso   1.000  He
  Ne426    1.0000 0.64743  0.29626  0.53570  Biso   1.000  Ne
  Ne427    1.0000 0.88392  0.17781  0.76547  Biso   1.000  Ne
  He427    1.0000 0.85538  0.18062  0.75170  Biso   1.000  He
  He428    1.0000 0.85890  0.18808  0.71953  Biso   1.000  He
  Ne428    1.0000 0.82895  0.19020  0.70374  Biso   1.000  Ne
  Ne429    1.0000 0.38372  0.56769  0.88017  Biso   1.000  Ne
  He429    1.0000 0.35808  0.56678  0.90295  Biso   1.000  He
  He430    1.0000 0.36095  0.58396  0.92977  Biso   1.000  He
  Ne430    1.0000 0.33273  0.58568  0.95068  Biso   1.000  Ne
  Ne431    1.0000 0.18889  0.11914  0.28337  Biso   1.000  Ne
  He431    1.0000 0.19430  0.13574  0.25348  Biso   1.000  He
  He432    1.0000 0.16564  0.14246  0.23665  Biso   1.000  He
  Ne432    1.0000 0.17148  0.16169  0.20943  Biso   1.000  Ne
  Ne433    1.0000 0.93048  0.71973  0.78798  Biso   1.000  Ne
  He433    1.0000 0.91686  0.71894  0.75703  Biso   1.000  He
  He434    1.0000 0.90466  0.74651  0.74414  Biso   1.000  He
  Ne434    1.0000 0.89194  0.74169  0.71422  Biso   1.000  Ne
  Ne435    1.0000 0.28080  0.90471  0.90661  Biso   1.000  Ne
  He435    1.0000 0.24820  0.90422  0.90622  Biso   1.000  He
  He436    1.0000 0.23932  0.89149  0.93422  Biso   1.000  He
  Ne436    1.0000 0.20536  0.89050  0.93763  Biso   1.000  Ne
  Ne437    1.0000 0.09466  0.39472  0.14180  Biso   1.000  Ne
  He437    1.0000 0.06497  0.37884  0.14583  Biso   1.000  He
  He438    1.0000 0.05115  0.35943  0.11966  Biso   1.000  He
  Ne438    1.0000 0.02660  0.34201  0.12653  Biso   1.000  Ne
  Ne439    1.0000 0.68828  0.60296  0.23779  Biso   1.000  Ne
  He439    1.0000 0.69364  0.58156  0.21306  Biso   1.000  He
  He440    1.0000 0.68073  0.59262  0.18527  Biso   1.000  He
  Ne440    1.0000 0.68491  0.56772  0.16006  Biso   1.000  Ne
  Ne441    1.0000 0.92335  0.65312  0.59651  Biso   1.000  Ne
  He441    1.0000 0.89193  0.65481  0.60981  Biso   1.000  He
  He442    1.0000 0.88891  0.64460  0.64164  Biso   1.000  He
  Ne442    1.0000 0.85699  0.65063  0.65644  Biso   1.000  Ne
  Ne443    1.0000 0.66739  0.06330  0.68588  Biso   1.000  Ne
  He443    1.0000 0.64490  0.06860  0.71018  Biso   1.000  He
  He444    1.0000 0.61276  0.06866  0.69818  Biso   1.000  He
  Ne444    1.0000 0.59039  0.07091  0.72338  Biso   1.000  Ne
  Ne445    1.0000 0.02818  0.02991  0.31598  Biso   1.000  Ne
  He445    1.0000 0.01382  0.04476  0.34203  Biso   1.000  He
  He446    1.0000 0.99324  0.02647  0.35977  Biso   1.000  He
  Ne446    1.0000 0.97885  0.04458  0.38505  Biso   1.000  Ne
  Ne447    1.0000 0.33213  0.81252  0.59091  Biso   1.000  Ne
  He447    1.0000 0.36645  0.80881  0.58989  Biso   1.000  He
  He448    1.0000 0.37991  0.77916  0.60037  Biso   1.000  He
  Ne448    1.0000 0.41073  0.78266  0.61175  Biso   1.000  Ne
  Ne449    1.0000 0.09466  0.84988  0.14733  Biso   1.000  Ne
  He449    1.0000 0.12272  0.83865  0.12915  Biso   1.000  He
  He450    1.0000 0.12618  0.85735  0.10016  Biso   1.000  He
  Ne450    1.0000 0.15246  0.87655  0.09562  Biso   1.000  Ne
  Ne451    1.0000 0.56385  0.28207  0.58155  Biso   1.000  Ne
  He451    1.0000 0.53412  0.29224  0.56978  Biso   1.000  He
  He452    1.0000 0.50794  0.27268  0.57470  Biso   1.000  He
  Ne452    1.0000 0.47829  0.28189  0.56038  Biso   1.000  Ne
  Ne453    1.0000 0.08656  0.07064  0.10810  Biso   1.000  Ne
  He453    1.0000 0.07971  0.09701  0.12739  Biso   1.000  He
  He454    1.0000 0.07516  0.09055  0.15933  Biso   1.000  He
  Ne454    1.0000 0.07051  0.11833  0.17995  Biso   1.000  Ne
  Ne455    1.0000 0.89764  0.13514  0.10770  Biso   1.000  Ne
  He455    1.0000 0.89033  0.10769  0.12575  Biso   1.000  He
  He456    1.0000 0.86509  0.08601  0.11736  Biso   1.000  He
  Ne456    1.0000 0.86660  0.05979  0.13581  Biso   1.000  Ne
  Ne457    1.0000 0.31936  0.57045  0.80555  Biso   1.000  Ne
  He457    1.0000 0.31678  0.55945  0.77536  Biso   1.000  He
  He458    1.0000 0.28878  0.55363  0.75856  Biso   1.000  He
  Ne458    1.0000 0.29243  0.53571  0.72999  Biso   1.000  Ne
  Ne459    1.0000 0.89916  0.98506  0.35686  Biso   1.000  Ne
  He459    1.0000 0.89101  0.00876  0.33664  Biso   1.000  He
  He460    1.0000 0.86238  0.02416  0.34791  Biso   1.000  He
  Ne460    1.0000 0.84936  0.04714  0.32772  Biso   1.000  Ne
  Ne461    1.0000 0.32208  0.89979  0.61161  Biso   1.000  Ne
  He461    1.0000 0.29010  0.88982  0.61023  Biso   1.000  He
  He462    1.0000 0.27380  0.89252  0.63864  Biso   1.000  He
  Ne462    1.0000 0.24151  0.88424  0.63541  Biso   1.000  Ne
  Ne463    1.0000 0.74346  0.39299  0.83461  Biso   1.000  Ne
  He463    1.0000 0.77201  0.37530  0.84462  Biso   1.000  He
  He464    1.0000 0.80053  0.37931  0.82762  Biso   1.000  He
  Ne464    1.0000 0.82328  0.36194  0.84366  Biso   1.000  Ne
  Ne465    1.0000 0.68727  0.02662  0.96217  Biso   1.000  Ne
  He465    1.0000 0.67645  0.01373  0.93362  Biso   1.000  He
  He466    1.0000 0.69977  0.00037  0.91267  Biso   1.000  He
  Ne466    1.0000 0.69125  0.98942  0.88311  Biso   1.000  Ne
  Ne467    1.0000 0.27656  0.97410  0.87139  Biso   1.000  Ne
  He467    1.0000 0.30416  0.97154  0.85419  Biso   1.000  He
  He468    1.0000 0.30177  0.94678  0.83299  Biso   1.000  He
  Ne468    1.0000 0.32867  0.94491  0.81282  Biso   1.000  Ne
  Ne469    1.0000 0.62233  0.78136  0.09372  Biso   1.000  Ne
  He469    1.0000 0.60022  0.76322  0.07660  Biso   1.000  He
  He470    1.0000 0.56940  0.77245  0.07524  Biso   1.000  He
  Ne470    1.0000 0.54783  0.74969  0.06017  Biso   1.000  Ne
  Ne471    1.0000 0.21244  0.38154  0.79360  Biso   1.000  Ne
  He471    1.0000 0.24203  0.39385  0.79534  Biso   1.000  He
  He472    1.0000 0.26532  0.37434  0.80765  Biso   1.000  He
  Ne472    1.0000 0.29627  0.38607  0.80834  Biso   1.000  Ne
  Ne473    1.0000 0.29924  0.86502  0.99382  Biso   1.000  Ne
  He473    1.0000 0.30116  0.85764  0.02634  Biso   1.000  He
  He474    1.0000 0.32062  0.87682  0.04530  Biso   1.000  He
  Ne474    1.0000 0.31900  0.87027  0.07780  Biso   1.000  Ne
  Ne475    1.0000 0.41537  0.20444  0.67651  Biso   1.000  Ne
  He475    1.0000 0.41902  0.20533  0.64345  Biso   1.000  He
  He476    1.0000 0.42308  0.23632  0.62996  Biso   1.000  He
  Ne476    1.0000 0.42929  0.23228  0.59682  Biso   1.000  Ne
  Ne477    1.0000 0.13068  0.72526  0.06695  Biso   1.000  Ne
  He477    1.0000 0.10708  0.73562  0.08672  Biso   1.000  He
  He478    1.0000 0.07797  0.72229  0.07834  Biso   1.000  He
  Ne478    1.0000 0.05285  0.73120  0.10086  Biso   1.000  Ne
  Ne479    1.0000 0.75073  0.65328  0.62613  Biso   1.000  Ne
  He479    1.0000 0.72597  0.67679  0.62965  Biso   1.000  He
  He480    1.0000 0.71224  0.67538  0.65746  Biso   1.000  He
  Ne480    1.0000 0.68967  0.69770  0.66665  Biso   1.000  Ne
  Ne481    1.0000 0.36256  0.20749  0.21699  Biso   1.000  Ne
  He481    1.0000 0.33516  0.21951  0.20628  Biso   1.000  He
  He482    1.0000 0.32676  0.24860  0.22113  Biso   1.000  He
  Ne482    1.0000 0.29603  0.25814  0.21702  Biso   1.000  Ne
  Ne483    1.0000 0.60480  0.91386  0.44631  Biso   1.000  Ne
  He483    1.0000 0.57802  0.89677  0.45692  Biso   1.000  He
  He484    1.0000 0.56386  0.90613  0.48535  Biso   1.000  He
  Ne484    1.0000 0.53282  0.89429  0.49141  Biso   1.000  Ne
  Ne485    1.0000 0.19477  0.79704  0.93132  Biso   1.000  Ne
  He485    1.0000 0.22512  0.78414  0.92468  Biso   1.000  He
  He486    1.0000 0.22621  0.75226  0.92954  Biso   1.000  He
  Ne486    1.0000 0.25551  0.73813  0.92540  Biso   1.000  Ne
  Ne487    1.0000 0.03112  0.47756  0.60187  Biso   1.000  Ne
  He487    1.0000 0.01366  0.45142  0.60203  Biso   1.000  He
  He488    1.0000 0.01424  0.43414  0.57365  Biso   1.000  He
  Ne488    1.0000 0.99413  0.40592  0.57540  Biso   1.000  Ne
  Ne489    1.0000 0.16533  0.36489  0.21437  Biso   1.000  Ne
  He489    1.0000 0.13882  0.35882  0.23539  Biso   1.000  He
  He490    1.0000 0.13391  0.32481  0.24296  Biso   1.000  He
  Ne490    1.0000 0.11258  0.31514  0.26567  Biso   1.000  Ne
  Ne491    1.0000 0.57777  0.03008  0.79214  Biso   1.000  Ne
  He491    1.0000 0.54552  0.02992  0.79454  Biso   1.000  He
  He492    1.0000 0.53347  0.05343  0.81676  Biso   1.000  He
  Ne492    1.0000 0.50176  0.05751  0.81268  Biso   1.000  Ne
  Ne493    1.0000 0.38782  0.72815  0.16261  Biso   1.000  Ne
  He493    1.0000 0.38627  0.72325  0.19602  Biso   1.000  He
  He494    1.0000 0.37146  0.74757  0.21070  Biso   1.000  He
  Ne494    1.0000 0.37032  0.74161  0.24403  Biso   1.000  Ne
  Ne495    1.0000 0.82271  0.12056  0.95388  Biso   1.000  Ne
  He495    1.0000 0.81996  0.09814  0.92808  Biso   1.000  He
  He496    1.0000 0.79614  0.07374  0.93249  Biso   1.000  He
  Ne496    1.0000 0.79129  0.05512  0.90342  Biso   1.000  Ne
  Ne497    1.0000 0.69616  0.51879  0.34944  Biso   1.000  Ne
  He497    1.0000 0.72608  0.52695  0.34901  Biso   1.000  He
  He498    1.0000 0.73430  0.55609  0.36503  Biso   1.000  He
  Ne498    1.0000 0.76369  0.56391  0.35957  Biso   1.000  Ne
  Ne499    1.0000 0.33928  0.61393  0.12220  Biso   1.000  Ne
  He499    1.0000 0.32311  0.64192  0.13768  Biso   1.000  He
  He500    1.0000 0.33116  0.67214  0.12787  Biso   1.000  He
  Ne500    1.0000 0.31809  0.69595  0.14711  Biso   1.000  Ne
  Ne501    1.0000 0.22747  0.20729  0.94653  Biso   1.000  Ne
  He501    1.0000 0.20998  0.19673  0.92081  Biso   1.000  He
  He502    1.0000 0.19350  0.16686  0.92580  Biso   1.000  He
  Ne502    1.0000 0.17347  0.15831  0.90205  Biso   1.000  Ne
  Ne503    1.0000 0.31857  0.66768  0.89593  Biso   1.000  Ne
  He503    1.0000 0.29403  0.66519  0.91428  Biso   1.000  He
  He504    1.0000 0.30074  0.66148  0.94752  Biso   1.000  He
  Ne504    1.0000 0.27239  0.65831  0.96708  Biso   1.000  Ne
  Ne505    1.0000 0.17392  0.91558  0.85833  Biso   1.000  Ne
  He505    1.0000 0.18158  0.88813  0.83915  Biso   1.000  He
  He506    1.0000 0.20859  0.88724  0.82026  Biso   1.000  He
  Ne506    1.0000 0.21247  0.86099  0.80191  Biso   1.000  Ne
  Ne507    1.0000 0.11517  0.65030  0.34969  Biso   1.000  Ne
  He507    1.0000 0.10010  0.63967  0.32108  Biso   1.000  He
  He508    1.0000 0.08851  0.66370  0.30540  Biso   1.000  He
  Ne508    1.0000 0.07634  0.65640  0.27694  Biso   1.000  Ne
  Ne509    1.0000 0.68924  0.79234  0.61603  Biso   1.000  Ne
  He509    1.0000 0.72015  0.78175  0.60382  Biso   1.000  He
  He510    1.0000 0.74167  0.80583  0.59467  Biso   1.000  He
  Ne510    1.0000 0.77128  0.79453  0.58483  Biso   1.000  Ne
  Ne511    1.0000 0.06559  0.01187  0.98122  Biso   1.000  Ne
  He511    1.0000 0.06523  0.03705  0.00242  Biso   1.000  He
  He512    1.0000 0.03438  0.04697  0.01378  Biso   1.000  He
  Ne512    1.0000 0.03548  0.07408  0.03202  Biso   1.000  Ne
  Ne513    1.0000 0.94353  0.69355  0.96601  Biso   1.000  Ne
  He513    1.0000 0.94140  0.66592  0.94786  Biso   1.000  He
  He514    1.0000 0.92226  0.64128  0.96146  Biso   1.000  He
  Ne514    1.0000 0.91434  0.61602  0.94039  Biso   1.000  Ne
  Ne515    1.0000 0.92051  0.56852  0.33771  Biso   1.000  Ne
  He515    1.0000 0.88664  0.57203  0.33728  Biso   1.000  He
  He516    1.0000 0.87197  0.56156  0.36446  Biso   1.000  He
  Ne516    1.0000 0.83957  0.56926  0.37136  Biso   1.000  Ne
  Ne517    1.0000 0.05456  0.27462  0.18876  Biso   1.000  Ne
  He517    1.0000 0.08070  0.28299  0.17034  Biso   1.000  He
  He518    1.0000 0.10884  0.27984  0.18525  Biso   1.000  He
  Ne518    1.0000 0.13538  0.28972  0.17000  Biso   1.000  Ne
  Ne519    1.0000 0.68776  0.26717  0.72379  Biso   1.000  Ne
  He519    1.0000 0.68260  0.23417  0.72844  Biso   1.000  He
  He520    1.0000 0.70920  0.21392  0.73155  Biso   1.000  He
  Ne520    1.0000 0.70327  0.18099  0.73352  Biso   1.000  Ne
  Ne521    1.0000 0.13930  0.80036  0.31048  Biso   1.000  Ne
  He521    1.0000 0.11866  0.77680  0.32203  Biso   1.000  He
  He522    1.0000 0.09215  0.79017  0.33912  Biso   1.000  He
  Ne522    1.0000 0.07693  0.76981  0.35780  Biso   1.000  Ne
  Ne523    1.0000 0.30431  0.75065  0.29656  Biso   1.000  Ne
  He523    1.0000 0.29500  0.77754  0.31693  Biso   1.000  He
  He524    1.0000 0.31449  0.77650  0.34361  Biso   1.000  He
  Ne524    1.0000 0.30782  0.79970  0.36450  Biso   1.000  Ne
  Ne525    1.0000 0.06508  0.39165  0.03056  Biso   1.000  Ne
  He525    1.0000 0.04753  0.36564  0.01958  Biso   1.000  He
  He526    1.0000 0.01987  0.37304  0.00123  Biso   1.000  He
  Ne526    1.0000 0.99340  0.36666  0.01643  Biso   1.000  Ne
  Ne527    1.0000 0.28195  0.07711  0.05652  Biso   1.000  Ne
  He527    1.0000 0.24838  0.07116  0.05777  Biso   1.000  He
  He528    1.0000 0.23514  0.07805  0.08935  Biso   1.000  He
  Ne528    1.0000 0.20789  0.06304  0.09437  Biso   1.000  Ne
  Ne529    1.0000 0.20314  0.70978  0.25086  Biso   1.000  Ne
  He529    1.0000 0.18759  0.68129  0.24765  Biso   1.000  He
  He530    1.0000 0.20830  0.65525  0.24349  Biso   1.000  He
  Ne530    1.0000 0.19118  0.62626  0.23549  Biso   1.000  Ne
  Ne531    1.0000 0.61855  0.37224  0.74837  Biso   1.000  Ne
  He531    1.0000 0.59860  0.37784  0.77653  Biso   1.000  He
  He532    1.0000 0.57372  0.39762  0.76925  Biso   1.000  He
  Ne532    1.0000 0.55747  0.41062  0.79417  Biso   1.000  Ne
  Ne533    1.0000 0.24217  0.65917  0.10954  Biso   1.000  Ne
  He533    1.0000 0.20883  0.65583  0.11239  Biso   1.000  He
  He534    1.0000 0.19188  0.68438  0.10401  Biso   1.000  He
  Ne534    1.0000 0.18921  0.70836  0.12723  Biso   1.000  Ne
  Ne535    1.0000 0.08563  0.08437  0.46197  Biso   1.000  Ne
  He535    1.0000 0.08557  0.10933  0.48561  Biso   1.000  He
  He536    1.0000 0.10190  0.09992  0.51220  Biso   1.000  He
  Ne536    1.0000 0.10712  0.12424  0.53365  Biso   1.000  Ne
  Ne537    1.0000 0.81880  0.79756  0.13037  Biso   1.000  Ne
  He537    1.0000 0.84387  0.77837  0.11984  Biso   1.000  He
  He538    1.0000 0.85629  0.76067  0.14404  Biso   1.000  He
  Ne538    1.0000 0.88037  0.74192  0.13404  Biso   1.000  Ne
  Ne539    1.0000 0.77955  0.73185  0.67551  Biso   1.000  Ne
  He539    1.0000 0.76702  0.76215  0.67173  Biso   1.000  He
  He540    1.0000 0.76343  0.77789  0.70128  Biso   1.000  He
  Ne540    1.0000 0.74911  0.80590  0.69791  Biso   1.000  Ne
  Ne541    1.0000 0.40126  0.31044  0.09804  Biso   1.000  Ne
  He541    1.0000 0.40908  0.28108  0.11121  Biso   1.000  He
  He542    1.0000 0.39294  0.26988  0.13579  Biso   1.000  He
  Ne542    1.0000 0.39929  0.23750  0.14187  Biso   1.000  Ne
  Ne543    1.0000 0.26699  0.06712  0.21387  Biso   1.000  Ne
  He543    1.0000 0.23159  0.07379  0.21249  Biso   1.000  He
  He544    1.0000 0.20906  0.04653  0.21420  Biso   1.000  He
  Ne544    1.0000 0.17799  0.05429  0.21932  Biso   1.000  Ne
  Ne545    1.0000 0.65365  0.40499  0.23286  Biso   1.000  Ne
  He545    1.0000 0.64718  0.41016  0.20252  Biso   1.000  He
  He546    1.0000 0.62023  0.39177  0.19152  Biso   1.000  He
  Ne546    1.0000 0.60846  0.40133  0.16184  Biso   1.000  Ne
  Ne547    1.0000 0.21507  0.25810  0.37845  Biso   1.000  Ne
  He547    1.0000 0.19986  0.27834  0.35725  Biso   1.000  He
  He548    1.0000 0.16570  0.27271  0.35596  Biso   1.000  He
  Ne548    1.0000 0.14807  0.29056  0.33268  Biso   1.000  Ne
  Ne549    1.0000 0.26011  0.64382  0.78171  Biso   1.000  Ne
  He549    1.0000 0.23581  0.65190  0.76242  Biso   1.000  He
  He550    1.0000 0.24134  0.64653  0.72945  Biso   1.000  He
  Ne550    1.0000 0.21564  0.65929  0.71087  Biso   1.000  Ne
  Ne551    1.0000 0.67896  0.77247  0.36311  Biso   1.000  Ne
  He551    1.0000 0.69861  0.77168  0.39049  Biso   1.000  He
  He552    1.0000 0.68792  0.75299  0.41506  Biso   1.000  He
  Ne552    1.0000 0.70445  0.74989  0.44387  Biso   1.000  Ne
  Ne553    1.0000 0.05688  0.92289  0.09419  Biso   1.000  Ne
  He553    1.0000 0.03656  0.95225  0.09453  Biso   1.000  He
  He554    1.0000 0.05456  0.98029  0.09624  Biso   1.000  He
  Ne554    1.0000 0.03595  0.00963  0.09478  Biso   1.000  Ne
  Ne555    1.0000 0.44511  0.41452  0.94025  Biso   1.000  Ne
  He555    1.0000 0.45549  0.41300  0.97109  Biso   1.000  He
  He556    1.0000 0.44799  0.43883  0.98913  Biso   1.000  He
  Ne556    1.0000 0.46425  0.43809  0.01886  Biso   1.000  Ne
  Ne557    1.0000 0.80722  0.61827  0.43688  Biso   1.000  Ne
  He557    1.0000 0.78144  0.59621  0.43993  Biso   1.000  He
  He558    1.0000 0.78830  0.56489  0.43782  Biso   1.000  He
  Ne558    1.0000 0.76367  0.54680  0.45392  Biso   1.000  Ne
  Ne559    1.0000 0.76877  0.22152  0.78821  Biso   1.000  Ne
  He559    1.0000 0.79167  0.23787  0.81121  Biso   1.000  He
  He560    1.0000 0.79018  0.27104  0.81128  Biso   1.000  He
  Ne560    1.0000 0.80818  0.28389  0.83729  Biso   1.000  Ne
  Ne561    1.0000 0.05659  0.44048  0.23805  Biso   1.000  Ne
  He561    1.0000 0.06654  0.40867  0.23248  Biso   1.000  He
  He562    1.0000 0.05449  0.38745  0.25046  Biso   1.000  He
  Ne562    1.0000 0.05634  0.35699  0.23748  Biso   1.000  Ne
  Ne563    1.0000 0.39909  0.91700  0.26174  Biso   1.000  Ne
  He563    1.0000 0.42527  0.90454  0.27970  Biso   1.000  He
  He564    1.0000 0.41659  0.90185  0.31147  Biso   1.000  He
  Ne564    1.0000 0.43721  0.88642  0.33281  Biso   1.000  Ne
  Ne565    1.0000 0.87308  0.67813  0.05874  Biso   1.000  Ne
  He565    1.0000 0.89413  0.70278  0.05481  Biso   1.000  He
  He566    1.0000 0.92045  0.70201  0.06988  Biso   1.000  He
  Ne566    1.0000 0.93839  0.72886  0.07173  Biso   1.000  Ne
  Ne567    1.0000 0.77159  0.38571  0.27514  Biso   1.000  Ne
  He567    1.0000 0.76349  0.35879  0.26174  Biso   1.000  He
  He568    1.0000 0.78773  0.34252  0.24823  Biso   1.000  He
  Ne568    1.0000 0.78064  0.31074  0.23291  Biso   1.000  Ne
  Ne569    1.0000 0.36102  0.08131  0.43215  Biso   1.000  Ne
  He569    1.0000 0.32939  0.08709  0.42135  Biso   1.000  He
  He570    1.0000 0.30805  0.06380  0.43298  Biso   1.000  He
  Ne570    1.0000 0.27757  0.06639  0.42395  Biso   1.000  Ne
  Ne571    1.0000 0.83274  0.81811  0.74101  Biso   1.000  Ne
  He571    1.0000 0.83941  0.83040  0.71246  Biso   1.000  He
  He572    1.0000 0.84612  0.80645  0.68952  Biso   1.000  He
  Ne572    1.0000 0.84662  0.81695  0.65789  Biso   1.000  Ne
  Ne573    1.0000 0.93801  0.75190  0.89853  Biso   1.000  Ne
  He573    1.0000 0.93722  0.78386  0.90824  Biso   1.000  He
  He574    1.0000 0.90721  0.79636  0.91504  Biso   1.000  He
  Ne574    1.0000 0.90607  0.82770  0.92760  Biso   1.000  Ne
  Ne575    1.0000 0.58822  0.68493  0.11248  Biso   1.000  Ne
  He575    1.0000 0.60324  0.65777  0.10654  Biso   1.000  He
  He576    1.0000 0.63543  0.65956  0.10624  Biso   1.000  He
  Ne576    1.0000 0.65209  0.63069  0.10612  Biso   1.000  Ne
  Ne577    1.0000 0.64961  0.83162  0.43666  Biso   1.000  Ne
  He577    1.0000 0.66515  0.85968  0.43879  Biso   1.000  He
  He578    1.0000 0.69397  0.86113  0.45782  Biso   1.000  He
  Ne578    1.0000 0.71220  0.88842  0.45782  Biso   1.000  Ne
  Ne579    1.0000 0.50875  0.91179  0.82078  Biso   1.000  Ne
  He579    1.0000 0.49282  0.93920  0.83144  Biso   1.000  He
  He580    1.0000 0.50083  0.94772  0.86330  Biso   1.000  He
  Ne580    1.0000 0.48767  0.97671  0.87177  Biso   1.000  Ne
  Ne581    1.0000 0.17484  0.16027  0.40791  Biso   1.000  Ne
  He581    1.0000 0.17981  0.12879  0.40426  Biso   1.000  He
  He582    1.0000 0.17797  0.11903  0.37371  Biso   1.000  He
  Ne582    1.0000 0.18163  0.08342  0.37121  Biso   1.000  Ne
  Ne583    1.0000 0.87857  0.67335  0.43546  Biso   1.000  Ne
  He583    1.0000 0.90164  0.65457  0.41955  Biso   1.000  He
  He584    1.0000 0.90764  0.62403  0.43198  Biso   1.000  He
  Ne584    1.0000 0.93275  0.61075  0.41572  Biso   1.000  Ne
  Ne585    1.0000 0.78631  0.19649  0.92146  Biso   1.000  Ne
  He585    1.0000 0.76808  0.19080  0.89298  Biso   1.000  He
  He586    1.0000 0.76731  0.15741  0.88686  Biso   1.000  He
  Ne586    1.0000 0.75046  0.14579  0.86294  Biso   1.000  Ne
  Ne587    1.0000 0.02793  0.95559  0.73978  Biso   1.000  Ne
  He587    1.0000 0.04232  0.96899  0.71203  Biso   1.000  He
  He588    1.0000 0.06909  0.98672  0.72022  Biso   1.000  He
  Ne588    1.0000 0.08621  0.99346  0.69396  Biso   1.000  Ne
  Ne589    1.0000 0.76822  0.07347  0.11856  Biso   1.000  Ne
  He589    1.0000 0.77340  0.07501  0.15061  Biso   1.000  He
  He590    1.0000 0.78267  0.04544  0.16318  Biso   1.000  He
  Ne590    1.0000 0.79415  0.04623  0.19497  Biso   1.000  Ne
  Ne591    1.0000 0.79167  0.70760  0.14042  Biso   1.000  Ne
  He591    1.0000 0.77859  0.68263  0.15487  Biso   1.000  He
  He592    1.0000 0.75220  0.67538  0.13810  Biso   1.000  He
  Ne592    1.0000 0.73194  0.65300  0.15277  Biso   1.000  Ne
  Ne593    1.0000 0.59552  0.62714  0.40258  Biso   1.000  Ne
  He593    1.0000 0.61180  0.63074  0.37312  Biso   1.000  He
  He594    1.0000 0.61865  0.65748  0.35541  Biso   1.000  He
  Ne594    1.0000 0.63577  0.65552  0.32833  Biso   1.000  Ne
  Ne595    1.0000 0.84068  0.87876  0.11679  Biso   1.000  Ne
  He595    1.0000 0.86116  0.88606  0.14120  Biso   1.000  He
  He596    1.0000 0.84555  0.89299  0.16857  Biso   1.000  He
  Ne596    1.0000 0.86240  0.90170  0.19543  Biso   1.000  Ne
  Ne597    1.0000 0.33274  0.79716  0.95270  Biso   1.000  Ne
  He597    1.0000 0.36015  0.81181  0.95031  Biso   1.000  He
  He598    1.0000 0.36653  0.82201  0.91973  Biso   1.000  He
  Ne598    1.0000 0.39697  0.83059  0.91072  Biso   1.000  Ne
  Ne599    1.0000 0.53827  0.65071  0.64439  Biso   1.000  Ne
  He599    1.0000 0.55105  0.62335  0.62952  Biso   1.000  He
  He600    1.0000 0.52840  0.59730  0.63256  Biso   1.000  He
  Ne600    1.0000 0.53448  0.57749  0.65834  Biso   1.000  Ne
  Ne601    1.0000 0.21279  0.56913  0.02744  Biso   1.000  Ne
  He601    1.0000 0.19537  0.55606  0.05453  Biso   1.000  He
  He602    1.0000 0.16265  0.55709  0.05028  Biso   1.000  He
  Ne602    1.0000 0.14538  0.54780  0.07689  Biso   1.000  Ne
  Ne603    1.0000 0.34885  0.89952  0.69781  Biso   1.000  Ne
  He603    1.0000 0.36590  0.87189  0.69287  Biso   1.000  He
  He604    1.0000 0.39777  0.86999  0.70848  Biso   1.000  He
  Ne604    1.0000 0.41471  0.84084  0.70523  Biso   1.000  Ne
  Ne605    1.0000 0.87399  0.34786  0.99323  Biso   1.000  Ne
  He605    1.0000 0.85549  0.33815  0.96827  Biso   1.000  He
  He606    1.0000 0.85914  0.30635  0.95427  Biso   1.000  He
  Ne606    1.0000 0.84564  0.30310  0.92442  Biso   1.000  Ne
  Ne607    1.0000 0.48391  0.77526  0.89611  Biso   1.000  Ne
  He607    1.0000 0.46586  0.77906  0.92204  Biso   1.000  He
  He608    1.0000 0.47968  0.79675  0.94743  Biso   1.000  He
  Ne608    1.0000 0.46098  0.80649  0.97427  Biso   1.000  Ne
  Ne609    1.0000 0.12762  0.41987  0.95783  Biso   1.000  Ne
  He609    1.0000 0.12128  0.38897  0.95506  Biso   1.000  He
  He610    1.0000 0.11966  0.37997  0.92183  Biso   1.000  He
  Ne610    1.0000 0.11107  0.34554  0.91935  Biso   1.000  Ne
  Ne611    1.0000 0.85690  0.23764  0.12993  Biso   1.000  Ne
  He611    1.0000 0.87390  0.25140  0.15616  Biso   1.000  He
  He612    1.0000 0.90031  0.23444  0.16642  Biso   1.000  He
  Ne612    1.0000 0.91753  0.25004  0.19443  Biso   1.000  Ne
  Ne613    1.0000 0.80041  0.36861  0.36951  Biso   1.000  Ne
  He613    1.0000 0.83007  0.37544  0.35750  Biso   1.000  He
  He614    1.0000 0.83657  0.40712  0.34875  Biso   1.000  He
  Ne614    1.0000 0.86646  0.41101  0.33845  Biso   1.000  Ne
  Ne615    1.0000 0.76425  0.55988  0.77568  Biso   1.000  Ne
  He615    1.0000 0.78614  0.54599  0.75137  Biso   1.000  He
  He616    1.0000 0.79082  0.56678  0.72388  Biso   1.000  He
  Ne616    1.0000 0.81155  0.55299  0.70322  Biso   1.000  Ne
  Ne617    1.0000 0.59143  0.80392  0.39955  Biso   1.000  Ne
  He617    1.0000 0.58459  0.77061  0.40097  Biso   1.000  He
  He618    1.0000 0.60283  0.75553  0.42278  Biso   1.000  He
  Ne618    1.0000 0.59628  0.72244  0.42142  Biso   1.000  Ne
  Ne619    1.0000 0.99364  0.32809  0.90533  Biso   1.000  Ne
  He619    1.0000 0.02492  0.31537  0.90453  Biso   1.000  He
  He620    1.0000 0.02732  0.28653  0.88646  Biso   1.000  He
  Ne620    1.0000 0.05978  0.27464  0.88289  Biso   1.000  Ne
  Ne621    1.0000 0.24451  0.84663  0.33761  Biso   1.000  Ne
  He621    1.0000 0.27572  0.85617  0.32875  Biso   1.000  He
  He622    1.0000 0.27941  0.88418  0.31224  Biso   1.000  He
  Ne622    1.0000 0.31093  0.88997  0.30251  Biso   1.000  Ne
  Ne623    1.0000 0.40519  0.46064  0.59117  Biso   1.000  Ne
  He623    1.0000 0.38345  0.43590  0.58881  Biso   1.000  He
  He624    1.0000 0.39054  0.41229  0.61136  Biso   1.000  He
  Ne624    1.0000 0.36765  0.39069  0.60977  Biso   1.000  Ne
  Ne625    1.0000 0.95044  0.50656  0.44372  Biso   1.000  Ne
  He625    1.0000 0.95698  0.53595  0.44899  Biso   1.000  He
  He626    1.0000 0.95399  0.54683  0.48201  Biso   1.000  He
  Ne626    1.0000 0.95814  0.57697  0.48581  Biso   1.000  Ne
  Ne627    1.0000 0.41752  0.48277  0.31270  Biso   1.000  Ne
  He627    1.0000 0.39441  0.46077  0.30788  Biso   1.000  He
  He628    1.0000 0.40463  0.42925  0.30878  Biso   1.000  He
  Ne628    1.0000 0.38031  0.40924  0.30710  Biso   1.000  Ne
  Ne629    1.0000 0.35493  0.35358  0.74919  Biso   1.000  Ne
  He629    1.0000 0.38173  0.33742  0.76223  Biso   1.000  He
  He630    1.0000 0.36969  0.31301  0.78459  Biso   1.000  He
  Ne630    1.0000 0.39422  0.29567  0.80110  Biso   1.000  Ne
  Ne631    1.0000 0.22547  0.18874  0.65418  Biso   1.000  Ne
  He631    1.0000 0.23661  0.16317  0.63593  Biso   1.000  He
  He632    1.0000 0.26706  0.16501  0.61880  Biso   1.000  He
  Ne632    1.0000 0.27350  0.14133  0.59549  Biso   1.000  Ne
  Ne633    1.0000 0.93240  0.16633  0.40464  Biso   1.000  Ne
  He633    1.0000 0.93009  0.16153  0.37272  Biso   1.000  He
  He634    1.0000 0.90632  0.17948  0.35562  Biso   1.000  He
  Ne634    1.0000 0.89944  0.16600  0.32550  Biso   1.000  Ne
  Ne635    1.0000 0.81057  0.14111  0.12186  Biso   1.000  Ne
  He635    1.0000 0.78738  0.15994  0.13577  Biso   1.000  He
  He636    1.0000 0.79523  0.18878  0.14649  Biso   1.000  He
  Ne636    1.0000 0.77338  0.20174  0.16751  Biso   1.000  Ne
  Ne637    1.0000 0.76487  0.89478  0.67629  Biso   1.000  Ne
  He637    1.0000 0.78104  0.91980  0.66338  Biso   1.000  He
  He638    1.0000 0.78697  0.94763  0.68216  Biso   1.000  He
  Ne638    1.0000 0.79896  0.97313  0.66651  Biso   1.000  Ne
  Ne639    1.0000 0.39720  0.07794  0.00016  Biso   1.000  Ne
  He639    1.0000 0.36535  0.06554  0.98890  Biso   1.000  He
  He640    1.0000 0.36582  0.04728  0.95944  Biso   1.000  He
  Ne640    1.0000 0.37171  0.01495  0.95957  Biso   1.000  Ne
  Ne641    1.0000 0.32114  0.90591  0.17903  Biso   1.000  Ne
  He641    1.0000 0.31767  0.93920  0.17662  Biso   1.000  He
  He642    1.0000 0.30561  0.94768  0.14835  Biso   1.000  He
  Ne642    1.0000 0.30597  0.98006  0.14289  Biso   1.000  Ne
  Ne643    1.0000 0.88681  0.06783  0.21725  Biso   1.000  Ne
  He643    1.0000 0.91405  0.07634  0.23378  Biso   1.000  He
  He644    1.0000 0.90392  0.08292  0.26730  Biso   1.000  He
  Ne644    1.0000 0.92856  0.08199  0.28835  Biso   1.000  Ne
  Ne645    1.0000 0.89652  0.29124  0.41627  Biso   1.000  Ne
  He645    1.0000 0.91876  0.31102  0.40212  Biso   1.000  He
  He646    1.0000 0.90447  0.33275  0.38223  Biso   1.000  He
  Ne646    1.0000 0.92642  0.34617  0.35717  Biso   1.000  Ne
  Ne647    1.0000 0.01751  0.66471  0.86945  Biso   1.000  Ne
  He647    1.0000 0.04721  0.67187  0.85926  Biso   1.000  He
  He648    1.0000 0.05564  0.70466  0.86089  Biso   1.000  He
  Ne648    1.0000 0.08858  0.71437  0.84905  Biso   1.000  Ne
  Ne649    1.0000 0.57538  0.83404  0.20445  Biso   1.000  Ne
  He649    1.0000 0.55397  0.80960  0.19605  Biso   1.000  He
  He650    1.0000 0.56198  0.79558  0.17060  Biso   1.000  He
  Ne650    1.0000 0.54252  0.77206  0.15673  Biso   1.000  Ne
  Ne651    1.0000 0.87534  0.39987  0.23565  Biso   1.000  Ne
  He651    1.0000 0.90298  0.37964  0.23580  Biso   1.000  He
  He652    1.0000 0.90893  0.37250  0.26719  Biso   1.000  He
  Ne652    1.0000 0.93636  0.35362  0.27020  Biso   1.000  Ne
  Ne653    1.0000 0.71948  0.39685  0.16395  Biso   1.000  Ne
  He653    1.0000 0.73794  0.41322  0.18912  Biso   1.000  He
  He654    1.0000 0.76765  0.42293  0.17981  Biso   1.000  He
  Ne654    1.0000 0.78526  0.43410  0.20537  Biso   1.000  Ne
  Ne655    1.0000 0.38302  0.23899  0.40907  Biso   1.000  Ne
  He655    1.0000 0.41251  0.22145  0.40864  Biso   1.000  He
  He656    1.0000 0.41651  0.19474  0.42948  Biso   1.000  He
  Ne656    1.0000 0.38940  0.18367  0.44824  Biso   1.000  Ne
  Ne657    1.0000 0.11979  0.28873  0.66523  Biso   1.000  Ne
  He657    1.0000 0.09164  0.30459  0.65647  Biso   1.000  He
  He658    1.0000 0.09541  0.31700  0.62599  Biso   1.000  He
  Ne658    1.0000 0.07157  0.33467  0.61683  Biso   1.000  Ne
  Ne659    1.0000 0.96423  0.69202  0.13672  Biso   1.000  Ne
  He659    1.0000 0.96601  0.69679  0.16821  Biso   1.000  He
  He660    1.0000 0.94496  0.71824  0.17774  Biso   1.000  He
  Ne660    1.0000 0.94578  0.72421  0.21286  Biso   1.000  Ne
  Ne661    1.0000 0.20009  0.53332  0.16467  Biso   1.000  Ne
  He661    1.0000 0.19424  0.50266  0.17906  Biso   1.000  He
  He662    1.0000 0.20882  0.47596  0.16567  Biso   1.000  He
  Ne662    1.0000 0.20148  0.44927  0.18076  Biso   1.000  Ne
  Ne663    1.0000 0.95277  0.10043  0.47991  Biso   1.000  Ne
  He663    1.0000 0.96384  0.12882  0.46493  Biso   1.000  He
  He664    1.0000 0.99586  0.13524  0.46713  Biso   1.000  He
  Ne664    1.0000 0.00473  0.16371  0.45161  Biso   1.000  Ne
  Ne665    1.0000 0.06241  0.18242  0.36020  Biso   1.000  Ne
  He665    1.0000 0.05615  0.21183  0.37540  Biso   1.000  He
  He666    1.0000 0.07886  0.23323  0.36770  Biso   1.000  He
  Ne666    1.0000 0.07603  0.26504  0.37690  Biso   1.000  Ne
  Ne667    1.0000 0.09550  0.11881  0.90174  Biso   1.000  Ne
  He667    1.0000 0.06939  0.09997  0.89062  Biso   1.000  He
  He668    1.0000 0.06073  0.07662  0.91474  Biso   1.000  He
  Ne668    1.0000 0.04401  0.04810  0.90155  Biso   1.000  Ne
  Ne669    1.0000 0.95973  0.02191  0.13571  Biso   1.000  Ne
  He669    1.0000 0.95629  0.03478  0.10671  Biso   1.000  He
  He670    1.0000 0.92760  0.02957  0.09351  Biso   1.000  He
  Ne670    1.0000 0.92517  0.03991  0.06289  Biso   1.000  Ne
  Ne671    1.0000 0.08806  0.85719  0.78359  Biso   1.000  Ne
  He671    1.0000 0.08837  0.87371  0.81373  Biso   1.000  He
  He672    1.0000 0.08352  0.90528  0.81181  Biso   1.000  He
  Ne672    1.0000 0.09586  0.92343  0.83719  Biso   1.000  Ne
  Ne673    1.0000 0.95130  0.78119  0.57597  Biso   1.000  Ne
  He673    1.0000 0.94049  0.74810  0.58273  Biso   1.000  He
  He674    1.0000 0.91829  0.74475  0.60833  Biso   1.000  He
  Ne674    1.0000 0.93372  0.73679  0.63791  Biso   1.000  Ne
  Ne675    1.0000 0.81790  0.80594  0.27862  Biso   1.000  Ne
  He675    1.0000 0.80804  0.81974  0.24855  Biso   1.000  He
  He676    1.0000 0.78445  0.84048  0.25505  Biso   1.000  He
  Ne676    1.0000 0.78597  0.86376  0.23127  Biso   1.000  Ne
  Ne677    1.0000 0.23191  0.74109  0.76048  Biso   1.000  Ne
  He677    1.0000 0.22482  0.74030  0.79224  Biso   1.000  He
  He678    1.0000 0.19319  0.73607  0.79880  Biso   1.000  He
  Ne678    1.0000 0.18657  0.72754  0.82961  Biso   1.000  Ne
  Ne679    1.0000 0.71420  0.78810  0.21407  Biso   1.000  Ne
  He679    1.0000 0.72429  0.76375  0.23286  Biso   1.000  He
  He680    1.0000 0.75718  0.76439  0.23498  Biso   1.000  He
  Ne680    1.0000 0.77455  0.73826  0.21848  Biso   1.000  Ne
  Ne681    1.0000 0.81776  0.69565  0.38217  Biso   1.000  Ne
  He681    1.0000 0.83194  0.72086  0.36831  Biso   1.000  He
  He682    1.0000 0.82960  0.72439  0.33444  Biso   1.000  He
  Ne682    1.0000 0.80477  0.74370  0.32432  Biso   1.000  Ne
  Ne683    1.0000 0.54343  0.90824  0.60541  Biso   1.000  Ne
  He683    1.0000 0.54216  0.93398  0.58371  Biso   1.000  He
  He684    1.0000 0.56924  0.94308  0.56965  Biso   1.000  He
  Ne684    1.0000 0.56897  0.96821  0.54831  Biso   1.000  Ne
  Ne685    1.0000 0.17508  0.08513  0.84239  Biso   1.000  Ne
  He685    1.0000 0.17310  0.10099  0.81463  Biso   1.000  He
  He686    1.0000 0.14950  0.12541  0.82090  Biso   1.000  He
  Ne686    1.0000 0.14345  0.14176  0.79291  Biso   1.000  Ne
  Ne687    1.0000 0.18205  0.99764  0.46766  Biso   1.000  Ne
  He687    1.0000 0.20707  0.98831  0.48456  Biso   1.000  He
  He688    1.0000 0.20596  0.95634  0.49472  Biso   1.000  He
  Ne688    1.0000 0.22794  0.94563  0.51693  Biso   1.000  Ne
  Ne689    1.0000 0.29427  0.94507  0.98204  Biso   1.000  Ne
  He689    1.0000 0.28904  0.97553  0.99628  Biso   1.000  He
  He690    1.0000 0.29541  0.00109  0.97609  Biso   1.000  He
  Ne690    1.0000 0.29137  0.03147  0.98724  Biso   1.000  Ne
  Ne691    1.0000 0.37723  0.39567  0.41440  Biso   1.000  Ne
  He691    1.0000 0.34455  0.39391  0.41510  Biso   1.000  He
  He692    1.0000 0.32720  0.42237  0.40345  Biso   1.000  He
  Ne692    1.0000 0.29528  0.41845  0.40405  Biso   1.000  Ne
  Ne693    1.0000 0.16052  0.52861  0.95791  Biso   1.000  Ne
  He693    1.0000 0.15896  0.50563  0.93173  Biso   1.000  He
  He694    1.0000 0.18065  0.51407  0.90748  Biso   1.000  He
  Ne694    1.0000 0.18621  0.49552  0.88139  Biso   1.000  Ne
  Ne695    1.0000 0.33785  0.21990  0.30738  Biso   1.000  Ne
  He695    1.0000 0.35235  0.24815  0.31647  Biso   1.000  He
  He696    1.0000 0.37874  0.25398  0.29718  Biso   1.000  He
  Ne696    1.0000 0.39743  0.28094  0.30615  Biso   1.000  Ne
  Ne697    1.0000 0.91312  0.85825  0.85659  Biso   1.000  Ne
  He697    1.0000 0.90018  0.87789  0.83281  Biso   1.000  He
  He698    1.0000 0.92047  0.88545  0.81152  Biso   1.000  He
  Ne698    1.0000 0.91135  0.91136  0.79115  Biso   1.000  Ne
  Ne699    1.0000 0.57080  0.13639  0.59950  Biso   1.000  Ne
  He699    1.0000 0.57170  0.10297  0.60393  Biso   1.000  He
  He700    1.0000 0.56316  0.08844  0.63369  Biso   1.000  He
  Ne700    1.0000 0.55649  0.05752  0.63096  Biso   1.000  Ne
