data_image0
_cell_length_a       46.591
_cell_length_b       46.7831
_cell_length_c       46.5497
_cell_angle_alpha    90
_cell_angle_beta     90
_cell_angle_gamma    90

_symmetry_space_group_name_H-M    "P 1"
_symmetry_int_tables_number       1

loop_
  _symmetry_equiv_pos_as_xyz
  'x, y, z'

loop_
  _atom_site_label
  _atom_site_occupancy
  _atom_site_fract_x
  _atom_site_fract_y
  _atom_site_fract_z
  _atom_site_thermal_displace_type
  _atom_site_B_iso_or_equiv
  _atom_site_type_symbol
  Ne1      1.0000 0.23600  0.21973  0.42558  Biso   1.000  Ne
  He1      1.0000 0.25881  0.24035  0.44260  Biso   1.000  He
  He2      1.0000 0.28739  0.22614  0.44826  Biso   1.000  He
  Ne2      1.0000 0.31102  0.24316  0.46266  Biso   1.000  Ne
  Ne3      1.0000 0.63814  0.97795  0.17286  Biso   1.000  Ne
  He3      1.0000 0.64758  0.94696  0.18456  Biso   1.000  He
  He4      1.0000 0.66314  0.94924  0.21380  Biso   1.000  He
  Ne4      1.0000 0.67763  0.91989  0.22438  Biso   1.000  Ne
  Ne5      1.0000 0.91847  0.83687  0.13945  Biso   1.000  Ne
  He5      1.0000 0.89344  0.81719  0.13717  Biso   1.000  He
  He6      1.0000 0.87126  0.82836  0.11572  Biso   1.000  He
  Ne6      1.0000 0.84009  0.81655  0.11677  Biso   1.000  Ne
  Ne7      1.0000 0.78329  0.37122  0.14944  Biso   1.000  Ne
  He7      1.0000 0.77972  0.34021  0.14394  Biso   1.000  He
  He8      1.0000 0.76949  0.33430  0.11283  Biso   1.000  He
  Ne8      1.0000 0.75915  0.30423  0.10811  Biso   1.000  Ne
  Ne9      1.0000 0.15348  0.32585  0.27000  Biso   1.000  Ne
  He9      1.0000 0.15663  0.29889  0.29213  Biso   1.000  He
  He10     1.0000 0.18685  0.29363  0.30546  Biso   1.000  He
  Ne10     1.0000 0.18594  0.27171  0.33055  Biso   1.000  Ne
  Ne11     1.0000 0.43351  0.40575  0.79048  Biso   1.000  Ne
  He11     1.0000 0.44125  0.42224  0.76178  Biso   1.000  He
  He12     1.0000 0.41494  0.42928  0.74395  Biso   1.000  He
  Ne12     1.0000 0.42300  0.44402  0.71465  Biso   1.000  Ne
  Ne13     1.0000 0.25641  0.81233  0.90894  Biso   1.000  Ne
  He13     1.0000 0.28682  0.80309  0.89536  Biso   1.000  He
  He14     1.0000 0.29654  0.81857  0.86673  Biso   1.000  He
  Ne14     1.0000 0.32463  0.80647  0.85602  Biso   1.000  Ne
  Ne15     1.0000 0.47762  0.93691  0.45105  Biso   1.000  Ne
  He15     1.0000 0.50492  0.92096  0.45847  Biso   1.000  He
  He16     1.0000 0.50924  0.92178  0.48768  Biso   1.000  He
  Ne16     1.0000 0.53960  0.90939  0.49451  Biso   1.000  Ne
  Ne17     1.0000 0.15579  0.61653  0.89197  Biso   1.000  Ne
  He17     1.0000 0.17151  0.64307  0.87692  Biso   1.000  He
  He18     1.0000 0.17976  0.64390  0.84474  Biso   1.000  He
  Ne18     1.0000 0.19193  0.67327  0.83355  Biso   1.000  Ne
  Ne19     1.0000 0.42561  0.07858  0.34768  Biso   1.000  Ne
  He19     1.0000 0.41060  0.06374  0.31991  Biso   1.000  He
  He20     1.0000 0.38072  0.07003  0.31883  Biso   1.000  He
  Ne20     1.0000 0.36707  0.05772  0.29208  Biso   1.000  Ne
  Ne21     1.0000 0.31867  0.38021  0.95662  Biso   1.000  Ne
  He21     1.0000 0.30034  0.40992  0.95849  Biso   1.000  He
  He22     1.0000 0.26898  0.40388  0.95011  Biso   1.000  He
  Ne22     1.0000 0.24785  0.42951  0.95399  Biso   1.000  Ne
  Ne23     1.0000 0.56071  0.15637  0.78925  Biso   1.000  Ne
  He23     1.0000 0.57434  0.18170  0.77220  Biso   1.000  He
  He24     1.0000 0.60762  0.17815  0.77086  Biso   1.000  He
  Ne24     1.0000 0.61861  0.19915  0.74774  Biso   1.000  Ne
  Ne25     1.0000 0.06775  0.73814  0.69127  Biso   1.000  Ne
  He25     1.0000 0.09028  0.73148  0.66940  Biso   1.000  He
  He26     1.0000 0.12232  0.73138  0.68231  Biso   1.000  He
  Ne26     1.0000 0.14622  0.73033  0.65795  Biso   1.000  Ne
  Ne27     1.0000 0.39113  0.21213  0.86262  Biso   1.000  Ne
  He27     1.0000 0.39674  0.19515  0.83507  Biso   1.000  He
  He28     1.0000 0.40594  0.16545  0.84277  Biso   1.000  He
  Ne28     1.0000 0.41201  0.14787  0.81829  Biso   1.000  Ne
  Ne29     1.0000 0.36318  0.89727  0.87242  Biso   1.000  Ne
  He29     1.0000 0.34012  0.91371  0.85455  Biso   1.000  He
  He30     1.0000 0.31610  0.92590  0.87083  Biso   1.000  He
  Ne30     1.0000 0.29171  0.93940  0.85289  Biso   1.000  Ne
  Ne31     1.0000 0.81132  0.39317  0.59079  Biso   1.000  Ne
  He31     1.0000 0.80782  0.36889  0.61272  Biso   1.000  He
  He32     1.0000 0.80246  0.33932  0.60064  Biso   1.000  He
  Ne32     1.0000 0.79931  0.31531  0.62380  Biso   1.000  Ne
  Ne33     1.0000 0.53309  0.48883  0.02190  Biso   1.000  Ne
  He33     1.0000 0.52866  0.52033  0.02832  Biso   1.000  He
  He34     1.0000 0.49833  0.52918  0.02341  Biso   1.000  He
  Ne34     1.0000 0.49110  0.56034  0.02852  Biso   1.000  Ne
  Ne35     1.0000 0.02772  0.89127  0.44658  Biso   1.000  Ne
  He35     1.0000 0.00489  0.89912  0.42167  Biso   1.000  He
  He36     1.0000 0.00413  0.93196  0.41350  Biso   1.000  He
  Ne36     1.0000 0.98012  0.94206  0.39269  Biso   1.000  Ne
  Ne37     1.0000 0.27800  0.92472  0.15493  Biso   1.000  Ne
  He37     1.0000 0.24871  0.90686  0.15201  Biso   1.000  He
  He38     1.0000 0.22643  0.91380  0.17597  Biso   1.000  He
  Ne38     1.0000 0.19675  0.90012  0.17290  Biso   1.000  Ne
  Ne39     1.0000 0.40869  0.93606  0.53461  Biso   1.000  Ne
  He39     1.0000 0.40134  0.92230  0.56467  Biso   1.000  He
  He40     1.0000 0.40748  0.94145  0.58996  Biso   1.000  He
  Ne40     1.0000 0.39770  0.92858  0.62205  Biso   1.000  Ne
  Ne41     1.0000 0.93973  0.44752  0.53307  Biso   1.000  Ne
  He41     1.0000 0.91886  0.46757  0.51453  Biso   1.000  He
  He42     1.0000 0.93454  0.48570  0.49105  Biso   1.000  He
  Ne42     1.0000 0.91730  0.50210  0.47053  Biso   1.000  Ne
  Ne43     1.0000 0.96163  0.40657  0.90429  Biso   1.000  Ne
  He43     1.0000 0.96328  0.42796  0.92894  Biso   1.000  He
  He44     1.0000 0.94841  0.42147  0.95664  Biso   1.000  He
  Ne44     1.0000 0.92262  0.44159  0.96259  Biso   1.000  Ne
  Ne45     1.0000 0.41835  0.10885  0.22318  Biso   1.000  Ne
  He45     1.0000 0.43095  0.13368  0.24227  Biso   1.000  He
  He46     1.0000 0.46040  0.14455  0.23666  Biso   1.000  He
  Ne46     1.0000 0.47208  0.16835  0.25833  Biso   1.000  Ne
  Ne47     1.0000 0.22360  0.34782  0.23650  Biso   1.000  Ne
  He47     1.0000 0.25499  0.35585  0.23025  Biso   1.000  He
  He48     1.0000 0.26075  0.38588  0.23849  Biso   1.000  He
  Ne48     1.0000 0.29286  0.39513  0.23241  Biso   1.000  Ne
  Ne49     1.0000 0.66711  0.65703  0.92704  Biso   1.000  Ne
  He49     1.0000 0.69875  0.66912  0.93204  Biso   1.000  He
  He50     1.0000 0.70626  0.69469  0.95453  Biso   1.000  He
  Ne50     1.0000 0.73957  0.70462  0.95451  Biso   1.000  Ne
  Ne51     1.0000 0.46946  0.01449  0.00216  Biso   1.000  Ne
  He51     1.0000 0.47094  0.04925  0.00238  Biso   1.000  He
  He52     1.0000 0.47417  0.06354  0.97279  Biso   1.000  He
  Ne52     1.0000 0.48248  0.09536  0.97373  Biso   1.000  Ne
  Ne53     1.0000 0.51463  0.91501  0.80325  Biso   1.000  Ne
  He53     1.0000 0.52660  0.93784  0.82526  Biso   1.000  He
  He54     1.0000 0.55481  0.92817  0.84154  Biso   1.000  He
  Ne54     1.0000 0.56529  0.94865  0.86691  Biso   1.000  Ne
  Ne55     1.0000 0.77528  0.81588  0.63709  Biso   1.000  Ne
  He55     1.0000 0.79495  0.79690  0.62040  Biso   1.000  He
  He56     1.0000 0.81999  0.78380  0.63638  Biso   1.000  He
  Ne56     1.0000 0.83764  0.76664  0.61368  Biso   1.000  Ne
  Ne57     1.0000 0.91821  0.79825  0.90200  Biso   1.000  Ne
  He57     1.0000 0.90277  0.78954  0.87545  Biso   1.000  He
  He58     1.0000 0.90015  0.81123  0.85304  Biso   1.000  He
  Ne58     1.0000 0.87812  0.80614  0.82750  Biso   1.000  Ne
  Ne59     1.0000 0.82626  0.68817  0.20457  Biso   1.000  Ne
  He59     1.0000 0.80861  0.66064  0.19876  Biso   1.000  He
  He60     1.0000 0.82965  0.63479  0.19066  Biso   1.000  He
  Ne60     1.0000 0.81322  0.60898  0.18255  Biso   1.000  Ne
  Ne61     1.0000 0.11713  0.14818  0.47259  Biso   1.000  Ne
  He61     1.0000 0.08760  0.13301  0.47359  Biso   1.000  He
  He62     1.0000 0.09051  0.10111  0.47977  Biso   1.000  He
  Ne62     1.0000 0.05989  0.08857  0.49106  Biso   1.000  Ne
  Ne63     1.0000 0.33222  0.15612  0.65142  Biso   1.000  Ne
  He63     1.0000 0.35725  0.14635  0.63305  Biso   1.000  He
  He64     1.0000 0.37686  0.17025  0.62255  Biso   1.000  He
  Ne64     1.0000 0.40329  0.16228  0.60426  Biso   1.000  Ne
  Ne65     1.0000 0.34677  0.13407  0.89166  Biso   1.000  Ne
  He65     1.0000 0.31951  0.15156  0.88382  Biso   1.000  He
  He66     1.0000 0.32275  0.18404  0.88606  Biso   1.000  He
  Ne66     1.0000 0.29554  0.19808  0.87937  Biso   1.000  Ne
  Ne67     1.0000 0.37139  0.79134  0.22198  Biso   1.000  Ne
  He67     1.0000 0.39217  0.77600  0.20042  Biso   1.000  He
  He68     1.0000 0.42204  0.79319  0.19087  Biso   1.000  He
  Ne68     1.0000 0.43847  0.77549  0.16747  Biso   1.000  Ne
  Ne69     1.0000 0.95468  0.16470  0.61607  Biso   1.000  Ne
  He69     1.0000 0.94620  0.16504  0.64742  Biso   1.000  He
  He70     1.0000 0.97183  0.17100  0.66811  Biso   1.000  He
  Ne70     1.0000 0.96501  0.18059  0.69648  Biso   1.000  Ne
  Ne71     1.0000 0.22543  0.05631  0.38686  Biso   1.000  Ne
  He71     1.0000 0.21606  0.05375  0.35490  Biso   1.000  He
  He72     1.0000 0.22324  0.02517  0.34072  Biso   1.000  He
  Ne72     1.0000 0.21206  0.02595  0.31054  Biso   1.000  Ne
  Ne73     1.0000 0.05016  0.41568  0.25146  Biso   1.000  Ne
  He73     1.0000 0.04368  0.44638  0.24067  Biso   1.000  He
  He74     1.0000 0.06655  0.46032  0.21924  Biso   1.000  He
  Ne74     1.0000 0.05797  0.49177  0.21175  Biso   1.000  Ne
  Ne75     1.0000 0.21009  0.62425  0.75760  Biso   1.000  Ne
  He75     1.0000 0.18164  0.61280  0.74839  Biso   1.000  He
  He76     1.0000 0.16336  0.63805  0.73857  Biso   1.000  He
  Ne76     1.0000 0.16878  0.64870  0.70635  Biso   1.000  Ne
  Ne77     1.0000 0.08277  0.31847  0.35360  Biso   1.000  Ne
  He77     1.0000 0.09880  0.34768  0.35499  Biso   1.000  He
  He78     1.0000 0.07699  0.37171  0.35682  Biso   1.000  He
  Ne78     1.0000 0.09059  0.40193  0.35026  Biso   1.000  Ne
  Ne79     1.0000 0.80061  0.78169  0.34275  Biso   1.000  Ne
  He79     1.0000 0.79827  0.78296  0.37586  Biso   1.000  He
  He80     1.0000 0.78761  0.81368  0.38722  Biso   1.000  He
  Ne80     1.0000 0.78782  0.82054  0.42211  Biso   1.000  Ne
  Ne81     1.0000 0.36285  0.65282  0.46237  Biso   1.000  Ne
  He81     1.0000 0.37083  0.65031  0.49413  Biso   1.000  He
  He82     1.0000 0.36565  0.67695  0.51162  Biso   1.000  He
  Ne82     1.0000 0.36917  0.67222  0.54412  Biso   1.000  Ne
  Ne83     1.0000 0.75430  0.20148  0.86759  Biso   1.000  Ne
  He83     1.0000 0.76897  0.18921  0.89402  Biso   1.000  He
  He84     1.0000 0.79266  0.20741  0.90739  Biso   1.000  He
  Ne84     1.0000 0.80313  0.19579  0.93592  Biso   1.000  Ne
  Ne85     1.0000 0.14213  0.33645  0.82817  Biso   1.000  Ne
  He85     1.0000 0.14794  0.30468  0.82248  Biso   1.000  He
  He86     1.0000 0.17168  0.29023  0.84178  Biso   1.000  He
  Ne86     1.0000 0.17511  0.25769  0.84474  Biso   1.000  Ne
  Ne87     1.0000 0.07747  0.82027  0.75717  Biso   1.000  Ne
  He87     1.0000 0.04697  0.81246  0.74172  Biso   1.000  He
  He88     1.0000 0.04594  0.83108  0.71306  Biso   1.000  He
  Ne88     1.0000 0.01380  0.83157  0.70002  Biso   1.000  Ne
  Ne89     1.0000 0.95588  0.49811  0.79148  Biso   1.000  Ne
  He89     1.0000 0.95216  0.51744  0.81936  Biso   1.000  He
  He90     1.0000 0.98063  0.53569  0.82410  Biso   1.000  He
  Ne90     1.0000 0.97684  0.55427  0.85145  Biso   1.000  Ne
  Ne91     1.0000 0.57187  0.76841  0.32760  Biso   1.000  Ne
  He91     1.0000 0.58344  0.78364  0.30026  Biso   1.000  He
  He92     1.0000 0.59532  0.76559  0.27678  Biso   1.000  He
  Ne92     1.0000 0.59679  0.77676  0.24794  Biso   1.000  Ne
  Ne93     1.0000 0.83735  0.45224  0.92275  Biso   1.000  Ne
  He93     1.0000 0.85483  0.47772  0.90817  Biso   1.000  He
  He94     1.0000 0.85282  0.50495  0.92607  Biso   1.000  He
  Ne94     1.0000 0.87130  0.53060  0.91343  Biso   1.000  Ne
  Ne95     1.0000 0.30040  0.06768  0.68541  Biso   1.000  Ne
  He95     1.0000 0.31526  0.07143  0.65562  Biso   1.000  He
  He96     1.0000 0.29731  0.06148  0.62957  Biso   1.000  He
  Ne96     1.0000 0.31545  0.05410  0.60187  Biso   1.000  Ne
  Ne97     1.0000 0.92523  0.87379  0.37676  Biso   1.000  Ne
  He97     1.0000 0.91406  0.85574  0.40779  Biso   1.000  He
  He98     1.0000 0.92192  0.87068  0.43621  Biso   1.000  He
  Ne98     1.0000 0.91691  0.85516  0.46664  Biso   1.000  Ne
  Ne99     1.0000 0.36554  0.97559  0.80632  Biso   1.000  Ne
  He99     1.0000 0.39743  0.96753  0.80793  Biso   1.000  He
  He100    1.0000 0.40753  0.94052  0.79164  Biso   1.000  He
  Ne100    1.0000 0.43998  0.93911  0.78947  Biso   1.000  Ne
  Ne101    1.0000 0.27918  0.62447  0.55105  Biso   1.000  Ne
  He101    1.0000 0.28067  0.65613  0.55784  Biso   1.000  He
  He102    1.0000 0.25575  0.67229  0.55058  Biso   1.000  He
  Ne102    1.0000 0.25909  0.70552  0.55699  Biso   1.000  Ne
  Ne103    1.0000 0.14750  0.21142  0.59889  Biso   1.000  Ne
  He103    1.0000 0.14946  0.19502  0.62879  Biso   1.000  He
  He104    1.0000 0.17498  0.20963  0.64636  Biso   1.000  He
  Ne104    1.0000 0.17317  0.19944  0.67922  Biso   1.000  Ne
  Ne105    1.0000 0.83293  0.81707  0.54923  Biso   1.000  Ne
  He105    1.0000 0.85674  0.80969  0.52921  Biso   1.000  He
  He106    1.0000 0.84656  0.80597  0.49704  Biso   1.000  He
  Ne106    1.0000 0.86897  0.79386  0.47905  Biso   1.000  Ne
  Ne107    1.0000 0.80026  0.60691  0.91206  Biso   1.000  Ne
  He107    1.0000 0.78249  0.60565  0.88079  Biso   1.000  He
  He108    1.0000 0.77604  0.57448  0.86984  Biso   1.000  He
  Ne108    1.0000 0.75929  0.57212  0.84196  Biso   1.000  Ne
  Ne109    1.0000 0.34980  0.80166  0.94778  Biso   1.000  Ne
  He109    1.0000 0.35962  0.77371  0.93474  Biso   1.000  He
  He110    1.0000 0.39093  0.77807  0.92486  Biso   1.000  He
  Ne110    1.0000 0.40687  0.75023  0.91583  Biso   1.000  Ne
  Ne111    1.0000 0.10623  0.03248  0.28043  Biso   1.000  Ne
  He111    1.0000 0.12796  0.02098  0.30072  Biso   1.000  He
  He112    1.0000 0.12725  0.98913  0.30383  Biso   1.000  He
  Ne112    1.0000 0.15188  0.97767  0.32087  Biso   1.000  Ne
  Ne113    1.0000 0.31319  0.32495  0.46687  Biso   1.000  Ne
  He113    1.0000 0.28238  0.31575  0.46011  Biso   1.000  He
  He114    1.0000 0.26988  0.33470  0.43481  Biso   1.000  He
  Ne114    1.0000 0.23791  0.32930  0.42997  Biso   1.000  Ne
  Ne115    1.0000 0.46476  0.68704  0.58177  Biso   1.000  Ne
  He115    1.0000 0.44373  0.70402  0.56660  Biso   1.000  He
  He116    1.0000 0.42301  0.72238  0.58478  Biso   1.000  He
  Ne116    1.0000 0.40146  0.74307  0.56869  Biso   1.000  Ne
  Ne117    1.0000 0.00917  0.39725  0.47799  Biso   1.000  Ne
  He117    1.0000 0.04094  0.39408  0.47487  Biso   1.000  He
  He118    1.0000 0.04990  0.39208  0.44172  Biso   1.000  He
  Ne118    1.0000 0.08326  0.39122  0.43951  Biso   1.000  Ne
  Ne119    1.0000 0.93234  0.56399  0.39215  Biso   1.000  Ne
  He119    1.0000 0.92628  0.55923  0.36110  Biso   1.000  He
  He120    1.0000 0.90754  0.58177  0.34477  Biso   1.000  He
  Ne120    1.0000 0.90187  0.57290  0.31301  Biso   1.000  Ne
  Ne121    1.0000 0.33389  0.38111  0.73460  Biso   1.000  Ne
  He121    1.0000 0.33878  0.38788  0.76782  Biso   1.000  He
  He122    1.0000 0.31047  0.39897  0.78249  Biso   1.000  He
  Ne122    1.0000 0.31371  0.40378  0.81625  Biso   1.000  Ne
  Ne123    1.0000 0.66679  0.15064  0.68267  Biso   1.000  Ne
  He123    1.0000 0.67642  0.12572  0.70218  Biso   1.000  He
  He124    1.0000 0.65513  0.11918  0.72672  Biso   1.000  He
  Ne124    1.0000 0.66427  0.09090  0.74467  Biso   1.000  Ne
  Ne125    1.0000 0.15493  0.06798  0.84752  Biso   1.000  Ne
  He125    1.0000 0.17938  0.06428  0.87149  Biso   1.000  He
  He126    1.0000 0.17341  0.07922  0.90114  Biso   1.000  He
  Ne126    1.0000 0.19875  0.07405  0.92368  Biso   1.000  Ne
  Ne127    1.0000 0.19269  0.87572  0.08564  Biso   1.000  Ne
  He127    1.0000 0.16280  0.87996  0.09868  Biso   1.000  He
  He128    1.0000 0.15215  0.91156  0.09841  Biso   1.000  He
  Ne128    1.0000 0.12394  0.91590  0.11610  Biso   1.000  Ne
  Ne129    1.0000 0.41498  0.30801  0.85035  Biso   1.000  Ne
  He129    1.0000 0.42196  0.34105  0.84505  Biso   1.000  He
  He130    1.0000 0.39830  0.36129  0.86037  Biso   1.000  He
  Ne130    1.0000 0.40516  0.39275  0.86114  Biso   1.000  Ne
  Ne131    1.0000 0.47237  0.34083  0.72992  Biso   1.000  Ne
  He131    1.0000 0.45815  0.32316  0.70561  Biso   1.000  He
  He132    1.0000 0.46681  0.29304  0.70562  Biso   1.000  He
  Ne132    1.0000 0.45211  0.27351  0.68388  Biso   1.000  Ne
  Ne133    1.0000 0.36244  0.53760  0.30647  Biso   1.000  Ne
  He133    1.0000 0.33228  0.54726  0.29170  Biso   1.000  He
  He134    1.0000 0.32667  0.58303  0.28994  Biso   1.000  He
  Ne134    1.0000 0.29830  0.58849  0.27176  Biso   1.000  Ne
  Ne135    1.0000 0.43006  0.62860  0.28009  Biso   1.000  Ne
  He135    1.0000 0.42468  0.60692  0.25167  Biso   1.000  He
  He136    1.0000 0.39795  0.60952  0.23608  Biso   1.000  He
  Ne136    1.0000 0.39978  0.58707  0.21197  Biso   1.000  Ne
  Ne137    1.0000 0.38649  0.60620  0.11495  Biso   1.000  Ne
  He137    1.0000 0.38261  0.59013  0.08957  Biso   1.000  He
  He138    1.0000 0.39552  0.55995  0.09064  Biso   1.000  He
  Ne138    1.0000 0.40100  0.54375  0.06171  Biso   1.000  Ne
  Ne139    1.0000 0.38138  0.45676  0.55699  Biso   1.000  Ne
  He139    1.0000 0.34998  0.45365  0.54948  Biso   1.000  He
  He140    1.0000 0.34189  0.44466  0.51893  Biso   1.000  He
  Ne140    1.0000 0.31039  0.44788  0.51127  Biso   1.000  Ne
  Ne141    1.0000 0.22897  0.32921  0.10986  Biso   1.000  Ne
  He141    1.0000 0.24022  0.30268  0.12754  Biso   1.000  He
  He142    1.0000 0.23440  0.30873  0.15774  Biso   1.000  He
  Ne142    1.0000 0.24228  0.28526  0.18239  Biso   1.000  Ne
  Ne143    1.0000 0.90162  0.65930  0.00759  Biso   1.000  Ne
  He143    1.0000 0.91603  0.68759  0.00181  Biso   1.000  He
  He144    1.0000 0.94472  0.68722  0.98718  Biso   1.000  He
  Ne144    1.0000 0.96162  0.71371  0.98369  Biso   1.000  Ne
  Ne145    1.0000 0.06824  0.47004  0.60463  Biso   1.000  Ne
  He145    1.0000 0.04142  0.44894  0.60221  Biso   1.000  He
  He146    1.0000 0.03692  0.44089  0.57123  Biso   1.000  He
  Ne146    1.0000 0.01190  0.42087  0.56514  Biso   1.000  Ne
  Ne147    1.0000 0.43197  0.39758  0.27487  Biso   1.000  Ne
  He147    1.0000 0.41029  0.38788  0.25341  Biso   1.000  He
  He148    1.0000 0.39928  0.41519  0.23800  Biso   1.000  He
  Ne148    1.0000 0.37666  0.40523  0.21511  Biso   1.000  Ne
  Ne149    1.0000 0.06839  0.20070  0.94497  Biso   1.000  Ne
  He149    1.0000 0.06789  0.22052  0.97107  Biso   1.000  He
  He150    1.0000 0.08524  0.24899  0.97152  Biso   1.000  He
  Ne150    1.0000 0.09026  0.26583  0.00149  Biso   1.000  Ne
  Ne151    1.0000 0.20088  0.26873  0.93783  Biso   1.000  Ne
  He151    1.0000 0.16955  0.27450  0.93444  Biso   1.000  He
  He152    1.0000 0.16389  0.30553  0.92467  Biso   1.000  He
  Ne152    1.0000 0.13257  0.31465  0.92335  Biso   1.000  Ne
  Ne153    1.0000 0.77780  0.55456  0.62136  Biso   1.000  Ne
  He153    1.0000 0.78936  0.58183  0.60492  Biso   1.000  He
  He154    1.0000 0.82268  0.58353  0.60667  Biso   1.000  He
  Ne154    1.0000 0.83457  0.61463  0.59580  Biso   1.000  Ne
  Ne155    1.0000 0.90857  0.15842  0.17846  Biso   1.000  Ne
  He155    1.0000 0.90527  0.16368  0.21338  Biso   1.000  He
  He156    1.0000 0.92245  0.14185  0.23278  Biso   1.000  He
  Ne156    1.0000 0.92381  0.15324  0.26216  Biso   1.000  Ne
  Ne157    1.0000 0.98875  0.91008  0.00731  Biso   1.000  Ne
  He157    1.0000 0.96507  0.91717  0.02971  Biso   1.000  He
  He158    1.0000 0.96693  0.89838  0.05841  Biso   1.000  He
  Ne158    1.0000 0.93910  0.89797  0.07697  Biso   1.000  Ne
  Ne159    1.0000 0.60578  0.55735  0.06317  Biso   1.000  Ne
  He159    1.0000 0.58676  0.55943  0.09082  Biso   1.000  He
  He160    1.0000 0.56659  0.53310  0.09114  Biso   1.000  He
  Ne160    1.0000 0.54671  0.52812  0.11622  Biso   1.000  Ne
  Ne161    1.0000 0.74383  0.74482  0.76825  Biso   1.000  Ne
  He161    1.0000 0.74184  0.74764  0.79965  Biso   1.000  He
  He162    1.0000 0.75398  0.77646  0.81287  Biso   1.000  He
  Ne162    1.0000 0.75283  0.77869  0.84739  Biso   1.000  Ne
  Ne163    1.0000 0.69345  0.18889  0.06680  Biso   1.000  Ne
  He163    1.0000 0.70328  0.16279  0.08577  Biso   1.000  He
  He164    1.0000 0.73586  0.16416  0.09236  Biso   1.000  He
  Ne164    1.0000 0.74926  0.14075  0.11283  Biso   1.000  Ne
  Ne165    1.0000 0.40708  0.19843  0.17335  Biso   1.000  Ne
  He165    1.0000 0.40423  0.21534  0.20034  Biso   1.000  He
  He166    1.0000 0.42996  0.23107  0.21187  Biso   1.000  He
  Ne166    1.0000 0.42637  0.23813  0.24079  Biso   1.000  Ne
  Ne167    1.0000 0.15181  0.87657  0.90435  Biso   1.000  Ne
  He167    1.0000 0.18094  0.87304  0.92321  Biso   1.000  He
  He168    1.0000 0.20058  0.90165  0.91748  Biso   1.000  He
  Ne168    1.0000 0.23226  0.90002  0.92722  Biso   1.000  Ne
  Ne169    1.0000 0.85678  0.05094  0.32039  Biso   1.000  Ne
  He169    1.0000 0.83144  0.02985  0.32839  Biso   1.000  He
  He170    1.0000 0.83256  0.99786  0.31944  Biso   1.000  He
  Ne170    1.0000 0.80560  0.98112  0.32713  Biso   1.000  Ne
  Ne171    1.0000 0.70000  0.52902  0.41722  Biso   1.000  Ne
  He171    1.0000 0.67669  0.54863  0.40674  Biso   1.000  He
  He172    1.0000 0.67380  0.54983  0.37272  Biso   1.000  He
  Ne172    1.0000 0.68372  0.57772  0.35734  Biso   1.000  Ne
  Ne173    1.0000 0.36038  0.90743  0.43424  Biso   1.000  Ne
  He173    1.0000 0.33325  0.90643  0.41682  Biso   1.000  He
  He174    1.0000 0.31916  0.87712  0.41010  Biso   1.000  He
  Ne174    1.0000 0.29588  0.88054  0.38634  Biso   1.000  Ne
  Ne175    1.0000 0.57660  0.77834  0.13201  Biso   1.000  Ne
  He175    1.0000 0.58949  0.74681  0.12462  Biso   1.000  He
  He176    1.0000 0.58162  0.73176  0.09711  Biso   1.000  He
  Ne176    1.0000 0.60352  0.70548  0.09447  Biso   1.000  Ne
  Ne177    1.0000 0.66843  0.87514  0.97295  Biso   1.000  Ne
  He177    1.0000 0.69460  0.89163  0.96475  Biso   1.000  He
  He178    1.0000 0.72178  0.88098  0.98239  Biso   1.000  He
  Ne178    1.0000 0.74728  0.89963  0.97738  Biso   1.000  Ne
  Ne179    1.0000 0.96362  0.50573  0.11183  Biso   1.000  Ne
  He179    1.0000 0.98672  0.52302  0.12374  Biso   1.000  He
  He180    1.0000 0.01420  0.51811  0.10733  Biso   1.000  He
  Ne180    1.0000 0.03964  0.53336  0.12017  Biso   1.000  Ne
  Ne181    1.0000 0.87853  0.26789  0.19774  Biso   1.000  Ne
  He181    1.0000 0.89287  0.29957  0.19573  Biso   1.000  He
  He182    1.0000 0.92334  0.29828  0.18546  Biso   1.000  He
  Ne182    1.0000 0.93699  0.32877  0.18374  Biso   1.000  Ne
  Ne183    1.0000 0.39305  0.11513  0.00768  Biso   1.000  Ne
  He183    1.0000 0.39298  0.08928  0.98677  Biso   1.000  He
  He184    1.0000 0.39778  0.09488  0.95541  Biso   1.000  He
  Ne184    1.0000 0.39665  0.06770  0.93889  Biso   1.000  Ne
  Ne185    1.0000 0.59295  0.32432  0.25410  Biso   1.000  Ne
  He185    1.0000 0.59645  0.32479  0.22229  Biso   1.000  He
  He186    1.0000 0.60309  0.35629  0.21011  Biso   1.000  He
  Ne186    1.0000 0.60486  0.35634  0.17720  Biso   1.000  Ne
  Ne187    1.0000 0.98345  0.29873  0.95074  Biso   1.000  Ne
  He187    1.0000 0.00474  0.31619  0.92983  Biso   1.000  He
  He188    1.0000 0.03351  0.32393  0.94465  Biso   1.000  He
  Ne188    1.0000 0.05655  0.34004  0.92850  Biso   1.000  Ne
  Ne189    1.0000 0.69437  0.89892  0.88762  Biso   1.000  Ne
  He189    1.0000 0.67428  0.92098  0.87068  Biso   1.000  He
  He190    1.0000 0.66350  0.90815  0.84238  Biso   1.000  He
  Ne190    1.0000 0.64216  0.92891  0.82271  Biso   1.000  Ne
  Ne191    1.0000 0.06952  0.46478  0.87825  Biso   1.000  Ne
  He191    1.0000 0.07152  0.48808  0.90003  Biso   1.000  He
  He192    1.0000 0.10252  0.49946  0.89976  Biso   1.000  He
  Ne192    1.0000 0.10925  0.52536  0.92038  Biso   1.000  Ne
  Ne193    1.0000 0.07223  0.03854  0.02123  Biso   1.000  Ne
  He193    1.0000 0.05852  0.00630  0.01913  Biso   1.000  He
  He194    1.0000 0.07175  0.98108  0.03732  Biso   1.000  He
  Ne194    1.0000 0.05759  0.95180  0.03299  Biso   1.000  Ne
  Ne195    1.0000 0.92249  0.87549  0.96483  Biso   1.000  Ne
  He195    1.0000 0.93298  0.87948  0.93225  Biso   1.000  He
  He196    1.0000 0.90822  0.88765  0.91078  Biso   1.000  He
  Ne196    1.0000 0.91359  0.89299  0.87919  Biso   1.000  Ne
  Ne197    1.0000 0.21667  0.16800  0.95717  Biso   1.000  Ne
  He197    1.0000 0.18886  0.15784  0.94318  Biso   1.000  He
  He198    1.0000 0.17477  0.17851  0.91883  Biso   1.000  He
  Ne198    1.0000 0.14578  0.16203  0.90913  Biso   1.000  Ne
  Ne199    1.0000 0.86177  0.08604  0.52982  Biso   1.000  Ne
  He199    1.0000 0.83448  0.10664  0.52295  Biso   1.000  He
  He200    1.0000 0.84350  0.14011  0.52087  Biso   1.000  He
  Ne200    1.0000 0.82331  0.15877  0.50579  Biso   1.000  Ne
  Ne201    1.0000 0.88682  0.17864  0.09825  Biso   1.000  Ne
  He201    1.0000 0.90669  0.20671  0.10328  Biso   1.000  He
  He202    1.0000 0.88837  0.23019  0.11677  Biso   1.000  He
  Ne202    1.0000 0.90327  0.26154  0.11929  Biso   1.000  Ne
  Ne203    1.0000 0.67634  0.30287  0.18441  Biso   1.000  Ne
  He203    1.0000 0.68491  0.28667  0.15842  Biso   1.000  He
  He204    1.0000 0.70885  0.26332  0.16635  Biso   1.000  He
  Ne204    1.0000 0.71840  0.24621  0.14013  Biso   1.000  Ne
  Ne205    1.0000 0.40761  0.07624  0.77315  Biso   1.000  Ne
  He205    1.0000 0.39757  0.07536  0.74165  Biso   1.000  He
  He206    1.0000 0.42017  0.06422  0.72464  Biso   1.000  He
  Ne206    1.0000 0.41669  0.06717  0.69101  Biso   1.000  Ne
  Ne207    1.0000 0.10522  0.23847  0.78562  Biso   1.000  Ne
  He207    1.0000 0.08937  0.24699  0.81281  Biso   1.000  He
  He208    1.0000 0.08531  0.22367  0.83433  Biso   1.000  He
  Ne208    1.0000 0.06678  0.22964  0.86089  Biso   1.000  Ne
  Ne209    1.0000 0.77911  0.09680  0.19470  Biso   1.000  Ne
  He209    1.0000 0.80919  0.09339  0.18108  Biso   1.000  He
  He210    1.0000 0.83524  0.09425  0.20235  Biso   1.000  He
  Ne210    1.0000 0.86346  0.08471  0.18445  Biso   1.000  Ne
  Ne211    1.0000 0.40937  0.16185  0.41817  Biso   1.000  Ne
  He211    1.0000 0.42176  0.13243  0.41965  Biso   1.000  He
  He212    1.0000 0.41975  0.11622  0.44990  Biso   1.000  He
  Ne212    1.0000 0.43020  0.08543  0.44793  Biso   1.000  Ne
  Ne213    1.0000 0.50254  0.70230  0.34800  Biso   1.000  Ne
  He213    1.0000 0.48033  0.70182  0.36989  Biso   1.000  He
  He214    1.0000 0.45248  0.71267  0.35903  Biso   1.000  He
  Ne214    1.0000 0.42537  0.70764  0.37865  Biso   1.000  Ne
  Ne215    1.0000 0.59144  0.78495  0.42705  Biso   1.000  Ne
  He215    1.0000 0.60799  0.76380  0.40522  Biso   1.000  He
  He216    1.0000 0.62540  0.78024  0.38088  Biso   1.000  He
  Ne216    1.0000 0.63782  0.76095  0.35674  Biso   1.000  Ne
  Ne217    1.0000 0.33802  0.79221  0.62142  Biso   1.000  Ne
  He217    1.0000 0.36608  0.79797  0.60160  Biso   1.000  He
  He218    1.0000 0.37833  0.82679  0.61035  Biso   1.000  He
  Ne218    1.0000 0.40451  0.83625  0.59363  Biso   1.000  Ne
  Ne219    1.0000 0.15981  0.26186  0.42753  Biso   1.000  Ne
  He219    1.0000 0.13009  0.26781  0.43347  Biso   1.000  He
  He220    1.0000 0.12146  0.29901  0.42936  Biso   1.000  He
  Ne220    1.0000 0.08949  0.30333  0.43566  Biso   1.000  Ne
  Ne221    1.0000 0.96126  0.07597  0.63964  Biso   1.000  Ne
  He221    1.0000 0.95362  0.04823  0.62638  Biso   1.000  He
  He222    1.0000 0.93599  0.02507  0.64516  Biso   1.000  He
  Ne222    1.0000 0.92887  0.99571  0.62666  Biso   1.000  Ne
  Ne223    1.0000 0.70390  0.20117  0.36277  Biso   1.000  Ne
  He223    1.0000 0.70396  0.18644  0.39111  Biso   1.000  He
  He224    1.0000 0.71930  0.20436  0.41767  Biso   1.000  He
  Ne224    1.0000 0.71727  0.19048  0.44666  Biso   1.000  Ne
  Ne225    1.0000 0.74319  0.94647  0.35477  Biso   1.000  Ne
  He225    1.0000 0.71866  0.92403  0.36297  Biso   1.000  He
  He226    1.0000 0.69377  0.92241  0.34047  Biso   1.000  He
  Ne226    1.0000 0.67029  0.90479  0.34971  Biso   1.000  Ne
  Ne227    1.0000 0.37373  0.41834  0.36428  Biso   1.000  Ne
  He227    1.0000 0.38786  0.38786  0.35852  Biso   1.000  He
  He228    1.0000 0.41835  0.38160  0.37185  Biso   1.000  He
  Ne228    1.0000 0.43073  0.35029  0.36182  Biso   1.000  Ne
  Ne229    1.0000 0.04637  0.89094  0.09167  Biso   1.000  Ne
  He229    1.0000 0.07117  0.87362  0.07721  Biso   1.000  He
  He230    1.0000 0.07266  0.84389  0.09335  Biso   1.000  He
  Ne230    1.0000 0.09782  0.82402  0.08286  Biso   1.000  Ne
  Ne231    1.0000 0.79460  0.07166  0.44719  Biso   1.000  Ne
  He231    1.0000 0.79172  0.10252  0.43556  Biso   1.000  He
  He232    1.0000 0.76269  0.11175  0.42204  Biso   1.000  He
  Ne232    1.0000 0.76682  0.13923  0.40370  Biso   1.000  Ne
  Ne233    1.0000 0.80605  0.55620  0.01096  Biso   1.000  Ne
  He233    1.0000 0.80531  0.55020  0.97748  Biso   1.000  He
  He234    1.0000 0.78569  0.52440  0.96767  Biso   1.000  He
  Ne234    1.0000 0.77500  0.52286  0.93569  Biso   1.000  Ne
  Ne235    1.0000 0.86230  0.48769  0.20600  Biso   1.000  Ne
  He235    1.0000 0.83222  0.48989  0.18810  Biso   1.000  He
  He236    1.0000 0.82915  0.50190  0.15826  Biso   1.000  He
  Ne236    1.0000 0.79708  0.50257  0.14721  Biso   1.000  Ne
  Ne237    1.0000 0.71944  0.70054  0.40872  Biso   1.000  Ne
  He237    1.0000 0.73465  0.72520  0.39181  Biso   1.000  He
  He238    1.0000 0.71391  0.74920  0.38251  Biso   1.000  He
  Ne238    1.0000 0.72362  0.77323  0.35768  Biso   1.000  Ne
  Ne239    1.0000 0.07823  0.72402  0.56364  Biso   1.000  Ne
  He239    1.0000 0.10793  0.70859  0.56484  Biso   1.000  He
  He240    1.0000 0.10873  0.68133  0.58217  Biso   1.000  He
  Ne240    1.0000 0.13706  0.66710  0.58121  Biso   1.000  Ne
  Ne241    1.0000 0.33026  0.12193  0.80096  Biso   1.000  Ne
  He241    1.0000 0.32114  0.09139  0.78767  Biso   1.000  He
  He242    1.0000 0.28984  0.09016  0.78321  Biso   1.000  He
  Ne242    1.0000 0.27736  0.06167  0.76969  Biso   1.000  Ne
  Ne243    1.0000 0.53830  0.06818  0.55909  Biso   1.000  Ne
  He243    1.0000 0.51877  0.05778  0.53603  Biso   1.000  He
  He244    1.0000 0.52873  0.06084  0.50474  Biso   1.000  He
  Ne244    1.0000 0.50569  0.05099  0.48219  Biso   1.000  Ne
  Ne245    1.0000 0.14855  0.51391  0.81943  Biso   1.000  Ne
  He245    1.0000 0.12608  0.53824  0.81407  Biso   1.000  He
  He246    1.0000 0.09367  0.53258  0.82569  Biso   1.000  He
  Ne246    1.0000 0.07541  0.51815  0.80102  Biso   1.000  Ne
  Ne247    1.0000 0.30314  0.17786  0.39258  Biso   1.000  Ne
  He247    1.0000 0.29073  0.14673  0.39415  Biso   1.000  He
  He248    1.0000 0.31221  0.12047  0.39528  Biso   1.000  He
  Ne248    1.0000 0.29458  0.09192  0.40148  Biso   1.000  Ne
  Ne249    1.0000 0.45436  0.52377  0.96544  Biso   1.000  Ne
  He249    1.0000 0.42174  0.53292  0.96811  Biso   1.000  He
  He250    1.0000 0.41409  0.55512  0.94452  Biso   1.000  He
  Ne250    1.0000 0.38026  0.56646  0.94423  Biso   1.000  Ne
  Ne251    1.0000 0.06642  0.13851  0.87100  Biso   1.000  Ne
  He251    1.0000 0.07683  0.10847  0.86158  Biso   1.000  He
  He252    1.0000 0.07749  0.10067  0.82958  Biso   1.000  He
  Ne252    1.0000 0.05753  0.07592  0.81985  Biso   1.000  Ne
  Ne253    1.0000 0.10446  0.68223  0.91380  Biso   1.000  Ne
  He253    1.0000 0.08037  0.70342  0.90666  Biso   1.000  He
  He254    1.0000 0.08700  0.73350  0.92139  Biso   1.000  He
  Ne254    1.0000 0.06002  0.75698  0.91807  Biso   1.000  Ne
  Ne255    1.0000 0.96794  0.57655  0.46474  Biso   1.000  Ne
  He255    1.0000 0.97332  0.55861  0.49335  Biso   1.000  He
  He256    1.0000 0.00635  0.54964  0.49646  Biso   1.000  He
  Ne256    1.0000 0.01268  0.53391  0.52615  Biso   1.000  Ne
  Ne257    1.0000 0.33411  0.31001  0.79015  Biso   1.000  Ne
  He257    1.0000 0.36110  0.28997  0.79255  Biso   1.000  He
  He258    1.0000 0.37725  0.27848  0.76445  Biso   1.000  He
  Ne258    1.0000 0.40247  0.26026  0.77050  Biso   1.000  Ne
  Ne259    1.0000 0.92736  0.61102  0.92260  Biso   1.000  Ne
  He259    1.0000 0.93699  0.64447  0.91290  Biso   1.000  He
  He260    1.0000 0.96925  0.65246  0.92039  Biso   1.000  He
  Ne260    1.0000 0.98106  0.68329  0.91572  Biso   1.000  Ne
  Ne261    1.0000 0.40468  0.54390  0.51090  Biso   1.000  Ne
  He261    1.0000 0.37753  0.54184  0.53210  Biso   1.000  He
  He262    1.0000 0.35231  0.56371  0.52716  Biso   1.000  He
  Ne262    1.0000 0.32957  0.56016  0.54974  Biso   1.000  Ne
  Ne263    1.0000 0.07283  0.08496  0.58110  Biso   1.000  Ne
  He263    1.0000 0.09311  0.11013  0.57651  Biso   1.000  He
  He264    1.0000 0.12581  0.09677  0.57806  Biso   1.000  He
  Ne264    1.0000 0.14441  0.12363  0.56701  Biso   1.000  Ne
  Ne265    1.0000 0.26298  0.97955  0.99096  Biso   1.000  Ne
  He265    1.0000 0.27217  0.01147  0.98917  Biso   1.000  He
  He266    1.0000 0.27582  0.01782  0.95972  Biso   1.000  He
  Ne266    1.0000 0.28516  0.04985  0.95398  Biso   1.000  Ne
  Ne267    1.0000 0.89979  0.84515  0.68197  Biso   1.000  Ne
  He267    1.0000 0.86907  0.84250  0.67863  Biso   1.000  He
  He268    1.0000 0.85091  0.86020  0.70286  Biso   1.000  He
  Ne268    1.0000 0.81949  0.85691  0.69673  Biso   1.000  Ne
  Ne269    1.0000 0.82604  0.69255  0.97859  Biso   1.000  Ne
  He269    1.0000 0.83966  0.69564  0.94690  Biso   1.000  He
  He270    1.0000 0.84410  0.72561  0.93391  Biso   1.000  He
  Ne270    1.0000 0.81729  0.73029  0.91312  Biso   1.000  Ne
  Ne271    1.0000 0.86333  0.66147  0.30368  Biso   1.000  Ne
  He271    1.0000 0.85181  0.69168  0.30301  Biso   1.000  He
  He272    1.0000 0.86653  0.71364  0.32424  Biso   1.000  He
  Ne272    1.0000 0.88098  0.73861  0.30787  Biso   1.000  Ne
  Ne273    1.0000 0.85949  0.92546  0.11472  Biso   1.000  Ne
  He273    1.0000 0.86991  0.91977  0.14536  Biso   1.000  He
  He274    1.0000 0.90317  0.92292  0.14774  Biso   1.000  He
  Ne274    1.0000 0.91570  0.91370  0.17818  Biso   1.000  Ne
  Ne275    1.0000 0.17963  0.79279  0.59420  Biso   1.000  Ne
  He275    1.0000 0.18461  0.79711  0.56117  Biso   1.000  He
  He276    1.0000 0.15486  0.79768  0.54039  Biso   1.000  He
  Ne276    1.0000 0.16000  0.79384  0.50684  Biso   1.000  Ne
  Ne277    1.0000 0.59395  0.81441  0.82553  Biso   1.000  Ne
  He277    1.0000 0.59998  0.83046  0.79443  Biso   1.000  He
  He278    1.0000 0.57857  0.85394  0.78825  Biso   1.000  He
  Ne278    1.0000 0.57814  0.86672  0.75784  Biso   1.000  Ne
  Ne279    1.0000 0.52190  0.19591  0.00673  Biso   1.000  Ne
  He279    1.0000 0.53535  0.20361  0.97785  Biso   1.000  He
  He280    1.0000 0.53205  0.23601  0.96856  Biso   1.000  He
  Ne280    1.0000 0.54577  0.24417  0.93727  Biso   1.000  Ne
  Ne281    1.0000 0.18293  0.05916  0.47297  Biso   1.000  Ne
  He281    1.0000 0.19237  0.08801  0.46438  Biso   1.000  He
  He282    1.0000 0.18231  0.11169  0.47967  Biso   1.000  He
  Ne282    1.0000 0.19554  0.14230  0.47464  Biso   1.000  Ne
  Ne283    1.0000 0.23264  0.57798  0.64289  Biso   1.000  Ne
  He283    1.0000 0.23996  0.60562  0.66129  Biso   1.000  He
  He284    1.0000 0.26895  0.60019  0.67408  Biso   1.000  He
  Ne284    1.0000 0.28252  0.62655  0.69233  Biso   1.000  Ne
  Ne285    1.0000 0.24389  0.31427  0.77604  Biso   1.000  Ne
  He285    1.0000 0.21700  0.33591  0.77527  Biso   1.000  He
  He286    1.0000 0.22322  0.36843  0.78963  Biso   1.000  He
  Ne286    1.0000 0.19547  0.38784  0.79132  Biso   1.000  Ne
  Ne287    1.0000 0.68096  0.16773  0.17463  Biso   1.000  Ne
  He287    1.0000 0.64850  0.17237  0.16576  Biso   1.000  He
  He288    1.0000 0.62793  0.14513  0.16449  Biso   1.000  He
  Ne288    1.0000 0.59759  0.15335  0.16963  Biso   1.000  Ne
  Ne289    1.0000 0.51116  0.97018  0.59514  Biso   1.000  Ne
  He289    1.0000 0.52178  0.97605  0.56474  Biso   1.000  He
  He290    1.0000 0.55365  0.97499  0.56374  Biso   1.000  He
  Ne290    1.0000 0.56352  0.98569  0.53273  Biso   1.000  Ne
  Ne291    1.0000 0.09807  0.68862  0.04564  Biso   1.000  Ne
  He291    1.0000 0.09570  0.66616  0.02100  Biso   1.000  He
  He292    1.0000 0.12062  0.64522  0.02126  Biso   1.000  He
  Ne292    1.0000 0.11888  0.62427  0.99722  Biso   1.000  Ne
  Ne293    1.0000 0.08520  0.90234  0.65559  Biso   1.000  Ne
  He293    1.0000 0.10550  0.87995  0.64149  Biso   1.000  He
  He294    1.0000 0.13206  0.87407  0.65719  Biso   1.000  He
  Ne294    1.0000 0.13490  0.84528  0.67180  Biso   1.000  Ne
  Ne295    1.0000 0.59330  0.41523  0.96452  Biso   1.000  Ne
  He295    1.0000 0.56856  0.44013  0.96765  Biso   1.000  He
  He296    1.0000 0.55502  0.45133  0.93975  Biso   1.000  He
  Ne296    1.0000 0.53106  0.47388  0.94126  Biso   1.000  Ne
  Ne297    1.0000 0.08160  0.34193  0.03701  Biso   1.000  Ne
  He297    1.0000 0.10752  0.36012  0.02857  Biso   1.000  He
  He298    1.0000 0.10151  0.38833  0.01326  Biso   1.000  He
  Ne298    1.0000 0.10443  0.38879  0.97963  Biso   1.000  Ne
  Ne299    1.0000 0.02841  0.90386  0.93397  Biso   1.000  Ne
  He299    1.0000 0.05802  0.90336  0.95101  Biso   1.000  He
  He300    1.0000 0.07233  0.93208  0.94252  Biso   1.000  He
  Ne300    1.0000 0.10677  0.93308  0.94915  Biso   1.000  Ne
  Ne301    1.0000 0.72519  0.30249  0.35919  Biso   1.000  Ne
  He301    1.0000 0.73754  0.32914  0.37320  Biso   1.000  He
  He302    1.0000 0.71864  0.35599  0.37629  Biso   1.000  He
  Ne302    1.0000 0.71719  0.37685  0.34708  Biso   1.000  Ne
  Ne303    1.0000 0.02181  0.36152  0.11971  Biso   1.000  Ne
  He303    1.0000 0.99135  0.37154  0.12121  Biso   1.000  He
  He304    1.0000 0.98680  0.40115  0.13842  Biso   1.000  He
  Ne304    1.0000 0.95542  0.40526  0.14815  Biso   1.000  Ne
  Ne305    1.0000 0.30473  0.59109  0.38321  Biso   1.000  Ne
  He305    1.0000 0.27415  0.58075  0.37576  Biso   1.000  He
  He306    1.0000 0.26242  0.58945  0.34643  Biso   1.000  He
  Ne306    1.0000 0.23392  0.57341  0.33764  Biso   1.000  Ne
  Ne307    1.0000 0.21909  0.05391  0.62314  Biso   1.000  Ne
  He307    1.0000 0.19462  0.04813  0.64128  Biso   1.000  He
  He308    1.0000 0.17660  0.02232  0.63134  Biso   1.000  He
  Ne308    1.0000 0.14603  0.02076  0.64758  Biso   1.000  Ne
  Ne309    1.0000 0.63199  0.24485  0.67996  Biso   1.000  Ne
  He309    1.0000 0.63862  0.24778  0.64873  Biso   1.000  He
  He310    1.0000 0.66782  0.23332  0.63779  Biso   1.000  He
  Ne310    1.0000 0.67474  0.22895  0.60313  Biso   1.000  Ne
  Ne311    1.0000 0.65482  0.65892  0.47864  Biso   1.000  Ne
  He311    1.0000 0.65960  0.62806  0.48951  Biso   1.000  He
  He312    1.0000 0.67555  0.62619  0.51865  Biso   1.000  He
  Ne312    1.0000 0.68094  0.59235  0.53001  Biso   1.000  Ne
  Ne313    1.0000 0.07183  0.32786  0.24304  Biso   1.000  Ne
  He313    1.0000 0.07278  0.32968  0.20995  Biso   1.000  He
  He314    1.0000 0.09223  0.35513  0.19581  Biso   1.000  He
  Ne314    1.0000 0.09407  0.35484  0.16257  Biso   1.000  Ne
  Ne315    1.0000 0.57447  0.16216  0.67064  Biso   1.000  Ne
  He315    1.0000 0.56961  0.14022  0.64579  Biso   1.000  He
  He316    1.0000 0.59597  0.13292  0.62719  Biso   1.000  He
  Ne316    1.0000 0.58846  0.10964  0.60352  Biso   1.000  Ne
  Ne317    1.0000 0.41987  0.98343  0.47629  Biso   1.000  Ne
  He317    1.0000 0.41522  0.01300  0.49305  Biso   1.000  He
  He318    1.0000 0.43497  0.01971  0.51970  Biso   1.000  He
  Ne318    1.0000 0.43804  0.05184  0.52859  Biso   1.000  Ne
  Ne319    1.0000 0.68940  0.60722  0.21380  Biso   1.000  Ne
  He319    1.0000 0.70673  0.57924  0.21152  Biso   1.000  He
  He320    1.0000 0.73253  0.58305  0.19051  Biso   1.000  He
  Ne320    1.0000 0.75097  0.55549  0.18906  Biso   1.000  Ne
  Ne321    1.0000 0.38744  0.66159  0.74549  Biso   1.000  Ne
  He321    1.0000 0.38100  0.66908  0.77796  Biso   1.000  He
  He322    1.0000 0.39906  0.65638  0.80016  Biso   1.000  He
  Ne322    1.0000 0.38697  0.65726  0.83119  Biso   1.000  Ne
  Ne323    1.0000 0.05032  0.03900  0.93278  Biso   1.000  Ne
  He323    1.0000 0.07882  0.05072  0.93387  Biso   1.000  He
  He324    1.0000 0.07621  0.08378  0.93906  Biso   1.000  He
  Ne324    1.0000 0.10670  0.09607  0.94610  Biso   1.000  Ne
  Ne325    1.0000 0.08713  0.68322  0.41518  Biso   1.000  Ne
  He325    1.0000 0.08544  0.66648  0.38530  Biso   1.000  He
  He326    1.0000 0.08694  0.68436  0.35655  Biso   1.000  He
  Ne326    1.0000 0.08135  0.66587  0.32727  Biso   1.000  Ne
  Ne327    1.0000 0.40903  0.47613  0.03793  Biso   1.000  Ne
  He327    1.0000 0.43076  0.46618  0.05924  Biso   1.000  He
  He328    1.0000 0.42572  0.43560  0.07015  Biso   1.000  He
  Ne328    1.0000 0.45146  0.42671  0.08918  Biso   1.000  Ne
  Ne329    1.0000 0.84288  0.40398  0.33865  Biso   1.000  Ne
  He329    1.0000 0.86534  0.38162  0.33140  Biso   1.000  He
  He330    1.0000 0.89493  0.39238  0.32237  Biso   1.000  He
  Ne330    1.0000 0.91623  0.36997  0.31343  Biso   1.000  Ne
  Ne331    1.0000 0.83006  0.63959  0.81956  Biso   1.000  Ne
  He331    1.0000 0.85713  0.62618  0.82915  Biso   1.000  He
  He332    1.0000 0.85798  0.59243  0.82977  Biso   1.000  He
  Ne332    1.0000 0.88691  0.58176  0.83841  Biso   1.000  Ne
  Ne333    1.0000 0.04074  0.00538  0.67256  Biso   1.000  Ne
  He333    1.0000 0.02254  0.02330  0.69686  Biso   1.000  He
  He334    1.0000 0.04013  0.02810  0.72348  Biso   1.000  He
  Ne334    1.0000 0.02912  0.04389  0.74773  Biso   1.000  Ne
  Ne335    1.0000 0.19785  0.75237  0.86062  Biso   1.000  Ne
  He335    1.0000 0.19309  0.76544  0.88804  Biso   1.000  He
  He336    1.0000 0.16365  0.77537  0.89250  Biso   1.000  He
  Ne336    1.0000 0.15643  0.78421  0.92099  Biso   1.000  Ne
  Ne337    1.0000 0.63103  0.17193  0.43582  Biso   1.000  Ne
  He337    1.0000 0.63656  0.13999  0.44616  Biso   1.000  He
  He338    1.0000 0.66120  0.12434  0.43169  Biso   1.000  He
  Ne338    1.0000 0.66676  0.09591  0.44769  Biso   1.000  Ne
  Ne339    1.0000 0.06045  0.88403  0.18880  Biso   1.000  Ne
  He339    1.0000 0.08785  0.89865  0.19943  Biso   1.000  He
  He340    1.0000 0.11003  0.87791  0.21614  Biso   1.000  He
  Ne340    1.0000 0.14049  0.88989  0.22320  Biso   1.000  Ne
  Ne341    1.0000 0.87364  0.05415  0.94014  Biso   1.000  Ne
  He341    1.0000 0.85034  0.07076  0.92716  Biso   1.000  He
  He342    1.0000 0.84917  0.10184  0.93798  Biso   1.000  He
  Ne342    1.0000 0.84460  0.12404  0.91457  Biso   1.000  Ne
  Ne343    1.0000 0.64518  0.74917  0.82376  Biso   1.000  Ne
  He343    1.0000 0.66255  0.77602  0.82812  Biso   1.000  He
  He344    1.0000 0.66136  0.78898  0.85838  Biso   1.000  He
  Ne344    1.0000 0.67522  0.81751  0.86588  Biso   1.000  Ne
  Ne345    1.0000 0.60899  0.88967  0.43325  Biso   1.000  Ne
  He345    1.0000 0.58474  0.89724  0.41259  Biso   1.000  He
  He346    1.0000 0.59485  0.91236  0.38517  Biso   1.000  He
  Ne346    1.0000 0.57000  0.92080  0.36354  Biso   1.000  Ne
  Ne347    1.0000 0.06880  0.73586  0.11077  Biso   1.000  Ne
  He347    1.0000 0.05001  0.70862  0.11218  Biso   1.000  He
  He348    1.0000 0.06503  0.67905  0.11684  Biso   1.000  He
  Ne348    1.0000 0.04681  0.65246  0.11658  Biso   1.000  Ne
  Ne349    1.0000 0.81690  0.40113  0.68341  Biso   1.000  Ne
  He349    1.0000 0.79085  0.38253  0.69113  Biso   1.000  He
  He350    1.0000 0.76461  0.39861  0.68000  Biso   1.000  He
  Ne350    1.0000 0.73679  0.38372  0.68265  Biso   1.000  Ne
  Ne351    1.0000 0.82758  0.93808  0.25586  Biso   1.000  Ne
  He351    1.0000 0.83017  0.90352  0.26279  Biso   1.000  He
  He352    1.0000 0.84276  0.89487  0.29326  Biso   1.000  He
  Ne352    1.0000 0.84164  0.86249  0.30018  Biso   1.000  Ne
  Ne353    1.0000 0.24544  0.04821  0.07076  Biso   1.000  Ne
  He353    1.0000 0.25939  0.07220  0.08607  Biso   1.000  He
  He354    1.0000 0.24191  0.08686  0.10940  Biso   1.000  He
  Ne354    1.0000 0.25252  0.11323  0.12523  Biso   1.000  Ne
  Ne355    1.0000 0.45220  0.19473  0.10338  Biso   1.000  Ne
  He355    1.0000 0.44569  0.16306  0.09733  Biso   1.000  He
  He356    1.0000 0.46931  0.14623  0.07691  Biso   1.000  He
  Ne356    1.0000 0.46317  0.11653  0.06605  Biso   1.000  Ne
  Ne357    1.0000 0.20812  0.93878  0.43605  Biso   1.000  Ne
  He357    1.0000 0.20999  0.90791  0.42184  Biso   1.000  He
  He358    1.0000 0.20802  0.88534  0.44465  Biso   1.000  He
  Ne358    1.0000 0.21079  0.85380  0.43373  Biso   1.000  Ne
  Ne359    1.0000 0.88897  0.57699  0.02957  Biso   1.000  Ne
  He359    1.0000 0.88251  0.54615  0.03469  Biso   1.000  He
  He360    1.0000 0.88727  0.52976  0.00730  Biso   1.000  He
  Ne360    1.0000 0.87732  0.49599  0.01009  Biso   1.000  Ne
  Ne361    1.0000 0.90025  0.25521  0.82766  Biso   1.000  Ne
  He361    1.0000 0.91438  0.23822  0.80164  Biso   1.000  He
  He362    1.0000 0.89526  0.23796  0.77510  Biso   1.000  He
  Ne362    1.0000 0.90715  0.21841  0.75130  Biso   1.000  Ne
  Ne363    1.0000 0.18924  0.05969  0.23574  Biso   1.000  Ne
  He363    1.0000 0.20394  0.08430  0.25124  Biso   1.000  He
  He364    1.0000 0.18572  0.09877  0.27578  Biso   1.000  He
  Ne364    1.0000 0.20293  0.12177  0.29180  Biso   1.000  Ne
  Ne365    1.0000 0.78566  0.25477  0.81726  Biso   1.000  Ne
  He365    1.0000 0.80998  0.23821  0.80494  Biso   1.000  He
  He366    1.0000 0.80487  0.20953  0.80222  Biso   1.000  He
  Ne366    1.0000 0.83030  0.19358  0.78537  Biso   1.000  Ne
  Ne367    1.0000 0.29535  0.86348  0.03474  Biso   1.000  Ne
  He367    1.0000 0.28415  0.89559  0.04411  Biso   1.000  He
  He368    1.0000 0.30968  0.91331  0.05440  Biso   1.000  He
  Ne368    1.0000 0.29663  0.94106  0.06867  Biso   1.000  Ne
  Ne369    1.0000 0.72200  0.90709  0.44023  Biso   1.000  Ne
  He369    1.0000 0.72003  0.87363  0.42921  Biso   1.000  He
  He370    1.0000 0.69033  0.86439  0.42295  Biso   1.000  He
  Ne370    1.0000 0.68675  0.83372  0.41345  Biso   1.000  Ne
  Ne371    1.0000 0.37343  0.91349  0.69544  Biso   1.000  Ne
  He371    1.0000 0.36299  0.88330  0.70316  Biso   1.000  He
  He372    1.0000 0.34604  0.88564  0.73265  Biso   1.000  He
  Ne372    1.0000 0.33564  0.85486  0.74170  Biso   1.000  Ne
  Ne373    1.0000 0.98523  0.27779  0.03568  Biso   1.000  Ne
  He373    1.0000 0.00877  0.26393  0.05185  Biso   1.000  He
  He374    1.0000 0.01147  0.27051  0.08450  Biso   1.000  He
  Ne374    1.0000 0.03823  0.26233  0.09782  Biso   1.000  Ne
  Ne375    1.0000 0.82415  0.03590  0.79453  Biso   1.000  Ne
  He375    1.0000 0.79737  0.04378  0.80464  Biso   1.000  He
  He376    1.0000 0.77824  0.05506  0.78052  Biso   1.000  He
  Ne376    1.0000 0.74560  0.05592  0.78629  Biso   1.000  Ne
  Ne377    1.0000 0.39034  0.67892  0.19115  Biso   1.000  Ne
  He377    1.0000 0.39506  0.66984  0.16011  Biso   1.000  He
  He378    1.0000 0.41156  0.69285  0.13868  Biso   1.000  He
  Ne378    1.0000 0.40990  0.68430  0.10707  Biso   1.000  Ne
  Ne379    1.0000 0.33368  0.15826  0.09064  Biso   1.000  Ne
  He379    1.0000 0.30599  0.15940  0.07041  Biso   1.000  He
  He380    1.0000 0.31123  0.17745  0.04354  Biso   1.000  He
  Ne380    1.0000 0.28517  0.18274  0.02182  Biso   1.000  Ne
  Ne381    1.0000 0.15752  0.77596  0.42562  Biso   1.000  Ne
  He381    1.0000 0.15159  0.78614  0.39413  Biso   1.000  He
  He382    1.0000 0.13211  0.81405  0.39088  Biso   1.000  He
  Ne382    1.0000 0.11875  0.82090  0.36276  Biso   1.000  Ne
  Ne383    1.0000 0.25722  0.74014  0.27602  Biso   1.000  Ne
  He383    1.0000 0.22841  0.73898  0.29134  Biso   1.000  He
  He384    1.0000 0.23348  0.74846  0.32393  Biso   1.000  He
  Ne384    1.0000 0.20323  0.74499  0.34127  Biso   1.000  Ne
  Ne385    1.0000 0.25852  0.19163  0.16440  Biso   1.000  Ne
  He385    1.0000 0.28508  0.20992  0.16683  Biso   1.000  He
  He386    1.0000 0.28599  0.23561  0.14520  Biso   1.000  He
  Ne386    1.0000 0.31398  0.25399  0.14111  Biso   1.000  Ne
  Ne387    1.0000 0.52565  0.38078  0.06693  Biso   1.000  Ne
  He387    1.0000 0.53540  0.40056  0.09241  Biso   1.000  He
  He388    1.0000 0.56015  0.42191  0.08497  Biso   1.000  He
  Ne388    1.0000 0.57365  0.43703  0.10974  Biso   1.000  Ne
  Ne389    1.0000 0.08071  0.60817  0.91770  Biso   1.000  Ne
  He389    1.0000 0.07177  0.59465  0.88705  Biso   1.000  He
  He390    1.0000 0.06368  0.61743  0.86521  Biso   1.000  He
  Ne390    1.0000 0.05852  0.60317  0.83491  Biso   1.000  Ne
  Ne391    1.0000 0.69975  0.40323  0.15158  Biso   1.000  Ne
  He391    1.0000 0.68465  0.37879  0.13935  Biso   1.000  He
  He392    1.0000 0.69412  0.37363  0.10781  Biso   1.000  He
  Ne392    1.0000 0.67586  0.34829  0.09552  Biso   1.000  Ne
  Ne393    1.0000 0.57182  0.56741  0.19263  Biso   1.000  Ne
  He393    1.0000 0.59193  0.57575  0.21822  Biso   1.000  He
  He394    1.0000 0.59273  0.56052  0.24773  Biso   1.000  He
  Ne394    1.0000 0.61452  0.57347  0.26909  Biso   1.000  Ne
  Ne395    1.0000 0.33457  0.72267  0.70041  Biso   1.000  Ne
  He395    1.0000 0.35806  0.72181  0.67485  Biso   1.000  He
  He396    1.0000 0.39016  0.73408  0.68172  Biso   1.000  He
  Ne396    1.0000 0.40869  0.73714  0.65617  Biso   1.000  Ne
  Ne397    1.0000 0.56566  0.63760  0.81122  Biso   1.000  Ne
  He397    1.0000 0.56574  0.60570  0.81664  Biso   1.000  He
  He398    1.0000 0.57195  0.59182  0.84784  Biso   1.000  He
  Ne398    1.0000 0.57074  0.55715  0.84621  Biso   1.000  Ne
  Ne399    1.0000 0.60845  0.21139  0.88038  Biso   1.000  Ne
  He399    1.0000 0.58940  0.18318  0.88181  Biso   1.000  He
  He400    1.0000 0.55665  0.18876  0.87784  Biso   1.000  He
  Ne400    1.0000 0.53588  0.16295  0.87477  Biso   1.000  Ne
  Ne401    1.0000 0.78009  0.31084  0.87289  Biso   1.000  Ne
  He401    1.0000 0.76626  0.31441  0.90179  Biso   1.000  He
  He402    1.0000 0.76421  0.28656  0.92183  Biso   1.000  He
  Ne402    1.0000 0.74467  0.28630  0.94588  Biso   1.000  Ne
  Ne403    1.0000 0.82660  0.88381  0.37590  Biso   1.000  Ne
  He403    1.0000 0.83940  0.91084  0.38602  Biso   1.000  He
  He404    1.0000 0.82186  0.92702  0.40875  Biso   1.000  He
  Ne404    1.0000 0.83291  0.95793  0.41394  Biso   1.000  Ne
  Ne405    1.0000 0.65070  0.05929  0.23253  Biso   1.000  Ne
  He405    1.0000 0.66641  0.04322  0.20800  Biso   1.000  He
  He406    1.0000 0.69755  0.04680  0.20429  Biso   1.000  He
  Ne406    1.0000 0.71066  0.02860  0.17896  Biso   1.000  Ne
  Ne407    1.0000 0.06131  0.75291  0.24962  Biso   1.000  Ne
  He407    1.0000 0.06077  0.75605  0.28329  Biso   1.000  He
  He408    1.0000 0.08679  0.74485  0.29892  Biso   1.000  He
  Ne408    1.0000 0.08675  0.75572  0.32967  Biso   1.000  Ne
  Ne409    1.0000 0.64140  0.83069  0.66569  Biso   1.000  Ne
  He409    1.0000 0.63637  0.81321  0.63550  Biso   1.000  He
  He410    1.0000 0.64740  0.83174  0.60669  Biso   1.000  He
  Ne410    1.0000 0.63993  0.81646  0.58061  Biso   1.000  Ne
  Ne411    1.0000 0.98006  0.50445  0.23872  Biso   1.000  Ne
  He411    1.0000 0.96883  0.47127  0.23817  Biso   1.000  He
  He412    1.0000 0.94066  0.46662  0.22373  Biso   1.000  He
  Ne412    1.0000 0.92657  0.43502  0.22413  Biso   1.000  Ne
  Ne413    1.0000 0.47548  0.71601  0.46551  Biso   1.000  Ne
  He413    1.0000 0.47112  0.68368  0.46077  Biso   1.000  He
  He414    1.0000 0.46167  0.66853  0.48755  Biso   1.000  He
  Ne414    1.0000 0.46348  0.63568  0.49034  Biso   1.000  Ne
  Ne415    1.0000 0.12409  0.40320  0.10782  Biso   1.000  Ne
  He415    1.0000 0.14565  0.40676  0.08453  Biso   1.000  He
  He416    1.0000 0.17767  0.40080  0.09607  Biso   1.000  He
  Ne416    1.0000 0.19966  0.40231  0.07269  Biso   1.000  Ne
  Ne417    1.0000 0.05889  0.59016  0.56295  Biso   1.000  Ne
  He417    1.0000 0.08783  0.59676  0.57599  Biso   1.000  He
  He418    1.0000 0.10300  0.57286  0.59545  Biso   1.000  He
  Ne418    1.0000 0.12585  0.58457  0.61366  Biso   1.000  Ne
  Ne419    1.0000 0.34962  0.36311  0.60037  Biso   1.000  Ne
  He419    1.0000 0.32728  0.36273  0.57663  Biso   1.000  He
  He420    1.0000 0.29952  0.35072  0.59019  Biso   1.000  He
  Ne420    1.0000 0.27774  0.34975  0.56653  Biso   1.000  Ne
  Ne421    1.0000 0.33682  0.64118  0.92618  Biso   1.000  Ne
  He421    1.0000 0.36243  0.65990  0.93280  Biso   1.000  He
  He422    1.0000 0.38948  0.64611  0.91967  Biso   1.000  He
  Ne422    1.0000 0.41454  0.66200  0.92736  Biso   1.000  Ne
  Ne423    1.0000 0.68329  0.19577  0.92493  Biso   1.000  Ne
  He423    1.0000 0.68984  0.16634  0.91048  Biso   1.000  He
  He424    1.0000 0.67988  0.13791  0.92694  Biso   1.000  He
  Ne424    1.0000 0.68452  0.11020  0.91268  Biso   1.000  Ne
  Ne425    1.0000 0.18751  0.39592  0.33424  Biso   1.000  Ne
  He425    1.0000 0.17515  0.40532  0.36374  Biso   1.000  He
  He426    1.0000 0.18926  0.38274  0.38451  Biso   1.000  He
  Ne426    1.0000 0.17700  0.38763  0.41679  Biso   1.000  Ne
  Ne427    1.0000 0.85611  0.36507  0.06337  Biso   1.000  Ne
  He427    1.0000 0.88088  0.35697  0.04204  Biso   1.000  He
  He428    1.0000 0.88751  0.32456  0.03910  Biso   1.000  He
  Ne428    1.0000 0.91119  0.31762  0.01656  Biso   1.000  Ne
  Ne429    1.0000 0.20982  0.70967  0.95392  Biso   1.000  Ne
  He429    1.0000 0.22455  0.68305  0.96106  Biso   1.000  He
  He430    1.0000 0.23884  0.66796  0.93273  Biso   1.000  He
  Ne430    1.0000 0.25211  0.63764  0.93693  Biso   1.000  Ne
  Ne431    1.0000 0.79807  0.87858  0.86730  Biso   1.000  Ne
  He431    1.0000 0.77201  0.88662  0.84920  Biso   1.000  He
  He432    1.0000 0.75818  0.86421  0.82887  Biso   1.000  He
  Ne432    1.0000 0.73137  0.87816  0.81418  Biso   1.000  Ne
  Ne433    1.0000 0.04172  0.19819  0.60261  Biso   1.000  Ne
  He433    1.0000 0.05790  0.22123  0.61622  Biso   1.000  He
  He434    1.0000 0.05176  0.25316  0.60687  Biso   1.000  He
  Ne434    1.0000 0.06755  0.27879  0.62250  Biso   1.000  Ne
  Ne435    1.0000 0.72081  0.87792  0.61040  Biso   1.000  Ne
  He435    1.0000 0.73793  0.90125  0.62784  Biso   1.000  He
  He436    1.0000 0.76992  0.89483  0.63245  Biso   1.000  He
  Ne436    1.0000 0.78759  0.91948  0.64881  Biso   1.000  Ne
  Ne437    1.0000 0.55551  0.02648  0.63844  Biso   1.000  Ne
  He437    1.0000 0.57173  0.04535  0.65947  Biso   1.000  He
  He438    1.0000 0.57921  0.03275  0.68761  Biso   1.000  He
  Ne438    1.0000 0.59501  0.05490  0.70431  Biso   1.000  Ne
  Ne439    1.0000 0.88751  0.78609  0.22016  Biso   1.000  Ne
  He439    1.0000 0.88566  0.80999  0.24286  Biso   1.000  He
  He440    1.0000 0.90590  0.83539  0.23512  Biso   1.000  He
  Ne440    1.0000 0.90823  0.85863  0.25849  Biso   1.000  Ne
  Ne441    1.0000 0.73224  0.39196  0.58456  Biso   1.000  Ne
  He441    1.0000 0.70663  0.37213  0.59693  Biso   1.000  He
  He442    1.0000 0.71528  0.33994  0.59705  Biso   1.000  He
  Ne442    1.0000 0.70082  0.32297  0.57183  Biso   1.000  Ne
  Ne443    1.0000 0.66449  0.63362  0.11710  Biso   1.000  Ne
  He443    1.0000 0.69134  0.61570  0.12308  Biso   1.000  He
  He444    1.0000 0.69098  0.58781  0.10571  Biso   1.000  He
  Ne444    1.0000 0.71651  0.56994  0.10956  Biso   1.000  Ne
  Ne445    1.0000 0.77567  0.04788  0.89509  Biso   1.000  Ne
  He445    1.0000 0.75921  0.07331  0.89228  Biso   1.000  He
  He446    1.0000 0.76035  0.08600  0.86158  Biso   1.000  He
  Ne446    1.0000 0.74103  0.11384  0.85860  Biso   1.000  Ne
  Ne447    1.0000 0.57161  0.53929  0.51415  Biso   1.000  Ne
  He447    1.0000 0.56012  0.55566  0.54075  Biso   1.000  He
  He448    1.0000 0.54967  0.58736  0.53567  Biso   1.000  He
  Ne448    1.0000 0.53807  0.60142  0.56448  Biso   1.000  Ne
  Ne449    1.0000 0.52301  0.49166  0.29067  Biso   1.000  Ne
  He449    1.0000 0.49838  0.49469  0.31521  Biso   1.000  He
  He450    1.0000 0.49040  0.46441  0.32808  Biso   1.000  He
  Ne450    1.0000 0.46868  0.46490  0.35121  Biso   1.000  Ne
  Ne451    1.0000 0.40312  0.90693  0.36481  Biso   1.000  Ne
  He451    1.0000 0.38505  0.90254  0.33791  Biso   1.000  He
  He452    1.0000 0.40136  0.89480  0.31096  Biso   1.000  He
  Ne452    1.0000 0.40725  0.86268  0.30504  Biso   1.000  Ne
  Ne453    1.0000 0.60397  0.73721  0.67176  Biso   1.000  Ne
  He453    1.0000 0.63523  0.73609  0.68548  Biso   1.000  He
  He454    1.0000 0.63858  0.75687  0.71252  Biso   1.000  He
  Ne454    1.0000 0.66547  0.75235  0.73023  Biso   1.000  Ne
  Ne455    1.0000 0.81361  0.73515  0.70269  Biso   1.000  Ne
  He455    1.0000 0.81859  0.70739  0.71877  Biso   1.000  He
  He456    1.0000 0.79269  0.68994  0.72534  Biso   1.000  He
  Ne456    1.0000 0.79517  0.66367  0.74372  Biso   1.000  Ne
  Ne457    1.0000 0.29970  0.09438  0.23979  Biso   1.000  Ne
  He457    1.0000 0.29535  0.07503  0.26730  Biso   1.000  He
  He458    1.0000 0.29160  0.09144  0.29492  Biso   1.000  He
  Ne458    1.0000 0.29258  0.07060  0.32151  Biso   1.000  Ne
  Ne459    1.0000 0.68349  0.66144  0.75584  Biso   1.000  Ne
  He459    1.0000 0.69871  0.65836  0.78472  Biso   1.000  He
  He460    1.0000 0.67627  0.66325  0.80840  Biso   1.000  He
  Ne460    1.0000 0.68660  0.65312  0.83622  Biso   1.000  Ne
  Ne461    1.0000 0.07953  0.08012  0.09638  Biso   1.000  Ne
  He461    1.0000 0.10747  0.06702  0.10833  Biso   1.000  He
  He462    1.0000 0.13502  0.08456  0.09927  Biso   1.000  He
  Ne462    1.0000 0.16535  0.07031  0.10312  Biso   1.000  Ne
  Ne463    1.0000 0.75107  0.06585  0.07626  Biso   1.000  Ne
  He463    1.0000 0.71690  0.06069  0.07431  Biso   1.000  He
  He464    1.0000 0.69837  0.07333  0.10085  Biso   1.000  He
  Ne464    1.0000 0.66526  0.06579  0.09919  Biso   1.000  Ne
  Ne465    1.0000 0.94827  0.96678  0.93635  Biso   1.000  Ne
  He465    1.0000 0.93627  0.99164  0.95445  Biso   1.000  He
  He466    1.0000 0.92635  0.98067  0.98596  Biso   1.000  He
  Ne466    1.0000 0.91450  0.00474  0.00559  Biso   1.000  Ne
  Ne467    1.0000 0.13388  0.89036  0.41512  Biso   1.000  Ne
  He467    1.0000 0.12256  0.92048  0.40998  Biso   1.000  He
  He468    1.0000 0.09985  0.92632  0.38646  Biso   1.000  He
  Ne468    1.0000 0.09021  0.95795  0.38055  Biso   1.000  Ne
  Ne469    1.0000 0.89539  0.37214  0.70345  Biso   1.000  Ne
  He469    1.0000 0.91875  0.37253  0.72650  Biso   1.000  He
  He470    1.0000 0.91172  0.38675  0.75616  Biso   1.000  He
  Ne470    1.0000 0.93551  0.39069  0.77905  Biso   1.000  Ne
  Ne471    1.0000 0.08125  0.92034  0.81958  Biso   1.000  Ne
  He471    1.0000 0.07497  0.88707  0.82231  Biso   1.000  He
  He472    1.0000 0.09197  0.87433  0.84914  Biso   1.000  He
  Ne472    1.0000 0.08649  0.84127  0.85832  Biso   1.000  Ne
  Ne473    1.0000 0.11387  0.76248  0.81307  Biso   1.000  Ne
  He473    1.0000 0.11400  0.74527  0.78480  Biso   1.000  He
  He474    1.0000 0.10338  0.71315  0.78900  Biso   1.000  He
  Ne474    1.0000 0.10382  0.69323  0.76116  Biso   1.000  Ne
  Ne475    1.0000 0.54975  0.14025  0.09021  Biso   1.000  Ne
  He475    1.0000 0.54273  0.16631  0.11054  Biso   1.000  He
  He476    1.0000 0.55617  0.19537  0.10377  Biso   1.000  He
  Ne476    1.0000 0.54734  0.21679  0.12608  Biso   1.000  Ne
  Ne477    1.0000 0.56298  0.25420  0.61291  Biso   1.000  Ne
  He477    1.0000 0.53602  0.25204  0.59138  Biso   1.000  He
  He478    1.0000 0.53861  0.26961  0.56312  Biso   1.000  He
  Ne478    1.0000 0.51279  0.26835  0.54436  Biso   1.000  Ne
  Ne479    1.0000 0.12280  0.56757  0.22970  Biso   1.000  Ne
  He479    1.0000 0.12853  0.54243  0.20911  Biso   1.000  He
  He480    1.0000 0.15179  0.52118  0.21824  Biso   1.000  He
  Ne480    1.0000 0.15685  0.49618  0.19506  Biso   1.000  Ne
  Ne481    1.0000 0.89271  0.17648  0.93310  Biso   1.000  Ne
  He481    1.0000 0.91022  0.20507  0.93531  Biso   1.000  He
  He482    1.0000 0.89071  0.22918  0.94948  Biso   1.000  He
  Ne482    1.0000 0.90561  0.25826  0.95055  Biso   1.000  Ne
  Ne483    1.0000 0.15787  0.93135  0.50413  Biso   1.000  Ne
  He483    1.0000 0.17637  0.92803  0.53097  Biso   1.000  He
  He484    1.0000 0.20622  0.94408  0.53061  Biso   1.000  He
  Ne484    1.0000 0.20746  0.97496  0.54066  Biso   1.000  Ne
  Ne485    1.0000 0.49165  0.41914  0.01052  Biso   1.000  Ne
  He485    1.0000 0.47744  0.43617  0.98728  Biso   1.000  He
  He486    1.0000 0.46827  0.41852  0.96198  Biso   1.000  He
  Ne486    1.0000 0.46008  0.43977  0.93673  Biso   1.000  Ne
  Ne487    1.0000 0.83667  0.29458  0.71183  Biso   1.000  Ne
  He487    1.0000 0.86817  0.28259  0.70700  Biso   1.000  He
  He488    1.0000 0.88188  0.28993  0.67818  Biso   1.000  He
  Ne488    1.0000 0.91339  0.27717  0.67648  Biso   1.000  Ne
  Ne489    1.0000 0.53097  0.57817  0.94686  Biso   1.000  Ne
  He489    1.0000 0.55115  0.55424  0.94333  Biso   1.000  He
  He490    1.0000 0.58430  0.56483  0.94545  Biso   1.000  He
  Ne490    1.0000 0.60502  0.53973  0.94551  Biso   1.000  Ne
  Ne491    1.0000 0.56959  0.69732  0.21627  Biso   1.000  Ne
  He491    1.0000 0.56760  0.67398  0.24033  Biso   1.000  He
  He492    1.0000 0.55044  0.68379  0.26711  Biso   1.000  He
  Ne492    1.0000 0.54406  0.65893  0.29085  Biso   1.000  Ne
  Ne493    1.0000 0.56673  0.33248  0.39604  Biso   1.000  Ne
  He493    1.0000 0.53578  0.32503  0.41161  Biso   1.000  He
  He494    1.0000 0.52602  0.29428  0.41772  Biso   1.000  He
  Ne494    1.0000 0.49509  0.29164  0.42962  Biso   1.000  Ne
  Ne495    1.0000 0.91563  0.64255  0.72608  Biso   1.000  Ne
  He495    1.0000 0.90484  0.67319  0.72463  Biso   1.000  He
  He496    1.0000 0.89469  0.68648  0.75432  Biso   1.000  He
  Ne496    1.0000 0.89038  0.71982  0.75238  Biso   1.000  Ne
  Ne497    1.0000 0.56434  0.28247  0.77016  Biso   1.000  Ne
  He497    1.0000 0.57143  0.30699  0.74955  Biso   1.000  He
  He498    1.0000 0.58116  0.29831  0.71935  Biso   1.000  He
  Ne498    1.0000 0.59406  0.32508  0.70477  Biso   1.000  Ne
  Ne499    1.0000 0.08421  0.08111  0.19556  Biso   1.000  Ne
  He499    1.0000 0.09516  0.10967  0.21376  Biso   1.000  He
  He500    1.0000 0.08739  0.10891  0.24372  Biso   1.000  He
  Ne500    1.0000 0.09830  0.13448  0.26184  Biso   1.000  Ne
  Ne501    1.0000 0.15760  0.66784  0.28856  Biso   1.000  Ne
  He501    1.0000 0.17393  0.64545  0.27174  Biso   1.000  He
  He502    1.0000 0.19125  0.62621  0.28956  Biso   1.000  He
  Ne502    1.0000 0.21639  0.61087  0.27394  Biso   1.000  Ne
  Ne503    1.0000 0.39485  0.35949  0.94263  Biso   1.000  Ne
  He503    1.0000 0.40638  0.33169  0.94693  Biso   1.000  He
  He504    1.0000 0.38482  0.30477  0.94604  Biso   1.000  He
  Ne504    1.0000 0.39673  0.27634  0.95707  Biso   1.000  Ne
  Ne505    1.0000 0.93026  0.65156  0.09776  Biso   1.000  Ne
  He505    1.0000 0.92452  0.67888  0.08562  Biso   1.000  He
  He506    1.0000 0.93671  0.70567  0.10547  Biso   1.000  He
  Ne506    1.0000 0.93100  0.73759  0.09628  Biso   1.000  Ne
  Ne507    1.0000 0.90683  0.08003  0.81968  Biso   1.000  Ne
  He507    1.0000 0.88899  0.10563  0.81734  Biso   1.000  He
  He508    1.0000 0.89559  0.12637  0.84294  Biso   1.000  He
  Ne508    1.0000 0.88027  0.15631  0.84503  Biso   1.000  Ne
  Ne509    1.0000 0.80680  0.29733  0.43620  Biso   1.000  Ne
  He509    1.0000 0.80962  0.32760  0.42143  Biso   1.000  He
  He510    1.0000 0.80684  0.35318  0.44088  Biso   1.000  He
  Ne510    1.0000 0.77594  0.36682  0.44302  Biso   1.000  Ne
  Ne511    1.0000 0.63025  0.17159  0.30409  Biso   1.000  Ne
  He511    1.0000 0.62979  0.19699  0.32149  Biso   1.000  He
  He512    1.0000 0.61155  0.19566  0.35105  Biso   1.000  He
  Ne512    1.0000 0.61111  0.22415  0.36922  Biso   1.000  Ne
  Ne513    1.0000 0.20446  0.14846  0.81703  Biso   1.000  Ne
  He513    1.0000 0.22337  0.16455  0.79423  Biso   1.000  He
  He514    1.0000 0.22687  0.15053  0.76558  Biso   1.000  He
  Ne514    1.0000 0.24577  0.16972  0.74084  Biso   1.000  Ne
  Ne515    1.0000 0.62277  0.90721  0.59098  Biso   1.000  Ne
  He515    1.0000 0.59228  0.90981  0.57834  Biso   1.000  He
  He516    1.0000 0.57502  0.88151  0.57684  Biso   1.000  He
  Ne516    1.0000 0.54592  0.88578  0.56900  Biso   1.000  Ne
  Ne517    1.0000 0.41940  0.24021  0.46366  Biso   1.000  Ne
  He517    1.0000 0.44057  0.26190  0.47440  Biso   1.000  He
  He518    1.0000 0.42893  0.28850  0.49139  Biso   1.000  He
  Ne518    1.0000 0.45438  0.30686  0.50824  Biso   1.000  Ne
  Ne519    1.0000 0.47202  0.03819  0.80686  Biso   1.000  Ne
  He519    1.0000 0.49361  0.03219  0.82843  Biso   1.000  He
  He520    1.0000 0.51404  0.05921  0.83460  Biso   1.000  He
  Ne520    1.0000 0.53759  0.05548  0.86087  Biso   1.000  Ne
  Ne521    1.0000 0.15071  0.90285  0.74263  Biso   1.000  Ne
  He521    1.0000 0.12125  0.90902  0.75145  Biso   1.000  He
  He522    1.0000 0.09713  0.91979  0.73149  Biso   1.000  He
  Ne522    1.0000 0.07221  0.93345  0.74456  Biso   1.000  Ne
  Ne523    1.0000 0.27698  0.82603  0.11623  Biso   1.000  Ne
  He523    1.0000 0.25328  0.80705  0.09973  Biso   1.000  He
  He524    1.0000 0.25057  0.77395  0.10621  Biso   1.000  He
  Ne524    1.0000 0.22710  0.75840  0.08752  Biso   1.000  Ne
  Ne525    1.0000 0.26602  0.79691  0.65286  Biso   1.000  Ne
  He525    1.0000 0.28114  0.80651  0.68134  Biso   1.000  He
  He526    1.0000 0.25821  0.80713  0.70524  Biso   1.000  He
  Ne526    1.0000 0.26803  0.82254  0.73278  Biso   1.000  Ne
  Ne527    1.0000 0.75108  0.83032  0.30491  Biso   1.000  Ne
  He527    1.0000 0.75153  0.86294  0.30840  Biso   1.000  He
  He528    1.0000 0.74610  0.87899  0.27937  Biso   1.000  He
  Ne528    1.0000 0.74442  0.91191  0.28157  Biso   1.000  Ne
  Ne529    1.0000 0.52623  0.56161  0.74300  Biso   1.000  Ne
  He529    1.0000 0.55017  0.58009  0.73268  Biso   1.000  He
  He530    1.0000 0.54224  0.60660  0.71547  Biso   1.000  He
  Ne530    1.0000 0.56867  0.62534  0.70696  Biso   1.000  Ne
  Ne531    1.0000 0.56906  0.75137  0.59522  Biso   1.000  Ne
  He531    1.0000 0.56846  0.71861  0.59420  Biso   1.000  He
  He532    1.0000 0.56763  0.70967  0.56333  Biso   1.000  He
  Ne532    1.0000 0.56641  0.67507  0.56093  Biso   1.000  Ne
  Ne533    1.0000 0.84474  0.56429  0.42051  Biso   1.000  Ne
  He533    1.0000 0.81593  0.58275  0.42486  Biso   1.000  He
  He534    1.0000 0.79594  0.56599  0.44243  Biso   1.000  He
  Ne534    1.0000 0.76645  0.57947  0.44686  Biso   1.000  Ne
  Ne535    1.0000 0.59554  0.32400  0.84509  Biso   1.000  Ne
  He535    1.0000 0.60034  0.35525  0.83274  Biso   1.000  He
  He536    1.0000 0.57944  0.36353  0.80980  Biso   1.000  He
  Ne536    1.0000 0.58305  0.39482  0.79532  Biso   1.000  Ne
  Ne537    1.0000 0.87581  0.46186  0.09151  Biso   1.000  Ne
  He537    1.0000 0.89310  0.43705  0.07592  Biso   1.000  He
  He538    1.0000 0.92389  0.44729  0.06677  Biso   1.000  He
  Ne538    1.0000 0.94346  0.42527  0.04907  Biso   1.000  Ne
  Ne539    1.0000 0.27888  0.05207  0.87464  Biso   1.000  Ne
  He539    1.0000 0.31026  0.06107  0.87628  Biso   1.000  He
  He540    1.0000 0.33144  0.03630  0.86410  Biso   1.000  He
  Ne540    1.0000 0.36761  0.04159  0.86608  Biso   1.000  Ne
  Ne541    1.0000 0.32756  0.66129  0.63646  Biso   1.000  Ne
  He541    1.0000 0.33442  0.62999  0.62658  Biso   1.000  He
  He542    1.0000 0.36593  0.62016  0.63313  Biso   1.000  He
  Ne542    1.0000 0.37175  0.59035  0.61881  Biso   1.000  Ne
  Ne543    1.0000 0.50835  0.97684  0.91889  Biso   1.000  Ne
  He543    1.0000 0.47716  0.97538  0.90443  Biso   1.000  He
  He544    1.0000 0.47169  0.95541  0.87906  Biso   1.000  He
  Ne544    1.0000 0.44110  0.95528  0.86914  Biso   1.000  Ne
  Ne545    1.0000 0.98459  0.62465  0.01920  Biso   1.000  Ne
  He545    1.0000 0.01777  0.61755  0.01679  Biso   1.000  He
  He546    1.0000 0.02728  0.60309  0.04587  Biso   1.000  He
  Ne546    1.0000 0.05783  0.59445  0.04496  Biso   1.000  Ne
  Ne547    1.0000 0.53246  0.67219  0.64229  Biso   1.000  Ne
  He547    1.0000 0.50189  0.65778  0.64898  Biso   1.000  He
  He548    1.0000 0.48321  0.66942  0.67353  Biso   1.000  He
  Ne548    1.0000 0.45265  0.65858  0.68020  Biso   1.000  Ne
  Ne549    1.0000 0.87378  0.40723  0.44322  Biso   1.000  Ne
  He549    1.0000 0.88919  0.41659  0.41463  Biso   1.000  He
  He550    1.0000 0.92321  0.41461  0.41405  Biso   1.000  He
  Ne550    1.0000 0.93599  0.42377  0.38539  Biso   1.000  Ne
  Ne551    1.0000 0.28762  0.00235  0.12851  Biso   1.000  Ne
  He551    1.0000 0.31535  0.01068  0.14512  Biso   1.000  He
  He552    1.0000 0.31388  0.04066  0.15733  Biso   1.000  He
  Ne552    1.0000 0.33886  0.04886  0.17608  Biso   1.000  Ne
  Ne553    1.0000 0.72894  0.40990  0.90854  Biso   1.000  Ne
  He553    1.0000 0.70479  0.39777  0.89292  Biso   1.000  He
  He554    1.0000 0.68025  0.39438  0.91128  Biso   1.000  He
  Ne554    1.0000 0.65247  0.37850  0.89875  Biso   1.000  Ne
  Ne555    1.0000 0.68953  0.06617  0.99262  Biso   1.000  Ne
  He555    1.0000 0.69956  0.03977  0.97461  Biso   1.000  He
  He556    1.0000 0.68115  0.01355  0.98104  Biso   1.000  He
  Ne556    1.0000 0.68667  0.98478  0.96312  Biso   1.000  Ne
  Ne557    1.0000 0.27795  0.29489  0.26585  Biso   1.000  Ne
  He557    1.0000 0.26453  0.27671  0.29221  Biso   1.000  He
  He558    1.0000 0.28070  0.27999  0.32072  Biso   1.000  He
  Ne558    1.0000 0.27246  0.25745  0.34822  Biso   1.000  Ne
  Ne559    1.0000 0.82651  0.67835  0.39809  Biso   1.000  Ne
  He559    1.0000 0.81070  0.70592  0.40709  Biso   1.000  He
  He560    1.0000 0.81585  0.71298  0.43633  Biso   1.000  He
  Ne560    1.0000 0.79897  0.74097  0.44735  Biso   1.000  Ne
  Ne561    1.0000 0.86217  0.66712  0.64012  Biso   1.000  Ne
  He561    1.0000 0.89310  0.67487  0.62972  Biso   1.000  He
  He562    1.0000 0.89931  0.70582  0.63013  Biso   1.000  He
  Ne562    1.0000 0.92929  0.71311  0.61854  Biso   1.000  Ne
  Ne563    1.0000 0.71732  0.10049  0.34933  Biso   1.000  Ne
  He563    1.0000 0.68296  0.09975  0.34955  Biso   1.000  He
  He564    1.0000 0.67241  0.08269  0.32190  Biso   1.000  He
  Ne564    1.0000 0.64016  0.08310  0.31894  Biso   1.000  Ne
  Ne565    1.0000 0.15272  0.40269  0.69778  Biso   1.000  Ne
  He565    1.0000 0.12236  0.39774  0.70842  Biso   1.000  He
  He566    1.0000 0.09848  0.42030  0.69822  Biso   1.000  He
  Ne566    1.0000 0.07040  0.41672  0.71300  Biso   1.000  Ne
  Ne567    1.0000 0.80294  0.98451  0.73365  Biso   1.000  Ne
  He567    1.0000 0.83333  0.98620  0.71810  Biso   1.000  He
  He568    1.0000 0.84656  0.95629  0.71731  Biso   1.000  He
  Ne568    1.0000 0.87622  0.95804  0.70580  Biso   1.000  Ne
  Ne569    1.0000 0.32890  0.71937  0.08455  Biso   1.000  Ne
  He569    1.0000 0.30933  0.72143  0.11098  Biso   1.000  He
  He570    1.0000 0.32166  0.73990  0.13401  Biso   1.000  He
  Ne570    1.0000 0.30496  0.74515  0.16002  Biso   1.000  Ne
  Ne571    1.0000 0.33192  0.57718  0.16722  Biso   1.000  Ne
  He571    1.0000 0.30487  0.59241  0.15183  Biso   1.000  He
  He572    1.0000 0.30140  0.58576  0.12050  Biso   1.000  He
  Ne572    1.0000 0.27577  0.60094  0.10667  Biso   1.000  Ne
  Ne573    1.0000 0.23784  0.66242  0.18610  Biso   1.000  Ne
  He573    1.0000 0.23083  0.63091  0.19580  Biso   1.000  He
  He574    1.0000 0.21930  0.60990  0.17508  Biso   1.000  He
  Ne574    1.0000 0.21955  0.58167  0.19011  Biso   1.000  Ne
  Ne575    1.0000 0.17753  0.62806  0.38150  Biso   1.000  Ne
  He575    1.0000 0.19759  0.65504  0.38807  Biso   1.000  He
  He576    1.0000 0.22917  0.65285  0.37965  Biso   1.000  He
  Ne576    1.0000 0.23609  0.67255  0.35211  Biso   1.000  Ne
  Ne577    1.0000 0.64713  0.06059  0.62932  Biso   1.000  Ne
  He577    1.0000 0.67721  0.06280  0.61256  Biso   1.000  He
  He578    1.0000 0.68925  0.09453  0.61140  Biso   1.000  He
  Ne578    1.0000 0.71838  0.09929  0.59536  Biso   1.000  Ne
  Ne579    1.0000 0.19060  0.81659  0.80260  Biso   1.000  Ne
  He579    1.0000 0.18190  0.84670  0.80981  Biso   1.000  He
  He580    1.0000 0.20504  0.87002  0.80506  Biso   1.000  He
  Ne580    1.0000 0.19377  0.89967  0.81342  Biso   1.000  Ne
  Ne581    1.0000 0.16636  0.80867  0.15208  Biso   1.000  Ne
  He581    1.0000 0.13362  0.81484  0.15908  Biso   1.000  He
  He582    1.0000 0.11436  0.78856  0.15728  Biso   1.000  He
  Ne582    1.0000 0.08385  0.79575  0.16746  Biso   1.000  Ne
  Ne583    1.0000 0.27829  0.27442  0.85330  Biso   1.000  Ne
  He583    1.0000 0.29474  0.28798  0.87733  Biso   1.000  He
  He584    1.0000 0.31328  0.31231  0.86551  Biso   1.000  He
  Ne584    1.0000 0.33344  0.32932  0.88773  Biso   1.000  Ne
  Ne585    1.0000 0.93468  0.32406  0.83487  Biso   1.000  Ne
  He585    1.0000 0.96866  0.31884  0.84831  Biso   1.000  He
  He586    1.0000 0.99297  0.33574  0.83286  Biso   1.000  He
  Ne586    1.0000 0.01921  0.32552  0.84490  Biso   1.000  Ne
  Ne587    1.0000 0.20135  0.27959  0.67665  Biso   1.000  Ne
  He587    1.0000 0.22396  0.30635  0.68021  Biso   1.000  He
  He588    1.0000 0.21998  0.33067  0.65808  Biso   1.000  He
  Ne588    1.0000 0.24070  0.35550  0.66366  Biso   1.000  Ne
  Ne589    1.0000 0.07275  0.24545  0.70491  Biso   1.000  Ne
  He589    1.0000 0.08414  0.27776  0.70043  Biso   1.000  He
  He590    1.0000 0.11011  0.28617  0.71901  Biso   1.000  He
  Ne590    1.0000 0.12199  0.31606  0.71181  Biso   1.000  Ne
  Ne591    1.0000 0.48926  0.87567  0.21325  Biso   1.000  Ne
  He591    1.0000 0.50337  0.87173  0.18269  Biso   1.000  He
  He592    1.0000 0.48763  0.84864  0.16834  Biso   1.000  He
  Ne592    1.0000 0.49661  0.84294  0.13438  Biso   1.000  Ne
  Ne593    1.0000 0.14517  0.44162  0.87069  Biso   1.000  Ne
  He593    1.0000 0.17179  0.42651  0.88576  Biso   1.000  He
  He594    1.0000 0.19435  0.41556  0.86178  Biso   1.000  He
  Ne594    1.0000 0.22166  0.40486  0.87213  Biso   1.000  Ne
  Ne595    1.0000 0.89573  0.32532  0.44259  Biso   1.000  Ne
  He595    1.0000 0.89075  0.29371  0.42833  Biso   1.000  He
  He596    1.0000 0.92236  0.28097  0.41965  Biso   1.000  He
  Ne596    1.0000 0.92678  0.28147  0.38516  Biso   1.000  Ne
  Ne597    1.0000 0.02324  0.01609  0.30787  Biso   1.000  Ne
  He597    1.0000 0.01118  0.99004  0.29525  Biso   1.000  He
  He598    1.0000 0.98318  0.97697  0.30737  Biso   1.000  He
  Ne598    1.0000 0.97401  0.94777  0.29531  Biso   1.000  Ne
  Ne599    1.0000 0.81924  0.43267  0.84005  Biso   1.000  Ne
  He599    1.0000 0.84511  0.44709  0.83017  Biso   1.000  He
  He600    1.0000 0.84057  0.47885  0.82086  Biso   1.000  He
  Ne600    1.0000 0.86913  0.49230  0.81180  Biso   1.000  Ne
  Ne601    1.0000 0.95858  0.71178  0.84410  Biso   1.000  Ne
  He601    1.0000 0.94864  0.68702  0.82412  Biso   1.000  He
  He602    1.0000 0.96875  0.65709  0.82948  Biso   1.000  He
  Ne602    1.0000 0.95945  0.63314  0.81128  Biso   1.000  Ne
  Ne603    1.0000 0.13205  0.12357  0.36130  Biso   1.000  Ne
  He603    1.0000 0.16588  0.12128  0.36322  Biso   1.000  He
  He604    1.0000 0.17808  0.15132  0.37023  Biso   1.000  He
  Ne604    1.0000 0.21128  0.15092  0.37365  Biso   1.000  Ne
  Ne605    1.0000 0.74174  0.84224  0.74333  Biso   1.000  Ne
  He605    1.0000 0.71337  0.84520  0.72863  Biso   1.000  He
  He606    1.0000 0.68865  0.85486  0.74770  Biso   1.000  He
  Ne606    1.0000 0.66183  0.86120  0.73038  Biso   1.000  Ne
  Ne607    1.0000 0.45238  0.02312  0.61953  Biso   1.000  Ne
  He607    1.0000 0.44052  0.05187  0.60386  Biso   1.000  He
  He608    1.0000 0.40877  0.05221  0.60310  Biso   1.000  He
  Ne608    1.0000 0.39550  0.07852  0.58734  Biso   1.000  Ne
  Ne609    1.0000 0.57560  0.43907  0.65575  Biso   1.000  Ne
  He609    1.0000 0.58800  0.42348  0.68400  Biso   1.000  He
  He610    1.0000 0.61344  0.43833  0.69674  Biso   1.000  He
  Ne610    1.0000 0.62488  0.42601  0.72471  Biso   1.000  Ne
  Ne611    1.0000 0.81827  0.82889  0.95948  Biso   1.000  Ne
  He611    1.0000 0.78818  0.83370  0.94939  Biso   1.000  He
  He612    1.0000 0.76909  0.80600  0.94237  Biso   1.000  He
  Ne612    1.0000 0.73838  0.81482  0.93011  Biso   1.000  Ne
  Ne613    1.0000 0.42872  0.86167  0.90868  Biso   1.000  Ne
  He613    1.0000 0.42536  0.88422  0.93135  Biso   1.000  He
  He614    1.0000 0.44695  0.88335  0.95641  Biso   1.000  He
  Ne614    1.0000 0.44729  0.90939  0.97647  Biso   1.000  Ne
  Ne615    1.0000 0.30323  0.84801  0.57458  Biso   1.000  Ne
  He615    1.0000 0.31732  0.87391  0.59036  Biso   1.000  He
  He616    1.0000 0.30058  0.87924  0.61889  Biso   1.000  He
  Ne616    1.0000 0.31599  0.90359  0.63739  Biso   1.000  Ne
  Ne617    1.0000 0.87171  0.37174  0.23660  Biso   1.000  Ne
  He617    1.0000 0.84525  0.38118  0.25227  Biso   1.000  He
  He618    1.0000 0.83494  0.41047  0.24163  Biso   1.000  He
  Ne618    1.0000 0.81114  0.42386  0.25689  Biso   1.000  Ne
  Ne619    1.0000 0.38417  0.73853  0.84000  Biso   1.000  Ne
  He619    1.0000 0.38765  0.75831  0.81400  Biso   1.000  He
  He620    1.0000 0.35943  0.76582  0.79556  Biso   1.000  He
  Ne620    1.0000 0.36413  0.77720  0.76365  Biso   1.000  Ne
  Ne621    1.0000 0.82251  0.22910  0.25062  Biso   1.000  Ne
  He621    1.0000 0.82079  0.19716  0.24284  Biso   1.000  He
  He622    1.0000 0.83636  0.17949  0.26647  Biso   1.000  He
  Ne622    1.0000 0.83048  0.14658  0.26457  Biso   1.000  Ne
  Ne623    1.0000 0.00422  0.06587  0.05374  Biso   1.000  Ne
  He623    1.0000 0.98531  0.04380  0.06594  Biso   1.000  He
  He624    1.0000 0.99821  0.01245  0.05810  Biso   1.000  He
  Ne624    1.0000 0.98271  0.98763  0.07581  Biso   1.000  Ne
  Ne625    1.0000 0.55442  0.85278  0.66533  Biso   1.000  Ne
  He625    1.0000 0.54526  0.83378  0.69137  Biso   1.000  He
  He626    1.0000 0.57119  0.81299  0.70215  Biso   1.000  He
  Ne626    1.0000 0.56321  0.78997  0.72404  Biso   1.000  Ne
  Ne627    1.0000 0.34307  0.91633  0.95050  Biso   1.000  Ne
  He627    1.0000 0.36412  0.93226  0.97330  Biso   1.000  He
  He628    1.0000 0.35082  0.95814  0.98387  Biso   1.000  He
  Ne628    1.0000 0.36927  0.97306  0.00629  Biso   1.000  Ne
  Ne629    1.0000 0.88629  0.56825  0.66547  Biso   1.000  Ne
  He629    1.0000 0.86414  0.56505  0.68881  Biso   1.000  He
  He630    1.0000 0.83369  0.57393  0.67952  Biso   1.000  He
  Ne630    1.0000 0.81329  0.57544  0.70578  Biso   1.000  Ne
  Ne631    1.0000 0.63043  0.10162  0.84483  Biso   1.000  Ne
  He631    1.0000 0.64992  0.11690  0.82199  Biso   1.000  He
  He632    1.0000 0.66886  0.14047  0.83412  Biso   1.000  He
  Ne632    1.0000 0.69125  0.15157  0.81357  Biso   1.000  Ne
  Ne633    1.0000 0.34233  0.15773  0.21540  Biso   1.000  Ne
  He633    1.0000 0.32513  0.17990  0.23282  Biso   1.000  He
  He634    1.0000 0.29847  0.16656  0.24614  Biso   1.000  He
  Ne634    1.0000 0.28175  0.18806  0.26265  Biso   1.000  Ne
  Ne635    1.0000 0.13631  0.89672  0.30987  Biso   1.000  Ne
  He635    1.0000 0.10290  0.89604  0.30237  Biso   1.000  He
  He636    1.0000 0.08478  0.92253  0.30405  Biso   1.000  He
  Ne636    1.0000 0.05267  0.91580  0.29428  Biso   1.000  Ne
  Ne637    1.0000 0.09921  0.38887  0.79148  Biso   1.000  Ne
  He637    1.0000 0.06687  0.38408  0.79649  Biso   1.000  He
  He638    1.0000 0.05222  0.41313  0.81054  Biso   1.000  He
  Ne638    1.0000 0.02137  0.40969  0.82535  Biso   1.000  Ne
  Ne639    1.0000 0.44463  0.81884  0.81721  Biso   1.000  Ne
  He639    1.0000 0.46972  0.81786  0.79569  Biso   1.000  He
  He640    1.0000 0.49245  0.79383  0.80483  Biso   1.000  He
  Ne640    1.0000 0.51812  0.79095  0.78619  Biso   1.000  Ne
  Ne641    1.0000 0.72606  0.20857  0.24633  Biso   1.000  Ne
  He641    1.0000 0.72390  0.17972  0.26381  Biso   1.000  He
  He642    1.0000 0.72402  0.15511  0.24217  Biso   1.000  He
  Ne642    1.0000 0.72318  0.12344  0.25401  Biso   1.000  Ne
  Ne643    1.0000 0.08384  0.57233  0.41244  Biso   1.000  Ne
  He643    1.0000 0.08233  0.57674  0.37743  Biso   1.000  He
  He644    1.0000 0.09567  0.55284  0.36251  Biso   1.000  He
  Ne644    1.0000 0.09903  0.55991  0.33060  Biso   1.000  Ne
  Ne645    1.0000 0.24779  0.17508  0.60064  Biso   1.000  Ne
  He645    1.0000 0.25574  0.14833  0.61871  Biso   1.000  He
  He646    1.0000 0.23458  0.14411  0.64405  Biso   1.000  He
  Ne646    1.0000 0.23452  0.11693  0.66100  Biso   1.000  Ne
  Ne647    1.0000 0.02824  0.59035  0.21412  Biso   1.000  Ne
  He647    1.0000 0.05105  0.61712  0.22361  Biso   1.000  He
  He648    1.0000 0.05719  0.63671  0.19942  Biso   1.000  He
  Ne648    1.0000 0.08166  0.65855  0.20885  Biso   1.000  Ne
  Ne649    1.0000 0.17569  0.26037  0.11557  Biso   1.000  Ne
  He649    1.0000 0.17763  0.23006  0.12575  Biso   1.000  He
  He650    1.0000 0.15519  0.20846  0.11826  Biso   1.000  He
  Ne650    1.0000 0.16065  0.17656  0.12645  Biso   1.000  Ne
  Ne651    1.0000 0.08965  0.62545  0.67260  Biso   1.000  Ne
  He651    1.0000 0.07439  0.60425  0.69468  Biso   1.000  He
  He652    1.0000 0.09343  0.58607  0.71588  Biso   1.000  He
  Ne652    1.0000 0.07402  0.57526  0.74073  Biso   1.000  Ne
  Ne653    1.0000 0.33219  0.30370  0.19953  Biso   1.000  Ne
  He653    1.0000 0.36030  0.30095  0.21503  Biso   1.000  He
  He654    1.0000 0.38507  0.30874  0.19633  Biso   1.000  He
  Ne654    1.0000 0.41654  0.31104  0.20915  Biso   1.000  Ne
  Ne655    1.0000 0.71428  0.72005  0.66235  Biso   1.000  Ne
  He655    1.0000 0.71861  0.69049  0.65113  Biso   1.000  He
  He656    1.0000 0.74547  0.67691  0.66264  Biso   1.000  He
  Ne656    1.0000 0.74834  0.64884  0.64757  Biso   1.000  Ne
  Ne657    1.0000 0.66536  0.02874  0.83358  Biso   1.000  Ne
  He657    1.0000 0.64175  0.02372  0.81390  Biso   1.000  He
  He658    1.0000 0.61173  0.01612  0.82645  Biso   1.000  He
  Ne658    1.0000 0.58776  0.01494  0.80029  Biso   1.000  Ne
  Ne659    1.0000 0.42840  0.84987  0.41323  Biso   1.000  Ne
  He659    1.0000 0.41187  0.82032  0.40850  Biso   1.000  He
  He660    1.0000 0.38142  0.81995  0.42104  Biso   1.000  He
  Ne660    1.0000 0.36490  0.79245  0.41264  Biso   1.000  Ne
  Ne661    1.0000 0.71874  0.57808  0.93229  Biso   1.000  Ne
  He661    1.0000 0.70314  0.58057  0.90346  Biso   1.000  He
  He662    1.0000 0.68096  0.55735  0.89917  Biso   1.000  He
  Ne662    1.0000 0.66480  0.56068  0.87070  Biso   1.000  Ne
  Ne663    1.0000 0.57166  0.12356  0.27512  Biso   1.000  Ne
  He663    1.0000 0.57334  0.11565  0.24164  Biso   1.000  He
  He664    1.0000 0.54408  0.11321  0.22196  Biso   1.000  He
  Ne664    1.0000 0.52233  0.08789  0.22801  Biso   1.000  Ne
  Ne665    1.0000 0.71669  0.70483  0.13864  Biso   1.000  Ne
  He665    1.0000 0.74903  0.70414  0.13939  Biso   1.000  He
  He666    1.0000 0.76466  0.73519  0.14005  Biso   1.000  He
  Ne666    1.0000 0.79774  0.72986  0.14148  Biso   1.000  Ne
  Ne667    1.0000 0.24971  0.70944  0.66278  Biso   1.000  Ne
  He667    1.0000 0.23049  0.69730  0.68687  Biso   1.000  He
  He668    1.0000 0.22582  0.71862  0.71071  Biso   1.000  He
  Ne668    1.0000 0.20516  0.71217  0.73442  Biso   1.000  Ne
  Ne669    1.0000 0.24978  0.89119  0.70241  Biso   1.000  Ne
  He669    1.0000 0.23675  0.91316  0.68100  Biso   1.000  He
  He670    1.0000 0.20250  0.91581  0.68554  Biso   1.000  He
  Ne670    1.0000 0.18732  0.93875  0.66614  Biso   1.000  Ne
  Ne671    1.0000 0.12964  0.01039  0.54907  Biso   1.000  Ne
  He671    1.0000 0.11923  0.98657  0.57205  Biso   1.000  He
  He672    1.0000 0.08761  0.98501  0.58228  Biso   1.000  He
  Ne672    1.0000 0.07859  0.96622  0.60830  Biso   1.000  Ne
  Ne673    1.0000 0.07845  0.50598  0.46052  Biso   1.000  Ne
  He673    1.0000 0.04726  0.49484  0.46156  Biso   1.000  He
  He674    1.0000 0.03233  0.49174  0.43088  Biso   1.000  He
  Ne674    1.0000 0.00173  0.47968  0.43042  Biso   1.000  Ne
  Ne675    1.0000 0.31458  0.83427  0.28070  Biso   1.000  Ne
  He675    1.0000 0.32567  0.86758  0.27474  Biso   1.000  He
  He676    1.0000 0.30361  0.88926  0.26138  Biso   1.000  He
  Ne676    1.0000 0.31936  0.91783  0.25309  Biso   1.000  Ne
  Ne677    1.0000 0.09690  0.38884  0.61925  Biso   1.000  Ne
  He677    1.0000 0.11120  0.36304  0.63241  Biso   1.000  He
  He678    1.0000 0.11956  0.33809  0.61274  Biso   1.000  He
  Ne678    1.0000 0.14351  0.31969  0.63055  Biso   1.000  Ne
  Ne679    1.0000 0.14623  0.40880  0.26931  Biso   1.000  Ne
  He679    1.0000 0.16721  0.41142  0.24231  Biso   1.000  He
  He680    1.0000 0.18865  0.43610  0.24214  Biso   1.000  He
  Ne680    1.0000 0.21019  0.43903  0.21636  Biso   1.000  Ne
  Ne681    1.0000 0.57167  0.32264  0.10117  Biso   1.000  Ne
  He681    1.0000 0.57869  0.29329  0.10725  Biso   1.000  He
  He682    1.0000 0.60757  0.29198  0.12441  Biso   1.000  He
  Ne682    1.0000 0.62003  0.26087  0.12978  Biso   1.000  Ne
  Ne683    1.0000 0.57177  0.05408  0.42868  Biso   1.000  Ne
  He683    1.0000 0.57537  0.08733  0.42371  Biso   1.000  He
  He684    1.0000 0.58425  0.09409  0.39231  Biso   1.000  He
  Ne684    1.0000 0.58568  0.12692  0.38703  Biso   1.000  Ne
  Ne685    1.0000 0.86961  0.89143  0.58401  Biso   1.000  Ne
  He685    1.0000 0.83756  0.88884  0.57760  Biso   1.000  He
  He686    1.0000 0.82871  0.90625  0.55128  Biso   1.000  He
  Ne686    1.0000 0.79700  0.90629  0.54674  Biso   1.000  Ne
  Ne687    1.0000 0.92744  0.78167  0.56195  Biso   1.000  Ne
  He687    1.0000 0.94785  0.79117  0.58368  Biso   1.000  He
  He688    1.0000 0.93228  0.80132  0.60942  Biso   1.000  He
  Ne688    1.0000 0.95241  0.81045  0.63647  Biso   1.000  Ne
  Ne689    1.0000 0.66996  0.40665  0.79845  Biso   1.000  Ne
  He689    1.0000 0.67024  0.37505  0.80921  Biso   1.000  He
  He690    1.0000 0.70020  0.36633  0.81236  Biso   1.000  He
  Ne690    1.0000 0.69940  0.33532  0.82376  Biso   1.000  Ne
  Ne691    1.0000 0.68202  0.46309  0.55854  Biso   1.000  Ne
  He691    1.0000 0.70077  0.47400  0.53175  Biso   1.000  He
  He692    1.0000 0.70956  0.50659  0.53138  Biso   1.000  He
  Ne692    1.0000 0.72315  0.51985  0.50395  Biso   1.000  Ne
  Ne693    1.0000 0.81212  0.38210  0.95339  Biso   1.000  Ne
  He693    1.0000 0.81293  0.35205  0.96785  Biso   1.000  He
  He694    1.0000 0.84009  0.33566  0.95774  Biso   1.000  He
  Ne694    1.0000 0.84572  0.30955  0.97869  Biso   1.000  Ne
  Ne695    1.0000 0.13133  0.20897  0.32062  Biso   1.000  Ne
  He695    1.0000 0.11681  0.23203  0.33918  Biso   1.000  He
  He696    1.0000 0.09824  0.21622  0.36130  Biso   1.000  He
  Ne696    1.0000 0.08127  0.23906  0.37950  Biso   1.000  Ne
  Ne697    1.0000 0.69217  0.88011  0.14053  Biso   1.000  Ne
  He697    1.0000 0.71405  0.90074  0.15415  Biso   1.000  He
  He698    1.0000 0.74583  0.89219  0.14447  Biso   1.000  He
  Ne698    1.0000 0.76838  0.91413  0.15581  Biso   1.000  Ne
  Ne699    1.0000 0.00807  0.79853  0.34760  Biso   1.000  Ne
  He699    1.0000 0.97974  0.79172  0.35723  Biso   1.000  He
  He700    1.0000 0.97774  0.78870  0.39081  Biso   1.000  He
  Ne700    1.0000 0.94855  0.77329  0.40094  Biso   1.000  Ne
  Ne701    1.0000 0.75771  0.75565  0.28238  Biso   1.000  Ne
  He701    1.0000 0.77627  0.75983  0.25301  Biso   1.000  He
  He702    1.0000 0.76223  0.78270  0.22837  Biso   1.000  He
  Ne702    1.0000 0.77468  0.78358  0.19829  Biso   1.000  Ne
  Ne703    1.0000 0.40050  0.19611  0.93552  Biso   1.000  Ne
  He703    1.0000 0.39988  0.18561  0.96765  Biso   1.000  He
  He704    1.0000 0.43103  0.18528  0.97988  Biso   1.000  He
  Ne704    1.0000 0.43552  0.20533  0.00509  Biso   1.000  Ne
  Ne705    1.0000 0.71517  0.03075  0.71213  Biso   1.000  Ne
  He705    1.0000 0.74186  0.03742  0.69780  Biso   1.000  He
  He706    1.0000 0.74568  0.06673  0.68235  Biso   1.000  He
  Ne706    1.0000 0.77501  0.07048  0.67062  Biso   1.000  Ne
  Ne707    1.0000 0.90575  0.21900  0.30420  Biso   1.000  Ne
  He707    1.0000 0.91813  0.24381  0.28691  Biso   1.000  He
  He708    1.0000 0.90593  0.27136  0.29978  Biso   1.000  He
  Ne708    1.0000 0.92016  0.29690  0.28391  Biso   1.000  Ne
  Ne709    1.0000 0.81448  0.43239  0.02536  Biso   1.000  Ne
  He709    1.0000 0.79881  0.44995  0.04883  Biso   1.000  He
  He710    1.0000 0.77810  0.43117  0.06791  Biso   1.000  He
  Ne710    1.0000 0.76301  0.44938  0.09254  Biso   1.000  Ne
  Ne711    1.0000 0.62869  0.26813  0.48880  Biso   1.000  Ne
  He711    1.0000 0.63771  0.28016  0.45971  Biso   1.000  He
  He712    1.0000 0.67097  0.27857  0.45541  Biso   1.000  He
  Ne712    1.0000 0.67772  0.29260  0.42702  Biso   1.000  Ne
  Ne713    1.0000 0.20195  0.63052  0.06790  Biso   1.000  Ne
  He713    1.0000 0.18261  0.63218  0.09354  Biso   1.000  He
  He714    1.0000 0.15954  0.60733  0.09539  Biso   1.000  He
  Ne714    1.0000 0.13842  0.60879  0.12017  Biso   1.000  Ne
  Ne715    1.0000 0.59727  0.22829  0.21257  Biso   1.000  Ne
  He715    1.0000 0.60514  0.24084  0.24129  Biso   1.000  He
  He716    1.0000 0.63913  0.24368  0.24427  Biso   1.000  He
  Ne716    1.0000 0.64874  0.26328  0.26842  Biso   1.000  Ne
  Ne717    1.0000 0.69591  0.80848  0.13202  Biso   1.000  Ne
  He717    1.0000 0.67384  0.79556  0.10807  Biso   1.000  He
  He718    1.0000 0.68799  0.80098  0.07599  Biso   1.000  He
  Ne718    1.0000 0.66479  0.79550  0.05109  Biso   1.000  Ne
  Ne719    1.0000 0.84507  0.19715  0.63516  Biso   1.000  Ne
  He719    1.0000 0.87234  0.20616  0.61765  Biso   1.000  He
  He720    1.0000 0.86687  0.21570  0.58633  Biso   1.000  He
  Ne720    1.0000 0.89523  0.22449  0.56775  Biso   1.000  Ne
  Ne721    1.0000 0.68093  0.43035  0.28513  Biso   1.000  Ne
  He721    1.0000 0.66412  0.44777  0.30490  Biso   1.000  He
  He722    1.0000 0.63139  0.43674  0.30381  Biso   1.000  He
  Ne722    1.0000 0.61029  0.44965  0.32469  Biso   1.000  Ne
  Ne723    1.0000 0.67473  0.60422  0.65992  Biso   1.000  Ne
  He723    1.0000 0.64839  0.62435  0.65780  Biso   1.000  He
  He724    1.0000 0.64540  0.62944  0.62557  Biso   1.000  He
  Ne724    1.0000 0.62510  0.65632  0.61709  Biso   1.000  Ne
  Ne725    1.0000 0.52822  0.97621  0.24144  Biso   1.000  Ne
  He725    1.0000 0.51966  0.00415  0.22344  Biso   1.000  He
  He726    1.0000 0.50481  0.99701  0.19212  Biso   1.000  He
  Ne726    1.0000 0.49713  0.02677  0.18001  Biso   1.000  Ne
  Ne727    1.0000 0.60470  0.01959  0.91809  Biso   1.000  Ne
  He727    1.0000 0.58139  0.04187  0.91709  Biso   1.000  He
  He728    1.0000 0.58630  0.06250  0.94257  Biso   1.000  He
  Ne728    1.0000 0.56464  0.08636  0.94731  Biso   1.000  Ne
  Ne729    1.0000 0.87359  0.88525  0.79827  Biso   1.000  Ne
  He729    1.0000 0.88959  0.89973  0.77552  Biso   1.000  He
  He730    1.0000 0.91837  0.88382  0.77000  Biso   1.000  He
  Ne730    1.0000 0.93346  0.89924  0.74316  Biso   1.000  Ne
  Ne731    1.0000 0.32222  0.20882  0.73850  Biso   1.000  Ne
  He731    1.0000 0.35240  0.20108  0.74912  Biso   1.000  He
  He732    1.0000 0.37600  0.19287  0.72501  Biso   1.000  He
  Ne732    1.0000 0.40224  0.18207  0.73905  Biso   1.000  Ne
  Ne733    1.0000 0.84077  0.09329  0.08729  Biso   1.000  Ne
  He733    1.0000 0.86822  0.10333  0.10246  Biso   1.000  He
  He734    1.0000 0.89320  0.08139  0.10643  Biso   1.000  He
  Ne734    1.0000 0.92126  0.09385  0.11890  Biso   1.000  Ne
  Ne735    1.0000 0.79695  0.56384  0.09020  Biso   1.000  Ne
  He735    1.0000 0.79728  0.59677  0.08050  Biso   1.000  He
  He736    1.0000 0.77902  0.61602  0.09867  Biso   1.000  He
  Ne736    1.0000 0.77528  0.64612  0.08615  Biso   1.000  Ne
  Ne737    1.0000 0.09067  0.17282  0.69893  Biso   1.000  Ne
  He737    1.0000 0.06925  0.14507  0.69366  Biso   1.000  He
  He738    1.0000 0.08220  0.12344  0.67481  Biso   1.000  He
  Ne738    1.0000 0.06572  0.09456  0.67146  Biso   1.000  Ne
  Ne739    1.0000 0.22576  0.85750  0.29332  Biso   1.000  Ne
  He739    1.0000 0.20859  0.83271  0.28409  Biso   1.000  He
  He740    1.0000 0.21776  0.82462  0.25161  Biso   1.000  He
  Ne740    1.0000 0.20227  0.79783  0.23913  Biso   1.000  Ne
  Ne741    1.0000 0.55286  0.89772  0.96151  Biso   1.000  Ne
  He741    1.0000 0.54682  0.89737  0.99551  Biso   1.000  He
  He742    1.0000 0.52047  0.87811  0.00396  Biso   1.000  He
  Ne742    1.0000 0.51802  0.87106  0.03519  Biso   1.000  Ne
  Ne743    1.0000 0.97032  0.67375  0.17517  Biso   1.000  Ne
  He743    1.0000 0.94284  0.65663  0.18470  Biso   1.000  He
  He744    1.0000 0.94463  0.63916  0.21146  Biso   1.000  He
  Ne744    1.0000 0.91498  0.62893  0.22362  Biso   1.000  Ne
  Ne745    1.0000 0.82907  0.57960  0.27668  Biso   1.000  Ne
  He745    1.0000 0.81849  0.59494  0.30849  Biso   1.000  He
  He746    1.0000 0.78942  0.58376  0.32540  Biso   1.000  He
  Ne746    1.0000 0.76221  0.59323  0.31207  Biso   1.000  Ne
  Ne747    1.0000 0.29519  0.76514  0.39274  Biso   1.000  Ne
  He747    1.0000 0.31341  0.73575  0.38518  Biso   1.000  He
  He748    1.0000 0.30877  0.72787  0.35300  Biso   1.000  He
  Ne748    1.0000 0.31762  0.69854  0.34364  Biso   1.000  Ne
  Ne749    1.0000 0.18250  0.40242  0.59069  Biso   1.000  Ne
  He749    1.0000 0.19914  0.41374  0.61694  Biso   1.000  He
  He750    1.0000 0.22917  0.42138  0.61037  Biso   1.000  He
  Ne750    1.0000 0.24755  0.42763  0.63862  Biso   1.000  Ne
  Ne751    1.0000 0.89329  0.30567  0.59444  Biso   1.000  Ne
  He751    1.0000 0.91140  0.33088  0.59703  Biso   1.000  He
  He752    1.0000 0.89262  0.35841  0.61053  Biso   1.000  He
  Ne752    1.0000 0.91229  0.38606  0.61578  Biso   1.000  Ne
  Ne753    1.0000 0.32173  0.23909  0.62875  Biso   1.000  Ne
  He753    1.0000 0.32549  0.25220  0.65895  Biso   1.000  He
  He754    1.0000 0.31852  0.28554  0.65976  Biso   1.000  He
  Ne754    1.0000 0.32910  0.30358  0.68509  Biso   1.000  Ne
  Ne755    1.0000 0.19657  0.52709  0.01721  Biso   1.000  Ne
  He755    1.0000 0.18452  0.49913  0.00814  Biso   1.000  He
  He756    1.0000 0.18816  0.49251  0.97366  Biso   1.000  He
  Ne756    1.0000 0.17592  0.46219  0.96434  Biso   1.000  Ne
  Ne757    1.0000 0.06329  0.78666  0.46808  Biso   1.000  Ne
  He757    1.0000 0.03166  0.77928  0.46378  Biso   1.000  He
  He758    1.0000 0.01123  0.79936  0.48084  Biso   1.000  He
  Ne758    1.0000 0.97657  0.79052  0.47897  Biso   1.000  Ne
  Ne759    1.0000 0.39458  0.54094  0.75185  Biso   1.000  Ne
  He759    1.0000 0.38219  0.54682  0.78081  Biso   1.000  He
  He760    1.0000 0.40310  0.56299  0.79952  Biso   1.000  He
  Ne760    1.0000 0.39444  0.56871  0.83362  Biso   1.000  Ne
  Ne761    1.0000 0.72127  0.67773  0.56231  Biso   1.000  Ne
  He761    1.0000 0.70830  0.70890  0.57047  Biso   1.000  He
  He762    1.0000 0.68198  0.71650  0.55030  Biso   1.000  He
  Ne762    1.0000 0.66740  0.74258  0.56495  Biso   1.000  Ne
  Ne763    1.0000 0.53350  0.77637  0.90389  Biso   1.000  Ne
  He763    1.0000 0.54519  0.76739  0.93539  Biso   1.000  He
  He764    1.0000 0.56235  0.79601  0.94588  Biso   1.000  He
  Ne764    1.0000 0.57962  0.79064  0.97456  Biso   1.000  Ne
  Ne765    1.0000 0.26620  0.40676  0.12852  Biso   1.000  Ne
  He765    1.0000 0.29520  0.40780  0.14357  Biso   1.000  He
  He766    1.0000 0.31955  0.40301  0.12156  Biso   1.000  He
  Ne766    1.0000 0.34814  0.39579  0.13564  Biso   1.000  Ne
  Ne767    1.0000 0.61645  0.27937  0.94808  Biso   1.000  Ne
  He767    1.0000 0.60688  0.30444  0.92821  Biso   1.000  He
  He768    1.0000 0.59234  0.32931  0.94433  Biso   1.000  He
  Ne768    1.0000 0.55973  0.32380  0.94898  Biso   1.000  Ne
  Ne769    1.0000 0.15544  0.06432  0.72320  Biso   1.000  Ne
  He769    1.0000 0.15663  0.09435  0.73210  Biso   1.000  He
  He770    1.0000 0.14134  0.10275  0.75971  Biso   1.000  He
  Ne770    1.0000 0.13887  0.13563  0.76538  Biso   1.000  Ne
  Ne771    1.0000 0.23724  0.56424  0.82259  Biso   1.000  Ne
  He771    1.0000 0.23785  0.54921  0.85081  Biso   1.000  He
  He772    1.0000 0.20859  0.54841  0.86410  Biso   1.000  He
  Ne772    1.0000 0.19898  0.53028  0.89105  Biso   1.000  Ne
  Ne773    1.0000 0.28296  0.70906  0.85891  Biso   1.000  Ne
  He773    1.0000 0.28831  0.71654  0.82377  Biso   1.000  He
  He774    1.0000 0.27223  0.74248  0.81608  Biso   1.000  He
  Ne774    1.0000 0.27423  0.75126  0.78401  Biso   1.000  Ne
  Ne775    1.0000 0.92169  0.70187  0.43568  Biso   1.000  Ne
  He775    1.0000 0.89293  0.68181  0.44243  Biso   1.000  He
  He776    1.0000 0.90080  0.64720  0.44048  Biso   1.000  He
  Ne776    1.0000 0.89545  0.63222  0.41292  Biso   1.000  Ne
  Ne777    1.0000 0.42685  0.15946  0.32753  Biso   1.000  Ne
  He777    1.0000 0.40385  0.17341  0.30907  Biso   1.000  He
  He778    1.0000 0.38978  0.19759  0.32384  Biso   1.000  He
  Ne778    1.0000 0.37005  0.21131  0.30214  Biso   1.000  Ne
  Ne779    1.0000 0.92841  0.60696  0.58839  Biso   1.000  Ne
  He779    1.0000 0.94388  0.58004  0.58387  Biso   1.000  He
  He780    1.0000 0.92803  0.55176  0.58636  Biso   1.000  He
  Ne780    1.0000 0.94297  0.52545  0.57816  Biso   1.000  Ne
  Ne781    1.0000 0.76049  0.17486  0.72416  Biso   1.000  Ne
  He781    1.0000 0.76663  0.20593  0.71228  Biso   1.000  He
  He782    1.0000 0.74531  0.21986  0.69485  Biso   1.000  He
  Ne782    1.0000 0.75142  0.24967  0.68224  Biso   1.000  Ne
  Ne783    1.0000 0.97528  0.97261  0.73529  Biso   1.000  Ne
  He783    1.0000 0.94965  0.99110  0.73125  Biso   1.000  He
  He784    1.0000 0.95345  0.02256  0.74065  Biso   1.000  He
  Ne784    1.0000 0.92833  0.04182  0.73375  Biso   1.000  Ne
  Ne785    1.0000 0.39566  0.26190  0.10737  Biso   1.000  Ne
  He785    1.0000 0.41194  0.28833  0.11093  Biso   1.000  He
  He786    1.0000 0.39542  0.31301  0.12193  Biso   1.000  He
  Ne786    1.0000 0.40938  0.34053  0.12387  Biso   1.000  Ne
  Ne787    1.0000 0.62341  0.19211  0.99119  Biso   1.000  Ne
  He787    1.0000 0.62989  0.17058  0.01501  Biso   1.000  He
  He788    1.0000 0.62296  0.13867  0.00635  Biso   1.000  He
  Ne788    1.0000 0.62593  0.11432  0.03041  Biso   1.000  Ne
  Ne789    1.0000 0.65664  0.42223  0.47558  Biso   1.000  Ne
  He789    1.0000 0.63233  0.41703  0.45509  Biso   1.000  He
  He790    1.0000 0.60469  0.40457  0.47132  Biso   1.000  He
  Ne790    1.0000 0.57753  0.40108  0.45307  Biso   1.000  Ne
  Ne791    1.0000 0.06611  0.15939  0.11526  Biso   1.000  Ne
  He791    1.0000 0.08791  0.17402  0.13378  Biso   1.000  He
  He792    1.0000 0.07608  0.17358  0.16595  Biso   1.000  He
  Ne792    1.0000 0.09342  0.19292  0.18668  Biso   1.000  Ne
  Ne793    1.0000 0.43395  0.24735  0.58111  Biso   1.000  Ne
  He793    1.0000 0.41188  0.26857  0.58927  Biso   1.000  He
  He794    1.0000 0.38651  0.26716  0.56545  Biso   1.000  He
  Ne794    1.0000 0.36184  0.29052  0.57103  Biso   1.000  Ne
  Ne795    1.0000 0.14355  0.24251  0.22457  Biso   1.000  Ne
  He795    1.0000 0.16644  0.22616  0.20810  Biso   1.000  He
  He796    1.0000 0.17159  0.19589  0.22051  Biso   1.000  He
  Ne796    1.0000 0.19086  0.17439  0.20568  Biso   1.000  Ne
  Ne797    1.0000 0.57162  0.69626  0.87081  Biso   1.000  Ne
  He797    1.0000 0.59985  0.71139  0.88135  Biso   1.000  He
  He798    1.0000 0.60908  0.71031  0.91307  Biso   1.000  He
  Ne798    1.0000 0.63573  0.72818  0.92398  Biso   1.000  Ne
  Ne799    1.0000 0.59909  0.90762  0.26290  Biso   1.000  Ne
  He799    1.0000 0.60111  0.89588  0.29341  Biso   1.000  He
  He800    1.0000 0.59450  0.86302  0.30015  Biso   1.000  He
  Ne800    1.0000 0.60353  0.85288  0.32963  Biso   1.000  Ne
