data_image0
_cell_length_a       47.1475
_cell_length_b       46.7315
_cell_length_c       46.6227
_cell_angle_alpha    90
_cell_angle_beta     90
_cell_angle_gamma    90

_symmetry_space_group_name_H-M    "P 1"
_symmetry_int_tables_number       1

loop_
  _symmetry_equiv_pos_as_xyz
  'x, y, z'

loop_
  _atom_site_label
  _atom_site_occupancy
  _atom_site_fract_x
  _atom_site_fract_y
  _atom_site_fract_z
  _atom_site_thermal_displace_type
  _atom_site_B_iso_or_equiv
  _atom_site_type_symbol
  Ne1      1.0000 0.58439  0.59085  0.82191  Biso   1.000  Ne
  He1      1.0000 0.60419  0.56663  0.83749  Biso   1.000  He
  He2      1.0000 0.62435  0.57403  0.86454  Biso   1.000  He
  Ne2      1.0000 0.63817  0.54498  0.87643  Biso   1.000  Ne
  Ne3      1.0000 0.78213  0.06903  0.61895  Biso   1.000  Ne
  He3      1.0000 0.75129  0.07304  0.62116  Biso   1.000  He
  He4      1.0000 0.73705  0.05154  0.64379  Biso   1.000  He
  Ne4      1.0000 0.70222  0.05047  0.63657  Biso   1.000  Ne
  Ne5      1.0000 0.15412  0.22474  0.82238  Biso   1.000  Ne
  He5      1.0000 0.12239  0.23286  0.81532  Biso   1.000  He
  He6      1.0000 0.10220  0.21084  0.80654  Biso   1.000  He
  Ne6      1.0000 0.07379  0.22781  0.79514  Biso   1.000  Ne
  Ne7      1.0000 0.59466  0.22554  0.06834  Biso   1.000  Ne
  He7      1.0000 0.62471  0.23897  0.06123  Biso   1.000  He
  He8      1.0000 0.64996  0.21717  0.07254  Biso   1.000  He
  Ne8      1.0000 0.67930  0.23141  0.06143  Biso   1.000  Ne
  Ne9      1.0000 0.17118  0.30793  0.24503  Biso   1.000  Ne
  He9      1.0000 0.18525  0.33831  0.23967  Biso   1.000  He
  He10     1.0000 0.21749  0.33678  0.23279  Biso   1.000  He
  Ne10     1.0000 0.23025  0.36574  0.22100  Biso   1.000  Ne
  Ne11     1.0000 0.36622  0.36662  0.65864  Biso   1.000  Ne
  He11     1.0000 0.33638  0.37053  0.64406  Biso   1.000  He
  He12     1.0000 0.31299  0.35611  0.66213  Biso   1.000  He
  Ne12     1.0000 0.28350  0.36029  0.64627  Biso   1.000  Ne
  Ne13     1.0000 0.23277  0.18642  0.37820  Biso   1.000  Ne
  He13     1.0000 0.21158  0.18355  0.40256  Biso   1.000  He
  He14     1.0000 0.19004  0.20840  0.40697  Biso   1.000  He
  Ne14     1.0000 0.16651  0.20513  0.43003  Biso   1.000  Ne
  Ne15     1.0000 0.92675  0.74652  0.30784  Biso   1.000  Ne
  He15     1.0000 0.95398  0.75779  0.32428  Biso   1.000  He
  He16     1.0000 0.96364  0.78933  0.31323  Biso   1.000  He
  Ne16     1.0000 0.98776  0.80143  0.33057  Biso   1.000  Ne
  Ne17     1.0000 0.37995  0.78317  0.76638  Biso   1.000  Ne
  He17     1.0000 0.38828  0.81171  0.75778  Biso   1.000  He
  He18     1.0000 0.41830  0.82124  0.76486  Biso   1.000  He
  Ne18     1.0000 0.42557  0.85022  0.75351  Biso   1.000  Ne
  Ne19     1.0000 0.11674  0.14346  0.75318  Biso   1.000  Ne
  He19     1.0000 0.09767  0.12338  0.73186  Biso   1.000  He
  He20     1.0000 0.06778  0.13478  0.72961  Biso   1.000  He
  Ne20     1.0000 0.05199  0.12408  0.70244  Biso   1.000  Ne
  Ne21     1.0000 0.79627  0.67373  0.39017  Biso   1.000  Ne
  He21     1.0000 0.81513  0.69247  0.40975  Biso   1.000  He
  He22     1.0000 0.79973  0.69655  0.43898  Biso   1.000  He
  Ne22     1.0000 0.81528  0.71418  0.46014  Biso   1.000  Ne
  Ne23     1.0000 0.69140  0.71276  0.25961  Biso   1.000  Ne
  He23     1.0000 0.70630  0.68832  0.27690  Biso   1.000  He
  He24     1.0000 0.71733  0.69863  0.30703  Biso   1.000  He
  Ne24     1.0000 0.72774  0.67291  0.32297  Biso   1.000  Ne
  Ne25     1.0000 0.87822  0.54563  0.37375  Biso   1.000  Ne
  He25     1.0000 0.84614  0.54821  0.36305  Biso   1.000  He
  He26     1.0000 0.83696  0.57833  0.35506  Biso   1.000  He
  Ne26     1.0000 0.80681  0.58526  0.34344  Biso   1.000  Ne
  Ne27     1.0000 0.42229  0.63364  0.86278  Biso   1.000  Ne
  He27     1.0000 0.41386  0.60344  0.85291  Biso   1.000  He
  He28     1.0000 0.42881  0.57983  0.86885  Biso   1.000  He
  Ne28     1.0000 0.42046  0.54949  0.85909  Biso   1.000  Ne
  Ne29     1.0000 0.55663  0.43282  0.93514  Biso   1.000  Ne
  He29     1.0000 0.56314  0.40359  0.92542  Biso   1.000  He
  He30     1.0000 0.55877  0.37828  0.94845  Biso   1.000  He
  Ne30     1.0000 0.56691  0.34797  0.93732  Biso   1.000  Ne
  Ne31     1.0000 0.96724  0.37320  0.52465  Biso   1.000  Ne
  He31     1.0000 0.97133  0.39307  0.49813  Biso   1.000  He
  He32     1.0000 0.96542  0.37893  0.46865  Biso   1.000  He
  Ne32     1.0000 0.97298  0.39918  0.44559  Biso   1.000  Ne
  Ne33     1.0000 0.21811  0.86150  0.07967  Biso   1.000  Ne
  He33     1.0000 0.19627  0.88758  0.07857  Biso   1.000  He
  He34     1.0000 0.16451  0.87820  0.08412  Biso   1.000  He
  Ne34     1.0000 0.15196  0.88164  0.11632  Biso   1.000  Ne
  Ne35     1.0000 0.96528  0.03443  0.10868  Biso   1.000  Ne
  He35     1.0000 0.93469  0.05009  0.10990  Biso   1.000  He
  He36     1.0000 0.93774  0.08038  0.09623  Biso   1.000  He
  Ne36     1.0000 0.90815  0.09778  0.10102  Biso   1.000  Ne
  Ne37     1.0000 0.90760  0.15159  0.79259  Biso   1.000  Ne
  He37     1.0000 0.90025  0.14121  0.82267  Biso   1.000  He
  He38     1.0000 0.89292  0.16462  0.84452  Biso   1.000  He
  Ne38     1.0000 0.88621  0.15690  0.87677  Biso   1.000  Ne
  Ne39     1.0000 0.80380  0.24572  0.26379  Biso   1.000  Ne
  He39     1.0000 0.78061  0.22713  0.24970  Biso   1.000  He
  He40     1.0000 0.79079  0.19808  0.23729  Biso   1.000  He
  Ne40     1.0000 0.76592  0.17921  0.22869  Biso   1.000  Ne
  Ne41     1.0000 0.56297  0.29255  0.28564  Biso   1.000  Ne
  He41     1.0000 0.56806  0.25884  0.28563  Biso   1.000  He
  He42     1.0000 0.60025  0.25025  0.28400  Biso   1.000  He
  Ne42     1.0000 0.60377  0.21749  0.28751  Biso   1.000  Ne
  Ne43     1.0000 0.32243  0.93129  0.19496  Biso   1.000  Ne
  He43     1.0000 0.35302  0.92315  0.20219  Biso   1.000  He
  He44     1.0000 0.36071  0.93294  0.23305  Biso   1.000  He
  Ne44     1.0000 0.39160  0.92489  0.24143  Biso   1.000  Ne
  Ne45     1.0000 0.23371  0.06060  0.80868  Biso   1.000  Ne
  He45     1.0000 0.22642  0.07495  0.77866  Biso   1.000  He
  He46     1.0000 0.24725  0.06609  0.75596  Biso   1.000  He
  Ne46     1.0000 0.23683  0.07554  0.72914  Biso   1.000  Ne
  Ne47     1.0000 0.42527  0.52745  0.00310  Biso   1.000  Ne
  He47     1.0000 0.45679  0.51946  0.99147  Biso   1.000  He
  He48     1.0000 0.46103  0.51978  0.95707  Biso   1.000  He
  Ne48     1.0000 0.49252  0.51452  0.94461  Biso   1.000  Ne
  Ne49     1.0000 0.89113  0.15790  0.18506  Biso   1.000  Ne
  He49     1.0000 0.90247  0.18650  0.17504  Biso   1.000  He
  He50     1.0000 0.89228  0.21427  0.19178  Biso   1.000  He
  Ne50     1.0000 0.90625  0.24278  0.17865  Biso   1.000  Ne
  Ne51     1.0000 0.28356  0.23878  0.42491  Biso   1.000  Ne
  He51     1.0000 0.26373  0.25915  0.44061  Biso   1.000  He
  He52     1.0000 0.23596  0.26906  0.42451  Biso   1.000  He
  Ne52     1.0000 0.21843  0.29171  0.44004  Biso   1.000  Ne
  Ne53     1.0000 0.03901  0.69614  0.94055  Biso   1.000  Ne
  He53     1.0000 0.04263  0.68892  0.97294  Biso   1.000  He
  He54     1.0000 0.02086  0.67004  0.98733  Biso   1.000  He
  Ne54     1.0000 0.03229  0.66119  0.01660  Biso   1.000  Ne
  Ne55     1.0000 0.09049  0.48024  0.54590  Biso   1.000  Ne
  He55     1.0000 0.08183  0.50574  0.52710  Biso   1.000  He
  He56     1.0000 0.04923  0.51448  0.52518  Biso   1.000  He
  Ne56     1.0000 0.04157  0.54471  0.50961  Biso   1.000  Ne
  Ne57     1.0000 0.05478  0.02333  0.12028  Biso   1.000  Ne
  He57     1.0000 0.08603  0.02726  0.11211  Biso   1.000  He
  He58     1.0000 0.09065  0.03550  0.08000  Biso   1.000  He
  Ne58     1.0000 0.12209  0.03762  0.07027  Biso   1.000  Ne
  Ne59     1.0000 0.30193  0.33779  0.44336  Biso   1.000  Ne
  He59     1.0000 0.31741  0.32207  0.46988  Biso   1.000  He
  He60     1.0000 0.33911  0.29719  0.46031  Biso   1.000  He
  Ne60     1.0000 0.35387  0.28654  0.48768  Biso   1.000  Ne
  Ne61     1.0000 0.43270  0.13110  0.63807  Biso   1.000  Ne
  He61     1.0000 0.42284  0.13026  0.66870  Biso   1.000  He
  He62     1.0000 0.41029  0.10032  0.67625  Biso   1.000  He
  Ne62     1.0000 0.40510  0.09387  0.70896  Biso   1.000  Ne
  Ne63     1.0000 0.90397  0.67362  0.20023  Biso   1.000  Ne
  He63     1.0000 0.89189  0.65888  0.17409  Biso   1.000  He
  He64     1.0000 0.89790  0.67449  0.14604  Biso   1.000  He
  Ne64     1.0000 0.90096  0.65615  0.11981  Biso   1.000  Ne
  Ne65     1.0000 0.26798  0.57189  0.08786  Biso   1.000  Ne
  He65     1.0000 0.28085  0.59492  0.10645  Biso   1.000  He
  He66     1.0000 0.31332  0.59559  0.10023  Biso   1.000  He
  Ne66     1.0000 0.33067  0.62099  0.11417  Biso   1.000  Ne
  Ne67     1.0000 0.76420  0.33350  0.80266  Biso   1.000  Ne
  He67     1.0000 0.78664  0.31643  0.78548  Biso   1.000  He
  He68     1.0000 0.78598  0.28387  0.79010  Biso   1.000  He
  Ne68     1.0000 0.81257  0.26537  0.77374  Biso   1.000  Ne
  Ne69     1.0000 0.07575  0.18759  0.63110  Biso   1.000  Ne
  He69     1.0000 0.07956  0.18415  0.59733  Biso   1.000  He
  He70     1.0000 0.05949  0.19987  0.57803  Biso   1.000  He
  Ne70     1.0000 0.05868  0.18439  0.54691  Biso   1.000  Ne
  Ne71     1.0000 0.14880  0.05477  0.77038  Biso   1.000  Ne
  He71     1.0000 0.14628  0.03277  0.74748  Biso   1.000  He
  He72     1.0000 0.11609  0.02379  0.73759  Biso   1.000  He
  Ne72     1.0000 0.12094  0.00470  0.71164  Biso   1.000  Ne
  Ne73     1.0000 0.06265  0.06788  0.29801  Biso   1.000  Ne
  He73     1.0000 0.07513  0.05036  0.27278  Biso   1.000  He
  He74     1.0000 0.10371  0.06343  0.26063  Biso   1.000  He
  Ne74     1.0000 0.11511  0.04376  0.23650  Biso   1.000  Ne
  Ne75     1.0000 0.32828  0.13881  0.39171  Biso   1.000  Ne
  He75     1.0000 0.30870  0.11492  0.39833  Biso   1.000  He
  He76     1.0000 0.30060  0.11010  0.43022  Biso   1.000  He
  Ne76     1.0000 0.28149  0.08262  0.43453  Biso   1.000  Ne
  Ne77     1.0000 0.65614  0.87560  0.62457  Biso   1.000  Ne
  He77     1.0000 0.68401  0.87482  0.60625  Biso   1.000  He
  He78     1.0000 0.70690  0.90134  0.61193  Biso   1.000  He
  Ne78     1.0000 0.73637  0.89860  0.59758  Biso   1.000  Ne
  Ne79     1.0000 0.89546  0.10810  0.32827  Biso   1.000  Ne
  He79     1.0000 0.89646  0.11363  0.29636  Biso   1.000  He
  He80     1.0000 0.92411  0.12645  0.28370  Biso   1.000  He
  Ne80     1.0000 0.92057  0.13524  0.25282  Biso   1.000  Ne
  Ne81     1.0000 0.08976  0.69894  0.05748  Biso   1.000  Ne
  He81     1.0000 0.11369  0.67748  0.06792  Biso   1.000  He
  He82     1.0000 0.13821  0.67223  0.04312  Biso   1.000  He
  Ne82     1.0000 0.13851  0.64088  0.02872  Biso   1.000  Ne
  Ne83     1.0000 0.67833  0.78057  0.80742  Biso   1.000  Ne
  He83     1.0000 0.69116  0.80958  0.80020  Biso   1.000  He
  He84     1.0000 0.72152  0.81274  0.81329  Biso   1.000  He
  Ne84     1.0000 0.73456  0.84298  0.80304  Biso   1.000  Ne
  Ne85     1.0000 0.85877  0.16181  0.10353  Biso   1.000  Ne
  He85     1.0000 0.82726  0.15485  0.11152  Biso   1.000  He
  He86     1.0000 0.82084  0.12630  0.10428  Biso   1.000  He
  Ne86     1.0000 0.78605  0.12022  0.10755  Biso   1.000  Ne
  Ne87     1.0000 0.52768  0.77859  0.05679  Biso   1.000  Ne
  He87     1.0000 0.50044  0.76209  0.05471  Biso   1.000  He
  He88     1.0000 0.48498  0.75628  0.08130  Biso   1.000  He
  Ne88     1.0000 0.45750  0.73674  0.07576  Biso   1.000  Ne
  Ne89     1.0000 0.06356  0.40177  0.54466  Biso   1.000  Ne
  He89     1.0000 0.06054  0.38933  0.57455  Biso   1.000  He
  He90     1.0000 0.08621  0.39819  0.59873  Biso   1.000  He
  Ne90     1.0000 0.07947  0.38674  0.62934  Biso   1.000  Ne
  Ne91     1.0000 0.66318  0.38883  0.84378  Biso   1.000  Ne
  He91     1.0000 0.66068  0.35770  0.83331  Biso   1.000  He
  He92     1.0000 0.67687  0.33440  0.84991  Biso   1.000  He
  Ne92     1.0000 0.67410  0.30578  0.83163  Biso   1.000  Ne
  Ne93     1.0000 0.95385  0.48929  0.43180  Biso   1.000  Ne
  He93     1.0000 0.92399  0.50722  0.43425  Biso   1.000  He
  He94     1.0000 0.91080  0.50611  0.46484  Biso   1.000  He
  Ne94     1.0000 0.88328  0.52533  0.46599  Biso   1.000  Ne
  Ne95     1.0000 0.00988  0.34472  0.23207  Biso   1.000  Ne
  He95     1.0000 0.00559  0.33080  0.20229  Biso   1.000  He
  He96     1.0000 0.00386  0.29811  0.20143  Biso   1.000  He
  Ne96     1.0000 0.00178  0.28644  0.17202  Biso   1.000  Ne
  Ne97     1.0000 0.35187  0.55234  0.81622  Biso   1.000  Ne
  He97     1.0000 0.32644  0.53959  0.83732  Biso   1.000  He
  He98     1.0000 0.29695  0.53730  0.82274  Biso   1.000  He
  Ne98     1.0000 0.27256  0.53097  0.84452  Biso   1.000  Ne
  Ne99     1.0000 0.10921  0.26303  0.20999  Biso   1.000  Ne
  He99     1.0000 0.10336  0.25212  0.24088  Biso   1.000  He
  He100    1.0000 0.09505  0.27470  0.26293  Biso   1.000  He
  Ne100    1.0000 0.09339  0.26371  0.29514  Biso   1.000  Ne
  Ne101    1.0000 0.80307  0.24146  0.14447  Biso   1.000  Ne
  He101    1.0000 0.77597  0.22281  0.13894  Biso   1.000  He
  He102    1.0000 0.77511  0.21449  0.10795  Biso   1.000  He
  Ne102    1.0000 0.75165  0.19517  0.09662  Biso   1.000  Ne
  Ne103    1.0000 0.67182  0.25139  0.89195  Biso   1.000  Ne
  He103    1.0000 0.63975  0.25275  0.89246  Biso   1.000  He
  He104    1.0000 0.62379  0.28057  0.90029  Biso   1.000  He
  Ne104    1.0000 0.59204  0.27409  0.90389  Biso   1.000  Ne
  Ne105    1.0000 0.56238  0.60012  0.93549  Biso   1.000  Ne
  He105    1.0000 0.58504  0.57252  0.93859  Biso   1.000  He
  He106    1.0000 0.57254  0.54487  0.94957  Biso   1.000  He
  Ne106    1.0000 0.59145  0.51923  0.94937  Biso   1.000  Ne
  Ne107    1.0000 0.60198  0.67291  0.32853  Biso   1.000  Ne
  He107    1.0000 0.57619  0.65859  0.31345  Biso   1.000  He
  He108    1.0000 0.58625  0.63538  0.29070  Biso   1.000  He
  Ne108    1.0000 0.56190  0.62049  0.27377  Biso   1.000  Ne
  Ne109    1.0000 0.21332  0.66918  0.10823  Biso   1.000  Ne
  He109    1.0000 0.23906  0.68237  0.09444  Biso   1.000  He
  He110    1.0000 0.26576  0.67788  0.11110  Biso   1.000  He
  Ne110    1.0000 0.29160  0.69323  0.10007  Biso   1.000  Ne
  Ne111    1.0000 0.11242  0.56259  0.71027  Biso   1.000  Ne
  He111    1.0000 0.10204  0.53968  0.72893  Biso   1.000  He
  He112    1.0000 0.12618  0.53162  0.74858  Biso   1.000  He
  Ne112    1.0000 0.11988  0.50556  0.76493  Biso   1.000  Ne
  Ne113    1.0000 0.86454  0.39283  0.41800  Biso   1.000  Ne
  He113    1.0000 0.83819  0.37285  0.42866  Biso   1.000  He
  He114    1.0000 0.80627  0.38284  0.42289  Biso   1.000  He
  Ne114    1.0000 0.78439  0.36006  0.43653  Biso   1.000  Ne
  Ne115    1.0000 0.01741  0.49598  0.59246  Biso   1.000  Ne
  He115    1.0000 0.01781  0.46396  0.58900  Biso   1.000  He
  He116    1.0000 0.98670  0.45281  0.59657  Biso   1.000  He
  Ne116    1.0000 0.98623  0.41837  0.60067  Biso   1.000  Ne
  Ne117    1.0000 0.45851  0.51166  0.10147  Biso   1.000  Ne
  He117    1.0000 0.44093  0.53561  0.08611  Biso   1.000  He
  He118    1.0000 0.43726  0.56410  0.10460  Biso   1.000  He
  Ne118    1.0000 0.42320  0.58942  0.08815  Biso   1.000  Ne
  Ne119    1.0000 0.98444  0.92998  0.00303  Biso   1.000  Ne
  He119    1.0000 0.95609  0.92775  0.02080  Biso   1.000  He
  He120    1.0000 0.94912  0.95747  0.03276  Biso   1.000  He
  Ne120    1.0000 0.91933  0.95875  0.04855  Biso   1.000  Ne
  Ne121    1.0000 0.88860  0.12757  0.94327  Biso   1.000  Ne
  He121    1.0000 0.89722  0.09588  0.93438  Biso   1.000  He
  He122    1.0000 0.87250  0.07735  0.93522  Biso   1.000  He
  Ne122    1.0000 0.87967  0.04988  0.92115  Biso   1.000  Ne
  Ne123    1.0000 0.22125  0.05806  0.93828  Biso   1.000  Ne
  He123    1.0000 0.22576  0.09062  0.93842  Biso   1.000  He
  He124    1.0000 0.19838  0.11116  0.93691  Biso   1.000  He
  Ne124    1.0000 0.20971  0.13962  0.92657  Biso   1.000  Ne
  Ne125    1.0000 0.95753  0.25359  0.07969  Biso   1.000  Ne
  He125    1.0000 0.92606  0.24781  0.08833  Biso   1.000  He
  He126    1.0000 0.90522  0.25072  0.06251  Biso   1.000  He
  Ne126    1.0000 0.87263  0.24310  0.06917  Biso   1.000  Ne
  Ne127    1.0000 0.33615  0.10696  0.84560  Biso   1.000  Ne
  He127    1.0000 0.32792  0.07964  0.86249  Biso   1.000  He
  He128    1.0000 0.30040  0.08173  0.88221  Biso   1.000  He
  Ne128    1.0000 0.29914  0.05237  0.89983  Biso   1.000  Ne
  Ne129    1.0000 0.09911  0.63261  0.43187  Biso   1.000  Ne
  He129    1.0000 0.10432  0.63074  0.39852  Biso   1.000  He
  He130    1.0000 0.07543  0.63806  0.38378  Biso   1.000  He
  Ne130    1.0000 0.07434  0.63155  0.35117  Biso   1.000  Ne
  Ne131    1.0000 0.90262  0.39892  0.56835  Biso   1.000  Ne
  He131    1.0000 0.90131  0.36562  0.57977  Biso   1.000  He
  He132    1.0000 0.93105  0.35486  0.59583  Biso   1.000  He
  Ne132    1.0000 0.92701  0.32356  0.60239  Biso   1.000  Ne
  Ne133    1.0000 0.04369  0.80968  0.72762  Biso   1.000  Ne
  He133    1.0000 0.04056  0.77961  0.71034  Biso   1.000  He
  He134    1.0000 0.06032  0.75521  0.72098  Biso   1.000  He
  Ne134    1.0000 0.05718  0.72322  0.70824  Biso   1.000  Ne
  Ne135    1.0000 0.07658  0.23130  0.40817  Biso   1.000  Ne
  He135    1.0000 0.07097  0.20608  0.39116  Biso   1.000  He
  He136    1.0000 0.09823  0.19659  0.36888  Biso   1.000  He
  Ne136    1.0000 0.09138  0.17454  0.34453  Biso   1.000  Ne
  Ne137    1.0000 0.66523  0.04326  0.45692  Biso   1.000  Ne
  He137    1.0000 0.67720  0.05921  0.43007  Biso   1.000  He
  He138    1.0000 0.68372  0.04176  0.40571  Biso   1.000  He
  Ne138    1.0000 0.69268  0.05706  0.37964  Biso   1.000  Ne
  Ne139    1.0000 0.04182  0.91179  0.10988  Biso   1.000  Ne
  He139    1.0000 0.03617  0.93547  0.08937  Biso   1.000  He
  He140    1.0000 0.06080  0.94832  0.07022  Biso   1.000  He
  Ne140    1.0000 0.04950  0.95492  0.04090  Biso   1.000  Ne
  Ne141    1.0000 0.33936  0.25998  0.18259  Biso   1.000  Ne
  He141    1.0000 0.32359  0.25115  0.15392  Biso   1.000  He
  He142    1.0000 0.31216  0.27881  0.13864  Biso   1.000  He
  Ne142    1.0000 0.30009  0.27413  0.10815  Biso   1.000  Ne
  Ne143    1.0000 0.32110  0.80488  0.61935  Biso   1.000  Ne
  He143    1.0000 0.33619  0.83060  0.60391  Biso   1.000  He
  He144    1.0000 0.31557  0.84373  0.58135  Biso   1.000  He
  Ne144    1.0000 0.32917  0.87199  0.56826  Biso   1.000  Ne
  Ne145    1.0000 0.77992  0.51179  0.06652  Biso   1.000  Ne
  He145    1.0000 0.78554  0.54328  0.05583  Biso   1.000  He
  He146    1.0000 0.76433  0.56531  0.07159  Biso   1.000  He
  Ne146    1.0000 0.77382  0.59784  0.06821  Biso   1.000  Ne
  Ne147    1.0000 0.61813  0.88005  0.40254  Biso   1.000  Ne
  He147    1.0000 0.64033  0.89155  0.42407  Biso   1.000  He
  He148    1.0000 0.66138  0.87035  0.43256  Biso   1.000  He
  Ne148    1.0000 0.68520  0.88672  0.45045  Biso   1.000  Ne
  Ne149    1.0000 0.41634  0.88941  0.62111  Biso   1.000  Ne
  He149    1.0000 0.40013  0.90612  0.59825  Biso   1.000  He
  He150    1.0000 0.41139  0.90287  0.56799  Biso   1.000  He
  Ne150    1.0000 0.40019  0.92334  0.54522  Biso   1.000  Ne
  Ne151    1.0000 0.80880  0.72493  0.20090  Biso   1.000  Ne
  He151    1.0000 0.80137  0.69674  0.21169  Biso   1.000  He
  He152    1.0000 0.79938  0.67393  0.18629  Biso   1.000  He
  Ne152    1.0000 0.78846  0.64348  0.19568  Biso   1.000  Ne
  Ne153    1.0000 0.38907  0.26157  0.24977  Biso   1.000  Ne
  He153    1.0000 0.40310  0.28062  0.22690  Biso   1.000  He
  He154    1.0000 0.42419  0.30484  0.24104  Biso   1.000  He
  Ne154    1.0000 0.43696  0.32579  0.21815  Biso   1.000  Ne
  Ne155    1.0000 0.09551  0.67853  0.61896  Biso   1.000  Ne
  He155    1.0000 0.10799  0.68024  0.65000  Biso   1.000  He
  He156    1.0000 0.11761  0.64929  0.66333  Biso   1.000  He
  Ne156    1.0000 0.12457  0.64846  0.69603  Biso   1.000  Ne
  Ne157    1.0000 0.03207  0.92122  0.93853  Biso   1.000  Ne
  He157    1.0000 0.04373  0.89246  0.94876  Biso   1.000  He
  He158    1.0000 0.07655  0.89131  0.94520  Biso   1.000  He
  Ne158    1.0000 0.08655  0.86041  0.94797  Biso   1.000  Ne
  Ne159    1.0000 0.64770  0.05084  0.70126  Biso   1.000  Ne
  He159    1.0000 0.62795  0.07128  0.68481  Biso   1.000  He
  He160    1.0000 0.59840  0.05673  0.67545  Biso   1.000  He
  Ne160    1.0000 0.57682  0.07673  0.65828  Biso   1.000  Ne
  Ne161    1.0000 0.38289  0.39726  0.11969  Biso   1.000  Ne
  He161    1.0000 0.41239  0.38922  0.10756  Biso   1.000  He
  He162    1.0000 0.40857  0.37321  0.07670  Biso   1.000  He
  Ne162    1.0000 0.43659  0.35808  0.06624  Biso   1.000  Ne
  Ne163    1.0000 0.47181  0.02074  0.44913  Biso   1.000  Ne
  He163    1.0000 0.50062  0.00944  0.43782  Biso   1.000  He
  He164    1.0000 0.52307  0.00618  0.46313  Biso   1.000  He
  Ne164    1.0000 0.55225  0.99199  0.45326  Biso   1.000  Ne
  Ne165    1.0000 0.21250  0.85130  0.52574  Biso   1.000  Ne
  He165    1.0000 0.20932  0.88137  0.53698  Biso   1.000  He
  He166    1.0000 0.22133  0.90289  0.51753  Biso   1.000  He
  Ne166    1.0000 0.21562  0.93493  0.52828  Biso   1.000  Ne
  Ne167    1.0000 0.84685  0.68309  0.64494  Biso   1.000  Ne
  He167    1.0000 0.82498  0.67344  0.62386  Biso   1.000  He
  He168    1.0000 0.81209  0.64615  0.63371  Biso   1.000  He
  Ne168    1.0000 0.79035  0.63580  0.61332  Biso   1.000  Ne
  Ne169    1.0000 0.58108  0.72210  0.90602  Biso   1.000  Ne
  He169    1.0000 0.58752  0.71455  0.93695  Biso   1.000  He
  He170    1.0000 0.57952  0.68417  0.94621  Biso   1.000  He
  Ne170    1.0000 0.60866  0.66430  0.94458  Biso   1.000  Ne
  Ne171    1.0000 0.41859  0.83362  0.19994  Biso   1.000  Ne
  He171    1.0000 0.43357  0.81285  0.21924  Biso   1.000  He
  He172    1.0000 0.41902  0.81170  0.25039  Biso   1.000  He
  Ne172    1.0000 0.43103  0.78724  0.27063  Biso   1.000  Ne
  Ne173    1.0000 0.26756  0.87676  0.22841  Biso   1.000  Ne
  He173    1.0000 0.24611  0.86557  0.20772  Biso   1.000  He
  He174    1.0000 0.21650  0.88270  0.20773  Biso   1.000  He
  Ne174    1.0000 0.19697  0.86896  0.18479  Biso   1.000  Ne
  Ne175    1.0000 0.03542  0.78978  0.46727  Biso   1.000  Ne
  He175    1.0000 0.01031  0.77155  0.45990  Biso   1.000  He
  He176    1.0000 0.99795  0.78002  0.42887  Biso   1.000  He
  Ne176    1.0000 0.96886  0.76329  0.41792  Biso   1.000  Ne
  Ne177    1.0000 0.10501  0.53220  0.62484  Biso   1.000  Ne
  He177    1.0000 0.10040  0.56334  0.61954  Biso   1.000  He
  He178    1.0000 0.08851  0.56981  0.58796  Biso   1.000  He
  Ne178    1.0000 0.07850  0.60090  0.58893  Biso   1.000  Ne
  Ne179    1.0000 0.77099  0.32052  0.13756  Biso   1.000  Ne
  He179    1.0000 0.76443  0.34722  0.11784  Biso   1.000  He
  He180    1.0000 0.74812  0.37263  0.13444  Biso   1.000  He
  Ne180    1.0000 0.73959  0.40035  0.11518  Biso   1.000  Ne
  Ne181    1.0000 0.20548  0.63312  0.39467  Biso   1.000  Ne
  He181    1.0000 0.18113  0.61103  0.39777  Biso   1.000  He
  He182    1.0000 0.18563  0.58677  0.42255  Biso   1.000  He
  Ne182    1.0000 0.16092  0.56210  0.42369  Biso   1.000  Ne
  Ne183    1.0000 0.83717  0.87026  0.93556  Biso   1.000  Ne
  He183    1.0000 0.85525  0.89416  0.95010  Biso   1.000  He
  He184    1.0000 0.88516  0.88399  0.95170  Biso   1.000  He
  Ne184    1.0000 0.90536  0.90763  0.95897  Biso   1.000  Ne
  Ne185    1.0000 0.57976  0.43984  0.01447  Biso   1.000  Ne
  He185    1.0000 0.55362  0.45952  0.01054  Biso   1.000  He
  He186    1.0000 0.54897  0.48212  0.03386  Biso   1.000  He
  Ne186    1.0000 0.51758  0.49069  0.03476  Biso   1.000  Ne
  Ne187    1.0000 0.35758  0.17952  0.76486  Biso   1.000  Ne
  He187    1.0000 0.37641  0.19131  0.79069  Biso   1.000  He
  He188    1.0000 0.36046  0.19307  0.82127  Biso   1.000  He
  Ne188    1.0000 0.38276  0.20109  0.84716  Biso   1.000  Ne
  Ne189    1.0000 0.60240  0.41795  0.09612  Biso   1.000  Ne
  He189    1.0000 0.62882  0.40448  0.11245  Biso   1.000  He
  He190    1.0000 0.62360  0.40301  0.14473  Biso   1.000  He
  Ne190    1.0000 0.65003  0.40045  0.16483  Biso   1.000  Ne
  Ne191    1.0000 0.55915  0.87856  0.55295  Biso   1.000  Ne
  He191    1.0000 0.57999  0.90449  0.54752  Biso   1.000  He
  He192    1.0000 0.56508  0.93413  0.55135  Biso   1.000  He
  Ne192    1.0000 0.58341  0.96030  0.54510  Biso   1.000  Ne
  Ne193    1.0000 0.31354  0.71108  0.20502  Biso   1.000  Ne
  He193    1.0000 0.33598  0.72447  0.18383  Biso   1.000  He
  He194    1.0000 0.33815  0.75609  0.18000  Biso   1.000  He
  Ne194    1.0000 0.36252  0.76951  0.16618  Biso   1.000  Ne
  Ne195    1.0000 0.35194  0.71491  0.41882  Biso   1.000  Ne
  He195    1.0000 0.37645  0.71100  0.43961  Biso   1.000  He
  He196    1.0000 0.40631  0.72171  0.43157  Biso   1.000  He
  Ne196    1.0000 0.43341  0.71531  0.45163  Biso   1.000  Ne
  Ne197    1.0000 0.42406  0.30928  0.82833  Biso   1.000  Ne
  He197    1.0000 0.41631  0.32339  0.85664  Biso   1.000  He
  He198    1.0000 0.41940  0.35564  0.85385  Biso   1.000  He
  Ne198    1.0000 0.41314  0.37107  0.88001  Biso   1.000  Ne
  Ne199    1.0000 0.70037  0.24296  0.78405  Biso   1.000  Ne
  He199    1.0000 0.66701  0.24569  0.78177  Biso   1.000  He
  He200    1.0000 0.65525  0.24072  0.75182  Biso   1.000  He
  Ne200    1.0000 0.62245  0.24161  0.75133  Biso   1.000  Ne
  Ne201    1.0000 0.82576  0.08188  0.79872  Biso   1.000  Ne
  He201    1.0000 0.84616  0.05845  0.81270  Biso   1.000  He
  He202    1.0000 0.87498  0.06903  0.82431  Biso   1.000  He
  Ne202    1.0000 0.89398  0.04632  0.83305  Biso   1.000  Ne
  Ne203    1.0000 0.36400  0.06418  0.57839  Biso   1.000  Ne
  He203    1.0000 0.39438  0.05473  0.57166  Biso   1.000  He
  He204    1.0000 0.41484  0.07923  0.56807  Biso   1.000  He
  Ne204    1.0000 0.44428  0.07118  0.56336  Biso   1.000  Ne
  Ne205    1.0000 0.35015  0.02688  0.79785  Biso   1.000  Ne
  He205    1.0000 0.33645  0.00104  0.81827  Biso   1.000  He
  He206    1.0000 0.30546  0.99130  0.81255  Biso   1.000  He
  Ne206    1.0000 0.29169  0.96808  0.83345  Biso   1.000  Ne
  Ne207    1.0000 0.16663  0.37487  0.59090  Biso   1.000  Ne
  He207    1.0000 0.16640  0.36803  0.62348  Biso   1.000  He
  He208    1.0000 0.19814  0.36595  0.63431  Biso   1.000  He
  Ne208    1.0000 0.20220  0.35589  0.66507  Biso   1.000  Ne
  Ne209    1.0000 0.79682  0.46557  0.97461  Biso   1.000  Ne
  He209    1.0000 0.79795  0.49903  0.98098  Biso   1.000  He
  He210    1.0000 0.78774  0.51891  0.95566  Biso   1.000  He
  Ne210    1.0000 0.78959  0.55135  0.96279  Biso   1.000  Ne
  Ne211    1.0000 0.41918  0.95817  0.47466  Biso   1.000  Ne
  He211    1.0000 0.43551  0.94469  0.44783  Biso   1.000  He
  He212    1.0000 0.41943  0.91573  0.43591  Biso   1.000  He
  Ne212    1.0000 0.43094  0.90443  0.40788  Biso   1.000  Ne
  Ne213    1.0000 0.42227  0.80631  0.61144  Biso   1.000  Ne
  He213    1.0000 0.41323  0.78683  0.63867  Biso   1.000  He
  He214    1.0000 0.42183  0.80346  0.66463  Biso   1.000  He
  Ne214    1.0000 0.41921  0.78435  0.69229  Biso   1.000  Ne
  Ne215    1.0000 0.74644  0.07657  0.79122  Biso   1.000  Ne
  He215    1.0000 0.72935  0.08003  0.76317  Biso   1.000  He
  He216    1.0000 0.75235  0.08505  0.73824  Biso   1.000  He
  Ne216    1.0000 0.73874  0.09318  0.70843  Biso   1.000  Ne
  Ne217    1.0000 0.70026  0.26318  0.14223  Biso   1.000  Ne
  He217    1.0000 0.69992  0.27620  0.17293  Biso   1.000  He
  He218    1.0000 0.67889  0.30239  0.17753  Biso   1.000  He
  Ne218    1.0000 0.67640  0.31775  0.20802  Biso   1.000  Ne
  Ne219    1.0000 0.06046  0.39676  0.38355  Biso   1.000  Ne
  He219    1.0000 0.05575  0.40303  0.41648  Biso   1.000  He
  He220    1.0000 0.08189  0.41428  0.43204  Biso   1.000  He
  Ne220    1.0000 0.08047  0.41565  0.46398  Biso   1.000  Ne
  Ne221    1.0000 0.95757  0.14997  0.50670  Biso   1.000  Ne
  He221    1.0000 0.98629  0.16132  0.50514  Biso   1.000  He
  He222    1.0000 0.99528  0.17171  0.47574  Biso   1.000  He
  Ne222    1.0000 0.02693  0.18371  0.47331  Biso   1.000  Ne
  Ne223    1.0000 0.70608  0.04601  0.91831  Biso   1.000  Ne
  He223    1.0000 0.74039  0.04235  0.92032  Biso   1.000  He
  He224    1.0000 0.75254  0.06425  0.94180  Biso   1.000  He
  Ne224    1.0000 0.78845  0.06269  0.94707  Biso   1.000  Ne
  Ne225    1.0000 0.21018  0.13744  0.54580  Biso   1.000  Ne
  He225    1.0000 0.23522  0.15030  0.56142  Biso   1.000  He
  He226    1.0000 0.23458  0.14805  0.59486  Biso   1.000  He
  Ne226    1.0000 0.26303  0.16354  0.60717  Biso   1.000  Ne
  Ne227    1.0000 0.95063  0.04249  0.02762  Biso   1.000  Ne
  He227    1.0000 0.98154  0.05377  0.02509  Biso   1.000  He
  He228    1.0000 0.00359  0.02978  0.03154  Biso   1.000  He
  Ne228    1.0000 0.03388  0.03406  0.01868  Biso   1.000  Ne
  Ne229    1.0000 0.62392  0.60787  0.20511  Biso   1.000  Ne
  He229    1.0000 0.61213  0.57832  0.19709  Biso   1.000  He
  He230    1.0000 0.59168  0.58203  0.17031  Biso   1.000  He
  Ne230    1.0000 0.58085  0.55039  0.15907  Biso   1.000  Ne
  Ne231    1.0000 0.39669  0.82624  0.44044  Biso   1.000  Ne
  He231    1.0000 0.38621  0.81370  0.41181  Biso   1.000  He
  He232    1.0000 0.41122  0.81697  0.38994  Biso   1.000  He
  Ne232    1.0000 0.40885  0.79903  0.36185  Biso   1.000  Ne
  Ne233    1.0000 0.18828  0.96962  0.61464  Biso   1.000  Ne
  He233    1.0000 0.17160  0.97143  0.64335  Biso   1.000  He
  He234    1.0000 0.16706  0.94047  0.65585  Biso   1.000  He
  Ne234    1.0000 0.15422  0.93966  0.68422  Biso   1.000  Ne
  Ne235    1.0000 0.22465  0.43927  0.97740  Biso   1.000  Ne
  He235    1.0000 0.20350  0.45944  0.99452  Biso   1.000  He
  He236    1.0000 0.22029  0.48444  0.00207  Biso   1.000  He
  Ne236    1.0000 0.20368  0.50831  0.01952  Biso   1.000  Ne
  Ne237    1.0000 0.07983  0.19034  0.10686  Biso   1.000  Ne
  He237    1.0000 0.09885  0.16218  0.10036  Biso   1.000  He
  He238    1.0000 0.08314  0.13584  0.09702  Biso   1.000  He
  Ne238    1.0000 0.10561  0.11456  0.08300  Biso   1.000  Ne
  Ne239    1.0000 0.66166  0.88726  0.73800  Biso   1.000  Ne
  He239    1.0000 0.63843  0.88291  0.71303  Biso   1.000  He
  He240    1.0000 0.61103  0.87739  0.72841  Biso   1.000  He
  Ne240    1.0000 0.58376  0.87628  0.70969  Biso   1.000  Ne
  Ne241    1.0000 0.83983  0.88506  0.61056  Biso   1.000  Ne
  He241    1.0000 0.81635  0.88017  0.63495  Biso   1.000  He
  He242    1.0000 0.80612  0.84965  0.63817  Biso   1.000  He
  Ne242    1.0000 0.78497  0.84736  0.66354  Biso   1.000  Ne
  Ne243    1.0000 0.84015  0.28818  0.65517  Biso   1.000  Ne
  He243    1.0000 0.83961  0.31890  0.64054  Biso   1.000  He
  He244    1.0000 0.81221  0.33894  0.64554  Biso   1.000  He
  Ne244    1.0000 0.81943  0.36996  0.63548  Biso   1.000  Ne
  Ne245    1.0000 0.21149  0.58245  0.67307  Biso   1.000  Ne
  He245    1.0000 0.23686  0.56169  0.67792  Biso   1.000  He
  He246    1.0000 0.23032  0.53308  0.69702  Biso   1.000  He
  Ne246    1.0000 0.25425  0.51205  0.70108  Biso   1.000  Ne
  Ne247    1.0000 0.77375  0.17941  0.87723  Biso   1.000  Ne
  He247    1.0000 0.77790  0.21143  0.87722  Biso   1.000  He
  He248    1.0000 0.79193  0.22159  0.90531  Biso   1.000  He
  Ne248    1.0000 0.79321  0.25589  0.90771  Biso   1.000  Ne
  Ne249    1.0000 0.75267  0.40980  0.82325  Biso   1.000  Ne
  He249    1.0000 0.76560  0.41553  0.85446  Biso   1.000  He
  He250    1.0000 0.78551  0.39121  0.86499  Biso   1.000  He
  Ne250    1.0000 0.79745  0.39871  0.89405  Biso   1.000  Ne
  Ne251    1.0000 0.72987  0.76439  0.72729  Biso   1.000  Ne
  He251    1.0000 0.75640  0.78323  0.71991  Biso   1.000  He
  He252    1.0000 0.78585  0.77476  0.73446  Biso   1.000  He
  Ne252    1.0000 0.80811  0.76076  0.71360  Biso   1.000  Ne
  Ne253    1.0000 0.83257  0.58135  0.43758  Biso   1.000  Ne
  He253    1.0000 0.79985  0.58227  0.42993  Biso   1.000  He
  He254    1.0000 0.78292  0.57102  0.45619  Biso   1.000  He
  Ne254    1.0000 0.75192  0.56086  0.44968  Biso   1.000  Ne
  Ne255    1.0000 0.60941  0.78412  0.45446  Biso   1.000  Ne
  He255    1.0000 0.63789  0.76987  0.45498  Biso   1.000  He
  He256    1.0000 0.65643  0.78527  0.43319  Biso   1.000  He
  Ne256    1.0000 0.68480  0.77162  0.42464  Biso   1.000  Ne
  Ne257    1.0000 0.52462  0.05939  0.54584  Biso   1.000  Ne
  He257    1.0000 0.55145  0.06274  0.56678  Biso   1.000  He
  He258    1.0000 0.57143  0.03585  0.56764  Biso   1.000  He
  Ne258    1.0000 0.59676  0.04150  0.58794  Biso   1.000  Ne
  Ne259    1.0000 0.57887  0.13385  0.41859  Biso   1.000  Ne
  He259    1.0000 0.60465  0.13108  0.44074  Biso   1.000  He
  He260    1.0000 0.62921  0.14573  0.42763  Biso   1.000  He
  Ne260    1.0000 0.65712  0.14270  0.44320  Biso   1.000  Ne
  Ne261    1.0000 0.35452  0.77441  0.02884  Biso   1.000  Ne
  He261    1.0000 0.37134  0.75104  0.04478  Biso   1.000  He
  He262    1.0000 0.35445  0.73725  0.06817  Biso   1.000  He
  Ne262    1.0000 0.36909  0.70944  0.08297  Biso   1.000  Ne
  Ne263    1.0000 0.13127  0.87819  0.79559  Biso   1.000  Ne
  He263    1.0000 0.16311  0.87611  0.80507  Biso   1.000  He
  He264    1.0000 0.18178  0.86013  0.78219  Biso   1.000  He
  Ne264    1.0000 0.21373  0.85946  0.79135  Biso   1.000  Ne
  Ne265    1.0000 0.17145  0.68905  0.22314  Biso   1.000  Ne
  He265    1.0000 0.17340  0.66290  0.24258  Biso   1.000  He
  He266    1.0000 0.15059  0.65499  0.26427  Biso   1.000  He
  Ne266    1.0000 0.15447  0.62677  0.28231  Biso   1.000  Ne
  Ne267    1.0000 0.37751  0.52923  0.94015  Biso   1.000  Ne
  He267    1.0000 0.35758  0.55510  0.95100  Biso   1.000  He
  He268    1.0000 0.35972  0.58150  0.93043  Biso   1.000  He
  Ne268    1.0000 0.34449  0.61025  0.93797  Biso   1.000  Ne
  Ne269    1.0000 0.91992  0.88358  0.14608  Biso   1.000  Ne
  He269    1.0000 0.94578  0.87253  0.12547  Biso   1.000  He
  He270    1.0000 0.95190  0.88948  0.09667  Biso   1.000  He
  Ne270    1.0000 0.97459  0.87426  0.07629  Biso   1.000  Ne
  Ne271    1.0000 0.47576  0.87495  0.50830  Biso   1.000  Ne
  He271    1.0000 0.50717  0.87855  0.49470  Biso   1.000  He
  He272    1.0000 0.51233  0.90311  0.47234  Biso   1.000  He
  Ne272    1.0000 0.54642  0.90235  0.46285  Biso   1.000  Ne
  Ne273    1.0000 0.17203  0.25802  0.59642  Biso   1.000  Ne
  He273    1.0000 0.14330  0.26604  0.61084  Biso   1.000  He
  He274    1.0000 0.11406  0.25946  0.59532  Biso   1.000  He
  Ne274    1.0000 0.08984  0.27457  0.60882  Biso   1.000  Ne
  Ne275    1.0000 0.90043  0.67714  0.85997  Biso   1.000  Ne
  He275    1.0000 0.89898  0.68168  0.82848  Biso   1.000  He
  He276    1.0000 0.92771  0.68027  0.81341  Biso   1.000  He
  Ne276    1.0000 0.92503  0.68819  0.77918  Biso   1.000  Ne
  Ne277    1.0000 0.12619  0.47300  0.15198  Biso   1.000  Ne
  He277    1.0000 0.13898  0.45210  0.17028  Biso   1.000  He
  He278    1.0000 0.13401  0.42092  0.15841  Biso   1.000  He
  Ne278    1.0000 0.14615  0.39807  0.17781  Biso   1.000  Ne
  Ne279    1.0000 0.62336  0.54788  0.09945  Biso   1.000  Ne
  He279    1.0000 0.64043  0.57545  0.09757  Biso   1.000  He
  He280    1.0000 0.67190  0.56878  0.09567  Biso   1.000  He
  Ne280    1.0000 0.69217  0.59497  0.08582  Biso   1.000  Ne
  Ne281    1.0000 0.34691  0.09146  0.31604  Biso   1.000  Ne
  He281    1.0000 0.33720  0.10529  0.28828  Biso   1.000  He
  He282    1.0000 0.35913  0.12690  0.27662  Biso   1.000  He
  Ne282    1.0000 0.34882  0.14419  0.24994  Biso   1.000  Ne
  Ne283    1.0000 0.42569  0.24320  0.70268  Biso   1.000  Ne
  He283    1.0000 0.39589  0.25293  0.71625  Biso   1.000  He
  He284    1.0000 0.39786  0.27536  0.73844  Biso   1.000  He
  Ne284    1.0000 0.37001  0.28289  0.75526  Biso   1.000  Ne
  Ne285    1.0000 0.14033  0.37541  0.30487  Biso   1.000  Ne
  He285    1.0000 0.10999  0.37382  0.31535  Biso   1.000  He
  He286    1.0000 0.08709  0.37109  0.29055  Biso   1.000  He
  Ne286    1.0000 0.05688  0.36588  0.30328  Biso   1.000  Ne
  Ne287    1.0000 0.19764  0.46012  0.88158  Biso   1.000  Ne
  He287    1.0000 0.18346  0.47415  0.85650  Biso   1.000  He
  He288    1.0000 0.18637  0.50824  0.85521  Biso   1.000  He
  Ne288    1.0000 0.16903  0.52405  0.82702  Biso   1.000  Ne
  Ne289    1.0000 0.02648  0.92068  0.31715  Biso   1.000  Ne
  He289    1.0000 0.99824  0.91711  0.30006  Biso   1.000  He
  He290    1.0000 0.98338  0.88892  0.30521  Biso   1.000  He
  Ne290    1.0000 0.95655  0.88410  0.28613  Biso   1.000  Ne
  Ne291    1.0000 0.26763  0.20537  0.91405  Biso   1.000  Ne
  He291    1.0000 0.29982  0.20183  0.90788  Biso   1.000  He
  He292    1.0000 0.31263  0.17178  0.91819  Biso   1.000  He
  Ne292    1.0000 0.34461  0.17092  0.91040  Biso   1.000  Ne
  Ne293    1.0000 0.59327  0.75100  0.63325  Biso   1.000  Ne
  He293    1.0000 0.58584  0.77774  0.65021  Biso   1.000  He
  He294    1.0000 0.59823  0.80369  0.63588  Biso   1.000  He
  Ne294    1.0000 0.58381  0.83089  0.64753  Biso   1.000  Ne
  Ne295    1.0000 0.38651  0.81657  0.96848  Biso   1.000  Ne
  He295    1.0000 0.40876  0.79524  0.95520  Biso   1.000  He
  He296    1.0000 0.39532  0.76924  0.93864  Biso   1.000  He
  Ne296    1.0000 0.41360  0.74814  0.92186  Biso   1.000  Ne
  Ne297    1.0000 0.03674  0.62059  0.25867  Biso   1.000  Ne
  He297    1.0000 0.06452  0.62622  0.24018  Biso   1.000  He
  He298    1.0000 0.05927  0.63748  0.20934  Biso   1.000  He
  Ne298    1.0000 0.09075  0.64438  0.19482  Biso   1.000  Ne
  Ne299    1.0000 0.92154  0.62822  0.69075  Biso   1.000  Ne
  He299    1.0000 0.92577  0.59696  0.69938  Biso   1.000  He
  He300    1.0000 0.93237  0.57354  0.67325  Biso   1.000  He
  Ne300    1.0000 0.93885  0.54355  0.68280  Biso   1.000  Ne
  Ne301    1.0000 0.71052  0.39333  0.22136  Biso   1.000  Ne
  He301    1.0000 0.72002  0.38998  0.25211  Biso   1.000  He
  He302    1.0000 0.74708  0.36991  0.25745  Biso   1.000  He
  Ne302    1.0000 0.76460  0.37703  0.28426  Biso   1.000  Ne
  Ne303    1.0000 0.89717  0.27495  0.76436  Biso   1.000  Ne
  He303    1.0000 0.89251  0.29053  0.73501  Biso   1.000  He
  He304    1.0000 0.91653  0.28677  0.71488  Biso   1.000  He
  Ne304    1.0000 0.91319  0.30614  0.68856  Biso   1.000  Ne
  Ne305    1.0000 0.67853  0.33897  0.08777  Biso   1.000  Ne
  He305    1.0000 0.64802  0.33094  0.09814  Biso   1.000  He
  He306    1.0000 0.62673  0.32047  0.07530  Biso   1.000  He
  Ne306    1.0000 0.59554  0.31593  0.08478  Biso   1.000  Ne
  Ne307    1.0000 0.72978  0.68299  0.70824  Biso   1.000  Ne
  He307    1.0000 0.74847  0.65407  0.70918  Biso   1.000  He
  He308    1.0000 0.73022  0.62551  0.71331  Biso   1.000  He
  Ne308    1.0000 0.74664  0.59971  0.71625  Biso   1.000  Ne
  Ne309    1.0000 0.56942  0.21648  0.37297  Biso   1.000  Ne
  He309    1.0000 0.55261  0.22898  0.39910  Biso   1.000  He
  He310    1.0000 0.56599  0.21845  0.42940  Biso   1.000  He
  Ne310    1.0000 0.55048  0.23105  0.45749  Biso   1.000  Ne
  Ne311    1.0000 0.91303  0.27794  0.30426  Biso   1.000  Ne
  He311    1.0000 0.91291  0.28450  0.27294  Biso   1.000  He
  He312    1.0000 0.88552  0.29892  0.26276  Biso   1.000  He
  Ne312    1.0000 0.88523  0.30408  0.22872  Biso   1.000  Ne
  Ne313    1.0000 0.91416  0.87359  0.80441  Biso   1.000  Ne
  He313    1.0000 0.89586  0.86389  0.83182  Biso   1.000  He
  He314    1.0000 0.91487  0.84547  0.85291  Biso   1.000  He
  Ne314    1.0000 0.89909  0.83036  0.87952  Biso   1.000  Ne
  Ne315    1.0000 0.36974  0.20441  0.62290  Biso   1.000  Ne
  He315    1.0000 0.36550  0.18630  0.59658  Biso   1.000  He
  He316    1.0000 0.36795  0.15349  0.59879  Biso   1.000  He
  Ne316    1.0000 0.33870  0.14012  0.60346  Biso   1.000  Ne
  Ne317    1.0000 0.63934  0.80005  0.33208  Biso   1.000  Ne
  He317    1.0000 0.62382  0.77069  0.32345  Biso   1.000  He
  He318    1.0000 0.60599  0.77338  0.29569  Biso   1.000  He
  Ne318    1.0000 0.59519  0.74411  0.28326  Biso   1.000  Ne
  Ne319    1.0000 0.66295  0.17751  0.99466  Biso   1.000  Ne
  He319    1.0000 0.64669  0.16759  0.96778  Biso   1.000  He
  He320    1.0000 0.62268  0.18666  0.95808  Biso   1.000  He
  Ne320    1.0000 0.61442  0.18050  0.92749  Biso   1.000  Ne
  Ne321    1.0000 0.24521  0.13911  0.11877  Biso   1.000  Ne
  He321    1.0000 0.24638  0.16842  0.13129  Biso   1.000  He
  He322    1.0000 0.22534  0.18702  0.11556  Biso   1.000  He
  Ne322    1.0000 0.22385  0.22091  0.12257  Biso   1.000  Ne
  Ne323    1.0000 0.80700  0.79401  0.84025  Biso   1.000  Ne
  He323    1.0000 0.81023  0.82935  0.84051  Biso   1.000  He
  He324    1.0000 0.78978  0.84363  0.86356  Biso   1.000  He
  Ne324    1.0000 0.79337  0.87495  0.86757  Biso   1.000  Ne
  Ne325    1.0000 0.40993  0.23739  0.09519  Biso   1.000  Ne
  He325    1.0000 0.42150  0.26782  0.10027  Biso   1.000  He
  He326    1.0000 0.41877  0.28085  0.13065  Biso   1.000  He
  Ne326    1.0000 0.43269  0.31174  0.13255  Biso   1.000  Ne
  Ne327    1.0000 0.09266  0.77017  0.15830  Biso   1.000  Ne
  He327    1.0000 0.08558  0.80012  0.14823  Biso   1.000  He
  He328    1.0000 0.08305  0.80317  0.11618  Biso   1.000  He
  Ne328    1.0000 0.07989  0.83626  0.10228  Biso   1.000  Ne
  Ne329    1.0000 0.74816  0.37323  0.71619  Biso   1.000  Ne
  He329    1.0000 0.72107  0.35747  0.72201  Biso   1.000  He
  He330    1.0000 0.70477  0.37081  0.74629  Biso   1.000  He
  Ne330    1.0000 0.67927  0.35247  0.75723  Biso   1.000  Ne
  Ne331    1.0000 0.05052  0.04614  0.83682  Biso   1.000  Ne
  He331    1.0000 0.05975  0.07405  0.82424  Biso   1.000  He
  He332    1.0000 0.05874  0.09987  0.84372  Biso   1.000  He
  Ne332    1.0000 0.07211  0.12617  0.82828  Biso   1.000  Ne
  Ne333    1.0000 0.03708  0.48269  0.42464  Biso   1.000  Ne
  He333    1.0000 0.04671  0.51225  0.43517  Biso   1.000  He
  He334    1.0000 0.07609  0.51094  0.44803  Biso   1.000  He
  Ne334    1.0000 0.08913  0.54156  0.44872  Biso   1.000  Ne
  Ne335    1.0000 0.42518  0.09654  0.39011  Biso   1.000  Ne
  He335    1.0000 0.40255  0.07164  0.39449  Biso   1.000  He
  He336    1.0000 0.39681  0.06441  0.42626  Biso   1.000  He
  Ne336    1.0000 0.36682  0.05023  0.43084  Biso   1.000  Ne
  Ne337    1.0000 0.31823  0.28178  0.86444  Biso   1.000  Ne
  He337    1.0000 0.31541  0.25700  0.84123  Biso   1.000  He
  He338    1.0000 0.29814  0.26582  0.81548  Biso   1.000  He
  Ne338    1.0000 0.28640  0.24181  0.79601  Biso   1.000  Ne
  Ne339    1.0000 0.83462  0.75349  0.59762  Biso   1.000  Ne
  He339    1.0000 0.80822  0.76898  0.61125  Biso   1.000  He
  He340    1.0000 0.80051  0.75642  0.64012  Biso   1.000  He
  Ne340    1.0000 0.77303  0.73723  0.64000  Biso   1.000  Ne
  Ne341    1.0000 0.65754  0.91543  0.80587  Biso   1.000  Ne
  He341    1.0000 0.66690  0.91303  0.83801  Biso   1.000  He
  He342    1.0000 0.69991  0.90459  0.83865  Biso   1.000  He
  Ne342    1.0000 0.71484  0.90140  0.86492  Biso   1.000  Ne
  Ne343    1.0000 0.63975  0.53844  0.27262  Biso   1.000  Ne
  He343    1.0000 0.61326  0.54097  0.29451  Biso   1.000  He
  He344    1.0000 0.59603  0.51347  0.30676  Biso   1.000  He
  Ne344    1.0000 0.57235  0.51616  0.32833  Biso   1.000  Ne
  Ne345    1.0000 0.25244  0.90316  0.40854  Biso   1.000  Ne
  He345    1.0000 0.28459  0.90774  0.40210  Biso   1.000  He
  He346    1.0000 0.30569  0.88374  0.40450  Biso   1.000  He
  Ne346    1.0000 0.34091  0.88870  0.39674  Biso   1.000  Ne
  Ne347    1.0000 0.19582  0.55479  0.58974  Biso   1.000  Ne
  He347    1.0000 0.17579  0.58077  0.58758  Biso   1.000  He
  He348    1.0000 0.18947  0.60748  0.59440  Biso   1.000  He
  Ne348    1.0000 0.16936  0.63241  0.58969  Biso   1.000  Ne
  Ne349    1.0000 0.40583  0.18572  0.42319  Biso   1.000  Ne
  He349    1.0000 0.41527  0.17785  0.39102  Biso   1.000  He
  He350    1.0000 0.39531  0.19403  0.36868  Biso   1.000  He
  Ne350    1.0000 0.40336  0.18893  0.33819  Biso   1.000  Ne
  Ne351    1.0000 0.79658  0.08944  0.52077  Biso   1.000  Ne
  He351    1.0000 0.81678  0.10296  0.49674  Biso   1.000  He
  He352    1.0000 0.82883  0.13308  0.50623  Biso   1.000  He
  Ne352    1.0000 0.85398  0.14225  0.48308  Biso   1.000  Ne
  Ne353    1.0000 0.64160  0.04436  0.29774  Biso   1.000  Ne
  He353    1.0000 0.64069  0.05074  0.33058  Biso   1.000  He
  He354    1.0000 0.61275  0.04411  0.34580  Biso   1.000  He
  Ne354    1.0000 0.60757  0.05872  0.37551  Biso   1.000  Ne
  Ne355    1.0000 0.71601  0.58546  0.84145  Biso   1.000  Ne
  He355    1.0000 0.71103  0.56571  0.86844  Biso   1.000  He
  He356    1.0000 0.72265  0.57337  0.89772  Biso   1.000  He
  Ne356    1.0000 0.71488  0.55205  0.92345  Biso   1.000  Ne
  Ne357    1.0000 0.42648  0.90436  0.32507  Biso   1.000  Ne
  He357    1.0000 0.39957  0.88630  0.32339  Biso   1.000  He
  He358    1.0000 0.37790  0.89878  0.30818  Biso   1.000  He
  Ne358    1.0000 0.34850  0.88468  0.30238  Biso   1.000  Ne
  Ne359    1.0000 0.61261  0.91322  0.23704  Biso   1.000  Ne
  He359    1.0000 0.59195  0.89072  0.24861  Biso   1.000  He
  He360    1.0000 0.59260  0.88931  0.28169  Biso   1.000  He
  Ne360    1.0000 0.57278  0.86336  0.29519  Biso   1.000  Ne
  Ne361    1.0000 0.28700  0.35791  0.12817  Biso   1.000  Ne
  He361    1.0000 0.29534  0.36561  0.16126  Biso   1.000  He
  He362    1.0000 0.32726  0.35702  0.16689  Biso   1.000  He
  Ne362    1.0000 0.33810  0.36580  0.19604  Biso   1.000  Ne
  Ne363    1.0000 0.72960  0.33431  0.92855  Biso   1.000  Ne
  He363    1.0000 0.70825  0.35708  0.91467  Biso   1.000  He
  He364    1.0000 0.68212  0.36812  0.93314  Biso   1.000  He
  Ne364    1.0000 0.65461  0.35401  0.92504  Biso   1.000  Ne
  Ne365    1.0000 0.80920  0.79087  0.93849  Biso   1.000  Ne
  He365    1.0000 0.83051  0.76709  0.94217  Biso   1.000  He
  He366    1.0000 0.81909  0.73768  0.95149  Biso   1.000  He
  Ne366    1.0000 0.84373  0.71480  0.95155  Biso   1.000  Ne
  Ne367    1.0000 0.20440  0.53052  0.16742  Biso   1.000  Ne
  He367    1.0000 0.23632  0.52548  0.18182  Biso   1.000  He
  He368    1.0000 0.25897  0.53878  0.16559  Biso   1.000  He
  Ne368    1.0000 0.28469  0.53807  0.18434  Biso   1.000  Ne
  Ne369    1.0000 0.10339  0.38070  0.75732  Biso   1.000  Ne
  He369    1.0000 0.08260  0.35701  0.75204  Biso   1.000  He
  He370    1.0000 0.09589  0.33770  0.72686  Biso   1.000  He
  Ne370    1.0000 0.08010  0.31297  0.71328  Biso   1.000  Ne
  Ne371    1.0000 0.84834  0.08539  0.17179  Biso   1.000  Ne
  He371    1.0000 0.88126  0.07916  0.17696  Biso   1.000  He
  He372    1.0000 0.88848  0.04779  0.18638  Biso   1.000  He
  Ne372    1.0000 0.92169  0.04467  0.19128  Biso   1.000  Ne
  Ne373    1.0000 0.87254  0.39805  0.70626  Biso   1.000  Ne
  He373    1.0000 0.89320  0.37921  0.72290  Biso   1.000  He
  He374    1.0000 0.90353  0.39270  0.75030  Biso   1.000  He
  Ne374    1.0000 0.93204  0.37681  0.76270  Biso   1.000  Ne
  Ne375    1.0000 0.57723  0.37734  0.84012  Biso   1.000  Ne
  He375    1.0000 0.57798  0.34309  0.84456  Biso   1.000  He
  He376    1.0000 0.59053  0.32885  0.81721  Biso   1.000  He
  Ne376    1.0000 0.59530  0.29744  0.81975  Biso   1.000  Ne
  Ne377    1.0000 0.06887  0.32884  0.44034  Biso   1.000  Ne
  He377    1.0000 0.07714  0.30983  0.41232  Biso   1.000  He
  He378    1.0000 0.06437  0.31804  0.38410  Biso   1.000  He
  Ne378    1.0000 0.08163  0.30530  0.35619  Biso   1.000  Ne
  Ne379    1.0000 0.48954  0.92648  0.58959  Biso   1.000  Ne
  He379    1.0000 0.48771  0.94437  0.56341  Biso   1.000  He
  He380    1.0000 0.48374  0.97465  0.56827  Biso   1.000  He
  Ne380    1.0000 0.47073  0.99154  0.54401  Biso   1.000  Ne
  Ne381    1.0000 0.21999  0.85218  0.45292  Biso   1.000  Ne
  He381    1.0000 0.20875  0.82299  0.44018  Biso   1.000  He
  He382    1.0000 0.20729  0.82335  0.40597  Biso   1.000  He
  Ne382    1.0000 0.19539  0.79513  0.39039  Biso   1.000  Ne
  Ne383    1.0000 0.37589  0.39366  0.75684  Biso   1.000  Ne
  He383    1.0000 0.40547  0.39062  0.74042  Biso   1.000  He
  He384    1.0000 0.41705  0.36088  0.73971  Biso   1.000  He
  Ne384    1.0000 0.44863  0.35514  0.72875  Biso   1.000  Ne
  Ne385    1.0000 0.85551  0.25257  0.45145  Biso   1.000  Ne
  He385    1.0000 0.86679  0.28499  0.44875  Biso   1.000  He
  He386    1.0000 0.89619  0.29104  0.43522  Biso   1.000  He
  Ne386    1.0000 0.90240  0.32441  0.43479  Biso   1.000  Ne
  Ne387    1.0000 0.89012  0.54893  0.77630  Biso   1.000  Ne
  He387    1.0000 0.86314  0.56637  0.76467  Biso   1.000  He
  He388    1.0000 0.83372  0.55192  0.76731  Biso   1.000  He
  Ne388    1.0000 0.81084  0.57467  0.76422  Biso   1.000  Ne
  Ne389    1.0000 0.69043  0.83348  0.67441  Biso   1.000  Ne
  He389    1.0000 0.68222  0.80581  0.65872  Biso   1.000  He
  He390    1.0000 0.70415  0.79338  0.64010  Biso   1.000  He
  Ne390    1.0000 0.69567  0.76561  0.62366  Biso   1.000  Ne
  Ne391    1.0000 0.37724  0.52464  0.22384  Biso   1.000  Ne
  He391    1.0000 0.38055  0.53230  0.19098  Biso   1.000  He
  He392    1.0000 0.35643  0.52998  0.17160  Biso   1.000  He
  Ne392    1.0000 0.36230  0.53597  0.14027  Biso   1.000  Ne
  Ne393    1.0000 0.31899  0.85883  0.12124  Biso   1.000  Ne
  He393    1.0000 0.30780  0.82962  0.12413  Biso   1.000  He
  He394    1.0000 0.27861  0.82308  0.10758  Biso   1.000  He
  Ne394    1.0000 0.26887  0.79136  0.10589  Biso   1.000  Ne
  Ne395    1.0000 0.90755  0.34788  0.35330  Biso   1.000  Ne
  He395    1.0000 0.88123  0.36265  0.33820  Biso   1.000  He
  He396    1.0000 0.85578  0.35655  0.35398  Biso   1.000  He
  Ne396    1.0000 0.82903  0.37470  0.34138  Biso   1.000  Ne
  Ne397    1.0000 0.65590  0.75664  0.17842  Biso   1.000  Ne
  He397    1.0000 0.67278  0.73549  0.15922  Biso   1.000  He
  He398    1.0000 0.67714  0.70441  0.17275  Biso   1.000  He
  Ne398    1.0000 0.69763  0.68345  0.15593  Biso   1.000  Ne
  Ne399    1.0000 0.08508  0.80920  0.84842  Biso   1.000  Ne
  He399    1.0000 0.06622  0.80571  0.87681  Biso   1.000  He
  He400    1.0000 0.07792  0.77962  0.89404  Biso   1.000  He
  Ne400    1.0000 0.06028  0.77393  0.92035  Biso   1.000  Ne
  Ne401    1.0000 0.79757  0.00527  0.44926  Biso   1.000  Ne
  He401    1.0000 0.80104  0.01151  0.48234  Biso   1.000  He
  He402    1.0000 0.77496  0.00194  0.49721  Biso   1.000  He
  Ne402    1.0000 0.77752  0.00380  0.53046  Biso   1.000  Ne
  Ne403    1.0000 0.13308  0.06857  0.84361  Biso   1.000  Ne
  He403    1.0000 0.13937  0.04331  0.86326  Biso   1.000  He
  He404    1.0000 0.14434  0.05549  0.89436  Biso   1.000  He
  Ne404    1.0000 0.15237  0.03315  0.91325  Biso   1.000  Ne
  Ne405    1.0000 0.15594  0.39185  0.43012  Biso   1.000  Ne
  He405    1.0000 0.15834  0.35896  0.42417  Biso   1.000  He
  He406    1.0000 0.15651  0.35015  0.39112  Biso   1.000  He
  Ne406    1.0000 0.16638  0.31745  0.38593  Biso   1.000  Ne
  Ne407    1.0000 0.85784  0.45073  0.82117  Biso   1.000  Ne
  He407    1.0000 0.84985  0.47121  0.84812  Biso   1.000  He
  He408    1.0000 0.82762  0.49205  0.83879  Biso   1.000  He
  Ne408    1.0000 0.81838  0.51302  0.86277  Biso   1.000  Ne
  Ne409    1.0000 0.01868  0.42684  0.78184  Biso   1.000  Ne
  He409    1.0000 0.99532  0.42152  0.80606  Biso   1.000  He
  He410    1.0000 0.00466  0.42396  0.83614  Biso   1.000  He
  Ne410    1.0000 0.97925  0.42523  0.85744  Biso   1.000  Ne
  Ne411    1.0000 0.90979  0.62081  0.59770  Biso   1.000  Ne
  He411    1.0000 0.93161  0.64497  0.59928  Biso   1.000  He
  He412    1.0000 0.91884  0.67444  0.59052  Biso   1.000  He
  Ne412    1.0000 0.93938  0.70008  0.59941  Biso   1.000  Ne
  Ne413    1.0000 0.71700  0.67584  0.79135  Biso   1.000  Ne
  He413    1.0000 0.70283  0.66183  0.81853  Biso   1.000  He
  He414    1.0000 0.66961  0.66238  0.81656  Biso   1.000  He
  Ne414    1.0000 0.65419  0.65360  0.84527  Biso   1.000  Ne
  Ne415    1.0000 0.86686  0.38566  0.25154  Biso   1.000  Ne
  He415    1.0000 0.83970  0.37509  0.23544  Biso   1.000  He
  He416    1.0000 0.84181  0.37841  0.20116  Biso   1.000  He
  Ne416    1.0000 0.81758  0.36457  0.18445  Biso   1.000  Ne
  Ne417    1.0000 0.84461  0.85999  0.72450  Biso   1.000  Ne
  He417    1.0000 0.86196  0.83311  0.71492  Biso   1.000  He
  He418    1.0000 0.87968  0.83443  0.68641  Biso   1.000  He
  Ne418    1.0000 0.89395  0.80388  0.67775  Biso   1.000  Ne
  Ne419    1.0000 0.54996  0.80023  0.81117  Biso   1.000  Ne
  He419    1.0000 0.57529  0.78380  0.80458  Biso   1.000  He
  He420    1.0000 0.57344  0.75224  0.80472  Biso   1.000  He
  Ne420    1.0000 0.60186  0.73997  0.79345  Biso   1.000  Ne
  Ne421    1.0000 0.22730  0.88640  0.93139  Biso   1.000  Ne
  He421    1.0000 0.21313  0.86003  0.91834  Biso   1.000  He
  He422    1.0000 0.17836  0.86242  0.92141  Biso   1.000  He
  Ne422    1.0000 0.16043  0.83840  0.90827  Biso   1.000  Ne
  Ne423    1.0000 0.42557  0.71718  0.18681  Biso   1.000  Ne
  He423    1.0000 0.42581  0.70500  0.21774  Biso   1.000  He
  He424    1.0000 0.40303  0.71490  0.23922  Biso   1.000  He
  Ne424    1.0000 0.40699  0.70137  0.26793  Biso   1.000  Ne
  Ne425    1.0000 0.39941  0.41302  0.96471  Biso   1.000  Ne
  He425    1.0000 0.43222  0.41184  0.95868  Biso   1.000  He
  He426    1.0000 0.44821  0.38190  0.96274  Biso   1.000  He
  Ne426    1.0000 0.47985  0.38592  0.96358  Biso   1.000  Ne
  Ne427    1.0000 0.58165  0.29931  0.72518  Biso   1.000  Ne
  He427    1.0000 0.57603  0.32819  0.70933  Biso   1.000  He
  He428    1.0000 0.54600  0.34134  0.71564  Biso   1.000  He
  Ne428    1.0000 0.54213  0.36945  0.70080  Biso   1.000  Ne
  Ne429    1.0000 0.06848  0.15171  0.91411  Biso   1.000  Ne
  He429    1.0000 0.08814  0.17556  0.91872  Biso   1.000  He
  He430    1.0000 0.11964  0.16552  0.93204  Biso   1.000  He
  Ne430    1.0000 0.13837  0.19049  0.93959  Biso   1.000  Ne
  Ne431    1.0000 0.28239  0.07396  0.22469  Biso   1.000  Ne
  He431    1.0000 0.26200  0.09435  0.24380  Biso   1.000  He
  He432    1.0000 0.23513  0.10436  0.23193  Biso   1.000  He
  Ne432    1.0000 0.21601  0.12087  0.25270  Biso   1.000  Ne
  Ne433    1.0000 0.61589  0.41229  0.76963  Biso   1.000  Ne
  He433    1.0000 0.58065  0.41259  0.76461  Biso   1.000  He
  He434    1.0000 0.56791  0.43565  0.74353  Biso   1.000  He
  Ne434    1.0000 0.53445  0.44166  0.74651  Biso   1.000  Ne
  Ne435    1.0000 0.08158  0.08924  0.16618  Biso   1.000  Ne
  He435    1.0000 0.08276  0.11277  0.19050  Biso   1.000  He
  He436    1.0000 0.08159  0.14353  0.18370  Biso   1.000  He
  Ne436    1.0000 0.08655  0.16293  0.20963  Biso   1.000  Ne
  Ne437    1.0000 0.39549  0.60340  0.22802  Biso   1.000  Ne
  He437    1.0000 0.41499  0.61502  0.20562  Biso   1.000  He
  He438    1.0000 0.40121  0.63061  0.18161  Biso   1.000  He
  Ne438    1.0000 0.42338  0.64481  0.16082  Biso   1.000  Ne
  Ne439    1.0000 0.31500  0.93785  0.03182  Biso   1.000  Ne
  He439    1.0000 0.31149  0.95654  0.00201  Biso   1.000  He
  He440    1.0000 0.28313  0.94846  0.98540  Biso   1.000  He
  Ne440    1.0000 0.27622  0.96502  0.95648  Biso   1.000  Ne
  Ne441    1.0000 0.88035  0.53618  0.60995  Biso   1.000  Ne
  He441    1.0000 0.90370  0.54691  0.58775  Biso   1.000  He
  He442    1.0000 0.93480  0.54934  0.60125  Biso   1.000  He
  Ne442    1.0000 0.95834  0.56439  0.57987  Biso   1.000  Ne
  Ne443    1.0000 0.17587  0.54086  0.33987  Biso   1.000  Ne
  He443    1.0000 0.14728  0.55841  0.34162  Biso   1.000  He
  He444    1.0000 0.12123  0.54525  0.33036  Biso   1.000  He
  Ne444    1.0000 0.09750  0.53781  0.35295  Biso   1.000  Ne
  Ne445    1.0000 0.65906  0.73643  0.71642  Biso   1.000  Ne
  He445    1.0000 0.63182  0.71804  0.72163  Biso   1.000  He
  He446    1.0000 0.62401  0.69857  0.69730  Biso   1.000  He
  Ne446    1.0000 0.59880  0.67823  0.70392  Biso   1.000  Ne
  Ne447    1.0000 0.88720  0.66311  0.39146  Biso   1.000  Ne
  He447    1.0000 0.89816  0.64708  0.42094  Biso   1.000  He
  He448    1.0000 0.90755  0.61462  0.41313  Biso   1.000  He
  Ne448    1.0000 0.91924  0.59822  0.43828  Biso   1.000  Ne
  Ne449    1.0000 0.07296  0.27722  0.98026  Biso   1.000  Ne
  He449    1.0000 0.10281  0.27100  0.96676  Biso   1.000  He
  He450    1.0000 0.11626  0.29728  0.95059  Biso   1.000  He
  Ne450    1.0000 0.14948  0.29216  0.94460  Biso   1.000  Ne
  Ne451    1.0000 0.58840  0.14213  0.71072  Biso   1.000  Ne
  He451    1.0000 0.59183  0.13748  0.74586  Biso   1.000  He
  He452    1.0000 0.56696  0.12061  0.76033  Biso   1.000  He
  Ne452    1.0000 0.55025  0.13843  0.78090  Biso   1.000  Ne
  Ne453    1.0000 0.76648  0.53348  0.62858  Biso   1.000  Ne
  He453    1.0000 0.79712  0.53199  0.64172  Biso   1.000  He
  He454    1.0000 0.80616  0.56026  0.65535  Biso   1.000  He
  Ne454    1.0000 0.83381  0.55756  0.67401  Biso   1.000  Ne
  Ne455    1.0000 0.17523  0.78748  0.15783  Biso   1.000  Ne
  He455    1.0000 0.20111  0.76699  0.15956  Biso   1.000  He
  He456    1.0000 0.22194  0.77234  0.18367  Biso   1.000  He
  Ne456    1.0000 0.24974  0.75391  0.18150  Biso   1.000  Ne
  Ne457    1.0000 0.60920  0.63960  0.10142  Biso   1.000  Ne
  He457    1.0000 0.59620  0.65507  0.13092  Biso   1.000  He
  He458    1.0000 0.59889  0.69014  0.13582  Biso   1.000  He
  Ne458    1.0000 0.58031  0.70138  0.16185  Biso   1.000  Ne
  Ne459    1.0000 0.78809  0.19543  0.43718  Biso   1.000  Ne
  He459    1.0000 0.77745  0.16588  0.44848  Biso   1.000  He
  He460    1.0000 0.74434  0.16367  0.45980  Biso   1.000  He
  Ne460    1.0000 0.73878  0.13129  0.47497  Biso   1.000  Ne
  Ne461    1.0000 0.35603  0.89540  0.67799  Biso   1.000  Ne
  He461    1.0000 0.32953  0.87991  0.68931  Biso   1.000  He
  He462    1.0000 0.30247  0.88327  0.67047  Biso   1.000  He
  Ne462    1.0000 0.27803  0.86523  0.67556  Biso   1.000  Ne
  Ne463    1.0000 0.54809  0.81052  0.89683  Biso   1.000  Ne
  He463    1.0000 0.52437  0.78611  0.89925  Biso   1.000  He
  He464    1.0000 0.49788  0.79600  0.88066  Biso   1.000  He
  Ne464    1.0000 0.47774  0.76770  0.87421  Biso   1.000  Ne
  Ne465    1.0000 0.10682  0.88242  0.18445  Biso   1.000  Ne
  He465    1.0000 0.08520  0.87783  0.20874  Biso   1.000  He
  He466    1.0000 0.09943  0.86762  0.23599  Biso   1.000  He
  Ne466    1.0000 0.07603  0.86568  0.26028  Biso   1.000  Ne
  Ne467    1.0000 0.32346  0.38300  0.90289  Biso   1.000  Ne
  He467    1.0000 0.30038  0.37769  0.88131  Biso   1.000  He
  He468    1.0000 0.27505  0.36007  0.89210  Biso   1.000  He
  Ne468    1.0000 0.25066  0.35946  0.86872  Biso   1.000  Ne
  Ne469    1.0000 0.77210  0.66592  0.95365  Biso   1.000  Ne
  He469    1.0000 0.74256  0.65099  0.94654  Biso   1.000  He
  He470    1.0000 0.72826  0.66363  0.91739  Biso   1.000  He
  Ne470    1.0000 0.69876  0.65178  0.91286  Biso   1.000  Ne
  Ne471    1.0000 0.66759  0.88034  0.29603  Biso   1.000  Ne
  He471    1.0000 0.66576  0.86793  0.32805  Biso   1.000  He
  He472    1.0000 0.69461  0.88144  0.34108  Biso   1.000  He
  Ne472    1.0000 0.70116  0.87474  0.37292  Biso   1.000  Ne
  Ne473    1.0000 0.46561  0.14250  0.19493  Biso   1.000  Ne
  He473    1.0000 0.45273  0.17072  0.18072  Biso   1.000  He
  He474    1.0000 0.43992  0.16757  0.15078  Biso   1.000  He
  Ne474    1.0000 0.40777  0.16051  0.15158  Biso   1.000  Ne
  Ne475    1.0000 0.32669  0.05160  0.67670  Biso   1.000  Ne
  He475    1.0000 0.31267  0.04622  0.64713  Biso   1.000  He
  He476    1.0000 0.30115  0.07190  0.63640  Biso   1.000  He
  Ne476    1.0000 0.28965  0.06993  0.60735  Biso   1.000  Ne
  Ne477    1.0000 0.90155  0.07315  0.73521  Biso   1.000  Ne
  He477    1.0000 0.87726  0.08700  0.72063  Biso   1.000  He
  He478    1.0000 0.85280  0.06808  0.71342  Biso   1.000  He
  Ne478    1.0000 0.82863  0.08335  0.69754  Biso   1.000  Ne
  Ne479    1.0000 0.61603  0.65568  0.61899  Biso   1.000  Ne
  He479    1.0000 0.64711  0.65388  0.60620  Biso   1.000  He
  He480    1.0000 0.64986  0.64930  0.57129  Biso   1.000  He
  Ne480    1.0000 0.67969  0.64699  0.55977  Biso   1.000  Ne
  Ne481    1.0000 0.16465  0.08776  0.67177  Biso   1.000  Ne
  He481    1.0000 0.17744  0.06191  0.65748  Biso   1.000  He
  He482    1.0000 0.19538  0.06875  0.63026  Biso   1.000  He
  Ne482    1.0000 0.20448  0.04189  0.61288  Biso   1.000  Ne
  Ne483    1.0000 0.24906  0.72809  0.40832  Biso   1.000  Ne
  He483    1.0000 0.27520  0.74673  0.41724  Biso   1.000  He
  He484    1.0000 0.27161  0.77719  0.40523  Biso   1.000  He
  Ne484    1.0000 0.29686  0.79399  0.40575  Biso   1.000  Ne
  Ne485    1.0000 0.06841  0.99325  0.93982  Biso   1.000  Ne
  He485    1.0000 0.07787  0.02439  0.93883  Biso   1.000  He
  He486    1.0000 0.05386  0.04792  0.93983  Biso   1.000  He
  Ne486    1.0000 0.06541  0.07854  0.93454  Biso   1.000  Ne
  Ne487    1.0000 0.90536  0.80600  0.23893  Biso   1.000  Ne
  He487    1.0000 0.89725  0.83732  0.24400  Biso   1.000  He
  He488    1.0000 0.89540  0.85598  0.21692  Biso   1.000  He
  Ne488    1.0000 0.89015  0.88956  0.22265  Biso   1.000  Ne
  Ne489    1.0000 0.61763  0.21442  0.61730  Biso   1.000  Ne
  He489    1.0000 0.59475  0.19069  0.61460  Biso   1.000  He
  He490    1.0000 0.61090  0.16453  0.60370  Biso   1.000  He
  Ne490    1.0000 0.59231  0.13826  0.59654  Biso   1.000  Ne
  Ne491    1.0000 0.17210  0.11886  0.12237  Biso   1.000  Ne
  He491    1.0000 0.16607  0.10071  0.15080  Biso   1.000  He
  He492    1.0000 0.19009  0.07679  0.15469  Biso   1.000  He
  Ne492    1.0000 0.17566  0.05459  0.17619  Biso   1.000  Ne
  Ne493    1.0000 0.36658  0.29571  0.93867  Biso   1.000  Ne
  He493    1.0000 0.38378  0.26841  0.92637  Biso   1.000  He
  He494    1.0000 0.41704  0.27303  0.92017  Biso   1.000  He
  Ne494    1.0000 0.43436  0.24466  0.91532  Biso   1.000  Ne
  Ne495    1.0000 0.23685  0.04484  0.09910  Biso   1.000  Ne
  He495    1.0000 0.26572  0.03439  0.11310  Biso   1.000  He
  He496    1.0000 0.29130  0.05296  0.10658  Biso   1.000  He
  Ne496    1.0000 0.31875  0.04673  0.12583  Biso   1.000  Ne
  Ne497    1.0000 0.45398  0.05774  0.31224  Biso   1.000  Ne
  He497    1.0000 0.44018  0.05123  0.28304  Biso   1.000  He
  He498    1.0000 0.44161  0.07435  0.25974  Biso   1.000  He
  Ne498    1.0000 0.42912  0.06377  0.22776  Biso   1.000  Ne
  Ne499    1.0000 0.72929  0.16920  0.76781  Biso   1.000  Ne
  He499    1.0000 0.76323  0.16365  0.76573  Biso   1.000  He
  He500    1.0000 0.77932  0.19147  0.75757  Biso   1.000  He
  Ne500    1.0000 0.81171  0.19122  0.76103  Biso   1.000  Ne
