data_image0
_cell_length_a       46.8178
_cell_length_b       46.5425
_cell_length_c       46.5726
_cell_angle_alpha    90
_cell_angle_beta     90
_cell_angle_gamma    90

_symmetry_space_group_name_H-M    "P 1"
_symmetry_int_tables_number       1

loop_
  _symmetry_equiv_pos_as_xyz
  'x, y, z'

loop_
  _atom_site_label
  _atom_site_occupancy
  _atom_site_fract_x
  _atom_site_fract_y
  _atom_site_fract_z
  _atom_site_thermal_displace_type
  _atom_site_B_iso_or_equiv
  _atom_site_type_symbol
  Ne1      1.0000 0.33431  0.59197  0.25394  Biso   1.000  Ne
  He1      1.0000 0.35820  0.58166  0.23226  Biso   1.000  He
  He2      1.0000 0.34681  0.57325  0.20081  Biso   1.000  He
  Ne2      1.0000 0.37367  0.56503  0.18192  Biso   1.000  Ne
  Ne3      1.0000 0.27992  0.61924  0.41881  Biso   1.000  Ne
  He3      1.0000 0.25951  0.59178  0.40841  Biso   1.000  He
  He4      1.0000 0.26713  0.58558  0.37559  Biso   1.000  He
  Ne4      1.0000 0.24878  0.56224  0.36204  Biso   1.000  Ne
  Ne5      1.0000 0.30584  0.08243  0.35559  Biso   1.000  Ne
  He5      1.0000 0.32893  0.06448  0.34093  Biso   1.000  He
  He6      1.0000 0.35561  0.07952  0.33572  Biso   1.000  He
  Ne6      1.0000 0.37822  0.06050  0.31866  Biso   1.000  Ne
  Ne7      1.0000 0.90271  0.51061  0.55912  Biso   1.000  Ne
  He7      1.0000 0.90130  0.52602  0.52850  Biso   1.000  He
  He8      1.0000 0.92940  0.54489  0.52209  Biso   1.000  He
  Ne8      1.0000 0.92893  0.55860  0.49091  Biso   1.000  Ne
  Ne9      1.0000 0.56506  0.60462  0.19704  Biso   1.000  Ne
  He9      1.0000 0.55804  0.61721  0.22661  Biso   1.000  He
  He10     1.0000 0.57271  0.64461  0.23563  Biso   1.000  He
  Ne10     1.0000 0.56159  0.65969  0.26431  Biso   1.000  Ne
  Ne11     1.0000 0.58114  0.34523  0.11167  Biso   1.000  Ne
  He11     1.0000 0.56323  0.32093  0.09765  Biso   1.000  He
  He12     1.0000 0.57951  0.29149  0.09257  Biso   1.000  He
  Ne12     1.0000 0.56403  0.26702  0.07533  Biso   1.000  Ne
  Ne13     1.0000 0.26827  0.44556  0.51924  Biso   1.000  Ne
  He13     1.0000 0.28849  0.42456  0.50279  Biso   1.000  He
  He14     1.0000 0.27629  0.39513  0.50121  Biso   1.000  He
  Ne14     1.0000 0.29539  0.37382  0.48581  Biso   1.000  Ne
  Ne15     1.0000 0.95660  0.94633  0.93057  Biso   1.000  Ne
  He15     1.0000 0.93162  0.92509  0.93815  Biso   1.000  He
  He16     1.0000 0.92423  0.90177  0.91911  Biso   1.000  He
  Ne16     1.0000 0.89899  0.88401  0.93061  Biso   1.000  Ne
  Ne17     1.0000 0.13044  0.58812  0.31088  Biso   1.000  Ne
  He17     1.0000 0.09779  0.57870  0.31442  Biso   1.000  He
  He18     1.0000 0.08948  0.57479  0.34688  Biso   1.000  He
  Ne18     1.0000 0.05819  0.56812  0.35261  Biso   1.000  Ne
  Ne19     1.0000 0.63212  0.85165  0.37504  Biso   1.000  Ne
  He19     1.0000 0.65845  0.87067  0.38090  Biso   1.000  He
  He20     1.0000 0.65448  0.89276  0.40398  Biso   1.000  He
  Ne20     1.0000 0.68184  0.90669  0.41163  Biso   1.000  Ne
  Ne21     1.0000 0.73635  0.29711  0.14645  Biso   1.000  Ne
  He21     1.0000 0.70387  0.29747  0.13807  Biso   1.000  He
  He22     1.0000 0.68720  0.32676  0.13738  Biso   1.000  He
  Ne22     1.0000 0.65851  0.32273  0.12297  Biso   1.000  Ne
  Ne23     1.0000 0.20029  0.52585  0.06599  Biso   1.000  Ne
  He23     1.0000 0.21465  0.54116  0.09182  Biso   1.000  He
  He24     1.0000 0.20241  0.53570  0.12207  Biso   1.000  He
  Ne24     1.0000 0.21696  0.54658  0.15094  Biso   1.000  Ne
  Ne25     1.0000 0.90487  0.22574  0.71834  Biso   1.000  Ne
  He25     1.0000 0.89878  0.19897  0.73745  Biso   1.000  He
  He26     1.0000 0.90622  0.20417  0.76754  Biso   1.000  He
  Ne26     1.0000 0.91066  0.17718  0.78626  Biso   1.000  Ne
  Ne27     1.0000 0.56422  0.25376  0.37074  Biso   1.000  Ne
  He27     1.0000 0.58297  0.24693  0.34500  Biso   1.000  He
  He28     1.0000 0.56717  0.24204  0.31512  Biso   1.000  He
  Ne28     1.0000 0.58879  0.23642  0.29104  Biso   1.000  Ne
  Ne29     1.0000 0.39601  0.91388  0.38814  Biso   1.000  Ne
  He29     1.0000 0.39671  0.90232  0.41805  Biso   1.000  He
  He30     1.0000 0.40237  0.86856  0.41774  Biso   1.000  He
  Ne30     1.0000 0.40344  0.85359  0.44980  Biso   1.000  Ne
  Ne31     1.0000 0.28299  0.92466  0.62140  Biso   1.000  Ne
  He31     1.0000 0.29024  0.91463  0.65481  Biso   1.000  He
  He32     1.0000 0.26980  0.89179  0.66485  Biso   1.000  He
  Ne32     1.0000 0.27497  0.88377  0.69536  Biso   1.000  Ne
  Ne33     1.0000 0.91072  0.94296  0.08721  Biso   1.000  Ne
  He33     1.0000 0.89104  0.91539  0.08582  Biso   1.000  He
  He34     1.0000 0.86058  0.92933  0.08657  Biso   1.000  He
  Ne34     1.0000 0.83747  0.90661  0.08256  Biso   1.000  Ne
  Ne35     1.0000 0.16156  0.33607  0.87671  Biso   1.000  Ne
  He35     1.0000 0.19561  0.33617  0.87224  Biso   1.000  He
  He36     1.0000 0.21197  0.30650  0.87492  Biso   1.000  He
  Ne36     1.0000 0.24567  0.30764  0.87038  Biso   1.000  Ne
  Ne37     1.0000 0.53070  0.86367  0.28035  Biso   1.000  Ne
  He37     1.0000 0.55611  0.86844  0.30456  Biso   1.000  He
  He38     1.0000 0.54210  0.87410  0.33377  Biso   1.000  He
  Ne38     1.0000 0.54646  0.90716  0.34062  Biso   1.000  Ne
  Ne39     1.0000 0.56715  0.69942  0.84286  Biso   1.000  Ne
  He39     1.0000 0.56916  0.72726  0.86153  Biso   1.000  He
  He40     1.0000 0.58738  0.72215  0.89044  Biso   1.000  He
  Ne40     1.0000 0.59121  0.74996  0.91117  Biso   1.000  Ne
  Ne41     1.0000 0.67321  0.34296  0.76991  Biso   1.000  Ne
  He41     1.0000 0.70132  0.32709  0.75764  Biso   1.000  He
  He42     1.0000 0.72259  0.31937  0.78354  Biso   1.000  He
  Ne42     1.0000 0.75222  0.30927  0.77621  Biso   1.000  Ne
  Ne43     1.0000 0.53380  0.77338  0.08011  Biso   1.000  Ne
  He43     1.0000 0.53983  0.76083  0.11134  Biso   1.000  He
  He44     1.0000 0.53532  0.78195  0.13765  Biso   1.000  He
  Ne44     1.0000 0.53582  0.76935  0.16918  Biso   1.000  Ne
  Ne45     1.0000 0.27568  0.20813  0.13940  Biso   1.000  Ne
  He45     1.0000 0.29108  0.22756  0.16098  Biso   1.000  He
  He46     1.0000 0.32026  0.24166  0.15119  Biso   1.000  He
  Ne46     1.0000 0.34655  0.22118  0.15610  Biso   1.000  Ne
  Ne47     1.0000 0.17002  0.24426  0.38105  Biso   1.000  Ne
  He47     1.0000 0.16200  0.27442  0.37863  Biso   1.000  He
  He48     1.0000 0.18205  0.29127  0.35947  Biso   1.000  He
  Ne48     1.0000 0.17849  0.32467  0.36072  Biso   1.000  Ne
  Ne49     1.0000 0.72987  0.43463  0.83567  Biso   1.000  Ne
  He49     1.0000 0.76247  0.43782  0.84488  Biso   1.000  He
  He50     1.0000 0.78153  0.41504  0.82862  Biso   1.000  He
  Ne50     1.0000 0.81422  0.41527  0.83850  Biso   1.000  Ne
  Ne51     1.0000 0.17868  0.17670  0.85018  Biso   1.000  Ne
  He51     1.0000 0.18224  0.14231  0.85625  Biso   1.000  He
  He52     1.0000 0.18004  0.11834  0.83098  Biso   1.000  He
  Ne52     1.0000 0.17406  0.08862  0.84208  Biso   1.000  Ne
  Ne53     1.0000 0.97374  0.93733  0.04207  Biso   1.000  Ne
  He53     1.0000 0.99063  0.93516  0.01319  Biso   1.000  He
  He54     1.0000 0.02265  0.93068  0.01907  Biso   1.000  He
  Ne54     1.0000 0.03676  0.92819  0.99041  Biso   1.000  Ne
  Ne55     1.0000 0.82893  0.26979  0.81630  Biso   1.000  Ne
  He55     1.0000 0.82089  0.27379  0.84974  Biso   1.000  He
  He56     1.0000 0.79103  0.26067  0.85727  Biso   1.000  He
  Ne56     1.0000 0.78471  0.26122  0.88951  Biso   1.000  Ne
  Ne57     1.0000 0.40509  0.61157  0.11264  Biso   1.000  Ne
  He57     1.0000 0.38524  0.63527  0.11638  Biso   1.000  He
  He58     1.0000 0.39607  0.65886  0.14101  Biso   1.000  He
  Ne58     1.0000 0.37560  0.68764  0.14558  Biso   1.000  Ne
  Ne59     1.0000 0.69535  0.61262  0.25587  Biso   1.000  Ne
  He59     1.0000 0.69034  0.61621  0.22296  Biso   1.000  He
  He60     1.0000 0.69408  0.64988  0.21451  Biso   1.000  He
  Ne60     1.0000 0.69035  0.65704  0.18145  Biso   1.000  Ne
  Ne61     1.0000 0.30434  0.18457  0.79642  Biso   1.000  Ne
  He61     1.0000 0.33303  0.20349  0.79774  Biso   1.000  He
  He62     1.0000 0.35859  0.18706  0.78364  Biso   1.000  He
  Ne62     1.0000 0.38560  0.20404  0.78013  Biso   1.000  Ne
  Ne63     1.0000 0.25938  0.09220  0.22785  Biso   1.000  Ne
  He63     1.0000 0.28606  0.09984  0.24550  Biso   1.000  He
  He64     1.0000 0.28010  0.11912  0.27292  Biso   1.000  He
  Ne64     1.0000 0.30924  0.13395  0.28336  Biso   1.000  Ne
  Ne65     1.0000 0.18453  0.34745  0.13324  Biso   1.000  Ne
  He65     1.0000 0.17802  0.33309  0.16103  Biso   1.000  He
  He66     1.0000 0.19551  0.34399  0.18576  Biso   1.000  He
  Ne66     1.0000 0.19075  0.33183  0.21441  Biso   1.000  Ne
  Ne67     1.0000 0.66747  0.89693  0.04955  Biso   1.000  Ne
  He67     1.0000 0.67978  0.87245  0.03050  Biso   1.000  He
  He68     1.0000 0.67629  0.84106  0.04450  Biso   1.000  He
  Ne68     1.0000 0.69220  0.81791  0.02378  Biso   1.000  Ne
  Ne69     1.0000 0.36744  0.34850  0.19275  Biso   1.000  Ne
  He69     1.0000 0.38910  0.32711  0.20624  Biso   1.000  He
  He70     1.0000 0.37379  0.30009  0.22181  Biso   1.000  He
  Ne70     1.0000 0.39369  0.27640  0.23028  Biso   1.000  Ne
  Ne71     1.0000 0.57289  0.80715  0.76997  Biso   1.000  Ne
  He71     1.0000 0.57135  0.79416  0.74027  Biso   1.000  He
  He72     1.0000 0.55723  0.76464  0.73915  Biso   1.000  He
  Ne72     1.0000 0.55419  0.75360  0.70860  Biso   1.000  Ne
  Ne73     1.0000 0.41419  0.95008  0.64184  Biso   1.000  Ne
  He73     1.0000 0.41503  0.93426  0.61242  Biso   1.000  He
  He74     1.0000 0.40303  0.95284  0.58757  Biso   1.000  He
  Ne74     1.0000 0.39842  0.93676  0.56048  Biso   1.000  Ne
  Ne75     1.0000 0.57563  0.03242  0.46448  Biso   1.000  Ne
  He75     1.0000 0.58062  0.03576  0.43019  Biso   1.000  He
  He76     1.0000 0.55855  0.05890  0.42155  Biso   1.000  He
  Ne76     1.0000 0.54910  0.05562  0.39036  Biso   1.000  Ne
  Ne77     1.0000 0.55728  0.23038  0.62121  Biso   1.000  Ne
  He77     1.0000 0.56015  0.19886  0.61066  Biso   1.000  He
  He78     1.0000 0.59125  0.18422  0.61326  Biso   1.000  He
  Ne78     1.0000 0.59251  0.15117  0.60231  Biso   1.000  Ne
  Ne79     1.0000 0.77050  0.92205  0.81490  Biso   1.000  Ne
  He79     1.0000 0.75011  0.92199  0.78898  Biso   1.000  He
  He80     1.0000 0.76191  0.89891  0.76524  Biso   1.000  He
  Ne80     1.0000 0.74717  0.90226  0.73541  Biso   1.000  Ne
  Ne81     1.0000 0.36714  0.77153  0.67841  Biso   1.000  Ne
  He81     1.0000 0.38290  0.75528  0.65272  Biso   1.000  He
  He82     1.0000 0.37892  0.76872  0.62523  Biso   1.000  He
  Ne82     1.0000 0.38977  0.75326  0.59918  Biso   1.000  Ne
  Ne83     1.0000 0.72503  0.88833  0.60505  Biso   1.000  Ne
  He83     1.0000 0.74435  0.89773  0.58242  Biso   1.000  He
  He84     1.0000 0.76229  0.87466  0.56982  Biso   1.000  He
  Ne84     1.0000 0.78532  0.88542  0.54639  Biso   1.000  Ne
  Ne85     1.0000 0.77215  0.74270  0.62111  Biso   1.000  Ne
  He85     1.0000 0.80391  0.74653  0.62800  Biso   1.000  He
  He86     1.0000 0.82597  0.74720  0.60216  Biso   1.000  He
  Ne86     1.0000 0.85422  0.75440  0.60859  Biso   1.000  Ne
  Ne87     1.0000 0.41001  0.33827  0.72632  Biso   1.000  Ne
  He87     1.0000 0.42882  0.36407  0.71901  Biso   1.000  He
  He88     1.0000 0.41512  0.38952  0.73178  Biso   1.000  He
  Ne88     1.0000 0.43513  0.41720  0.72636  Biso   1.000  Ne
  Ne89     1.0000 0.08351  0.93522  0.93620  Biso   1.000  Ne
  He89     1.0000 0.06708  0.92801  0.90799  Biso   1.000  He
  He90     1.0000 0.08767  0.90750  0.88926  Biso   1.000  He
  Ne90     1.0000 0.07424  0.89753  0.86096  Biso   1.000  Ne
  Ne91     1.0000 0.42090  0.22886  0.41266  Biso   1.000  Ne
  He91     1.0000 0.40120  0.20331  0.41859  Biso   1.000  He
  He92     1.0000 0.37072  0.20636  0.43154  Biso   1.000  He
  Ne92     1.0000 0.35170  0.18156  0.43751  Biso   1.000  Ne
  Ne93     1.0000 0.28645  0.51782  0.46439  Biso   1.000  Ne
  He93     1.0000 0.28556  0.54474  0.47990  Biso   1.000  He
  He94     1.0000 0.28069  0.54301  0.51219  Biso   1.000  He
  Ne94     1.0000 0.29220  0.56636  0.53140  Biso   1.000  Ne
  Ne95     1.0000 0.62328  0.87806  0.60542  Biso   1.000  Ne
  He95     1.0000 0.62473  0.89129  0.63747  Biso   1.000  He
  He96     1.0000 0.65355  0.90669  0.64598  Biso   1.000  He
  Ne96     1.0000 0.65502  0.91262  0.67788  Biso   1.000  Ne
  Ne97     1.0000 0.39967  0.26720  0.58486  Biso   1.000  Ne
  He97     1.0000 0.38205  0.24357  0.59983  Biso   1.000  He
  He98     1.0000 0.38661  0.21300  0.59012  Biso   1.000  He
  Ne98     1.0000 0.37293  0.19008  0.61162  Biso   1.000  Ne
  Ne99     1.0000 0.10159  0.41706  0.44320  Biso   1.000  Ne
  He99     1.0000 0.12129  0.39340  0.43528  Biso   1.000  He
  He100    1.0000 0.11441  0.36412  0.44832  Biso   1.000  He
  Ne100    1.0000 0.13538  0.33760  0.44245  Biso   1.000  Ne
  Ne101    1.0000 0.28384  0.60325  0.94051  Biso   1.000  Ne
  He101    1.0000 0.30358  0.59471  0.91302  Biso   1.000  He
  He102    1.0000 0.28421  0.59118  0.88442  Biso   1.000  He
  Ne102    1.0000 0.30522  0.58752  0.85799  Biso   1.000  Ne
  Ne103    1.0000 0.05373  0.91916  0.21138  Biso   1.000  Ne
  He103    1.0000 0.07663  0.91158  0.18861  Biso   1.000  He
  He104    1.0000 0.10700  0.91524  0.19914  Biso   1.000  He
  Ne104    1.0000 0.12801  0.90715  0.17408  Biso   1.000  Ne
  Ne105    1.0000 0.55643  0.54154  0.04088  Biso   1.000  Ne
  He105    1.0000 0.54682  0.56507  0.06411  Biso   1.000  He
  He106    1.0000 0.56648  0.57377  0.08748  Biso   1.000  He
  Ne106    1.0000 0.55208  0.58828  0.11383  Biso   1.000  Ne
  Ne107    1.0000 0.31008  0.94647  0.18747  Biso   1.000  Ne
  He107    1.0000 0.27859  0.94058  0.18327  Biso   1.000  He
  He108    1.0000 0.26398  0.92286  0.20963  Biso   1.000  He
  Ne108    1.0000 0.23034  0.91780  0.20748  Biso   1.000  Ne
  Ne109    1.0000 0.38352  0.11837  0.17657  Biso   1.000  Ne
  He109    1.0000 0.35539  0.12985  0.16401  Biso   1.000  He
  He110    1.0000 0.33186  0.10777  0.15901  Biso   1.000  He
  Ne110    1.0000 0.30850  0.11822  0.13891  Biso   1.000  Ne
  Ne111    1.0000 0.49198  0.98479  0.22204  Biso   1.000  Ne
  He111    1.0000 0.48061  0.96205  0.24134  Biso   1.000  He
  He112    1.0000 0.45260  0.94432  0.23096  Biso   1.000  He
  Ne112    1.0000 0.43688  0.92448  0.25218  Biso   1.000  Ne
  Ne113    1.0000 0.73296  0.02816  0.31755  Biso   1.000  Ne
  He113    1.0000 0.74624  0.05275  0.30294  Biso   1.000  He
  He114    1.0000 0.73901  0.04940  0.27020  Biso   1.000  He
  Ne114    1.0000 0.75996  0.06618  0.25059  Biso   1.000  Ne
  Ne115    1.0000 0.91331  0.42519  0.65690  Biso   1.000  Ne
  He115    1.0000 0.88953  0.41240  0.63639  Biso   1.000  He
  He116    1.0000 0.88903  0.41856  0.60310  Biso   1.000  He
  Ne116    1.0000 0.86743  0.39842  0.58664  Biso   1.000  Ne
  Ne117    1.0000 0.08938  0.26017  0.85191  Biso   1.000  Ne
  He117    1.0000 0.09714  0.22695  0.85263  Biso   1.000  He
  He118    1.0000 0.08202  0.20833  0.87574  Biso   1.000  He
  Ne118    1.0000 0.09267  0.17522  0.87391  Biso   1.000  Ne
  Ne119    1.0000 0.15700  0.31354  0.61093  Biso   1.000  Ne
  He119    1.0000 0.12429  0.30107  0.61315  Biso   1.000  He
  He120    1.0000 0.11797  0.28238  0.63872  Biso   1.000  He
  Ne120    1.0000 0.08731  0.26829  0.63921  Biso   1.000  Ne
  Ne121    1.0000 0.38438  0.86515  0.61337  Biso   1.000  Ne
  He121    1.0000 0.36264  0.84217  0.62313  Biso   1.000  He
  He122    1.0000 0.33232  0.84134  0.61393  Biso   1.000  He
  Ne122    1.0000 0.31629  0.81298  0.61827  Biso   1.000  Ne
  Ne123    1.0000 0.06941  0.64710  0.28635  Biso   1.000  Ne
  He123    1.0000 0.04003  0.65592  0.29811  Biso   1.000  He
  He124    1.0000 0.03872  0.67781  0.32182  Biso   1.000  He
  Ne124    1.0000 0.04758  0.66853  0.35091  Biso   1.000  Ne
  Ne125    1.0000 0.43969  0.77595  0.19217  Biso   1.000  Ne
  He125    1.0000 0.44462  0.77501  0.22541  Biso   1.000  He
  He126    1.0000 0.41899  0.79152  0.24224  Biso   1.000  He
  Ne126    1.0000 0.42268  0.78868  0.27616  Biso   1.000  Ne
  Ne127    1.0000 0.55037  0.91242  0.69041  Biso   1.000  Ne
  He127    1.0000 0.54511  0.88525  0.66756  Biso   1.000  He
  He128    1.0000 0.55217  0.85435  0.68103  Biso   1.000  He
  Ne128    1.0000 0.54296  0.82984  0.66205  Biso   1.000  Ne
  Ne129    1.0000 0.02415  0.06648  0.24713  Biso   1.000  Ne
  He129    1.0000 0.04278  0.09369  0.25397  Biso   1.000  He
  He130    1.0000 0.03758  0.12055  0.23246  Biso   1.000  He
  Ne130    1.0000 0.05441  0.14770  0.24299  Biso   1.000  Ne
  Ne131    1.0000 0.66752  0.93184  0.75882  Biso   1.000  Ne
  He131    1.0000 0.65815  0.94149  0.78958  Biso   1.000  He
  He132    1.0000 0.67121  0.97075  0.79753  Biso   1.000  He
  Ne132    1.0000 0.66562  0.98294  0.82637  Biso   1.000  Ne
  Ne133    1.0000 0.40937  0.98050  0.46298  Biso   1.000  Ne
  He133    1.0000 0.42436  0.00967  0.45115  Biso   1.000  He
  He134    1.0000 0.45704  0.00892  0.45186  Biso   1.000  He
  Ne134    1.0000 0.46910  0.03896  0.44193  Biso   1.000  Ne
  Ne135    1.0000 0.42728  0.39538  0.07251  Biso   1.000  Ne
  He135    1.0000 0.42590  0.39084  0.10533  Biso   1.000  He
  He136    1.0000 0.41826  0.41630  0.12509  Biso   1.000  He
  Ne136    1.0000 0.41367  0.40917  0.15511  Biso   1.000  Ne
  Ne137    1.0000 0.67976  0.57657  0.50227  Biso   1.000  Ne
  He137    1.0000 0.69117  0.56214  0.47487  Biso   1.000  He
  He138    1.0000 0.70127  0.58361  0.45067  Biso   1.000  He
  Ne138    1.0000 0.71140  0.56963  0.42297  Biso   1.000  Ne
  Ne139    1.0000 0.89562  0.58113  0.71051  Biso   1.000  Ne
  He139    1.0000 0.90206  0.57075  0.68032  Biso   1.000  He
  He140    1.0000 0.87519  0.57525  0.65906  Biso   1.000  He
  Ne140    1.0000 0.87890  0.56879  0.62852  Biso   1.000  Ne
  Ne141    1.0000 0.58926  0.15810  0.34699  Biso   1.000  Ne
  He141    1.0000 0.57189  0.16127  0.37438  Biso   1.000  He
  He142    1.0000 0.58432  0.14301  0.39911  Biso   1.000  He
  Ne142    1.0000 0.57243  0.15060  0.42806  Biso   1.000  Ne
  Ne143    1.0000 0.67251  0.09041  0.32456  Biso   1.000  Ne
  He143    1.0000 0.64068  0.08473  0.33455  Biso   1.000  He
  He144    1.0000 0.62171  0.06914  0.31193  Biso   1.000  He
  Ne144    1.0000 0.59327  0.06810  0.32454  Biso   1.000  Ne
  Ne145    1.0000 0.25831  0.29901  0.46764  Biso   1.000  Ne
  He145    1.0000 0.26857  0.27887  0.44328  Biso   1.000  He
  He146    1.0000 0.28861  0.29357  0.42125  Biso   1.000  He
  Ne146    1.0000 0.29950  0.27359  0.39607  Biso   1.000  Ne
  Ne147    1.0000 0.10660  0.68973  0.73751  Biso   1.000  Ne
  He147    1.0000 0.08023  0.70779  0.74077  Biso   1.000  He
  He148    1.0000 0.07288  0.73078  0.71949  Biso   1.000  He
  Ne148    1.0000 0.04517  0.75007  0.72530  Biso   1.000  Ne
  Ne149    1.0000 0.89333  0.63344  0.35418  Biso   1.000  Ne
  He149    1.0000 0.88191  0.63045  0.38463  Biso   1.000  He
  He150    1.0000 0.89525  0.64987  0.40890  Biso   1.000  He
  Ne150    1.0000 0.88421  0.64343  0.43874  Biso   1.000  Ne
  Ne151    1.0000 0.07061  0.75996  0.89305  Biso   1.000  Ne
  He151    1.0000 0.07128  0.77466  0.92317  Biso   1.000  He
  He152    1.0000 0.08376  0.80574  0.92235  Biso   1.000  He
  Ne152    1.0000 0.07860  0.82686  0.94579  Biso   1.000  Ne
  Ne153    1.0000 0.89174  0.84191  0.11088  Biso   1.000  Ne
  He153    1.0000 0.89085  0.81496  0.12744  Biso   1.000  He
  He154    1.0000 0.87969  0.79259  0.10720  Biso   1.000  He
  Ne154    1.0000 0.87687  0.76210  0.11860  Biso   1.000  Ne
  Ne155    1.0000 0.20826  0.86118  0.12110  Biso   1.000  Ne
  He155    1.0000 0.18263  0.83948  0.11512  Biso   1.000  He
  He156    1.0000 0.15207  0.85063  0.12252  Biso   1.000  He
  Ne156    1.0000 0.12757  0.83077  0.11431  Biso   1.000  Ne
  Ne157    1.0000 0.43378  0.62802  0.32450  Biso   1.000  Ne
  He157    1.0000 0.41393  0.64450  0.34445  Biso   1.000  He
  He158    1.0000 0.38637  0.62671  0.35412  Biso   1.000  He
  Ne158    1.0000 0.36838  0.64353  0.37846  Biso   1.000  Ne
  Ne159    1.0000 0.30209  0.72173  0.44000  Biso   1.000  Ne
  He159    1.0000 0.28685  0.75051  0.43786  Biso   1.000  He
  He160    1.0000 0.30432  0.77661  0.42447  Biso   1.000  He
  Ne160    1.0000 0.28685  0.80584  0.42426  Biso   1.000  Ne
  Ne161    1.0000 0.05921  0.90902  0.09163  Biso   1.000  Ne
  He161    1.0000 0.06116  0.89028  0.11857  Biso   1.000  He
  He162    1.0000 0.05360  0.85925  0.11154  Biso   1.000  He
  Ne162    1.0000 0.05281  0.83957  0.13734  Biso   1.000  Ne
  Ne163    1.0000 0.38543  0.84371  0.72022  Biso   1.000  Ne
  He163    1.0000 0.38988  0.87480  0.71074  Biso   1.000  He
  He164    1.0000 0.36107  0.88935  0.70620  Biso   1.000  He
  Ne164    1.0000 0.36215  0.92300  0.70590  Biso   1.000  Ne
  Ne165    1.0000 0.57821  0.41924  0.19948  Biso   1.000  Ne
  He165    1.0000 0.58969  0.42235  0.22951  Biso   1.000  He
  He166    1.0000 0.57329  0.41154  0.25566  Biso   1.000  He
  Ne166    1.0000 0.58920  0.41571  0.28253  Biso   1.000  Ne
  Ne167    1.0000 0.04757  0.58746  0.59148  Biso   1.000  Ne
  He167    1.0000 0.07835  0.58181  0.58376  Biso   1.000  He
  He168    1.0000 0.09999  0.57380  0.60438  Biso   1.000  He
  Ne168    1.0000 0.12901  0.56499  0.59076  Biso   1.000  Ne
  Ne169    1.0000 0.29967  0.22849  0.62337  Biso   1.000  Ne
  He169    1.0000 0.28758  0.24631  0.65021  Biso   1.000  He
  He170    1.0000 0.27261  0.27478  0.63639  Biso   1.000  He
  Ne170    1.0000 0.26272  0.29614  0.65797  Biso   1.000  Ne
  Ne171    1.0000 0.43477  0.16234  0.07798  Biso   1.000  Ne
  He171    1.0000 0.42479  0.19290  0.06730  Biso   1.000  He
  He172    1.0000 0.42420  0.21347  0.08954  Biso   1.000  He
  Ne172    1.0000 0.41299  0.24362  0.08091  Biso   1.000  Ne
  Ne173    1.0000 0.90797  0.85537  0.85294  Biso   1.000  Ne
  He173    1.0000 0.90151  0.87531  0.82667  Biso   1.000  He
  He174    1.0000 0.88687  0.90255  0.83838  Biso   1.000  He
  Ne174    1.0000 0.85554  0.91101  0.82709  Biso   1.000  Ne
  Ne175    1.0000 0.55275  0.86901  0.45111  Biso   1.000  Ne
  He175    1.0000 0.56740  0.83918  0.44322  Biso   1.000  He
  He176    1.0000 0.56179  0.81283  0.46151  Biso   1.000  He
  Ne176    1.0000 0.58102  0.78826  0.45523  Biso   1.000  Ne
  Ne177    1.0000 0.39794  0.70682  0.22321  Biso   1.000  Ne
  He177    1.0000 0.37453  0.70497  0.24773  Biso   1.000  He
  He178    1.0000 0.38405  0.71418  0.27665  Biso   1.000  He
  Ne178    1.0000 0.36016  0.71609  0.29900  Biso   1.000  Ne
  Ne179    1.0000 0.53894  0.42104  0.12698  Biso   1.000  Ne
  He179    1.0000 0.54456  0.42269  0.09452  Biso   1.000  He
  He180    1.0000 0.51780  0.40922  0.07604  Biso   1.000  He
  Ne180    1.0000 0.51887  0.41269  0.04184  Biso   1.000  Ne
  Ne181    1.0000 0.29034  0.10771  0.75401  Biso   1.000  Ne
  He181    1.0000 0.25832  0.10037  0.74603  Biso   1.000  He
  He182    1.0000 0.25226  0.06545  0.74142  Biso   1.000  He
  Ne182    1.0000 0.22061  0.05875  0.73504  Biso   1.000  Ne
  Ne183    1.0000 0.30832  0.39911  0.64036  Biso   1.000  Ne
  He183    1.0000 0.29572  0.38460  0.66671  Biso   1.000  He
  He184    1.0000 0.27636  0.40650  0.68671  Biso   1.000  He
  Ne184    1.0000 0.26901  0.39606  0.71272  Biso   1.000  Ne
  Ne185    1.0000 0.36587  0.32923  0.09882  Biso   1.000  Ne
  He185    1.0000 0.38124  0.30358  0.11033  Biso   1.000  He
  He186    1.0000 0.40242  0.31101  0.13574  Biso   1.000  He
  Ne186    1.0000 0.41262  0.28373  0.15207  Biso   1.000  Ne
  Ne187    1.0000 0.52762  0.08898  0.58684  Biso   1.000  Ne
  He187    1.0000 0.55356  0.06648  0.58791  Biso   1.000  He
  He188    1.0000 0.55934  0.05039  0.56036  Biso   1.000  He
  Ne188    1.0000 0.58485  0.02845  0.56067  Biso   1.000  Ne
  Ne189    1.0000 0.67972  0.31820  0.56552  Biso   1.000  Ne
  He189    1.0000 0.66343  0.30257  0.58652  Biso   1.000  He
  He190    1.0000 0.65852  0.26999  0.58121  Biso   1.000  He
  Ne190    1.0000 0.63798  0.25556  0.60358  Biso   1.000  Ne
  Ne191    1.0000 0.32296  0.37749  0.28876  Biso   1.000  Ne
  He191    1.0000 0.29103  0.38813  0.28069  Biso   1.000  He
  He192    1.0000 0.28184  0.38121  0.25069  Biso   1.000  He
  Ne192    1.0000 0.25425  0.39079  0.24422  Biso   1.000  Ne
  Ne193    1.0000 0.19994  0.38422  0.30698  Biso   1.000  Ne
  He193    1.0000 0.17933  0.38847  0.27987  Biso   1.000  He
  He194    1.0000 0.16544  0.41852  0.27542  Biso   1.000  He
  Ne194    1.0000 0.14949  0.42228  0.24575  Biso   1.000  Ne
  Ne195    1.0000 0.35526  0.06335  0.44439  Biso   1.000  Ne
  He195    1.0000 0.37106  0.07545  0.41852  Biso   1.000  He
  He196    1.0000 0.37567  0.10690  0.41933  Biso   1.000  He
  Ne196    1.0000 0.39140  0.11659  0.39394  Biso   1.000  Ne
  Ne197    1.0000 0.64288  0.69129  0.07421  Biso   1.000  Ne
  He197    1.0000 0.66555  0.71751  0.07214  Biso   1.000  He
  He198    1.0000 0.65812  0.74268  0.09066  Biso   1.000  He
  Ne198    1.0000 0.68314  0.76842  0.09234  Biso   1.000  Ne
  Ne199    1.0000 0.56446  0.69892  0.36979  Biso   1.000  Ne
  He199    1.0000 0.58133  0.71524  0.34424  Biso   1.000  He
  He200    1.0000 0.57950  0.74743  0.34058  Biso   1.000  He
  Ne200    1.0000 0.59781  0.75860  0.31643  Biso   1.000  Ne
  Ne201    1.0000 0.37649  0.20941  0.31294  Biso   1.000  Ne
  He201    1.0000 0.40387  0.21393  0.29433  Biso   1.000  He
  He202    1.0000 0.41089  0.18887  0.27167  Biso   1.000  He
  Ne202    1.0000 0.43420  0.19328  0.24902  Biso   1.000  Ne
  Ne203    1.0000 0.74043  0.05022  0.42005  Biso   1.000  Ne
  He203    1.0000 0.70764  0.05305  0.42083  Biso   1.000  He
  He204    1.0000 0.69618  0.08276  0.41736  Biso   1.000  He
  Ne204    1.0000 0.66493  0.08427  0.41640  Biso   1.000  Ne
  Ne205    1.0000 0.85371  0.18750  0.09761  Biso   1.000  Ne
  He205    1.0000 0.86382  0.15823  0.08273  Biso   1.000  He
  He206    1.0000 0.88745  0.14155  0.09607  Biso   1.000  He
  Ne206    1.0000 0.89659  0.11195  0.08008  Biso   1.000  Ne
  Ne207    1.0000 0.07520  0.06512  0.89660  Biso   1.000  Ne
  He207    1.0000 0.09628  0.07789  0.87272  Biso   1.000  He
  He208    1.0000 0.07724  0.08985  0.84739  Biso   1.000  He
  Ne208    1.0000 0.09814  0.10883  0.82736  Biso   1.000  Ne
  Ne209    1.0000 0.04637  0.00043  0.08238  Biso   1.000  Ne
  He209    1.0000 0.02338  0.02040  0.08692  Biso   1.000  He
  He210    1.0000 0.01996  0.04571  0.06602  Biso   1.000  He
  Ne210    1.0000 0.99350  0.06370  0.07479  Biso   1.000  Ne
  Ne211    1.0000 0.13995  0.03586  0.37220  Biso   1.000  Ne
  He211    1.0000 0.13819  0.05552  0.40054  Biso   1.000  He
  He212    1.0000 0.14695  0.08534  0.39673  Biso   1.000  He
  Ne212    1.0000 0.15254  0.10400  0.42519  Biso   1.000  Ne
  Ne213    1.0000 0.13209  0.15744  0.15005  Biso   1.000  Ne
  He213    1.0000 0.12165  0.15987  0.18199  Biso   1.000  He
  He214    1.0000 0.14406  0.17305  0.20159  Biso   1.000  He
  Ne214    1.0000 0.13390  0.17638  0.23392  Biso   1.000  Ne
  Ne215    1.0000 0.24943  0.73771  0.13004  Biso   1.000  Ne
  He215    1.0000 0.26599  0.76338  0.13431  Biso   1.000  He
  He216    1.0000 0.26949  0.78007  0.10563  Biso   1.000  He
  Ne216    1.0000 0.27776  0.80945  0.11262  Biso   1.000  Ne
  Ne217    1.0000 0.06655  0.56115  0.74449  Biso   1.000  Ne
  He217    1.0000 0.06174  0.57323  0.71120  Biso   1.000  He
  He218    1.0000 0.06557  0.60549  0.70666  Biso   1.000  He
  Ne218    1.0000 0.09449  0.61489  0.69815  Biso   1.000  Ne
  Ne219    1.0000 0.20839  0.09318  0.94487  Biso   1.000  Ne
  He219    1.0000 0.18161  0.07459  0.93804  Biso   1.000  He
  He220    1.0000 0.15511  0.08421  0.95656  Biso   1.000  He
  Ne220    1.0000 0.12783  0.06564  0.95612  Biso   1.000  Ne
  Ne221    1.0000 0.17120  0.07066  0.09975  Biso   1.000  Ne
  He221    1.0000 0.17878  0.09634  0.12101  Biso   1.000  He
  He222    1.0000 0.19516  0.08456  0.14868  Biso   1.000  He
  Ne222    1.0000 0.19973  0.10800  0.17219  Biso   1.000  Ne
  Ne223    1.0000 0.18126  0.45256  0.16524  Biso   1.000  Ne
  He223    1.0000 0.18995  0.44965  0.13361  Biso   1.000  He
  He224    1.0000 0.21812  0.43012  0.12813  Biso   1.000  He
  Ne224    1.0000 0.22177  0.42130  0.09552  Biso   1.000  Ne
  Ne225    1.0000 0.77056  0.12480  0.92824  Biso   1.000  Ne
  He225    1.0000 0.78385  0.12332  0.89764  Biso   1.000  He
  He226    1.0000 0.80831  0.14478  0.89124  Biso   1.000  He
  Ne226    1.0000 0.82302  0.13930  0.86199  Biso   1.000  Ne
  Ne227    1.0000 0.50999  0.98217  0.59701  Biso   1.000  Ne
  He227    1.0000 0.50175  0.96286  0.57400  Biso   1.000  He
  He228    1.0000 0.50879  0.92914  0.57992  Biso   1.000  He
  Ne228    1.0000 0.49887  0.90813  0.55544  Biso   1.000  Ne
  Ne229    1.0000 0.82043  0.35594  0.43495  Biso   1.000  Ne
  He229    1.0000 0.79557  0.35080  0.41394  Biso   1.000  He
  He230    1.0000 0.76964  0.36820  0.42334  Biso   1.000  He
  Ne230    1.0000 0.74149  0.36317  0.40822  Biso   1.000  Ne
  Ne231    1.0000 0.17632  0.57834  0.42470  Biso   1.000  Ne
  He231    1.0000 0.16800  0.61072  0.42585  Biso   1.000  He
  He232    1.0000 0.13887  0.61426  0.44215  Biso   1.000  He
  Ne232    1.0000 0.12951  0.64332  0.44367  Biso   1.000  Ne
  Ne233    1.0000 0.31371  0.90855  0.45345  Biso   1.000  Ne
  He233    1.0000 0.28792  0.90924  0.43150  Biso   1.000  He
  He234    1.0000 0.29649  0.91305  0.39978  Biso   1.000  He
  Ne234    1.0000 0.27158  0.91414  0.37971  Biso   1.000  Ne
  Ne235    1.0000 0.13651  0.26003  0.17189  Biso   1.000  Ne
  He235    1.0000 0.13803  0.26899  0.13914  Biso   1.000  He
  He236    1.0000 0.16329  0.25428  0.12334  Biso   1.000  He
  Ne236    1.0000 0.16071  0.22206  0.11543  Biso   1.000  Ne
  Ne237    1.0000 0.79237  0.57277  0.44201  Biso   1.000  Ne
  He237    1.0000 0.82157  0.57430  0.42895  Biso   1.000  He
  He238    1.0000 0.84431  0.56422  0.44574  Biso   1.000  He
  Ne238    1.0000 0.87353  0.56390  0.42961  Biso   1.000  Ne
  Ne239    1.0000 0.91060  0.79083  0.34919  Biso   1.000  Ne
  He239    1.0000 0.90368  0.76777  0.36850  Biso   1.000  He
  He240    1.0000 0.87265  0.75419  0.36525  Biso   1.000  He
  Ne240    1.0000 0.86546  0.72582  0.38381  Biso   1.000  Ne
  Ne241    1.0000 0.16222  0.91123  0.92314  Biso   1.000  Ne
  He241    1.0000 0.17677  0.89887  0.94923  Biso   1.000  He
  He242    1.0000 0.20764  0.89576  0.94402  Biso   1.000  He
  Ne242    1.0000 0.22295  0.87445  0.96421  Biso   1.000  Ne
  Ne243    1.0000 0.07065  0.77225  0.40440  Biso   1.000  Ne
  He243    1.0000 0.06498  0.74011  0.41127  Biso   1.000  He
  He244    1.0000 0.05797  0.73287  0.44237  Biso   1.000  He
  Ne244    1.0000 0.04617  0.70519  0.44736  Biso   1.000  Ne
  Ne245    1.0000 0.11786  0.59856  0.18978  Biso   1.000  Ne
  He245    1.0000 0.13334  0.61793  0.21039  Biso   1.000  He
  He246    1.0000 0.12164  0.64867  0.21238  Biso   1.000  He
  Ne246    1.0000 0.13781  0.67170  0.19380  Biso   1.000  Ne
  Ne247    1.0000 0.38103  0.16141  0.69306  Biso   1.000  Ne
  He247    1.0000 0.34893  0.15468  0.70077  Biso   1.000  He
  He248    1.0000 0.33185  0.18199  0.69846  Biso   1.000  He
  Ne248    1.0000 0.29983  0.17883  0.70544  Biso   1.000  Ne
  Ne249    1.0000 0.65464  0.31425  0.84905  Biso   1.000  Ne
  He249    1.0000 0.62480  0.30901  0.86397  Biso   1.000  He
  He250    1.0000 0.60056  0.33100  0.85608  Biso   1.000  He
  Ne250    1.0000 0.56972  0.32715  0.86736  Biso   1.000  Ne
  Ne251    1.0000 0.37859  0.08388  0.72769  Biso   1.000  Ne
  He251    1.0000 0.39675  0.07775  0.75424  Biso   1.000  He
  He252    1.0000 0.41096  0.10279  0.77006  Biso   1.000  He
  Ne252    1.0000 0.42458  0.09314  0.79723  Biso   1.000  Ne
  Ne253    1.0000 0.91734  0.15882  0.91919  Biso   1.000  Ne
  He253    1.0000 0.90304  0.16981  0.88939  Biso   1.000  He
  He254    1.0000 0.88898  0.19950  0.89284  Biso   1.000  He
  Ne254    1.0000 0.87561  0.21446  0.86486  Biso   1.000  Ne
  Ne255    1.0000 0.28473  0.43988  0.38545  Biso   1.000  Ne
  He255    1.0000 0.26235  0.41766  0.40159  Biso   1.000  He
  He256    1.0000 0.23983  0.43453  0.42107  Biso   1.000  He
  Ne256    1.0000 0.21749  0.41222  0.43174  Biso   1.000  Ne
  Ne257    1.0000 0.78354  0.83302  0.08239  Biso   1.000  Ne
  He257    1.0000 0.76300  0.81671  0.10362  Biso   1.000  He
  He258    1.0000 0.77705  0.78820  0.11619  Biso   1.000  He
  Ne258    1.0000 0.76000  0.77204  0.14175  Biso   1.000  Ne
  Ne259    1.0000 0.25568  0.63369  0.60813  Biso   1.000  Ne
  He259    1.0000 0.25396  0.60687  0.62401  Biso   1.000  He
  He260    1.0000 0.24375  0.58049  0.60450  Biso   1.000  He
  Ne260    1.0000 0.21131  0.57744  0.60430  Biso   1.000  Ne
  Ne261    1.0000 0.79549  0.71772  0.20331  Biso   1.000  Ne
  He261    1.0000 0.82562  0.73001  0.19603  Biso   1.000  He
  He262    1.0000 0.82346  0.76402  0.19777  Biso   1.000  He
  Ne262    1.0000 0.85485  0.77896  0.19511  Biso   1.000  Ne
  Ne263    1.0000 0.32319  0.55638  0.71544  Biso   1.000  Ne
  He263    1.0000 0.29437  0.57104  0.72141  Biso   1.000  He
  He264    1.0000 0.27351  0.54931  0.71045  Biso   1.000  He
  Ne264    1.0000 0.24152  0.55971  0.70478  Biso   1.000  Ne
  Ne265    1.0000 0.61660  0.76297  0.64720  Biso   1.000  Ne
  He265    1.0000 0.64843  0.77432  0.64593  Biso   1.000  He
  He266    1.0000 0.66175  0.77960  0.61546  Biso   1.000  He
  Ne266    1.0000 0.69369  0.78825  0.62050  Biso   1.000  Ne
  Ne267    1.0000 0.05095  0.50115  0.55065  Biso   1.000  Ne
  He267    1.0000 0.02136  0.48847  0.56156  Biso   1.000  He
  He268    1.0000 0.00982  0.50213  0.59123  Biso   1.000  He
  Ne268    1.0000 0.98511  0.48515  0.60579  Biso   1.000  Ne
  Ne269    1.0000 0.58950  0.29945  0.18330  Biso   1.000  Ne
  He269    1.0000 0.58068  0.30912  0.21295  Biso   1.000  He
  He270    1.0000 0.59942  0.30465  0.24032  Biso   1.000  He
  Ne270    1.0000 0.59294  0.32110  0.26880  Biso   1.000  Ne
  Ne271    1.0000 0.64849  0.95767  0.11868  Biso   1.000  Ne
  He271    1.0000 0.62757  0.97025  0.14194  Biso   1.000  He
  He272    1.0000 0.64492  0.98404  0.16837  Biso   1.000  He
  Ne272    1.0000 0.62856  0.98899  0.19469  Biso   1.000  Ne
  Ne273    1.0000 0.35752  0.30014  0.30425  Biso   1.000  Ne
  He273    1.0000 0.37270  0.29225  0.33110  Biso   1.000  He
  He274    1.0000 0.40475  0.28252  0.32717  Biso   1.000  He
  Ne274    1.0000 0.42611  0.28338  0.35346  Biso   1.000  Ne
  Ne275    1.0000 0.38796  0.30274  0.94401  Biso   1.000  Ne
  He275    1.0000 0.37292  0.32588  0.92483  Biso   1.000  He
  He276    1.0000 0.33935  0.31709  0.91608  Biso   1.000  He
  Ne276    1.0000 0.32476  0.33873  0.89402  Biso   1.000  Ne
  Ne277    1.0000 0.47047  0.90933  0.47876  Biso   1.000  Ne
  He277    1.0000 0.48285  0.93607  0.46037  Biso   1.000  He
  He278    1.0000 0.51114  0.95161  0.47649  Biso   1.000  He
  Ne278    1.0000 0.52929  0.97066  0.45934  Biso   1.000  Ne
  Ne279    1.0000 0.81884  0.19940  0.63517  Biso   1.000  Ne
  He279    1.0000 0.79329  0.21238  0.62295  Biso   1.000  He
  He280    1.0000 0.76546  0.19606  0.62399  Biso   1.000  He
  Ne280    1.0000 0.73707  0.21557  0.61903  Biso   1.000  Ne
  Ne281    1.0000 0.06612  0.54928  0.48950  Biso   1.000  Ne
  He281    1.0000 0.04707  0.53698  0.46581  Biso   1.000  He
  He282    1.0000 0.03489  0.50606  0.47076  Biso   1.000  He
  Ne282    1.0000 0.02048  0.49324  0.44191  Biso   1.000  Ne
  Ne283    1.0000 0.30493  0.73577  0.60371  Biso   1.000  Ne
  He283    1.0000 0.30287  0.70760  0.62020  Biso   1.000  He
  He284    1.0000 0.33052  0.68955  0.61922  Biso   1.000  He
  Ne284    1.0000 0.33176  0.66411  0.64239  Biso   1.000  Ne
  Ne285    1.0000 0.42932  0.08801  0.59914  Biso   1.000  Ne
  He285    1.0000 0.43674  0.08119  0.56843  Biso   1.000  He
  He286    1.0000 0.41822  0.05795  0.55423  Biso   1.000  He
  Ne286    1.0000 0.42244  0.05111  0.52419  Biso   1.000  Ne
  Ne287    1.0000 0.08786  0.07186  0.09572  Biso   1.000  Ne
  He287    1.0000 0.08665  0.06148  0.12796  Biso   1.000  He
  He288    1.0000 0.09066  0.08784  0.14979  Biso   1.000  He
  Ne288    1.0000 0.09869  0.07685  0.18133  Biso   1.000  Ne
  Ne289    1.0000 0.16038  0.41572  0.59742  Biso   1.000  Ne
  He289    1.0000 0.16729  0.40068  0.62508  Biso   1.000  He
  He290    1.0000 0.20127  0.39567  0.63099  Biso   1.000  He
  Ne290    1.0000 0.21046  0.37905  0.65865  Biso   1.000  Ne
  Ne291    1.0000 0.22119  0.32716  0.74231  Biso   1.000  Ne
  He291    1.0000 0.23637  0.29736  0.74059  Biso   1.000  He
  He292    1.0000 0.24487  0.28310  0.77034  Biso   1.000  He
  Ne292    1.0000 0.25777  0.25428  0.76452  Biso   1.000  Ne
  Ne293    1.0000 0.99812  0.06239  0.96558  Biso   1.000  Ne
  He293    1.0000 0.01707  0.03612  0.96968  Biso   1.000  He
  He294    1.0000 0.05110  0.04116  0.97374  Biso   1.000  He
  Ne294    1.0000 0.06648  0.01682  0.98332  Biso   1.000  Ne
  Ne295    1.0000 0.89651  0.40187  0.73395  Biso   1.000  Ne
  He295    1.0000 0.91641  0.37696  0.72698  Biso   1.000  He
  He296    1.0000 0.90122  0.34824  0.72946  Biso   1.000  He
  Ne296    1.0000 0.92126  0.32255  0.72417  Biso   1.000  Ne
  Ne297    1.0000 0.95086  0.45033  0.51973  Biso   1.000  Ne
  He297    1.0000 0.98219  0.44921  0.51194  Biso   1.000  He
  He298    1.0000 0.99168  0.41709  0.51093  Biso   1.000  He
  Ne298    1.0000 0.02116  0.41054  0.50619  Biso   1.000  Ne
  Ne299    1.0000 0.85190  0.09003  0.16259  Biso   1.000  Ne
  He299    1.0000 0.87320  0.10329  0.18817  Biso   1.000  He
  He300    1.0000 0.86104  0.10096  0.21775  Biso   1.000  He
  Ne300    1.0000 0.87651  0.11704  0.24268  Biso   1.000  Ne
  Ne301    1.0000 0.86511  0.81243  0.92895  Biso   1.000  Ne
  He301    1.0000 0.83371  0.82048  0.91740  Biso   1.000  He
  He302    1.0000 0.82800  0.85233  0.92202  Biso   1.000  He
  Ne302    1.0000 0.80353  0.86806  0.90618  Biso   1.000  Ne
  Ne303    1.0000 0.67058  0.59520  0.82877  Biso   1.000  Ne
  He303    1.0000 0.65515  0.59215  0.79814  Biso   1.000  He
  He304    1.0000 0.67157  0.57709  0.77503  Biso   1.000  He
  Ne304    1.0000 0.65633  0.57919  0.74676  Biso   1.000  Ne
  Ne305    1.0000 0.40449  0.65250  0.95259  Biso   1.000  Ne
  He305    1.0000 0.40036  0.68364  0.93811  Biso   1.000  He
  He306    1.0000 0.40307  0.68316  0.90563  Biso   1.000  He
  Ne306    1.0000 0.39776  0.71209  0.89251  Biso   1.000  Ne
  Ne307    1.0000 0.36691  0.25797  0.72124  Biso   1.000  Ne
  He307    1.0000 0.35819  0.26287  0.68963  Biso   1.000  He
  He308    1.0000 0.36552  0.29316  0.67902  Biso   1.000  He
  Ne308    1.0000 0.34074  0.31766  0.68746  Biso   1.000  Ne
  Ne309    1.0000 0.47101  0.56121  0.04402  Biso   1.000  Ne
  He309    1.0000 0.45399  0.54838  0.06986  Biso   1.000  He
  He310    1.0000 0.44393  0.51723  0.06580  Biso   1.000  He
  Ne310    1.0000 0.42326  0.50466  0.08885  Biso   1.000  Ne
  Ne311    1.0000 0.64302  0.58913  0.11857  Biso   1.000  Ne
  He311    1.0000 0.66081  0.58570  0.09192  Biso   1.000  He
  He312    1.0000 0.68480  0.60892  0.09082  Biso   1.000  He
  Ne312    1.0000 0.70249  0.60343  0.06523  Biso   1.000  Ne
  Ne313    1.0000 0.29873  0.93963  0.82037  Biso   1.000  Ne
  He313    1.0000 0.27183  0.93265  0.82575  Biso   1.000  He
  He314    1.0000 0.26634  0.93482  0.85785  Biso   1.000  He
  Ne314    1.0000 0.23507  0.92945  0.86768  Biso   1.000  Ne
  Ne315    1.0000 0.00598  0.90188  0.29552  Biso   1.000  Ne
  He315    1.0000 0.03894  0.89928  0.29600  Biso   1.000  He
  He316    1.0000 0.05440  0.92585  0.30572  Biso   1.000  He
  Ne316    1.0000 0.08740  0.92521  0.30413  Biso   1.000  Ne
  Ne317    1.0000 0.75282  0.58967  0.71062  Biso   1.000  Ne
  He317    1.0000 0.75013  0.61700  0.69241  Biso   1.000  He
  He318    1.0000 0.74330  0.64429  0.70837  Biso   1.000  He
  Ne318    1.0000 0.74810  0.67195  0.68922  Biso   1.000  Ne
  Ne319    1.0000 0.06558  0.12784  0.95602  Biso   1.000  Ne
  He319    1.0000 0.09506  0.14158  0.95175  Biso   1.000  He
  He320    1.0000 0.09699  0.17477  0.95525  Biso   1.000  He
  Ne320    1.0000 0.12574  0.18920  0.94871  Biso   1.000  Ne
  Ne321    1.0000 0.07712  0.37700  0.68248  Biso   1.000  Ne
  He321    1.0000 0.08891  0.39515  0.66151  Biso   1.000  He
  He322    1.0000 0.06453  0.40915  0.64258  Biso   1.000  He
  Ne322    1.0000 0.07646  0.43184  0.61833  Biso   1.000  Ne
  Ne323    1.0000 0.74424  0.94244  0.92048  Biso   1.000  Ne
  He323    1.0000 0.73580  0.92040  0.89379  Biso   1.000  He
  He324    1.0000 0.70964  0.90057  0.89879  Biso   1.000  He
  Ne324    1.0000 0.72005  0.87170  0.91700  Biso   1.000  Ne
  Ne325    1.0000 0.39711  0.59321  0.87071  Biso   1.000  Ne
  He325    1.0000 0.38979  0.57579  0.89864  Biso   1.000  He
  He326    1.0000 0.41576  0.55924  0.90996  Biso   1.000  He
  Ne326    1.0000 0.41145  0.54903  0.94173  Biso   1.000  Ne
  Ne327    1.0000 0.31009  0.07781  0.67341  Biso   1.000  Ne
  He327    1.0000 0.29752  0.09387  0.64749  Biso   1.000  He
  He328    1.0000 0.32024  0.10710  0.62539  Biso   1.000  He
  Ne328    1.0000 0.30622  0.12725  0.60141  Biso   1.000  Ne
  Ne329    1.0000 0.90491  0.02051  0.97211  Biso   1.000  Ne
  He329    1.0000 0.88219  0.04489  0.96720  Biso   1.000  He
  He330    1.0000 0.89137  0.06797  0.94464  Biso   1.000  He
  Ne330    1.0000 0.87117  0.09516  0.94478  Biso   1.000  Ne
  Ne331    1.0000 0.29892  0.39634  0.15323  Biso   1.000  Ne
  He331    1.0000 0.28450  0.37183  0.13478  Biso   1.000  He
  He332    1.0000 0.28332  0.34218  0.15033  Biso   1.000  He
  Ne332    1.0000 0.27410  0.31648  0.13156  Biso   1.000  Ne
  Ne333    1.0000 0.72072  0.37666  0.95024  Biso   1.000  Ne
  He333    1.0000 0.69129  0.36407  0.93890  Biso   1.000  He
  He334    1.0000 0.66725  0.38405  0.92938  Biso   1.000  He
  Ne334    1.0000 0.63946  0.36750  0.91662  Biso   1.000  Ne
  Ne335    1.0000 0.19909  0.20899  0.71706  Biso   1.000  Ne
  He335    1.0000 0.20338  0.22759  0.68986  Biso   1.000  He
  He336    1.0000 0.19875  0.21183  0.65924  Biso   1.000  He
  Ne336    1.0000 0.20078  0.23284  0.63201  Biso   1.000  Ne
  Ne337    1.0000 0.68124  0.64436  0.61818  Biso   1.000  Ne
  He337    1.0000 0.70571  0.62695  0.60263  Biso   1.000  He
  He338    1.0000 0.71899  0.59925  0.61510  Biso   1.000  He
  Ne338    1.0000 0.74197  0.59011  0.59372  Biso   1.000  Ne
  Ne339    1.0000 0.39985  0.69180  0.45428  Biso   1.000  Ne
  He339    1.0000 0.38819  0.72055  0.44122  Biso   1.000  He
  He340    1.0000 0.41103  0.74640  0.43998  Biso   1.000  He
  Ne340    1.0000 0.39970  0.77425  0.42359  Biso   1.000  Ne
  Ne341    1.0000 0.49655  0.09688  0.15542  Biso   1.000  Ne
  He341    1.0000 0.52104  0.09249  0.17712  Biso   1.000  He
  He342    1.0000 0.51262  0.07841  0.20440  Biso   1.000  He
  Ne342    1.0000 0.53885  0.06965  0.22027  Biso   1.000  Ne
  Ne343    1.0000 0.32150  0.11273  0.03461  Biso   1.000  Ne
  He343    1.0000 0.31550  0.14681  0.03941  Biso   1.000  He
  He344    1.0000 0.33814  0.16594  0.02570  Biso   1.000  He
  Ne344    1.0000 0.33106  0.19813  0.02926  Biso   1.000  Ne
  Ne345    1.0000 0.56483  0.59144  0.96970  Biso   1.000  Ne
  He345    1.0000 0.58476  0.60347  0.94721  Biso   1.000  He
  He346    1.0000 0.56781  0.61502  0.91986  Biso   1.000  He
  Ne346    1.0000 0.58800  0.62792  0.89513  Biso   1.000  Ne
  Ne347    1.0000 0.52586  0.73147  0.59999  Biso   1.000  Ne
  He347    1.0000 0.51260  0.70580  0.61251  Biso   1.000  He
  He348    1.0000 0.48517  0.69300  0.59622  Biso   1.000  He
  Ne348    1.0000 0.47180  0.66544  0.61053  Biso   1.000  Ne
  Ne349    1.0000 0.76456  0.62212  0.34231  Biso   1.000  Ne
  He349    1.0000 0.77087  0.65374  0.33307  Biso   1.000  He
  He350    1.0000 0.80136  0.65961  0.32709  Biso   1.000  He
  Ne350    1.0000 0.80832  0.68981  0.31659  Biso   1.000  Ne
  Ne351    1.0000 0.06829  0.38072  0.34852  Biso   1.000  Ne
  He351    1.0000 0.08517  0.40878  0.35678  Biso   1.000  He
  He352    1.0000 0.11601  0.41034  0.34145  Biso   1.000  He
  Ne352    1.0000 0.14185  0.39450  0.35853  Biso   1.000  Ne
  Ne353    1.0000 0.39999  0.36968  0.86370  Biso   1.000  Ne
  He353    1.0000 0.39895  0.39102  0.83740  Biso   1.000  He
  He354    1.0000 0.36903  0.39205  0.82101  Biso   1.000  He
  Ne354    1.0000 0.37434  0.41382  0.79612  Biso   1.000  Ne
  Ne355    1.0000 0.37649  0.86229  0.31414  Biso   1.000  Ne
  He355    1.0000 0.35664  0.88027  0.29864  Biso   1.000  He
  He356    1.0000 0.36949  0.89443  0.27393  Biso   1.000  He
  Ne356    1.0000 0.34694  0.91550  0.25791  Biso   1.000  Ne
  Ne357    1.0000 0.70505  0.83117  0.77512  Biso   1.000  Ne
  He357    1.0000 0.69334  0.82953  0.74316  Biso   1.000  He
  He358    1.0000 0.66087  0.83165  0.74082  Biso   1.000  He
  Ne358    1.0000 0.65135  0.82969  0.71249  Biso   1.000  Ne
  Ne359    1.0000 0.91019  0.92572  0.74448  Biso   1.000  Ne
  He359    1.0000 0.87960  0.91773  0.74778  Biso   1.000  He
  He360    1.0000 0.86008  0.93664  0.73026  Biso   1.000  He
  Ne360    1.0000 0.82767  0.93235  0.72884  Biso   1.000  Ne
  Ne361    1.0000 0.73130  0.19134  0.75421  Biso   1.000  Ne
  He361    1.0000 0.73497  0.16141  0.73706  Biso   1.000  He
  He362    1.0000 0.70630  0.15026  0.72201  Biso   1.000  He
  Ne362    1.0000 0.71047  0.12257  0.70251  Biso   1.000  Ne
  Ne363    1.0000 0.57274  0.07686  0.66624  Biso   1.000  Ne
  He363    1.0000 0.59181  0.08846  0.68733  Biso   1.000  He
  He364    1.0000 0.58017  0.11645  0.70102  Biso   1.000  He
  Ne364    1.0000 0.59891  0.13024  0.72292  Biso   1.000  Ne
  Ne365    1.0000 0.63225  0.41734  0.82673  Biso   1.000  Ne
  He365    1.0000 0.59942  0.42365  0.82913  Biso   1.000  He
  He366    1.0000 0.59269  0.42359  0.85949  Biso   1.000  He
  Ne366    1.0000 0.56243  0.43657  0.86968  Biso   1.000  Ne
  Ne367    1.0000 0.72582  0.08121  0.59218  Biso   1.000  Ne
  He367    1.0000 0.69886  0.08186  0.60951  Biso   1.000  He
  He368    1.0000 0.67403  0.09675  0.59279  Biso   1.000  He
  Ne368    1.0000 0.64372  0.08674  0.60140  Biso   1.000  Ne
  Ne369    1.0000 0.78170  0.58656  0.80844  Biso   1.000  Ne
  He369    1.0000 0.81085  0.57029  0.80531  Biso   1.000  He
  He370    1.0000 0.82385  0.55661  0.82982  Biso   1.000  He
  Ne370    1.0000 0.84918  0.53672  0.82343  Biso   1.000  Ne
  Ne371    1.0000 0.90511  0.26883  0.63875  Biso   1.000  Ne
  He371    1.0000 0.90654  0.30234  0.63677  Biso   1.000  He
  He372    1.0000 0.87628  0.31552  0.64545  Biso   1.000  He
  Ne372    1.0000 0.85495  0.32057  0.62415  Biso   1.000  Ne
  Ne373    1.0000 0.29514  0.11762  0.45667  Biso   1.000  Ne
  He373    1.0000 0.27249  0.09956  0.43972  Biso   1.000  He
  He374    1.0000 0.25583  0.07727  0.45897  Biso   1.000  He
  Ne374    1.0000 0.23422  0.05795  0.43960  Biso   1.000  Ne
  Ne375    1.0000 0.28067  0.02417  0.14328  Biso   1.000  Ne
  He375    1.0000 0.26013  0.03441  0.12040  Biso   1.000  He
  He376    1.0000 0.26747  0.01980  0.09123  Biso   1.000  He
  Ne376    1.0000 0.24509  0.02727  0.06590  Biso   1.000  Ne
  Ne377    1.0000 0.12151  0.67076  0.62776  Biso   1.000  Ne
  He377    1.0000 0.15141  0.67062  0.63721  Biso   1.000  He
  He378    1.0000 0.15705  0.64714  0.65814  Biso   1.000  He
  Ne378    1.0000 0.18824  0.64556  0.67171  Biso   1.000  Ne
  Ne379    1.0000 0.04441  0.14432  0.15606  Biso   1.000  Ne
  He379    1.0000 0.03268  0.17020  0.13905  Biso   1.000  He
  He380    1.0000 0.05356  0.18622  0.11917  Biso   1.000  He
  Ne380    1.0000 0.04046  0.21320  0.10231  Biso   1.000  Ne
  Ne381    1.0000 0.30633  0.66182  0.12374  Biso   1.000  Ne
  He381    1.0000 0.29424  0.63505  0.10747  Biso   1.000  He
  He382    1.0000 0.29883  0.60796  0.12932  Biso   1.000  He
  Ne382    1.0000 0.28892  0.57665  0.11659  Biso   1.000  Ne
  Ne383    1.0000 0.59608  0.88897  0.76457  Biso   1.000  Ne
  He383    1.0000 0.58029  0.90539  0.78850  Biso   1.000  He
  He384    1.0000 0.55493  0.88654  0.80063  Biso   1.000  He
  Ne384    1.0000 0.53674  0.90513  0.82242  Biso   1.000  Ne
  Ne385    1.0000 0.38290  0.56466  0.80092  Biso   1.000  Ne
  He385    1.0000 0.36458  0.58828  0.78604  Biso   1.000  He
  He386    1.0000 0.38148  0.60729  0.76455  Biso   1.000  He
  Ne386    1.0000 0.35929  0.62963  0.74755  Biso   1.000  Ne
  Ne387    1.0000 0.23992  0.43085  0.94084  Biso   1.000  Ne
  He387    1.0000 0.26980  0.42117  0.95193  Biso   1.000  He
  He388    1.0000 0.29089  0.40992  0.93132  Biso   1.000  He
  Ne388    1.0000 0.31816  0.39971  0.94562  Biso   1.000  Ne
  Ne389    1.0000 0.42632  0.43280  0.90851  Biso   1.000  Ne
  He389    1.0000 0.42720  0.41934  0.93952  Biso   1.000  He
  He390    1.0000 0.41302  0.43748  0.96239  Biso   1.000  He
  Ne390    1.0000 0.41430  0.42230  0.99167  Biso   1.000  Ne
  Ne391    1.0000 0.88128  0.91736  0.18415  Biso   1.000  Ne
  He391    1.0000 0.85958  0.89802  0.16850  Biso   1.000  He
  He392    1.0000 0.83247  0.88826  0.18832  Biso   1.000  He
  Ne392    1.0000 0.81257  0.86671  0.17703  Biso   1.000  Ne
  Ne393    1.0000 0.90136  0.30965  0.42760  Biso   1.000  Ne
  He393    1.0000 0.89602  0.33335  0.40446  Biso   1.000  He
  He394    1.0000 0.89121  0.32080  0.37445  Biso   1.000  He
  Ne394    1.0000 0.89074  0.34226  0.34926  Biso   1.000  Ne
  Ne395    1.0000 0.70111  0.21076  0.06502  Biso   1.000  Ne
  He395    1.0000 0.66800  0.21284  0.06174  Biso   1.000  He
  He396    1.0000 0.65604  0.20143  0.03237  Biso   1.000  He
  Ne396    1.0000 0.62362  0.20632  0.02885  Biso   1.000  Ne
  Ne397    1.0000 0.59356  0.48596  0.73507  Biso   1.000  Ne
  He397    1.0000 0.56134  0.49393  0.73461  Biso   1.000  He
  He398    1.0000 0.54310  0.47132  0.74773  Biso   1.000  He
  Ne398    1.0000 0.53294  0.44634  0.72820  Biso   1.000  Ne
  Ne399    1.0000 0.79533  0.65445  0.95248  Biso   1.000  Ne
  He399    1.0000 0.79125  0.67170  0.97876  Biso   1.000  He
  He400    1.0000 0.82231  0.68166  0.99290  Biso   1.000  He
  Ne400    1.0000 0.82033  0.70180  0.01904  Biso   1.000  Ne
