data_image0
_cell_length_a       46.7178
_cell_length_b       46.88
_cell_length_c       46.5903
_cell_angle_alpha    90
_cell_angle_beta     90
_cell_angle_gamma    90

_symmetry_space_group_name_H-M    "P 1"
_symmetry_int_tables_number       1

loop_
  _symmetry_equiv_pos_as_xyz
  'x, y, z'

loop_
  _atom_site_label
  _atom_site_occupancy
  _atom_site_fract_x
  _atom_site_fract_y
  _atom_site_fract_z
  _atom_site_thermal_displace_type
  _atom_site_B_iso_or_equiv
  _atom_site_type_symbol
  Ne1      1.0000 0.60122  0.10135  0.30175  Biso   1.000  Ne
  He1      1.0000 0.63501  0.09985  0.30055  Biso   1.000  He
  He2      1.0000 0.64150  0.06719  0.30575  Biso   1.000  He
  Ne2      1.0000 0.67430  0.06224  0.30968  Biso   1.000  Ne
  Ne3      1.0000 0.90889  0.86914  0.38541  Biso   1.000  Ne
  He3      1.0000 0.89918  0.89929  0.37141  Biso   1.000  He
  He4      1.0000 0.92068  0.92302  0.36400  Biso   1.000  He
  Ne4      1.0000 0.93096  0.92639  0.33110  Biso   1.000  Ne
  Ne5      1.0000 0.73989  0.33636  0.28791  Biso   1.000  Ne
  He5      1.0000 0.76028  0.35345  0.30801  Biso   1.000  He
  He6      1.0000 0.79330  0.34621  0.30631  Biso   1.000  He
  Ne6      1.0000 0.81258  0.36300  0.32335  Biso   1.000  Ne
  Ne7      1.0000 0.60008  0.08406  0.74979  Biso   1.000  Ne
  He7      1.0000 0.58395  0.06315  0.77040  Biso   1.000  He
  He8      1.0000 0.55087  0.06891  0.76753  Biso   1.000  He
  Ne8      1.0000 0.52976  0.05215  0.79056  Biso   1.000  Ne
  Ne9      1.0000 0.17311  0.27062  0.18347  Biso   1.000  Ne
  He9      1.0000 0.19501  0.24954  0.19455  Biso   1.000  He
  He10     1.0000 0.18275  0.21928  0.19769  Biso   1.000  He
  Ne10     1.0000 0.20749  0.19602  0.19967  Biso   1.000  Ne
  Ne11     1.0000 0.55608  0.53275  0.00674  Biso   1.000  Ne
  He11     1.0000 0.53173  0.53825  0.98749  Biso   1.000  He
  He12     1.0000 0.53710  0.54093  0.95438  Biso   1.000  He
  Ne12     1.0000 0.53706  0.57237  0.94256  Biso   1.000  Ne
  Ne13     1.0000 0.21776  0.76870  0.91533  Biso   1.000  Ne
  He13     1.0000 0.22229  0.73759  0.92689  Biso   1.000  He
  He14     1.0000 0.25435  0.73081  0.92563  Biso   1.000  He
  Ne14     1.0000 0.26335  0.70127  0.93741  Biso   1.000  Ne
  Ne15     1.0000 0.81749  0.47294  0.14139  Biso   1.000  Ne
  He15     1.0000 0.82972  0.44661  0.16080  Biso   1.000  He
  He16     1.0000 0.82208  0.45093  0.19084  Biso   1.000  He
  Ne16     1.0000 0.83652  0.42830  0.21257  Biso   1.000  Ne
  Ne17     1.0000 0.84929  0.65596  0.33159  Biso   1.000  Ne
  He17     1.0000 0.84157  0.63170  0.35616  Biso   1.000  He
  He18     1.0000 0.84961  0.64543  0.38706  Biso   1.000  He
  Ne18     1.0000 0.84525  0.62336  0.41164  Biso   1.000  Ne
  Ne19     1.0000 0.58525  0.91825  0.58313  Biso   1.000  Ne
  He19     1.0000 0.55211  0.91639  0.57690  Biso   1.000  He
  He20     1.0000 0.54249  0.94243  0.55954  Biso   1.000  He
  Ne20     1.0000 0.51165  0.94000  0.54925  Biso   1.000  Ne
  Ne21     1.0000 0.08733  0.13595  0.62863  Biso   1.000  Ne
  He21     1.0000 0.09057  0.15269  0.65662  Biso   1.000  He
  He22     1.0000 0.06315  0.15787  0.67670  Biso   1.000  He
  Ne22     1.0000 0.06885  0.17595  0.70295  Biso   1.000  Ne
  Ne23     1.0000 0.05341  0.29727  0.81983  Biso   1.000  Ne
  He23     1.0000 0.05321  0.26334  0.82779  Biso   1.000  He
  He24     1.0000 0.08441  0.24903  0.82463  Biso   1.000  He
  Ne24     1.0000 0.08601  0.21875  0.83761  Biso   1.000  Ne
  Ne25     1.0000 0.78883  0.63864  0.04941  Biso   1.000  Ne
  He25     1.0000 0.81391  0.65646  0.06001  Biso   1.000  He
  He26     1.0000 0.83883  0.65717  0.03860  Biso   1.000  He
  Ne26     1.0000 0.86509  0.67744  0.04693  Biso   1.000  Ne
  Ne27     1.0000 0.39722  0.05609  0.17222  Biso   1.000  Ne
  He27     1.0000 0.40971  0.08128  0.19134  Biso   1.000  He
  He28     1.0000 0.39522  0.08534  0.21848  Biso   1.000  He
  Ne28     1.0000 0.40742  0.11088  0.23590  Biso   1.000  Ne
  Ne29     1.0000 0.17824  0.39132  0.32263  Biso   1.000  Ne
  He29     1.0000 0.20200  0.41559  0.32826  Biso   1.000  He
  He30     1.0000 0.23137  0.40427  0.34090  Biso   1.000  He
  Ne30     1.0000 0.25389  0.42663  0.34725  Biso   1.000  Ne
  Ne31     1.0000 0.92280  0.76881  0.15203  Biso   1.000  Ne
  He31     1.0000 0.93878  0.74824  0.17565  Biso   1.000  He
  He32     1.0000 0.92151  0.71912  0.18302  Biso   1.000  He
  Ne32     1.0000 0.94027  0.69407  0.20019  Biso   1.000  Ne
  Ne33     1.0000 0.22574  0.09522  0.67557  Biso   1.000  Ne
  He33     1.0000 0.21666  0.09523  0.70807  Biso   1.000  He
  He34     1.0000 0.18916  0.07938  0.71573  Biso   1.000  He
  Ne34     1.0000 0.17872  0.08645  0.74711  Biso   1.000  Ne
  Ne35     1.0000 0.36858  0.70372  0.08722  Biso   1.000  Ne
  He35     1.0000 0.39243  0.68630  0.07442  Biso   1.000  He
  He36     1.0000 0.42006  0.70229  0.06223  Biso   1.000  He
  Ne36     1.0000 0.44912  0.68415  0.06199  Biso   1.000  Ne
  Ne37     1.0000 0.95053  0.43169  0.09907  Biso   1.000  Ne
  He37     1.0000 0.97827  0.41818  0.08873  Biso   1.000  He
  He38     1.0000 0.97776  0.38538  0.09054  Biso   1.000  He
  Ne38     1.0000 0.00856  0.37257  0.08152  Biso   1.000  Ne
  Ne39     1.0000 0.42269  0.46597  0.96717  Biso   1.000  Ne
  He39     1.0000 0.44549  0.48385  0.95316  Biso   1.000  He
  He40     1.0000 0.46721  0.46504  0.93922  Biso   1.000  He
  Ne40     1.0000 0.48743  0.48241  0.91741  Biso   1.000  Ne
  Ne41     1.0000 0.62905  0.39846  0.60877  Biso   1.000  Ne
  He41     1.0000 0.59969  0.38449  0.61793  Biso   1.000  He
  He42     1.0000 0.58202  0.40417  0.63764  Biso   1.000  He
  Ne42     1.0000 0.55260  0.39193  0.64477  Biso   1.000  Ne
  Ne43     1.0000 0.44875  0.27754  0.38966  Biso   1.000  Ne
  He43     1.0000 0.43552  0.24704  0.38394  Biso   1.000  He
  He44     1.0000 0.43264  0.22910  0.41108  Biso   1.000  He
  Ne44     1.0000 0.43532  0.19401  0.40491  Biso   1.000  Ne
  Ne45     1.0000 0.58157  0.50417  0.61373  Biso   1.000  Ne
  He45     1.0000 0.59244  0.48517  0.58986  Biso   1.000  He
  He46     1.0000 0.56954  0.46648  0.57625  Biso   1.000  He
  Ne46     1.0000 0.57810  0.44454  0.55334  Biso   1.000  Ne
  Ne47     1.0000 0.10386  0.78128  0.06981  Biso   1.000  Ne
  He47     1.0000 0.10283  0.80406  0.09325  Biso   1.000  He
  He48     1.0000 0.12490  0.82770  0.08727  Biso   1.000  He
  Ne48     1.0000 0.11454  0.85516  0.10570  Biso   1.000  Ne
  Ne49     1.0000 0.54247  0.43808  0.44335  Biso   1.000  Ne
  He49     1.0000 0.55058  0.46606  0.45935  Biso   1.000  He
  He50     1.0000 0.57586  0.48421  0.44467  Biso   1.000  He
  Ne50     1.0000 0.58510  0.51139  0.46352  Biso   1.000  Ne
  Ne51     1.0000 0.08244  0.33092  0.32746  Biso   1.000  Ne
  He51     1.0000 0.07994  0.36377  0.31884  Biso   1.000  He
  He52     1.0000 0.08229  0.38268  0.34406  Biso   1.000  He
  Ne52     1.0000 0.08675  0.41294  0.33404  Biso   1.000  Ne
  Ne53     1.0000 0.28377  0.65544  0.40451  Biso   1.000  Ne
  He53     1.0000 0.26108  0.65737  0.37919  Biso   1.000  He
  He54     1.0000 0.23422  0.67842  0.38330  Biso   1.000  He
  Ne54     1.0000 0.21316  0.67653  0.35725  Biso   1.000  Ne
  Ne55     1.0000 0.61862  0.30240  0.75019  Biso   1.000  Ne
  He55     1.0000 0.62867  0.27698  0.76509  Biso   1.000  He
  He56     1.0000 0.65030  0.28316  0.79152  Biso   1.000  He
  Ne56     1.0000 0.65829  0.25716  0.80753  Biso   1.000  Ne
  Ne57     1.0000 0.31549  0.11900  0.74926  Biso   1.000  Ne
  He57     1.0000 0.28555  0.12428  0.75989  Biso   1.000  He
  He58     1.0000 0.27606  0.10561  0.78363  Biso   1.000  He
  Ne58     1.0000 0.24205  0.10975  0.78968  Biso   1.000  Ne
  Ne59     1.0000 0.32170  0.06370  0.82838  Biso   1.000  Ne
  He59     1.0000 0.29919  0.03834  0.83786  Biso   1.000  He
  He60     1.0000 0.30451  0.01004  0.82201  Biso   1.000  He
  Ne60     1.0000 0.32500  0.98708  0.83649  Biso   1.000  Ne
  Ne61     1.0000 0.80054  0.76478  0.68788  Biso   1.000  Ne
  He61     1.0000 0.81334  0.77381  0.65811  Biso   1.000  He
  He62     1.0000 0.82536  0.74567  0.64459  Biso   1.000  He
  Ne62     1.0000 0.83020  0.74773  0.61181  Biso   1.000  Ne
  Ne63     1.0000 0.55885  0.40650  0.04979  Biso   1.000  Ne
  He63     1.0000 0.56840  0.42776  0.07312  Biso   1.000  He
  He64     1.0000 0.57255  0.45936  0.06316  Biso   1.000  He
  Ne64     1.0000 0.58098  0.47958  0.08795  Biso   1.000  Ne
  Ne65     1.0000 0.68437  0.80927  0.70908  Biso   1.000  Ne
  He65     1.0000 0.71545  0.79746  0.71637  Biso   1.000  He
  He66     1.0000 0.71695  0.77474  0.73813  Biso   1.000  He
  Ne66     1.0000 0.74758  0.76888  0.74823  Biso   1.000  Ne
  Ne67     1.0000 0.90852  0.11788  0.07672  Biso   1.000  Ne
  He67     1.0000 0.89838  0.13244  0.10454  Biso   1.000  He
  He68     1.0000 0.91050  0.12117  0.13356  Biso   1.000  He
  Ne68     1.0000 0.89957  0.13428  0.16022  Biso   1.000  Ne
  Ne69     1.0000 0.19860  0.57096  0.35510  Biso   1.000  Ne
  He69     1.0000 0.18515  0.59752  0.37105  Biso   1.000  He
  He70     1.0000 0.18861  0.59891  0.40436  Biso   1.000  He
  Ne70     1.0000 0.17372  0.62182  0.41507  Biso   1.000  Ne
  Ne71     1.0000 0.52941  0.16570  0.96613  Biso   1.000  Ne
  He71     1.0000 0.56161  0.16922  0.96768  Biso   1.000  He
  He72     1.0000 0.57623  0.14054  0.97175  Biso   1.000  He
  Ne72     1.0000 0.60741  0.14355  0.98097  Biso   1.000  Ne
  Ne73     1.0000 0.63150  0.20022  0.12441  Biso   1.000  Ne
  He73     1.0000 0.65546  0.20490  0.10068  Biso   1.000  He
  He74     1.0000 0.68366  0.21163  0.11833  Biso   1.000  He
  Ne74     1.0000 0.71082  0.21855  0.09956  Biso   1.000  Ne
  Ne75     1.0000 0.79827  0.17399  0.68547  Biso   1.000  Ne
  He75     1.0000 0.81042  0.14369  0.67247  Biso   1.000  He
  He76     1.0000 0.81532  0.14444  0.63842  Biso   1.000  He
  Ne76     1.0000 0.83119  0.11484  0.62513  Biso   1.000  Ne
  Ne77     1.0000 0.30207  0.20569  0.76116  Biso   1.000  Ne
  He77     1.0000 0.29398  0.21322  0.79130  Biso   1.000  He
  He78     1.0000 0.31781  0.21583  0.81587  Biso   1.000  He
  Ne78     1.0000 0.30361  0.21809  0.84702  Biso   1.000  Ne
  Ne79     1.0000 0.76462  0.21850  0.43330  Biso   1.000  Ne
  He79     1.0000 0.74737  0.19151  0.42432  Biso   1.000  He
  He80     1.0000 0.71351  0.19362  0.42869  Biso   1.000  He
  Ne80     1.0000 0.69575  0.16525  0.42629  Biso   1.000  Ne
  Ne81     1.0000 0.15148  0.17102  0.91226  Biso   1.000  Ne
  He81     1.0000 0.12536  0.15545  0.92099  Biso   1.000  He
  He82     1.0000 0.09586  0.16796  0.91185  Biso   1.000  He
  Ne82     1.0000 0.07168  0.15075  0.92484  Biso   1.000  Ne
  Ne83     1.0000 0.10220  0.71827  0.41054  Biso   1.000  Ne
  He83     1.0000 0.11156  0.68907  0.39896  Biso   1.000  He
  He84     1.0000 0.11707  0.69215  0.36614  Biso   1.000  He
  Ne84     1.0000 0.12671  0.66500  0.35280  Biso   1.000  Ne
  Ne85     1.0000 0.57946  0.93862  0.20958  Biso   1.000  Ne
  He85     1.0000 0.59502  0.94726  0.18329  Biso   1.000  He
  He86     1.0000 0.61325  0.97428  0.18321  Biso   1.000  He
  Ne86     1.0000 0.62900  0.98147  0.15515  Biso   1.000  Ne
  Ne87     1.0000 0.27520  0.59256  0.31845  Biso   1.000  Ne
  He87     1.0000 0.27122  0.61109  0.29165  Biso   1.000  He
  He88     1.0000 0.24347  0.62890  0.29447  Biso   1.000  He
  Ne88     1.0000 0.23546  0.64510  0.26550  Biso   1.000  Ne
  Ne89     1.0000 0.20555  0.18596  0.30225  Biso   1.000  Ne
  He89     1.0000 0.22533  0.20715  0.29043  Biso   1.000  He
  He90     1.0000 0.24573  0.19703  0.26819  Biso   1.000  He
  Ne90     1.0000 0.26953  0.21871  0.26009  Biso   1.000  Ne
  Ne91     1.0000 0.66323  0.99923  0.90385  Biso   1.000  Ne
  He91     1.0000 0.66693  0.98753  0.87164  Biso   1.000  He
  He92     1.0000 0.69231  0.96973  0.86883  Biso   1.000  He
  Ne92     1.0000 0.69581  0.95874  0.83822  Biso   1.000  Ne
  Ne93     1.0000 0.66450  0.71752  0.47857  Biso   1.000  Ne
  He93     1.0000 0.65510  0.68638  0.47599  Biso   1.000  He
  He94     1.0000 0.62672  0.67840  0.45770  Biso   1.000  He
  Ne94     1.0000 0.61776  0.64735  0.45916  Biso   1.000  Ne
  Ne95     1.0000 0.83238  0.41990  0.38444  Biso   1.000  Ne
  He95     1.0000 0.80970  0.41195  0.40744  Biso   1.000  He
  He96     1.0000 0.77599  0.41519  0.39844  Biso   1.000  He
  Ne96     1.0000 0.76148  0.38727  0.38463  Biso   1.000  Ne
  Ne97     1.0000 0.43444  0.88821  0.57290  Biso   1.000  Ne
  He97     1.0000 0.40315  0.87756  0.56936  Biso   1.000  He
  He98     1.0000 0.38232  0.89435  0.55113  Biso   1.000  He
  Ne98     1.0000 0.35133  0.88456  0.55787  Biso   1.000  Ne
  Ne99     1.0000 0.69924  0.48694  0.66440  Biso   1.000  Ne
  He99     1.0000 0.70632  0.48833  0.63000  Biso   1.000  He
  He100    1.0000 0.69468  0.51618  0.61703  Biso   1.000  He
  Ne100    1.0000 0.70399  0.52527  0.58886  Biso   1.000  Ne
  Ne101    1.0000 0.19119  0.46147  0.12345  Biso   1.000  Ne
  He101    1.0000 0.18489  0.44056  0.14730  Biso   1.000  He
  He102    1.0000 0.17453  0.45659  0.17505  Biso   1.000  He
  Ne102    1.0000 0.14106  0.46270  0.17577  Biso   1.000  Ne
  Ne103    1.0000 0.12870  0.20124  0.55897  Biso   1.000  Ne
  He103    1.0000 0.10605  0.20116  0.58554  Biso   1.000  He
  He104    1.0000 0.08581  0.22874  0.58414  Biso   1.000  He
  Ne104    1.0000 0.06608  0.22998  0.60842  Biso   1.000  Ne
  Ne105    1.0000 0.48996  0.54135  0.32563  Biso   1.000  Ne
  He105    1.0000 0.51862  0.53659  0.31084  Biso   1.000  He
  He106    1.0000 0.51940  0.50877  0.28773  Biso   1.000  He
  Ne106    1.0000 0.54830  0.50495  0.27265  Biso   1.000  Ne
  Ne107    1.0000 0.75605  0.06275  0.29943  Biso   1.000  Ne
  He107    1.0000 0.75625  0.09561  0.30443  Biso   1.000  He
  He108    1.0000 0.74243  0.11610  0.28169  Biso   1.000  He
  Ne108    1.0000 0.74880  0.14826  0.28756  Biso   1.000  Ne
  Ne109    1.0000 0.30735  0.20246  0.08086  Biso   1.000  Ne
  He109    1.0000 0.33468  0.22104  0.06971  Biso   1.000  He
  He110    1.0000 0.35446  0.22811  0.09337  Biso   1.000  He
  Ne110    1.0000 0.38269  0.24777  0.08793  Biso   1.000  Ne
  Ne111    1.0000 0.20448  0.70900  0.66563  Biso   1.000  Ne
  He111    1.0000 0.23141  0.69037  0.66015  Biso   1.000  He
  He112    1.0000 0.24583  0.69073  0.63127  Biso   1.000  He
  Ne112    1.0000 0.26912  0.66606  0.62458  Biso   1.000  Ne
  Ne113    1.0000 0.81484  0.26490  0.32200  Biso   1.000  Ne
  He113    1.0000 0.79224  0.24201  0.32997  Biso   1.000  He
  He114    1.0000 0.76196  0.25374  0.34304  Biso   1.000  He
  Ne114    1.0000 0.73919  0.22996  0.35160  Biso   1.000  Ne
  Ne115    1.0000 0.04315  0.10581  0.50136  Biso   1.000  Ne
  He115    1.0000 0.07201  0.12210  0.51290  Biso   1.000  He
  He116    1.0000 0.09167  0.10439  0.53303  Biso   1.000  He
  Ne116    1.0000 0.11389  0.12531  0.54847  Biso   1.000  Ne
  Ne117    1.0000 0.11517  0.54146  0.78174  Biso   1.000  Ne
  He117    1.0000 0.13562  0.54271  0.80998  Biso   1.000  He
  He118    1.0000 0.13518  0.57392  0.82613  Biso   1.000  He
  Ne118    1.0000 0.15601  0.57699  0.85129  Biso   1.000  Ne
  Ne119    1.0000 0.52031  0.70774  0.61136  Biso   1.000  Ne
  He119    1.0000 0.55250  0.69392  0.61149  Biso   1.000  He
  He120    1.0000 0.57828  0.70934  0.59725  Biso   1.000  He
  Ne120    1.0000 0.60140  0.68753  0.59537  Biso   1.000  Ne
  Ne121    1.0000 0.67304  0.13800  0.59122  Biso   1.000  Ne
  He121    1.0000 0.69429  0.16242  0.59490  Biso   1.000  He
  He122    1.0000 0.70050  0.16840  0.62565  Biso   1.000  He
  Ne122    1.0000 0.72093  0.19508  0.63087  Biso   1.000  Ne
  Ne123    1.0000 0.58470  0.00532  0.05810  Biso   1.000  Ne
  He123    1.0000 0.57218  0.01347  0.02615  Biso   1.000  He
  He124    1.0000 0.55456  0.04099  0.02655  Biso   1.000  He
  Ne124    1.0000 0.54421  0.04628  0.99750  Biso   1.000  Ne
  Ne125    1.0000 0.45983  0.88441  0.97389  Biso   1.000  Ne
  He125    1.0000 0.47366  0.91265  0.96554  Biso   1.000  He
  He126    1.0000 0.48395  0.93160  0.99155  Biso   1.000  He
  Ne126    1.0000 0.49812  0.96218  0.97991  Biso   1.000  Ne
  Ne127    1.0000 0.08853  0.22459  0.19885  Biso   1.000  Ne
  He127    1.0000 0.08987  0.19470  0.21584  Biso   1.000  He
  He128    1.0000 0.08967  0.19661  0.24946  Biso   1.000  He
  Ne128    1.0000 0.08163  0.16776  0.26391  Biso   1.000  Ne
  Ne129    1.0000 0.70195  0.76667  0.13188  Biso   1.000  Ne
  He129    1.0000 0.71384  0.75225  0.15940  Biso   1.000  He
  He130    1.0000 0.72726  0.72019  0.15625  Biso   1.000  He
  Ne130    1.0000 0.75920  0.72228  0.15054  Biso   1.000  Ne
  Ne131    1.0000 0.39545  0.26648  0.62840  Biso   1.000  Ne
  He131    1.0000 0.38966  0.24293  0.60465  Biso   1.000  He
  He132    1.0000 0.39885  0.25491  0.57598  Biso   1.000  He
  Ne132    1.0000 0.40299  0.23134  0.55259  Biso   1.000  Ne
  Ne133    1.0000 0.10067  0.32074  0.15723  Biso   1.000  Ne
  He133    1.0000 0.13044  0.32968  0.14297  Biso   1.000  He
  He134    1.0000 0.14398  0.35786  0.15182  Biso   1.000  He
  Ne134    1.0000 0.17376  0.36255  0.13974  Biso   1.000  Ne
  Ne135    1.0000 0.78157  0.68488  0.85305  Biso   1.000  Ne
  He135    1.0000 0.79554  0.70911  0.86965  Biso   1.000  He
  He136    1.0000 0.82924  0.71250  0.86572  Biso   1.000  He
  Ne136    1.0000 0.84376  0.74100  0.87675  Biso   1.000  Ne
  Ne137    1.0000 0.67349  0.76611  0.27998  Biso   1.000  Ne
  He137    1.0000 0.64324  0.77896  0.29243  Biso   1.000  He
  He138    1.0000 0.61463  0.77184  0.27527  Biso   1.000  He
  Ne138    1.0000 0.58754  0.78029  0.29107  Biso   1.000  Ne
  Ne139    1.0000 0.22868  0.84690  0.25321  Biso   1.000  Ne
  He139    1.0000 0.25501  0.86433  0.23867  Biso   1.000  He
  He140    1.0000 0.24595  0.89147  0.21765  Biso   1.000  He
  Ne140    1.0000 0.27198  0.90846  0.20365  Biso   1.000  Ne
  Ne141    1.0000 0.30791  0.62046  0.21405  Biso   1.000  Ne
  He141    1.0000 0.32794  0.64706  0.20495  Biso   1.000  He
  He142    1.0000 0.31292  0.67051  0.18575  Biso   1.000  He
  Ne142    1.0000 0.33149  0.69818  0.18205  Biso   1.000  Ne
  Ne143    1.0000 0.88733  0.88483  0.27142  Biso   1.000  Ne
  He143    1.0000 0.86157  0.86523  0.27576  Biso   1.000  He
  He144    1.0000 0.86847  0.83420  0.28314  Biso   1.000  He
  Ne144    1.0000 0.84152  0.81482  0.29376  Biso   1.000  Ne
  Ne145    1.0000 0.59628  0.24743  0.26155  Biso   1.000  Ne
  He145    1.0000 0.60871  0.24889  0.23080  Biso   1.000  He
  He146    1.0000 0.64132  0.25709  0.22320  Biso   1.000  He
  Ne146    1.0000 0.65145  0.25176  0.19262  Biso   1.000  Ne
  Ne147    1.0000 0.59576  0.80300  0.58026  Biso   1.000  Ne
  He147    1.0000 0.57624  0.82410  0.59930  Biso   1.000  He
  He148    1.0000 0.58821  0.83003  0.62939  Biso   1.000  He
  Ne148    1.0000 0.57024  0.84871  0.64835  Biso   1.000  Ne
  Ne149    1.0000 0.64629  0.11045  0.19139  Biso   1.000  Ne
  He149    1.0000 0.64026  0.12892  0.21521  Biso   1.000  He
  He150    1.0000 0.61693  0.15397  0.20875  Biso   1.000  He
  Ne150    1.0000 0.60696  0.16850  0.23708  Biso   1.000  Ne
  Ne151    1.0000 0.69596  0.80946  0.41480  Biso   1.000  Ne
  He151    1.0000 0.68324  0.80314  0.38485  Biso   1.000  He
  He152    1.0000 0.69364  0.77540  0.36764  Biso   1.000  He
  Ne152    1.0000 0.72170  0.78104  0.35087  Biso   1.000  Ne
  Ne153    1.0000 0.67209  0.17389  0.30144  Biso   1.000  Ne
  He153    1.0000 0.64798  0.19050  0.31882  Biso   1.000  He
  He154    1.0000 0.62586  0.17091  0.33445  Biso   1.000  He
  Ne154    1.0000 0.60098  0.18676  0.34569  Biso   1.000  Ne
  Ne155    1.0000 0.25810  0.55814  0.81877  Biso   1.000  Ne
  He155    1.0000 0.23127  0.53993  0.81374  Biso   1.000  He
  He156    1.0000 0.21592  0.54751  0.78449  Biso   1.000  He
  Ne156    1.0000 0.19272  0.52678  0.77220  Biso   1.000  Ne
  Ne157    1.0000 0.21121  0.75446  0.22799  Biso   1.000  Ne
  He157    1.0000 0.19514  0.73204  0.20659  Biso   1.000  He
  He158    1.0000 0.21410  0.70532  0.20852  Biso   1.000  He
  Ne158    1.0000 0.20411  0.68237  0.18761  Biso   1.000  Ne
  Ne159    1.0000 0.79602  0.04987  0.22110  Biso   1.000  Ne
  He159    1.0000 0.81325  0.07834  0.21522  Biso   1.000  He
  He160    1.0000 0.79473  0.10719  0.21100  Biso   1.000  He
  Ne160    1.0000 0.81223  0.13660  0.21129  Biso   1.000  Ne
  Ne161    1.0000 0.22392  0.39905  0.85231  Biso   1.000  Ne
  He161    1.0000 0.20719  0.42556  0.86400  Biso   1.000  He
  He162    1.0000 0.20784  0.45383  0.84531  Biso   1.000  He
  Ne162    1.0000 0.19065  0.47840  0.85761  Biso   1.000  Ne
  Ne163    1.0000 0.95347  0.86242  0.12951  Biso   1.000  Ne
  He163    1.0000 0.95605  0.83247  0.11591  Biso   1.000  He
  He164    1.0000 0.93675  0.82921  0.09207  Biso   1.000  He
  Ne164    1.0000 0.94048  0.80487  0.07291  Biso   1.000  Ne
  Ne165    1.0000 0.00813  0.63677  0.12305  Biso   1.000  Ne
  He165    1.0000 0.98406  0.65780  0.12227  Biso   1.000  He
  He166    1.0000 0.99262  0.68357  0.10217  Biso   1.000  He
  Ne166    1.0000 0.97781  0.71169  0.10826  Biso   1.000  Ne
  Ne167    1.0000 0.85879  0.51703  0.79483  Biso   1.000  Ne
  He167    1.0000 0.86563  0.54975  0.78633  Biso   1.000  He
  He168    1.0000 0.89665  0.55657  0.77541  Biso   1.000  He
  Ne168    1.0000 0.90124  0.58412  0.76049  Biso   1.000  Ne
  Ne169    1.0000 0.32078  0.44607  0.29156  Biso   1.000  Ne
  He169    1.0000 0.35321  0.44138  0.28654  Biso   1.000  He
  He170    1.0000 0.36193  0.41228  0.27231  Biso   1.000  He
  Ne170    1.0000 0.39312  0.40889  0.26515  Biso   1.000  Ne
  Ne171    1.0000 0.88304  0.63474  0.96468  Biso   1.000  Ne
  He171    1.0000 0.86161  0.66007  0.96160  Biso   1.000  He
  He172    1.0000 0.83215  0.64890  0.94934  Biso   1.000  He
  Ne172    1.0000 0.81217  0.67520  0.94597  Biso   1.000  Ne
  Ne173    1.0000 0.68554  0.09250  0.92595  Biso   1.000  Ne
  He173    1.0000 0.69585  0.09626  0.89504  Biso   1.000  He
  He174    1.0000 0.71395  0.07178  0.88315  Biso   1.000  He
  Ne174    1.0000 0.72582  0.08207  0.85250  Biso   1.000  Ne
  Ne175    1.0000 0.73422  0.92569  0.02258  Biso   1.000  Ne
  He175    1.0000 0.73761  0.93368  0.98893  Biso   1.000  He
  He176    1.0000 0.70867  0.92827  0.97201  Biso   1.000  He
  Ne176    1.0000 0.71342  0.93281  0.93934  Biso   1.000  Ne
  Ne177    1.0000 0.24460  0.15929  0.91241  Biso   1.000  Ne
  He177    1.0000 0.24494  0.18748  0.92562  Biso   1.000  He
  He178    1.0000 0.27434  0.20274  0.92274  Biso   1.000  He
  Ne178    1.0000 0.27600  0.23128  0.93992  Biso   1.000  Ne
  Ne179    1.0000 0.26017  0.56555  0.57601  Biso   1.000  Ne
  He179    1.0000 0.24833  0.59592  0.57958  Biso   1.000  He
  He180    1.0000 0.21502  0.59813  0.58640  Biso   1.000  He
  Ne180    1.0000 0.20440  0.62920  0.59186  Biso   1.000  Ne
  Ne181    1.0000 0.64615  0.62324  0.18060  Biso   1.000  Ne
  He181    1.0000 0.63492  0.65762  0.17784  Biso   1.000  He
  He182    1.0000 0.60611  0.66398  0.19515  Biso   1.000  He
  Ne182    1.0000 0.60134  0.69572  0.20044  Biso   1.000  Ne
  Ne183    1.0000 0.53590  0.96644  0.39931  Biso   1.000  Ne
  He183    1.0000 0.54464  0.97234  0.42940  Biso   1.000  He
  He184    1.0000 0.57062  0.99083  0.43417  Biso   1.000  He
  Ne184    1.0000 0.57926  0.99849  0.46659  Biso   1.000  Ne
  Ne185    1.0000 0.45821  0.20210  0.96907  Biso   1.000  Ne
  He185    1.0000 0.45455  0.21466  0.00070  Biso   1.000  He
  He186    1.0000 0.44054  0.19576  0.02325  Biso   1.000  He
  Ne186    1.0000 0.43838  0.20891  0.05387  Biso   1.000  Ne
  Ne187    1.0000 0.52143  0.81925  0.00543  Biso   1.000  Ne
  He187    1.0000 0.49608  0.81347  0.02543  Biso   1.000  He
  He188    1.0000 0.50104  0.78650  0.04627  Biso   1.000  He
  Ne188    1.0000 0.47628  0.78264  0.06621  Biso   1.000  Ne
  Ne189    1.0000 0.97766  0.03113  0.59749  Biso   1.000  Ne
  He189    1.0000 0.97588  0.06468  0.59199  Biso   1.000  He
  He190    1.0000 0.98884  0.07661  0.56456  Biso   1.000  He
  Ne190    1.0000 0.98435  0.10859  0.56082  Biso   1.000  Ne
  Ne191    1.0000 0.14699  0.33089  0.58180  Biso   1.000  Ne
  He191    1.0000 0.12536  0.32481  0.60720  Biso   1.000  He
  He192    1.0000 0.09278  0.33106  0.60040  Biso   1.000  He
  Ne192    1.0000 0.07134  0.32683  0.62580  Biso   1.000  Ne
  Ne193    1.0000 0.87801  0.09803  0.52675  Biso   1.000  Ne
  He193    1.0000 0.91054  0.10054  0.51472  Biso   1.000  He
  He194    1.0000 0.91666  0.12754  0.49316  Biso   1.000  He
  Ne194    1.0000 0.94954  0.12576  0.48323  Biso   1.000  Ne
  Ne195    1.0000 0.48006  0.70618  0.32560  Biso   1.000  Ne
  He195    1.0000 0.44684  0.70217  0.32839  Biso   1.000  He
  He196    1.0000 0.43402  0.72865  0.33984  Biso   1.000  He
  Ne196    1.0000 0.40116  0.72291  0.34021  Biso   1.000  Ne
  Ne197    1.0000 0.43714  0.37064  0.88888  Biso   1.000  Ne
  He197    1.0000 0.43954  0.40162  0.87631  Biso   1.000  He
  He198    1.0000 0.41706  0.40904  0.85568  Biso   1.000  He
  Ne198    1.0000 0.42463  0.40168  0.82303  Biso   1.000  Ne
  Ne199    1.0000 0.77731  0.72925  0.30203  Biso   1.000  Ne
  He199    1.0000 0.76455  0.69932  0.31170  Biso   1.000  He
  He200    1.0000 0.74109  0.68599  0.29379  Biso   1.000  He
  Ne200    1.0000 0.73393  0.65523  0.30087  Biso   1.000  Ne
  Ne201    1.0000 0.34813  0.79696  0.34197  Biso   1.000  Ne
  He201    1.0000 0.31985  0.80689  0.35193  Biso   1.000  He
  He202    1.0000 0.30566  0.78327  0.37026  Biso   1.000  He
  Ne202    1.0000 0.27928  0.79236  0.38806  Biso   1.000  Ne
  Ne203    1.0000 0.69110  0.45822  0.37298  Biso   1.000  Ne
  He203    1.0000 0.68635  0.46221  0.33908  Biso   1.000  He
  He204    1.0000 0.67870  0.43144  0.32268  Biso   1.000  He
  Ne204    1.0000 0.67458  0.43469  0.29028  Biso   1.000  Ne
  Ne205    1.0000 0.42731  0.91085  0.39637  Biso   1.000  Ne
  He205    1.0000 0.44952  0.90493  0.42106  Biso   1.000  He
  He206    1.0000 0.45953  0.93474  0.43232  Biso   1.000  He
  Ne206    1.0000 0.47619  0.93288  0.46254  Biso   1.000  Ne
  Ne207    1.0000 0.35636  0.16308  0.55939  Biso   1.000  Ne
  He207    1.0000 0.36726  0.13520  0.54679  Biso   1.000  He
  He208    1.0000 0.40138  0.13493  0.54626  Biso   1.000  He
  Ne208    1.0000 0.41270  0.10527  0.53408  Biso   1.000  Ne
  Ne209    1.0000 0.87185  0.20237  0.82735  Biso   1.000  Ne
  He209    1.0000 0.88368  0.21002  0.85705  Biso   1.000  He
  He210    1.0000 0.86237  0.22033  0.88002  Biso   1.000  He
  Ne210    1.0000 0.87393  0.21570  0.90965  Biso   1.000  Ne
  Ne211    1.0000 0.67236  0.62580  0.52002  Biso   1.000  Ne
  He211    1.0000 0.69566  0.60364  0.52958  Biso   1.000  He
  He212    1.0000 0.71405  0.59003  0.50312  Biso   1.000  He
  Ne212    1.0000 0.74216  0.57190  0.51129  Biso   1.000  Ne
  Ne213    1.0000 0.86497  0.95350  0.72331  Biso   1.000  Ne
  He213    1.0000 0.86830  0.93103  0.74589  Biso   1.000  He
  He214    1.0000 0.89907  0.91963  0.74438  Biso   1.000  He
  Ne214    1.0000 0.90520  0.89472  0.76425  Biso   1.000  Ne
  Ne215    1.0000 0.21571  0.18150  0.82845  Biso   1.000  Ne
  He215    1.0000 0.18484  0.18601  0.82238  Biso   1.000  He
  He216    1.0000 0.17790  0.18072  0.79165  Biso   1.000  He
  Ne216    1.0000 0.14705  0.17981  0.78267  Biso   1.000  Ne
  Ne217    1.0000 0.91151  0.91071  0.85168  Biso   1.000  Ne
  He217    1.0000 0.87975  0.90269  0.84647  Biso   1.000  He
  He218    1.0000 0.85816  0.92448  0.82967  Biso   1.000  He
  Ne218    1.0000 0.82697  0.91034  0.82858  Biso   1.000  Ne
  Ne219    1.0000 0.05595  0.30216  0.90277  Biso   1.000  Ne
  He219    1.0000 0.04712  0.30457  0.93385  Biso   1.000  He
  He220    1.0000 0.01672  0.29958  0.93743  Biso   1.000  He
  Ne220    1.0000 0.00264  0.30233  0.96818  Biso   1.000  Ne
  Ne221    1.0000 0.64148  0.30312  0.35392  Biso   1.000  Ne
  He221    1.0000 0.64933  0.29825  0.32127  Biso   1.000  He
  He222    1.0000 0.66355  0.26720  0.32022  Biso   1.000  He
  Ne222    1.0000 0.68314  0.26245  0.29576  Biso   1.000  Ne
  Ne223    1.0000 0.90083  0.37294  0.42542  Biso   1.000  Ne
  He223    1.0000 0.91155  0.40127  0.43768  Biso   1.000  He
  He224    1.0000 0.88778  0.42286  0.44381  Biso   1.000  He
  Ne224    1.0000 0.89910  0.45202  0.45575  Biso   1.000  Ne
  Ne225    1.0000 0.97073  0.90207  0.02883  Biso   1.000  Ne
  He225    1.0000 0.97436  0.92844  0.04899  Biso   1.000  He
  He226    1.0000 0.96600  0.92199  0.08006  Biso   1.000  He
  Ne226    1.0000 0.97004  0.94625  0.09978  Biso   1.000  Ne
  Ne227    1.0000 0.96373  0.85278  0.69332  Biso   1.000  Ne
  He227    1.0000 0.98162  0.87470  0.68055  Biso   1.000  He
  He228    1.0000 0.00342  0.88580  0.70052  Biso   1.000  He
  Ne228    1.0000 0.02403  0.90629  0.68545  Biso   1.000  Ne
  Ne229    1.0000 0.36765  0.38453  0.92194  Biso   1.000  Ne
  He229    1.0000 0.33522  0.37720  0.91955  Biso   1.000  He
  He230    1.0000 0.31817  0.40238  0.91250  Biso   1.000  He
  Ne230    1.0000 0.28723  0.39462  0.91001  Biso   1.000  Ne
  Ne231    1.0000 0.17325  0.70342  0.55698  Biso   1.000  Ne
  He231    1.0000 0.19240  0.73050  0.55031  Biso   1.000  He
  He232    1.0000 0.17248  0.75817  0.54444  Biso   1.000  He
  Ne232    1.0000 0.17313  0.77625  0.51567  Biso   1.000  Ne
  Ne233    1.0000 0.81752  0.94987  0.36979  Biso   1.000  Ne
  He233    1.0000 0.83141  0.97331  0.38403  Biso   1.000  He
  He234    1.0000 0.83052  0.97190  0.41654  Biso   1.000  He
  Ne234    1.0000 0.85100  0.99183  0.43215  Biso   1.000  Ne
  Ne235    1.0000 0.57771  0.83924  0.75383  Biso   1.000  Ne
  He235    1.0000 0.56664  0.86289  0.73286  Biso   1.000  He
  He236    1.0000 0.54358  0.87697  0.74497  Biso   1.000  He
  Ne236    1.0000 0.53039  0.90332  0.72541  Biso   1.000  Ne
  Ne237    1.0000 0.48697  0.39173  0.29207  Biso   1.000  Ne
  He237    1.0000 0.47332  0.38476  0.32050  Biso   1.000  He
  He238    1.0000 0.48261  0.40803  0.34039  Biso   1.000  He
  Ne238    1.0000 0.47127  0.40186  0.37145  Biso   1.000  Ne
  Ne239    1.0000 0.30590  0.64761  0.78059  Biso   1.000  Ne
  He239    1.0000 0.28868  0.62647  0.76375  Biso   1.000  He
  He240    1.0000 0.28026  0.63652  0.73451  Biso   1.000  He
  Ne240    1.0000 0.25281  0.61871  0.71995  Biso   1.000  Ne
  Ne241    1.0000 0.80166  0.23431  0.16638  Biso   1.000  Ne
  He241    1.0000 0.82712  0.22105  0.18445  Biso   1.000  He
  He242    1.0000 0.85530  0.23551  0.17901  Biso   1.000  He
  Ne242    1.0000 0.87871  0.23457  0.20305  Biso   1.000  Ne
  Ne243    1.0000 0.98924  0.53082  0.41151  Biso   1.000  Ne
  He243    1.0000 0.95957  0.53626  0.42356  Biso   1.000  He
  He244    1.0000 0.94651  0.56832  0.42344  Biso   1.000  He
  Ne244    1.0000 0.91520  0.56887  0.43604  Biso   1.000  Ne
  Ne245    1.0000 0.82873  0.78295  0.80934  Biso   1.000  Ne
  He245    1.0000 0.80930  0.80607  0.81924  Biso   1.000  He
  He246    1.0000 0.78090  0.80690  0.80235  Biso   1.000  He
  Ne246    1.0000 0.76286  0.82971  0.81309  Biso   1.000  Ne
  Ne247    1.0000 0.00913  0.93040  0.33074  Biso   1.000  Ne
  He247    1.0000 0.01514  0.90839  0.35582  Biso   1.000  He
  He248    1.0000 0.99221  0.88488  0.35651  Biso   1.000  He
  Ne248    1.0000 0.99474  0.86243  0.38141  Biso   1.000  Ne
  Ne249    1.0000 0.57672  0.08974  0.39070  Biso   1.000  Ne
  He249    1.0000 0.55850  0.09096  0.41803  Biso   1.000  He
  He250    1.0000 0.57422  0.08077  0.44589  Biso   1.000  He
  Ne250    1.0000 0.55934  0.08719  0.47535  Biso   1.000  Ne
  Ne251    1.0000 0.24875  0.34650  0.18929  Biso   1.000  Ne
  He251    1.0000 0.26643  0.35692  0.21527  Biso   1.000  He
  He252    1.0000 0.25416  0.38617  0.23050  Biso   1.000  He
  Ne252    1.0000 0.26817  0.39128  0.25967  Biso   1.000  Ne
  Ne253    1.0000 0.52801  0.88235  0.10555  Biso   1.000  Ne
  He253    1.0000 0.52068  0.91087  0.11967  Biso   1.000  He
  He254    1.0000 0.53060  0.91422  0.15058  Biso   1.000  He
  Ne254    1.0000 0.51801  0.94290  0.16240  Biso   1.000  Ne
  Ne255    1.0000 0.36769  0.08019  0.39197  Biso   1.000  Ne
  He255    1.0000 0.39696  0.08258  0.37472  Biso   1.000  He
  He256    1.0000 0.39784  0.08697  0.34147  Biso   1.000  He
  Ne256    1.0000 0.42940  0.09332  0.32676  Biso   1.000  Ne
  Ne257    1.0000 0.42611  0.56690  0.86125  Biso   1.000  Ne
  He257    1.0000 0.41043  0.59240  0.84655  Biso   1.000  He
  He258    1.0000 0.42977  0.61969  0.84536  Biso   1.000  He
  Ne258    1.0000 0.41605  0.64914  0.83017  Biso   1.000  Ne
  Ne259    1.0000 0.16676  0.86002  0.66049  Biso   1.000  Ne
  He259    1.0000 0.16918  0.88936  0.67716  Biso   1.000  He
  He260    1.0000 0.16790  0.91580  0.65749  Biso   1.000  He
  Ne260    1.0000 0.19726  0.93246  0.64911  Biso   1.000  Ne
  Ne261    1.0000 0.42245  0.51897  0.46758  Biso   1.000  Ne
  He261    1.0000 0.42969  0.50105  0.49386  Biso   1.000  He
  He262    1.0000 0.45876  0.50753  0.50716  Biso   1.000  He
  Ne262    1.0000 0.46039  0.49944  0.53974  Biso   1.000  Ne
  Ne263    1.0000 0.46957  0.17894  0.22716  Biso   1.000  Ne
  He263    1.0000 0.46061  0.17161  0.19688  Biso   1.000  He
  He264    1.0000 0.48308  0.15912  0.17648  Biso   1.000  He
  Ne264    1.0000 0.47293  0.15600  0.14787  Biso   1.000  Ne
  Ne265    1.0000 0.57727  0.78272  0.96277  Biso   1.000  Ne
  He265    1.0000 0.59978  0.78637  0.93879  Biso   1.000  He
  He266    1.0000 0.59014  0.80676  0.91267  Biso   1.000  He
  Ne266    1.0000 0.61233  0.80710  0.88916  Biso   1.000  Ne
  Ne267    1.0000 0.08363  0.68091  0.12602  Biso   1.000  Ne
  He267    1.0000 0.10004  0.70924  0.13357  Biso   1.000  He
  He268    1.0000 0.08905  0.72256  0.15975  Biso   1.000  He
  Ne268    1.0000 0.10511  0.75108  0.16938  Biso   1.000  Ne
  Ne269    1.0000 0.41913  0.06570  0.61743  Biso   1.000  Ne
  He269    1.0000 0.41523  0.07179  0.64952  Biso   1.000  He
  He270    1.0000 0.38200  0.07830  0.65442  Biso   1.000  He
  Ne270    1.0000 0.36749  0.07837  0.68646  Biso   1.000  Ne
  Ne271    1.0000 0.19683  0.08644  0.90185  Biso   1.000  Ne
  He271    1.0000 0.16877  0.08880  0.88246  Biso   1.000  He
  He272    1.0000 0.17286  0.09658  0.85142  Biso   1.000  He
  Ne272    1.0000 0.14378  0.09080  0.83406  Biso   1.000  Ne
  Ne273    1.0000 0.10538  0.64125  0.58652  Biso   1.000  Ne
  He273    1.0000 0.11906  0.66674  0.60363  Biso   1.000  He
  He274    1.0000 0.09963  0.68690  0.62404  Biso   1.000  He
  Ne274    1.0000 0.11696  0.71025  0.64127  Biso   1.000  Ne
  Ne275    1.0000 0.62188  0.58877  0.04511  Biso   1.000  Ne
  He275    1.0000 0.59941  0.57397  0.06625  Biso   1.000  He
  He276    1.0000 0.59275  0.59750  0.08884  Biso   1.000  He
  Ne276    1.0000 0.56887  0.58915  0.11334  Biso   1.000  Ne
  Ne277    1.0000 0.78387  0.86802  0.59595  Biso   1.000  Ne
  He277    1.0000 0.80290  0.86978  0.57170  Biso   1.000  He
  He278    1.0000 0.81225  0.84002  0.55897  Biso   1.000  He
  Ne278    1.0000 0.83533  0.84396  0.53043  Biso   1.000  Ne
  Ne279    1.0000 0.02012  0.12227  0.30767  Biso   1.000  Ne
  He279    1.0000 0.01627  0.14270  0.33072  Biso   1.000  He
  He280    1.0000 0.02653  0.17193  0.32899  Biso   1.000  He
  Ne280    1.0000 0.01689  0.19036  0.35491  Biso   1.000  Ne
  Ne281    1.0000 0.52328  0.19405  0.86928  Biso   1.000  Ne
  He281    1.0000 0.49552  0.18366  0.88053  Biso   1.000  He
  He282    1.0000 0.46996  0.20123  0.86559  Biso   1.000  He
  Ne282    1.0000 0.43823  0.19154  0.87551  Biso   1.000  Ne
  Ne283    1.0000 0.40004  0.96668  0.79604  Biso   1.000  Ne
  He283    1.0000 0.41078  0.93651  0.78254  Biso   1.000  He
  He284    1.0000 0.38708  0.91733  0.77367  Biso   1.000  He
  Ne284    1.0000 0.39509  0.89111  0.75615  Biso   1.000  Ne
  Ne285    1.0000 0.92592  0.43956  0.26437  Biso   1.000  Ne
  He285    1.0000 0.92126  0.42851  0.29697  Biso   1.000  He
  He286    1.0000 0.91030  0.39778  0.30011  Biso   1.000  He
  Ne286    1.0000 0.90572  0.38973  0.33148  Biso   1.000  Ne
  Ne287    1.0000 0.82858  0.92218  0.92305  Biso   1.000  Ne
  He287    1.0000 0.82666  0.88709  0.92393  Biso   1.000  He
  He288    1.0000 0.85325  0.86967  0.91615  Biso   1.000  He
  Ne288    1.0000 0.84515  0.83693  0.91772  Biso   1.000  Ne
  Ne289    1.0000 0.07037  0.89621  0.03804  Biso   1.000  Ne
  He289    1.0000 0.07539  0.91433  0.06559  Biso   1.000  He
  He290    1.0000 0.10658  0.92505  0.06713  Biso   1.000  He
  Ne290    1.0000 0.11430  0.94620  0.09391  Biso   1.000  Ne
  Ne291    1.0000 0.04125  0.93267  0.75399  Biso   1.000  Ne
  He291    1.0000 0.05994  0.91040  0.76713  Biso   1.000  He
  He292    1.0000 0.08095  0.92413  0.78953  Biso   1.000  He
  Ne292    1.0000 0.07220  0.91847  0.81991  Biso   1.000  Ne
  Ne293    1.0000 0.10430  0.98119  0.28684  Biso   1.000  Ne
  He293    1.0000 0.10514  0.95327  0.27116  Biso   1.000  He
  He294    1.0000 0.08379  0.92908  0.28134  Biso   1.000  He
  Ne294    1.0000 0.08789  0.89988  0.26611  Biso   1.000  Ne
  Ne295    1.0000 0.98121  0.47238  0.78277  Biso   1.000  Ne
  He295    1.0000 0.00752  0.45908  0.79428  Biso   1.000  He
  He296    1.0000 0.03309  0.46807  0.77604  Biso   1.000  He
  Ne296    1.0000 0.06101  0.45065  0.78127  Biso   1.000  Ne
  Ne297    1.0000 0.91334  0.81591  0.78600  Biso   1.000  Ne
  He297    1.0000 0.90528  0.82705  0.81409  Biso   1.000  He
  He298    1.0000 0.92977  0.81934  0.83546  Biso   1.000  He
  Ne298    1.0000 0.92329  0.83012  0.86562  Biso   1.000  Ne
  Ne299    1.0000 0.05227  0.24667  0.42469  Biso   1.000  Ne
  He299    1.0000 0.07560  0.22729  0.40787  Biso   1.000  He
  He300    1.0000 0.07367  0.19320  0.41578  Biso   1.000  He
  Ne300    1.0000 0.09899  0.17711  0.40318  Biso   1.000  Ne
  Ne301    1.0000 0.28235  0.77115  0.08016  Biso   1.000  Ne
  He301    1.0000 0.28956  0.80616  0.08395  Biso   1.000  He
  He302    1.0000 0.29210  0.82467  0.05601  Biso   1.000  He
  Ne302    1.0000 0.29385  0.85776  0.06208  Biso   1.000  Ne
  Ne303    1.0000 0.40878  0.15931  0.64318  Biso   1.000  Ne
  He303    1.0000 0.37609  0.16600  0.64515  Biso   1.000  He
  He304    1.0000 0.36030  0.15452  0.67364  Biso   1.000  He
  Ne304    1.0000 0.32603  0.15481  0.67273  Biso   1.000  Ne
  Ne305    1.0000 0.58357  0.07412  0.58566  Biso   1.000  Ne
  He305    1.0000 0.57253  0.09572  0.60809  Biso   1.000  He
  He306    1.0000 0.58963  0.10006  0.63559  Biso   1.000  He
  Ne306    1.0000 0.57505  0.12396  0.65446  Biso   1.000  Ne
  Ne307    1.0000 0.02268  0.06181  0.72819  Biso   1.000  Ne
  He307    1.0000 0.02618  0.05783  0.69861  Biso   1.000  He
  He308    1.0000 0.03528  0.08497  0.68189  Biso   1.000  He
  Ne308    1.0000 0.04923  0.07868  0.65300  Biso   1.000  Ne
  Ne309    1.0000 0.54398  0.18289  0.78328  Biso   1.000  Ne
  He309    1.0000 0.53762  0.15399  0.79863  Biso   1.000  He
  He310    1.0000 0.50582  0.14960  0.80046  Biso   1.000  He
  Ne310    1.0000 0.49746  0.12216  0.81651  Biso   1.000  Ne
  Ne311    1.0000 0.42669  0.27164  0.70901  Biso   1.000  Ne
  He311    1.0000 0.43673  0.30272  0.71573  Biso   1.000  He
  He312    1.0000 0.46887  0.30595  0.71839  Biso   1.000  He
  Ne312    1.0000 0.48254  0.33598  0.72444  Biso   1.000  Ne
  Ne313    1.0000 0.41274  0.92773  0.03735  Biso   1.000  Ne
  He313    1.0000 0.38500  0.93934  0.02544  Biso   1.000  He
  He314    1.0000 0.36141  0.95018  0.04571  Biso   1.000  He
  Ne314    1.0000 0.33125  0.95862  0.03072  Biso   1.000  Ne
  Ne315    1.0000 0.09830  0.22360  0.09218  Biso   1.000  Ne
  He315    1.0000 0.08066  0.19444  0.09335  Biso   1.000  He
  He316    1.0000 0.07703  0.18146  0.12489  Biso   1.000  He
  Ne316    1.0000 0.05841  0.15484  0.12262  Biso   1.000  Ne
  Ne317    1.0000 0.09839  0.83678  0.90752  Biso   1.000  Ne
  He317    1.0000 0.12587  0.81773  0.90430  Biso   1.000  He
  He318    1.0000 0.11947  0.78257  0.90877  Biso   1.000  He
  Ne318    1.0000 0.14185  0.76226  0.90702  Biso   1.000  Ne
  Ne319    1.0000 0.94805  0.17379  0.28427  Biso   1.000  Ne
  He319    1.0000 0.92376  0.19590  0.28378  Biso   1.000  He
  He320    1.0000 0.91841  0.21102  0.31420  Biso   1.000  He
  Ne320    1.0000 0.89316  0.23299  0.31279  Biso   1.000  Ne
  Ne321    1.0000 0.90308  0.84860  0.57313  Biso   1.000  Ne
  He321    1.0000 0.90634  0.84753  0.60576  Biso   1.000  He
  He322    1.0000 0.88121  0.83340  0.61967  Biso   1.000  He
  Ne322    1.0000 0.88153  0.83092  0.65301  Biso   1.000  Ne
  Ne323    1.0000 0.20624  0.89456  0.75051  Biso   1.000  Ne
  He323    1.0000 0.21934  0.91096  0.77544  Biso   1.000  He
  He324    1.0000 0.23681  0.94103  0.76990  Biso   1.000  He
  Ne324    1.0000 0.24852  0.95359  0.79625  Biso   1.000  Ne
  Ne325    1.0000 0.74481  0.30072  0.96978  Biso   1.000  Ne
  He325    1.0000 0.76484  0.31997  0.95260  Biso   1.000  He
  He326    1.0000 0.79029  0.30430  0.93846  Biso   1.000  He
  Ne326    1.0000 0.80961  0.32759  0.92140  Biso   1.000  Ne
  Ne327    1.0000 0.39982  0.32141  0.15866  Biso   1.000  Ne
  He327    1.0000 0.38410  0.33409  0.13302  Biso   1.000  He
  He328    1.0000 0.39791  0.32319  0.10601  Biso   1.000  He
  Ne328    1.0000 0.38241  0.33204  0.08003  Biso   1.000  Ne
  Ne329    1.0000 0.35247  0.03100  0.09318  Biso   1.000  Ne
  He329    1.0000 0.34514  0.01410  0.12033  Biso   1.000  He
  He330    1.0000 0.32525  0.98711  0.11559  Biso   1.000  He
  Ne330    1.0000 0.31446  0.96923  0.13968  Biso   1.000  Ne
  Ne331    1.0000 0.27232  0.35252  0.81000  Biso   1.000  Ne
  He331    1.0000 0.29445  0.37868  0.80243  Biso   1.000  He
  He332    1.0000 0.31718  0.38270  0.82708  Biso   1.000  He
  Ne332    1.0000 0.33965  0.40959  0.82629  Biso   1.000  Ne
  Ne333    1.0000 0.22775  0.93708  0.14787  Biso   1.000  Ne
  He333    1.0000 0.23864  0.91824  0.12194  Biso   1.000  He
  He334    1.0000 0.22403  0.92257  0.09302  Biso   1.000  He
  Ne334    1.0000 0.23477  0.90665  0.06775  Biso   1.000  Ne
  Ne335    1.0000 0.76140  0.58303  0.41972  Biso   1.000  Ne
  He335    1.0000 0.73124  0.57646  0.40816  Biso   1.000  He
  He336    1.0000 0.71991  0.59318  0.38228  Biso   1.000  He
  Ne336    1.0000 0.68763  0.57929  0.37653  Biso   1.000  Ne
  Ne337    1.0000 0.97194  0.15155  0.71733  Biso   1.000  Ne
  He337    1.0000 0.97063  0.17522  0.69395  Biso   1.000  He
  He338    1.0000 0.97749  0.16243  0.66220  Biso   1.000  He
  Ne338    1.0000 0.98591  0.18627  0.63986  Biso   1.000  Ne
  Ne339    1.0000 0.95108  0.71717  0.61972  Biso   1.000  Ne
  He339    1.0000 0.94945  0.72631  0.58562  Biso   1.000  He
  He340    1.0000 0.91985  0.73455  0.57598  Biso   1.000  He
  Ne340    1.0000 0.91413  0.76703  0.57221  Biso   1.000  Ne
  Ne341    1.0000 0.57531  0.14861  0.06152  Biso   1.000  Ne
  He341    1.0000 0.55798  0.12026  0.06862  Biso   1.000  He
  He342    1.0000 0.53060  0.11777  0.05047  Biso   1.000  He
  Ne342    1.0000 0.51092  0.09623  0.06249  Biso   1.000  Ne
  Ne343    1.0000 0.87065  0.99991  0.31661  Biso   1.000  Ne
  He343    1.0000 0.87426  0.02903  0.32733  Biso   1.000  He
  He344    1.0000 0.84920  0.04888  0.32022  Biso   1.000  He
  Ne344    1.0000 0.85106  0.07784  0.33640  Biso   1.000  Ne
  Ne345    1.0000 0.41281  0.85218  0.25714  Biso   1.000  Ne
  He345    1.0000 0.42740  0.85877  0.22912  Biso   1.000  He
  He346    1.0000 0.44941  0.83709  0.22004  Biso   1.000  He
  Ne346    1.0000 0.45892  0.84392  0.18792  Biso   1.000  Ne
  Ne347    1.0000 0.07738  0.11332  0.81054  Biso   1.000  Ne
  He347    1.0000 0.08842  0.09319  0.78554  Biso   1.000  He
  He348    1.0000 0.09496  0.10663  0.75780  Biso   1.000  He
  Ne348    1.0000 0.09756  0.08578  0.73228  Biso   1.000  Ne
  Ne349    1.0000 0.22932  0.86633  0.50747  Biso   1.000  Ne
  He349    1.0000 0.23702  0.87902  0.53634  Biso   1.000  He
  He350    1.0000 0.26442  0.89761  0.53408  Biso   1.000  He
  Ne350    1.0000 0.27438  0.91607  0.55956  Biso   1.000  Ne
  Ne351    1.0000 0.59413  0.76709  0.68671  Biso   1.000  Ne
  He351    1.0000 0.61844  0.76745  0.66319  Biso   1.000  He
  He352    1.0000 0.64125  0.74497  0.66600  Biso   1.000  He
  Ne352    1.0000 0.66426  0.74835  0.64439  Biso   1.000  Ne
  Ne353    1.0000 0.17801  0.41502  0.58122  Biso   1.000  Ne
  He353    1.0000 0.20755  0.41407  0.59144  Biso   1.000  He
  He354    1.0000 0.22884  0.42434  0.57124  Biso   1.000  He
  Ne354    1.0000 0.26183  0.42107  0.57985  Biso   1.000  Ne
  Ne355    1.0000 0.43220  0.96076  0.91175  Biso   1.000  Ne
  He355    1.0000 0.42130  0.92900  0.90140  Biso   1.000  He
  He356    1.0000 0.38753  0.92456  0.90495  Biso   1.000  He
  Ne356    1.0000 0.37371  0.89850  0.89239  Biso   1.000  Ne
  Ne357    1.0000 0.89445  0.14553  0.92163  Biso   1.000  Ne
  He357    1.0000 0.89416  0.13139  0.89190  Biso   1.000  He
  He358    1.0000 0.90064  0.09751  0.89445  Biso   1.000  He
  Ne358    1.0000 0.91124  0.08420  0.86535  Biso   1.000  Ne
  Ne359    1.0000 0.33864  0.12507  0.16541  Biso   1.000  Ne
  He359    1.0000 0.32586  0.13437  0.13458  Biso   1.000  He
  He360    1.0000 0.31236  0.10907  0.11551  Biso   1.000  He
  Ne360    1.0000 0.30139  0.11778  0.08499  Biso   1.000  Ne
  Ne361    1.0000 0.42322  0.91732  0.29679  Biso   1.000  Ne
  He361    1.0000 0.43546  0.94491  0.27836  Biso   1.000  He
  He362    1.0000 0.45304  0.93796  0.24863  Biso   1.000  He
  Ne362    1.0000 0.46512  0.96564  0.23409  Biso   1.000  Ne
  Ne363    1.0000 0.24307  0.32022  0.07802  Biso   1.000  Ne
  He363    1.0000 0.26155  0.31343  0.10452  Biso   1.000  He
  He364    1.0000 0.29409  0.31427  0.10146  Biso   1.000  He
  Ne364    1.0000 0.30843  0.29860  0.12604  Biso   1.000  Ne
  Ne365    1.0000 0.04876  0.54317  0.59285  Biso   1.000  Ne
  He365    1.0000 0.07812  0.55027  0.58178  Biso   1.000  He
  He366    1.0000 0.07842  0.55997  0.54986  Biso   1.000  He
  Ne366    1.0000 0.10661  0.57206  0.54007  Biso   1.000  Ne
  Ne367    1.0000 0.06001  0.70768  0.82059  Biso   1.000  Ne
  He367    1.0000 0.03965  0.68729  0.80760  Biso   1.000  He
  He368    1.0000 0.04424  0.65440  0.81165  Biso   1.000  He
  Ne368    1.0000 0.02183  0.63698  0.79502  Biso   1.000  Ne
  Ne369    1.0000 0.06153  0.83586  0.30389  Biso   1.000  Ne
  He369    1.0000 0.07630  0.82591  0.33128  Biso   1.000  He
  He370    1.0000 0.06457  0.79894  0.34558  Biso   1.000  He
  Ne370    1.0000 0.07820  0.78856  0.37194  Biso   1.000  Ne
  Ne371    1.0000 0.43499  0.63508  0.43219  Biso   1.000  Ne
  He371    1.0000 0.42542  0.63855  0.40076  Biso   1.000  He
  He372    1.0000 0.39931  0.65629  0.39655  Biso   1.000  He
  Ne372    1.0000 0.37325  0.63682  0.39083  Biso   1.000  Ne
  Ne373    1.0000 0.71156  0.30359  0.43749  Biso   1.000  Ne
  He373    1.0000 0.74073  0.29071  0.43104  Biso   1.000  He
  He374    1.0000 0.76159  0.31555  0.42143  Biso   1.000  He
  Ne374    1.0000 0.79223  0.30501  0.41738  Biso   1.000  Ne
  Ne375    1.0000 0.34091  0.85292  0.64086  Biso   1.000  Ne
  He375    1.0000 0.35776  0.87002  0.66378  Biso   1.000  He
  He376    1.0000 0.37542  0.89495  0.64999  Biso   1.000  He
  Ne376    1.0000 0.39210  0.91449  0.67260  Biso   1.000  Ne
  Ne377    1.0000 0.45035  0.60450  0.93661  Biso   1.000  Ne
  He377    1.0000 0.44174  0.57822  0.95253  Biso   1.000  He
  He378    1.0000 0.44831  0.58325  0.98604  Biso   1.000  He
  Ne378    1.0000 0.44020  0.55702  0.00311  Biso   1.000  Ne
  Ne379    1.0000 0.18355  0.90018  0.29489  Biso   1.000  Ne
  He379    1.0000 0.20128  0.92647  0.30699  Biso   1.000  He
  He380    1.0000 0.23065  0.91819  0.32244  Biso   1.000  He
  Ne380    1.0000 0.24466  0.94746  0.32888  Biso   1.000  Ne
  Ne381    1.0000 0.83972  0.35963  0.11214  Biso   1.000  Ne
  He381    1.0000 0.82110  0.38901  0.10991  Biso   1.000  He
  He382    1.0000 0.80485  0.39256  0.08218  Biso   1.000  He
  Ne382    1.0000 0.78378  0.41957  0.08194  Biso   1.000  Ne
  Ne383    1.0000 0.36868  0.74898  0.77199  Biso   1.000  Ne
  He383    1.0000 0.37399  0.76716  0.74574  Biso   1.000  He
  He384    1.0000 0.36950  0.80074  0.74568  Biso   1.000  He
  Ne384    1.0000 0.37582  0.81594  0.71621  Biso   1.000  Ne
  Ne385    1.0000 0.05735  0.92724  0.90492  Biso   1.000  Ne
  He385    1.0000 0.03198  0.93317  0.92292  Biso   1.000  He
  He386    1.0000 0.03859  0.95918  0.94496  Biso   1.000  He
  Ne386    1.0000 0.01474  0.95809  0.96776  Biso   1.000  Ne
  Ne387    1.0000 0.30469  0.78149  0.17831  Biso   1.000  Ne
  He387    1.0000 0.32988  0.80558  0.16704  Biso   1.000  He
  He388    1.0000 0.33248  0.83224  0.18759  Biso   1.000  He
  Ne388    1.0000 0.35474  0.85635  0.18085  Biso   1.000  Ne
  Ne389    1.0000 0.69030  0.69197  0.82864  Biso   1.000  Ne
  He389    1.0000 0.67895  0.68979  0.85931  Biso   1.000  He
  He390    1.0000 0.67199  0.71759  0.87338  Biso   1.000  He
  Ne390    1.0000 0.64054  0.72750  0.87822  Biso   1.000  Ne
  Ne391    1.0000 0.13421  0.66217  0.77283  Biso   1.000  Ne
  He391    1.0000 0.12132  0.66822  0.74037  Biso   1.000  He
  He392    1.0000 0.10197  0.64243  0.72868  Biso   1.000  He
  Ne392    1.0000 0.09546  0.64359  0.69456  Biso   1.000  Ne
  Ne393    1.0000 0.16795  0.57055  0.70617  Biso   1.000  Ne
  He393    1.0000 0.14092  0.57558  0.68710  Biso   1.000  He
  He394    1.0000 0.14864  0.57991  0.65724  Biso   1.000  He
  Ne394    1.0000 0.12076  0.58185  0.63859  Biso   1.000  Ne
  Ne395    1.0000 0.67139  0.36785  0.40002  Biso   1.000  Ne
  He395    1.0000 0.64109  0.35758  0.41183  Biso   1.000  He
  He396    1.0000 0.61834  0.38146  0.41191  Biso   1.000  He
  Ne396    1.0000 0.58708  0.37078  0.42550  Biso   1.000  Ne
  Ne397    1.0000 0.20359  0.78635  0.32833  Biso   1.000  Ne
  He397    1.0000 0.19541  0.81880  0.33480  Biso   1.000  He
  He398    1.0000 0.16266  0.82115  0.34232  Biso   1.000  He
  Ne398    1.0000 0.15308  0.84883  0.34890  Biso   1.000  Ne
  Ne399    1.0000 0.75742  0.29383  0.61808  Biso   1.000  Ne
  He399    1.0000 0.76793  0.26872  0.59638  Biso   1.000  He
  He400    1.0000 0.79072  0.25256  0.61341  Biso   1.000  He
  Ne400    1.0000 0.80255  0.22267  0.60093  Biso   1.000  Ne
  Ne401    1.0000 0.89862  0.08749  0.66610  Biso   1.000  Ne
  He401    1.0000 0.90200  0.10481  0.69469  Biso   1.000  He
  He402    1.0000 0.91953  0.09146  0.71999  Biso   1.000  He
  Ne402    1.0000 0.92330  0.10893  0.74709  Biso   1.000  Ne
  Ne403    1.0000 0.77938  0.67012  0.72608  Biso   1.000  Ne
  He403    1.0000 0.79568  0.64999  0.74472  Biso   1.000  He
  He404    1.0000 0.82507  0.66334  0.75241  Biso   1.000  He
  Ne404    1.0000 0.84164  0.64427  0.77481  Biso   1.000  Ne
  Ne405    1.0000 0.14849  0.36459  0.96544  Biso   1.000  Ne
  He405    1.0000 0.16458  0.38874  0.95353  Biso   1.000  He
  He406    1.0000 0.19671  0.38554  0.94734  Biso   1.000  He
  Ne406    1.0000 0.21734  0.39352  0.97390  Biso   1.000  Ne
  Ne407    1.0000 0.35274  0.58749  0.89989  Biso   1.000  Ne
  He407    1.0000 0.35364  0.61707  0.91511  Biso   1.000  He
  He408    1.0000 0.33217  0.63674  0.89872  Biso   1.000  He
  Ne408    1.0000 0.33434  0.66824  0.90626  Biso   1.000  Ne
  Ne409    1.0000 0.51527  0.61054  0.36468  Biso   1.000  Ne
  He409    1.0000 0.54643  0.60747  0.37868  Biso   1.000  He
  He410    1.0000 0.55053  0.58273  0.39964  Biso   1.000  He
  Ne410    1.0000 0.58246  0.58347  0.41295  Biso   1.000  Ne
  Ne411    1.0000 0.41683  0.70337  0.88819  Biso   1.000  Ne
  He411    1.0000 0.40261  0.72022  0.86457  Biso   1.000  He
  He412    1.0000 0.39332  0.75015  0.87590  Biso   1.000  He
  Ne412    1.0000 0.37320  0.76687  0.85645  Biso   1.000  Ne
  Ne413    1.0000 0.79634  0.54362  0.85884  Biso   1.000  Ne
  He413    1.0000 0.78987  0.55705  0.88964  Biso   1.000  He
  He414    1.0000 0.80694  0.54637  0.91600  Biso   1.000  He
  Ne414    1.0000 0.80352  0.56524  0.94278  Biso   1.000  Ne
  Ne415    1.0000 0.27242  0.10972  0.23267  Biso   1.000  Ne
  He415    1.0000 0.30023  0.11592  0.24937  Biso   1.000  He
  He416    1.0000 0.30660  0.14815  0.25204  Biso   1.000  He
  Ne416    1.0000 0.33252  0.15460  0.26821  Biso   1.000  Ne
  Ne417    1.0000 0.24209  0.09668  0.30769  Biso   1.000  Ne
  He417    1.0000 0.22612  0.07482  0.28657  Biso   1.000  He
  He418    1.0000 0.22383  0.04516  0.30206  Biso   1.000  He
  Ne418    1.0000 0.19821  0.02775  0.28890  Biso   1.000  Ne
  Ne419    1.0000 0.88867  0.76350  0.71690  Biso   1.000  Ne
  He419    1.0000 0.89316  0.74535  0.68992  Biso   1.000  He
  He420    1.0000 0.88338  0.71267  0.69414  Biso   1.000  He
  Ne420    1.0000 0.88923  0.69351  0.66783  Biso   1.000  Ne
  Ne421    1.0000 0.77769  0.05183  0.54327  Biso   1.000  Ne
  He421    1.0000 0.79352  0.03320  0.51914  Biso   1.000  He
  He422    1.0000 0.78466  0.00152  0.51628  Biso   1.000  He
  Ne422    1.0000 0.79075  0.98936  0.48783  Biso   1.000  Ne
  Ne423    1.0000 0.41491  0.47684  0.38219  Biso   1.000  Ne
  He423    1.0000 0.44794  0.48508  0.38369  Biso   1.000  He
  He424    1.0000 0.45892  0.50770  0.40638  Biso   1.000  He
  Ne424    1.0000 0.49277  0.51121  0.40673  Biso   1.000  Ne
  Ne425    1.0000 0.60313  0.82266  0.39326  Biso   1.000  Ne
  He425    1.0000 0.60564  0.84852  0.41435  Biso   1.000  He
  He426    1.0000 0.58978  0.87664  0.40218  Biso   1.000  He
  Ne426    1.0000 0.58834  0.90335  0.42591  Biso   1.000  Ne
  Ne427    1.0000 0.73472  0.40557  0.20937  Biso   1.000  Ne
  He427    1.0000 0.74408  0.43019  0.22907  Biso   1.000  He
  He428    1.0000 0.75187  0.41900  0.25995  Biso   1.000  He
  Ne428    1.0000 0.75822  0.44304  0.28041  Biso   1.000  Ne
  Ne429    1.0000 0.41092  0.23409  0.29577  Biso   1.000  Ne
  He429    1.0000 0.41248  0.26773  0.30757  Biso   1.000  He
  He430    1.0000 0.40750  0.29040  0.28279  Biso   1.000  He
  Ne430    1.0000 0.39995  0.32044  0.28912  Biso   1.000  Ne
  Ne431    1.0000 0.40960  0.56388  0.76227  Biso   1.000  Ne
  He431    1.0000 0.39933  0.58793  0.74033  Biso   1.000  He
  He432    1.0000 0.36665  0.58586  0.72849  Biso   1.000  He
  Ne432    1.0000 0.35475  0.61428  0.71200  Biso   1.000  Ne
  Ne433    1.0000 0.88613  0.31232  0.38756  Biso   1.000  Ne
  He433    1.0000 0.90628  0.28959  0.40598  Biso   1.000  He
  He434    1.0000 0.89515  0.27873  0.43466  Biso   1.000  He
  Ne434    1.0000 0.91180  0.25525  0.44951  Biso   1.000  Ne
  Ne435    1.0000 0.67990  0.19760  0.94325  Biso   1.000  Ne
  He435    1.0000 0.68605  0.18813  0.91217  Biso   1.000  He
  He436    1.0000 0.65610  0.18337  0.89598  Biso   1.000  He
  Ne436    1.0000 0.66269  0.16786  0.86690  Biso   1.000  Ne
  Ne437    1.0000 0.15412  0.86244  0.45189  Biso   1.000  Ne
  He437    1.0000 0.13090  0.86951  0.42942  Biso   1.000  He
  He438    1.0000 0.09871  0.85883  0.43845  Biso   1.000  He
  Ne438    1.0000 0.07349  0.86805  0.41661  Biso   1.000  Ne
  Ne439    1.0000 0.46588  0.86990  0.85232  Biso   1.000  Ne
  He439    1.0000 0.46152  0.86937  0.81813  Biso   1.000  He
  He440    1.0000 0.46416  0.83683  0.80737  Biso   1.000  He
  Ne440    1.0000 0.45431  0.83220  0.77481  Biso   1.000  Ne
  Ne441    1.0000 0.04161  0.04570  0.32419  Biso   1.000  Ne
  He441    1.0000 0.02368  0.01730  0.32145  Biso   1.000  He
  He442    1.0000 0.01167  0.01345  0.28880  Biso   1.000  He
  Ne442    1.0000 0.98678  0.99196  0.28327  Biso   1.000  Ne
  Ne443    1.0000 0.42772  0.77552  0.41220  Biso   1.000  Ne
  He443    1.0000 0.43112  0.80397  0.39696  Biso   1.000  He
  He444    1.0000 0.40554  0.81542  0.38180  Biso   1.000  He
  Ne444    1.0000 0.40998  0.84528  0.36600  Biso   1.000  Ne
  Ne445    1.0000 0.57519  0.40159  0.72437  Biso   1.000  Ne
  He445    1.0000 0.56869  0.43029  0.70891  Biso   1.000  He
  He446    1.0000 0.58345  0.45681  0.72430  Biso   1.000  He
  Ne446    1.0000 0.56900  0.48540  0.71426  Biso   1.000  Ne
  Ne447    1.0000 0.88178  0.89573  0.18333  Biso   1.000  Ne
  He447    1.0000 0.85142  0.88340  0.19248  Biso   1.000  He
  He448    1.0000 0.85091  0.84962  0.19080  Biso   1.000  He
  Ne448    1.0000 0.82237  0.83849  0.20083  Biso   1.000  Ne
  Ne449    1.0000 0.68754  0.78315  0.99818  Biso   1.000  Ne
  He449    1.0000 0.70836  0.80973  0.00087  Biso   1.000  He
  He450    1.0000 0.71344  0.81915  0.03284  Biso   1.000  He
  Ne450    1.0000 0.73065  0.84651  0.03286  Biso   1.000  Ne
  Ne451    1.0000 0.91560  0.42267  0.64367  Biso   1.000  Ne
  He451    1.0000 0.91643  0.40376  0.66871  Biso   1.000  He
  He452    1.0000 0.92954  0.41720  0.69705  Biso   1.000  He
  Ne452    1.0000 0.93002  0.39661  0.72152  Biso   1.000  Ne
  Ne453    1.0000 0.39200  0.31426  0.86269  Biso   1.000  Ne
  He453    1.0000 0.38618  0.32824  0.83337  Biso   1.000  He
  He454    1.0000 0.39469  0.30761  0.80928  Biso   1.000  He
  Ne454    1.0000 0.38922  0.32331  0.77965  Biso   1.000  Ne
  Ne455    1.0000 0.57555  0.58886  0.52529  Biso   1.000  Ne
  He455    1.0000 0.56018  0.58252  0.49847  Biso   1.000  He
  He456    1.0000 0.53093  0.59822  0.49618  Biso   1.000  He
  Ne456    1.0000 0.50918  0.59017  0.47192  Biso   1.000  Ne
  Ne457    1.0000 0.08595  0.40026  0.72604  Biso   1.000  Ne
  He457    1.0000 0.10669  0.41298  0.70479  Biso   1.000  He
  He458    1.0000 0.09825  0.40142  0.67573  Biso   1.000  He
  Ne458    1.0000 0.11753  0.40960  0.65205  Biso   1.000  Ne
  Ne459    1.0000 0.66640  0.33121  0.58350  Biso   1.000  Ne
  He459    1.0000 0.66844  0.29974  0.57376  Biso   1.000  He
  He460    1.0000 0.65773  0.27650  0.59606  Biso   1.000  He
  Ne460    1.0000 0.66541  0.24382  0.58733  Biso   1.000  Ne
  Ne461    1.0000 0.94707  0.64546  0.42670  Biso   1.000  Ne
  He461    1.0000 0.94587  0.64904  0.39255  Biso   1.000  He
  He462    1.0000 0.94967  0.68013  0.38049  Biso   1.000  He
  Ne462    1.0000 0.95121  0.68127  0.34574  Biso   1.000  Ne
  Ne463    1.0000 0.59362  0.23449  0.64646  Biso   1.000  Ne
  He463    1.0000 0.58437  0.22171  0.61520  Biso   1.000  He
  He464    1.0000 0.55650  0.20480  0.61640  Biso   1.000  He
  Ne464    1.0000 0.54943  0.19460  0.58488  Biso   1.000  Ne
  Ne465    1.0000 0.71919  0.65353  0.45360  Biso   1.000  Ne
  He465    1.0000 0.70246  0.65810  0.42572  Biso   1.000  He
  He466    1.0000 0.70913  0.68711  0.41001  Biso   1.000  He
  Ne466    1.0000 0.69427  0.69317  0.37960  Biso   1.000  Ne
  Ne467    1.0000 0.70681  0.89396  0.24920  Biso   1.000  Ne
  He467    1.0000 0.71454  0.87360  0.27757  Biso   1.000  He
  He468    1.0000 0.74404  0.88026  0.29041  Biso   1.000  He
  Ne468    1.0000 0.75233  0.85776  0.31392  Biso   1.000  Ne
  Ne469    1.0000 0.54158  0.23852  0.06524  Biso   1.000  Ne
  He469    1.0000 0.55314  0.23143  0.09424  Biso   1.000  He
  He470    1.0000 0.54753  0.25329  0.12153  Biso   1.000  He
  Ne470    1.0000 0.55824  0.24508  0.15078  Biso   1.000  Ne
  Ne471    1.0000 0.20000  0.46897  0.97332  Biso   1.000  Ne
  He471    1.0000 0.20180  0.47071  0.94037  Biso   1.000  He
  He472    1.0000 0.22817  0.48762  0.92859  Biso   1.000  He
  Ne472    1.0000 0.25499  0.46617  0.92192  Biso   1.000  Ne
  Ne473    1.0000 0.23772  0.29146  0.58053  Biso   1.000  Ne
  He473    1.0000 0.24206  0.31713  0.60079  Biso   1.000  He
  He474    1.0000 0.22384  0.31306  0.62592  Biso   1.000  He
  Ne474    1.0000 0.23238  0.33344  0.65022  Biso   1.000  Ne
  Ne475    1.0000 0.50472  0.52002  0.63133  Biso   1.000  Ne
  He475    1.0000 0.51180  0.48657  0.63690  Biso   1.000  He
  He476    1.0000 0.48313  0.47421  0.65391  Biso   1.000  He
  Ne476    1.0000 0.48097  0.44083  0.66374  Biso   1.000  Ne
  Ne477    1.0000 0.08134  0.40781  0.96163  Biso   1.000  Ne
  He477    1.0000 0.05723  0.40509  0.98315  Biso   1.000  He
  He478    1.0000 0.02864  0.41358  0.97304  Biso   1.000  He
  Ne478    1.0000 0.00296  0.40717  0.99331  Biso   1.000  Ne
  Ne479    1.0000 0.67557  0.03475  0.22330  Biso   1.000  Ne
  He479    1.0000 0.69381  0.01437  0.20734  Biso   1.000  He
  He480    1.0000 0.71607  0.03008  0.18975  Biso   1.000  He
  Ne480    1.0000 0.73085  0.01309  0.16595  Biso   1.000  Ne
  Ne481    1.0000 0.92439  0.51478  0.51248  Biso   1.000  Ne
  He481    1.0000 0.91064  0.49202  0.53447  Biso   1.000  He
  He482    1.0000 0.92844  0.46779  0.54373  Biso   1.000  He
  Ne482    1.0000 0.90942  0.44936  0.56569  Biso   1.000  Ne
  Ne483    1.0000 0.27509  0.84189  0.78242  Biso   1.000  Ne
  He483    1.0000 0.27454  0.81613  0.75846  Biso   1.000  He
  He484    1.0000 0.27975  0.82884  0.72952  Biso   1.000  He
  Ne484    1.0000 0.28017  0.81053  0.70108  Biso   1.000  Ne
  Ne485    1.0000 0.93053  0.05660  0.97974  Biso   1.000  Ne
  He485    1.0000 0.96116  0.06449  0.98305  Biso   1.000  He
  He486    1.0000 0.96839  0.08472  0.00925  Biso   1.000  He
  Ne486    1.0000 0.99951  0.08872  0.01925  Biso   1.000  Ne
  Ne487    1.0000 0.51756  0.07943  0.54589  Biso   1.000  Ne
  He487    1.0000 0.50378  0.04925  0.55345  Biso   1.000  He
  He488    1.0000 0.47872  0.04015  0.53024  Biso   1.000  He
  Ne488    1.0000 0.46138  0.01462  0.53598  Biso   1.000  Ne
  Ne489    1.0000 0.73142  0.78370  0.61008  Biso   1.000  Ne
  He489    1.0000 0.71734  0.80153  0.58742  Biso   1.000  He
  He490    1.0000 0.69453  0.81971  0.60024  Biso   1.000  He
  Ne490    1.0000 0.67604  0.83389  0.57498  Biso   1.000  Ne
  Ne491    1.0000 0.32699  0.43441  0.41298  Biso   1.000  Ne
  He491    1.0000 0.32907  0.41774  0.38582  Biso   1.000  He
  He492    1.0000 0.34104  0.38602  0.38624  Biso   1.000  He
  Ne492    1.0000 0.34151  0.36986  0.35834  Biso   1.000  Ne
  Ne493    1.0000 0.46131  0.65481  0.54566  Biso   1.000  Ne
  He493    1.0000 0.44491  0.66231  0.51719  Biso   1.000  He
  He494    1.0000 0.44686  0.69349  0.51045  Biso   1.000  He
  Ne494    1.0000 0.43195  0.70253  0.48047  Biso   1.000  Ne
  Ne495    1.0000 0.09670  0.01830  0.57522  Biso   1.000  Ne
  He495    1.0000 0.08797  0.99822  0.59838  Biso   1.000  He
  He496    1.0000 0.05457  0.99958  0.60339  Biso   1.000  He
  Ne496    1.0000 0.04686  0.97881  0.62917  Biso   1.000  Ne
  Ne497    1.0000 0.23633  0.41400  0.66722  Biso   1.000  Ne
  He497    1.0000 0.25796  0.41037  0.69228  Biso   1.000  He
  He498    1.0000 0.27963  0.38516  0.69114  Biso   1.000  He
  Ne498    1.0000 0.30103  0.38903  0.71697  Biso   1.000  Ne
  Ne499    1.0000 0.25361  0.29226  0.86512  Biso   1.000  Ne
  He499    1.0000 0.27373  0.29435  0.89118  Biso   1.000  He
  He500    1.0000 0.30666  0.29944  0.88550  Biso   1.000  He
  Ne500    1.0000 0.32288  0.30044  0.91575  Biso   1.000  Ne
  Ne501    1.0000 0.47381  0.08536  0.40637  Biso   1.000  Ne
  He501    1.0000 0.45916  0.06426  0.42978  Biso   1.000  He
  He502    1.0000 0.45551  0.03448  0.42120  Biso   1.000  He
  Ne502    1.0000 0.44459  0.01427  0.44632  Biso   1.000  Ne
  Ne503    1.0000 0.15901  0.09895  0.24242  Biso   1.000  Ne
  He503    1.0000 0.17552  0.08486  0.21629  Biso   1.000  He
  He504    1.0000 0.19043  0.10633  0.19772  Biso   1.000  He
  Ne504    1.0000 0.20465  0.09421  0.16935  Biso   1.000  Ne
  Ne505    1.0000 0.42221  0.41011  0.17674  Biso   1.000  Ne
  He505    1.0000 0.38998  0.40362  0.18780  Biso   1.000  He
  He506    1.0000 0.36891  0.42738  0.18175  Biso   1.000  He
  Ne506    1.0000 0.33807  0.41816  0.19230  Biso   1.000  Ne
  Ne507    1.0000 0.10742  0.96197  0.48627  Biso   1.000  Ne
  He507    1.0000 0.09977  0.94674  0.45631  Biso   1.000  He
  He508    1.0000 0.10257  0.96078  0.42795  Biso   1.000  He
  Ne508    1.0000 0.09166  0.94259  0.40088  Biso   1.000  Ne
  Ne509    1.0000 0.58944  0.95343  0.93596  Biso   1.000  Ne
  He509    1.0000 0.58297  0.92390  0.92578  Biso   1.000  He
  He510    1.0000 0.56093  0.90536  0.94233  Biso   1.000  He
  Ne510    1.0000 0.55884  0.87187  0.93846  Biso   1.000  Ne
  Ne511    1.0000 0.61944  0.24346  0.43083  Biso   1.000  Ne
  He511    1.0000 0.62256  0.21057  0.42295  Biso   1.000  He
  He512    1.0000 0.59910  0.18900  0.43017  Biso   1.000  He
  Ne512    1.0000 0.60933  0.15788  0.42262  Biso   1.000  Ne
  Ne513    1.0000 0.80499  0.77141  0.09423  Biso   1.000  Ne
  He513    1.0000 0.83366  0.75942  0.08720  Biso   1.000  He
  He514    1.0000 0.84757  0.74359  0.11315  Biso   1.000  He
  Ne514    1.0000 0.87889  0.72763  0.10675  Biso   1.000  Ne
  Ne515    1.0000 0.84273  0.17853  0.41341  Biso   1.000  Ne
  He515    1.0000 0.84151  0.15345  0.43794  Biso   1.000  He
  He516    1.0000 0.81254  0.14884  0.45043  Biso   1.000  He
  Ne516    1.0000 0.81486  0.12890  0.47990  Biso   1.000  Ne
  Ne517    1.0000 0.92000  0.26472  0.67607  Biso   1.000  Ne
  He517    1.0000 0.90863  0.25116  0.70652  Biso   1.000  He
  He518    1.0000 0.89532  0.21881  0.70821  Biso   1.000  He
  Ne518    1.0000 0.88728  0.20729  0.73765  Biso   1.000  Ne
  Ne519    1.0000 0.02076  0.34817  0.19746  Biso   1.000  Ne
  He519    1.0000 0.01130  0.32042  0.19035  Biso   1.000  He
  He520    1.0000 0.99307  0.31622  0.16292  Biso   1.000  He
  Ne520    1.0000 0.98955  0.28568  0.15054  Biso   1.000  Ne
  Ne521    1.0000 0.66421  0.37050  0.93246  Biso   1.000  Ne
  He521    1.0000 0.63793  0.35057  0.92757  Biso   1.000  He
  He522    1.0000 0.60988  0.36682  0.92128  Biso   1.000  He
  Ne522    1.0000 0.58114  0.34873  0.91482  Biso   1.000  Ne
  Ne523    1.0000 0.52120  0.40593  0.96918  Biso   1.000  Ne
  He523    1.0000 0.54666  0.42827  0.95726  Biso   1.000  He
  He524    1.0000 0.56206  0.44622  0.98111  Biso   1.000  He
  Ne524    1.0000 0.58324  0.46729  0.97265  Biso   1.000  Ne
  Ne525    1.0000 0.72972  0.93751  0.62568  Biso   1.000  Ne
  He525    1.0000 0.69769  0.92626  0.61698  Biso   1.000  He
  He526    1.0000 0.67240  0.92591  0.64275  Biso   1.000  He
  Ne526    1.0000 0.64407  0.90934  0.63476  Biso   1.000  Ne
  Ne527    1.0000 0.10572  0.57105  0.36483  Biso   1.000  Ne
  He527    1.0000 0.10393  0.56324  0.33340  Biso   1.000  He
  He528    1.0000 0.11686  0.58544  0.30941  Biso   1.000  He
  Ne528    1.0000 0.11453  0.57903  0.27802  Biso   1.000  Ne
  Ne529    1.0000 0.37179  0.76721  0.25293  Biso   1.000  Ne
  He529    1.0000 0.40003  0.76067  0.23680  Biso   1.000  He
  He530    1.0000 0.41057  0.73116  0.23978  Biso   1.000  He
  Ne530    1.0000 0.43543  0.72637  0.21826  Biso   1.000  Ne
  Ne531    1.0000 0.60682  0.42136  0.80507  Biso   1.000  Ne
  He531    1.0000 0.60769  0.43807  0.83266  Biso   1.000  He
  He532    1.0000 0.58821  0.42556  0.85782  Biso   1.000  He
  Ne532    1.0000 0.59113  0.43785  0.88732  Biso   1.000  Ne
  Ne533    1.0000 0.22926  0.03157  0.42447  Biso   1.000  Ne
  He533    1.0000 0.20240  0.02687  0.40841  Biso   1.000  He
  He534    1.0000 0.20355  0.01275  0.37769  Biso   1.000  He
  Ne534    1.0000 0.17124  0.00917  0.36842  Biso   1.000  Ne
  Ne535    1.0000 0.26799  0.40520  0.10460  Biso   1.000  Ne
  He535    1.0000 0.29660  0.39814  0.09473  Biso   1.000  He
  He536    1.0000 0.31527  0.42610  0.08580  Biso   1.000  He
  Ne536    1.0000 0.34756  0.41948  0.07557  Biso   1.000  Ne
  Ne537    1.0000 0.94161  0.07161  0.27782  Biso   1.000  Ne
  He537    1.0000 0.93203  0.06112  0.24752  Biso   1.000  He
  He538    1.0000 0.89934  0.06625  0.23917  Biso   1.000  He
  Ne538    1.0000 0.89251  0.05637  0.20766  Biso   1.000  Ne
  Ne539    1.0000 0.69455  0.07518  0.72223  Biso   1.000  Ne
  He539    1.0000 0.70153  0.07379  0.68960  Biso   1.000  He
  He540    1.0000 0.73097  0.08534  0.68057  Biso   1.000  He
  Ne540    1.0000 0.74059  0.07783  0.65111  Biso   1.000  Ne
  Ne541    1.0000 0.61187  0.71490  0.05578  Biso   1.000  Ne
  He541    1.0000 0.60988  0.74640  0.04118  Biso   1.000  He
  He542    1.0000 0.61023  0.77222  0.06069  Biso   1.000  He
  Ne542    1.0000 0.60309  0.80076  0.04808  Biso   1.000  Ne
  Ne543    1.0000 0.56340  0.82873  0.16656  Biso   1.000  Ne
  He543    1.0000 0.59736  0.82536  0.16924  Biso   1.000  He
  He544    1.0000 0.61072  0.85659  0.16998  Biso   1.000  He
  Ne544    1.0000 0.64545  0.85698  0.17046  Biso   1.000  Ne
  Ne545    1.0000 0.23632  0.93440  0.43814  Biso   1.000  Ne
  He545    1.0000 0.21812  0.90577  0.43411  Biso   1.000  He
  He546    1.0000 0.23118  0.88535  0.41192  Biso   1.000  He
  Ne546    1.0000 0.21791  0.85594  0.40601  Biso   1.000  Ne
  Ne547    1.0000 0.85919  0.16667  0.26263  Biso   1.000  Ne
  He547    1.0000 0.83706  0.16017  0.28735  Biso   1.000  He
  He548    1.0000 0.85169  0.15948  0.31571  Biso   1.000  He
  Ne548    1.0000 0.83324  0.15651  0.34239  Biso   1.000  Ne
  Ne549    1.0000 0.91202  0.75899  0.29057  Biso   1.000  Ne
  He549    1.0000 0.89896  0.73846  0.26880  Biso   1.000  He
  He550    1.0000 0.87365  0.75586  0.25532  Biso   1.000  He
  Ne550    1.0000 0.85861  0.74213  0.22938  Biso   1.000  Ne
  Ne551    1.0000 0.71269  0.30586  0.85874  Biso   1.000  Ne
  He551    1.0000 0.70089  0.30147  0.88797  Biso   1.000  He
  He552    1.0000 0.67219  0.28235  0.88881  Biso   1.000  He
  Ne552    1.0000 0.65995  0.27584  0.91879  Biso   1.000  Ne
  Ne553    1.0000 0.71187  0.03844  0.03860  Biso   1.000  Ne
  He553    1.0000 0.68955  0.04749  0.01698  Biso   1.000  He
  He554    1.0000 0.66612  0.02627  0.01327  Biso   1.000  He
  Ne554    1.0000 0.64188  0.03425  0.99306  Biso   1.000  Ne
  Ne555    1.0000 0.63200  0.30528  0.48677  Biso   1.000  Ne
  He555    1.0000 0.61366  0.30774  0.51426  Biso   1.000  He
  He556    1.0000 0.60610  0.34062  0.52118  Biso   1.000  He
  Ne556    1.0000 0.58825  0.34126  0.54492  Biso   1.000  Ne
  Ne557    1.0000 0.34471  0.92786  0.24886  Biso   1.000  Ne
  He557    1.0000 0.35345  0.94751  0.22405  Biso   1.000  He
  He558    1.0000 0.37894  0.93407  0.20733  Biso   1.000  He
  Ne558    1.0000 0.38430  0.94978  0.17687  Biso   1.000  Ne
  Ne559    1.0000 0.36394  0.82832  0.96422  Biso   1.000  Ne
  He559    1.0000 0.33901  0.84938  0.97781  Biso   1.000  He
  He560    1.0000 0.32799  0.87128  0.95758  Biso   1.000  He
  Ne560    1.0000 0.30528  0.88860  0.97328  Biso   1.000  Ne
  Ne561    1.0000 0.73075  0.30110  0.20938  Biso   1.000  Ne
  He561    1.0000 0.74656  0.31196  0.18490  Biso   1.000  He
  He562    1.0000 0.75040  0.29227  0.15650  Biso   1.000  He
  Ne562    1.0000 0.76498  0.30924  0.13064  Biso   1.000  Ne
  Ne563    1.0000 0.22394  0.41180  0.42324  Biso   1.000  Ne
  He563    1.0000 0.23917  0.38440  0.41976  Biso   1.000  He
  He564    1.0000 0.26597  0.38209  0.43855  Biso   1.000  He
  Ne564    1.0000 0.28237  0.35261  0.43096  Biso   1.000  Ne
  Ne565    1.0000 0.40776  0.02542  0.00278  Biso   1.000  Ne
  He565    1.0000 0.41831  0.05577  0.01247  Biso   1.000  He
  He566    1.0000 0.42626  0.07738  0.98724  Biso   1.000  He
  Ne566    1.0000 0.43538  0.10796  0.99812  Biso   1.000  Ne
  Ne567    1.0000 0.32707  0.06738  0.56307  Biso   1.000  Ne
  He567    1.0000 0.31662  0.07272  0.59421  Biso   1.000  He
  He568    1.0000 0.28974  0.09610  0.59593  Biso   1.000  He
  Ne568    1.0000 0.27806  0.10017  0.62540  Biso   1.000  Ne
  Ne569    1.0000 0.33813  0.56468  0.42860  Biso   1.000  Ne
  He569    1.0000 0.30802  0.55342  0.43460  Biso   1.000  He
  He570    1.0000 0.28651  0.57195  0.41895  Biso   1.000  He
  Ne570    1.0000 0.25471  0.56465  0.42666  Biso   1.000  Ne
  Ne571    1.0000 0.96455  0.71079  0.86073  Biso   1.000  Ne
  He571    1.0000 0.93994  0.72950  0.87396  Biso   1.000  He
  He572    1.0000 0.94664  0.73903  0.90544  Biso   1.000  He
  Ne572    1.0000 0.92051  0.75598  0.91949  Biso   1.000  Ne
  Ne573    1.0000 0.83573  0.02304  0.71567  Biso   1.000  Ne
  He573    1.0000 0.84142  0.02397  0.68313  Biso   1.000  He
  He574    1.0000 0.81763  0.03751  0.66404  Biso   1.000  He
  Ne574    1.0000 0.82639  0.03426  0.62980  Biso   1.000  Ne
  Ne575    1.0000 0.15759  0.33263  0.87913  Biso   1.000  Ne
  He575    1.0000 0.14877  0.30039  0.88826  Biso   1.000  He
  He576    1.0000 0.17446  0.27857  0.89643  Biso   1.000  He
  Ne576    1.0000 0.16342  0.24628  0.90284  Biso   1.000  Ne
  Ne577    1.0000 0.79658  0.84369  0.41843  Biso   1.000  Ne
  He577    1.0000 0.80990  0.86184  0.44151  Biso   1.000  He
  He578    1.0000 0.83357  0.88468  0.43497  Biso   1.000  He
  Ne578    1.0000 0.84349  0.90670  0.46285  Biso   1.000  Ne
  Ne579    1.0000 0.82023  0.66330  0.25381  Biso   1.000  Ne
  He579    1.0000 0.81598  0.63260  0.26051  Biso   1.000  He
  He580    1.0000 0.84044  0.61530  0.24814  Biso   1.000  He
  Ne580    1.0000 0.83630  0.58150  0.25358  Biso   1.000  Ne
  Ne581    1.0000 0.60030  0.65182  0.89622  Biso   1.000  Ne
  He581    1.0000 0.59727  0.64687  0.86092  Biso   1.000  He
  He582    1.0000 0.60177  0.61398  0.85385  Biso   1.000  He
  Ne582    1.0000 0.60110  0.60789  0.81950  Biso   1.000  Ne
  Ne583    1.0000 0.03639  0.91654  0.48861  Biso   1.000  Ne
  He583    1.0000 0.01260  0.92189  0.46421  Biso   1.000  He
  He584    1.0000 0.97927  0.91613  0.47624  Biso   1.000  He
  Ne584    1.0000 0.96147  0.88640  0.47528  Biso   1.000  Ne
  Ne585    1.0000 0.37938  0.48760  0.70336  Biso   1.000  Ne
  He585    1.0000 0.38366  0.50913  0.67985  Biso   1.000  He
  He586    1.0000 0.41316  0.52285  0.67345  Biso   1.000  He
  Ne586    1.0000 0.41162  0.54456  0.64917  Biso   1.000  Ne
  Ne587    1.0000 0.94220  0.62978  0.56527  Biso   1.000  Ne
  He587    1.0000 0.93704  0.60281  0.58573  Biso   1.000  He
  He588    1.0000 0.93605  0.57376  0.57177  Biso   1.000  He
  Ne588    1.0000 0.96610  0.55834  0.57162  Biso   1.000  Ne
  Ne589    1.0000 0.78168  0.53728  0.03632  Biso   1.000  Ne
  He589    1.0000 0.81510  0.53868  0.03810  Biso   1.000  He
  He590    1.0000 0.82996  0.56310  0.01861  Biso   1.000  He
  Ne590    1.0000 0.86135  0.56956  0.02747  Biso   1.000  Ne
  Ne591    1.0000 0.27962  0.80631  0.60991  Biso   1.000  Ne
  He591    1.0000 0.27692  0.79349  0.58132  Biso   1.000  He
  He592    1.0000 0.30634  0.79142  0.56516  Biso   1.000  He
  Ne592    1.0000 0.30684  0.77238  0.53757  Biso   1.000  Ne
  Ne593    1.0000 0.63382  0.67040  0.68474  Biso   1.000  Ne
  He593    1.0000 0.65682  0.66509  0.70780  Biso   1.000  He
  He594    1.0000 0.67238  0.69176  0.71971  Biso   1.000  He
  Ne594    1.0000 0.69146  0.68932  0.74362  Biso   1.000  Ne
  Ne595    1.0000 0.81486  0.68436  0.56997  Biso   1.000  Ne
  He595    1.0000 0.83716  0.65886  0.57040  Biso   1.000  He
  He596    1.0000 0.82292  0.62951  0.56859  Biso   1.000  He
  Ne596    1.0000 0.84475  0.60438  0.56132  Biso   1.000  Ne
  Ne597    1.0000 0.22360  0.55714  0.15948  Biso   1.000  Ne
  He597    1.0000 0.21487  0.54419  0.19073  Biso   1.000  He
  He598    1.0000 0.19865  0.56640  0.21068  Biso   1.000  He
  Ne598    1.0000 0.18571  0.55319  0.23578  Biso   1.000  Ne
  Ne599    1.0000 0.43927  0.05752  0.74536  Biso   1.000  Ne
  He599    1.0000 0.43375  0.08710  0.75596  Biso   1.000  He
  He600    1.0000 0.42782  0.10779  0.72870  Biso   1.000  He
  Ne600    1.0000 0.41950  0.14131  0.73317  Biso   1.000  Ne
  Ne601    1.0000 0.30096  0.30010  0.73206  Biso   1.000  Ne
  He601    1.0000 0.32697  0.30596  0.71280  Biso   1.000  He
  He602    1.0000 0.33561  0.27910  0.69296  Biso   1.000  He
  Ne602    1.0000 0.32375  0.28129  0.66140  Biso   1.000  Ne
  Ne603    1.0000 0.10496  0.68191  0.23471  Biso   1.000  Ne
  He603    1.0000 0.13067  0.67684  0.25572  Biso   1.000  He
  He604    1.0000 0.14376  0.70357  0.26983  Biso   1.000  He
  Ne604    1.0000 0.17060  0.69888  0.28601  Biso   1.000  Ne
  Ne605    1.0000 0.85674  0.74625  0.35704  Biso   1.000  Ne
  He605    1.0000 0.82205  0.75278  0.36056  Biso   1.000  He
  He606    1.0000 0.81552  0.75654  0.39209  Biso   1.000  He
  Ne606    1.0000 0.78476  0.77043  0.39915  Biso   1.000  Ne
  Ne607    1.0000 0.13505  0.03357  0.67157  Biso   1.000  Ne
  He607    1.0000 0.11884  0.01891  0.69608  Biso   1.000  He
  He608    1.0000 0.09655  0.99285  0.68979  Biso   1.000  He
  Ne608    1.0000 0.10786  0.95958  0.68870  Biso   1.000  Ne
  Ne609    1.0000 0.99967  0.80052  0.62597  Biso   1.000  Ne
  He609    1.0000 0.02167  0.80270  0.65089  Biso   1.000  He
  He610    1.0000 0.04880  0.81775  0.64564  Biso   1.000  He
  Ne610    1.0000 0.07741  0.79893  0.64492  Biso   1.000  Ne
  Ne611    1.0000 0.01681  0.04412  0.93182  Biso   1.000  Ne
  He611    1.0000 0.04872  0.05397  0.92921  Biso   1.000  He
  He612    1.0000 0.05625  0.06432  0.89888  Biso   1.000  He
  Ne612    1.0000 0.08810  0.07540  0.89216  Biso   1.000  Ne
  Ne613    1.0000 0.84377  0.33088  0.59533  Biso   1.000  Ne
  He613    1.0000 0.87932  0.33234  0.59035  Biso   1.000  He
  He614    1.0000 0.89018  0.36176  0.58444  Biso   1.000  He
  Ne614    1.0000 0.92166  0.36339  0.57793  Biso   1.000  Ne
  Ne615    1.0000 0.70312  0.58013  0.27980  Biso   1.000  Ne
  He615    1.0000 0.67968  0.59810  0.26280  Biso   1.000  He
  He616    1.0000 0.66252  0.62003  0.28317  Biso   1.000  He
  Ne616    1.0000 0.65114  0.64783  0.26921  Biso   1.000  Ne
  Ne617    1.0000 0.29918  0.43372  0.50151  Biso   1.000  Ne
  He617    1.0000 0.30909  0.46450  0.49703  Biso   1.000  He
  He618    1.0000 0.29716  0.48448  0.51785  Biso   1.000  He
  Ne618    1.0000 0.30043  0.51647  0.50979  Biso   1.000  Ne
  Ne619    1.0000 0.64212  0.38598  0.19756  Biso   1.000  Ne
  He619    1.0000 0.61976  0.40454  0.21377  Biso   1.000  He
  He620    1.0000 0.60656  0.42757  0.19534  Biso   1.000  He
  Ne620    1.0000 0.58644  0.44328  0.21468  Biso   1.000  Ne
  Ne621    1.0000 0.99322  0.48535  0.21373  Biso   1.000  Ne
  He621    1.0000 0.00788  0.46291  0.19484  Biso   1.000  He
  He622    1.0000 0.00683  0.46872  0.16227  Biso   1.000  He
  Ne622    1.0000 0.02422  0.44526  0.14368  Biso   1.000  Ne
  Ne623    1.0000 0.72321  0.37883  0.63559  Biso   1.000  Ne
  He623    1.0000 0.73989  0.39832  0.61375  Biso   1.000  He
  He624    1.0000 0.72307  0.41424  0.59420  Biso   1.000  He
  Ne624    1.0000 0.73891  0.43154  0.57001  Biso   1.000  Ne
  Ne625    1.0000 0.72260  0.39833  0.13207  Biso   1.000  Ne
  He625    1.0000 0.69861  0.40048  0.10823  Biso   1.000  He
  He626    1.0000 0.67139  0.41874  0.11650  Biso   1.000  He
  Ne626    1.0000 0.64902  0.42339  0.09320  Biso   1.000  Ne
  Ne627    1.0000 0.05787  0.62473  0.05093  Biso   1.000  Ne
  He627    1.0000 0.03291  0.60430  0.05267  Biso   1.000  He
  He628    1.0000 0.01346  0.60657  0.02730  Biso   1.000  He
  Ne628    1.0000 0.99168  0.58276  0.02656  Biso   1.000  Ne
  Ne629    1.0000 0.26393  0.87989  0.65650  Biso   1.000  Ne
  He629    1.0000 0.28647  0.90205  0.66859  Biso   1.000  He
  He630    1.0000 0.28894  0.90060  0.70190  Biso   1.000  He
  Ne630    1.0000 0.31110  0.92311  0.71644  Biso   1.000  Ne
  Ne631    1.0000 0.87222  0.87902  0.08385  Biso   1.000  Ne
  He631    1.0000 0.85074  0.87381  0.10474  Biso   1.000  He
  He632    1.0000 0.82235  0.86970  0.09281  Biso   1.000  He
  Ne632    1.0000 0.79934  0.86454  0.11604  Biso   1.000  Ne
  Ne633    1.0000 0.65013  0.41720  0.52978  Biso   1.000  Ne
  He633    1.0000 0.67364  0.40337  0.51768  Biso   1.000  He
  He634    1.0000 0.67150  0.37652  0.50211  Biso   1.000  He
  Ne634    1.0000 0.69969  0.36441  0.49288  Biso   1.000  Ne
  Ne635    1.0000 0.54835  0.10080  0.16850  Biso   1.000  Ne
  He635    1.0000 0.52784  0.08027  0.18492  Biso   1.000  He
  He636    1.0000 0.53356  0.04839  0.18194  Biso   1.000  He
  Ne636    1.0000 0.51758  0.02863  0.20099  Biso   1.000  Ne
  Ne637    1.0000 0.23780  0.20327  0.12005  Biso   1.000  Ne
  He637    1.0000 0.20693  0.21251  0.11205  Biso   1.000  He
  He638    1.0000 0.20516  0.24307  0.09868  Biso   1.000  He
  Ne638    1.0000 0.17598  0.24886  0.08874  Biso   1.000  Ne
  Ne639    1.0000 0.75198  0.06492  0.42662  Biso   1.000  Ne
  He639    1.0000 0.73512  0.07760  0.40172  Biso   1.000  He
  He640    1.0000 0.70615  0.08475  0.41299  Biso   1.000  He
  Ne640    1.0000 0.68629  0.09513  0.39191  Biso   1.000  Ne
  Ne641    1.0000 0.59603  0.10170  0.84071  Biso   1.000  Ne
  He641    1.0000 0.59644  0.08010  0.86569  Biso   1.000  He
  He642    1.0000 0.58303  0.09057  0.89443  Biso   1.000  He
  Ne642    1.0000 0.58166  0.06527  0.91959  Biso   1.000  Ne
  Ne643    1.0000 0.35460  0.16787  0.40154  Biso   1.000  Ne
  He643    1.0000 0.36091  0.18521  0.37534  Biso   1.000  He
  He644    1.0000 0.33949  0.18769  0.35496  Biso   1.000  He
  Ne644    1.0000 0.34355  0.20636  0.32663  Biso   1.000  Ne
  Ne645    1.0000 0.78976  0.39976  0.76262  Biso   1.000  Ne
  He645    1.0000 0.81891  0.41215  0.77783  Biso   1.000  He
  He646    1.0000 0.83761  0.43646  0.76059  Biso   1.000  He
  Ne646    1.0000 0.86793  0.44403  0.77372  Biso   1.000  Ne
  Ne647    1.0000 0.04144  0.28558  0.07717  Biso   1.000  Ne
  He647    1.0000 0.05983  0.30800  0.05953  Biso   1.000  He
  He648    1.0000 0.09086  0.29699  0.05262  Biso   1.000  He
  Ne648    1.0000 0.10567  0.31702  0.03130  Biso   1.000  Ne
  Ne649    1.0000 0.12111  0.91078  0.16351  Biso   1.000  Ne
  He649    1.0000 0.13355  0.92722  0.18902  Biso   1.000  He
  He650    1.0000 0.16166  0.91761  0.19642  Biso   1.000  He
  Ne650    1.0000 0.17508  0.92668  0.22633  Biso   1.000  Ne
  Ne651    1.0000 0.65932  0.52030  0.46956  Biso   1.000  Ne
  He651    1.0000 0.68558  0.50216  0.46220  Biso   1.000  He
  He652    1.0000 0.69524  0.48030  0.48726  Biso   1.000  He
  Ne652    1.0000 0.71947  0.46060  0.47961  Biso   1.000  Ne
  Ne653    1.0000 0.70305  0.78836  0.86613  Biso   1.000  Ne
  He653    1.0000 0.70264  0.81824  0.87789  Biso   1.000  He
  He654    1.0000 0.73250  0.82661  0.89260  Biso   1.000  He
  Ne654    1.0000 0.73802  0.85601  0.90394  Biso   1.000  Ne
  Ne655    1.0000 0.98648  0.41594  0.47376  Biso   1.000  Ne
  He655    1.0000 0.01378  0.42949  0.46200  Biso   1.000  He
  He656    1.0000 0.01485  0.42868  0.42983  Biso   1.000  He
  Ne656    1.0000 0.03914  0.43949  0.41596  Biso   1.000  Ne
  Ne657    1.0000 0.87804  0.29981  0.98983  Biso   1.000  Ne
  He657    1.0000 0.84531  0.29365  0.00212  Biso   1.000  He
  He658    1.0000 0.83105  0.32181  0.01539  Biso   1.000  He
  Ne658    1.0000 0.80155  0.31964  0.02864  Biso   1.000  Ne
  Ne659    1.0000 0.46873  0.47881  0.04990  Biso   1.000  Ne
  He659    1.0000 0.44851  0.45753  0.06635  Biso   1.000  He
  He660    1.0000 0.44987  0.42712  0.05581  Biso   1.000  He
  Ne660    1.0000 0.43137  0.40369  0.07461  Biso   1.000  Ne
  Ne661    1.0000 0.97374  0.34698  0.83180  Biso   1.000  Ne
  He661    1.0000 0.95312  0.36734  0.84404  Biso   1.000  He
  He662    1.0000 0.95897  0.39779  0.84011  Biso   1.000  He
  Ne662    1.0000 0.93439  0.41631  0.85542  Biso   1.000  Ne
  Ne663    1.0000 0.65848  0.88894  0.87586  Biso   1.000  Ne
  He663    1.0000 0.64093  0.89209  0.84802  Biso   1.000  He
  He664    1.0000 0.61754  0.91681  0.84588  Biso   1.000  He
  Ne664    1.0000 0.60165  0.91444  0.81609  Biso   1.000  Ne
  Ne665    1.0000 0.20104  0.13223  0.56212  Biso   1.000  Ne
  He665    1.0000 0.18649  0.12254  0.58822  Biso   1.000  He
  He666    1.0000 0.18490  0.08948  0.58928  Biso   1.000  He
  Ne666    1.0000 0.17062  0.07552  0.61702  Biso   1.000  Ne
  Ne667    1.0000 0.65442  0.16778  0.68996  Biso   1.000  Ne
  He667    1.0000 0.64243  0.16464  0.71956  Biso   1.000  He
  He668    1.0000 0.66182  0.17598  0.74217  Biso   1.000  He
  Ne668    1.0000 0.64724  0.17493  0.77450  Biso   1.000  Ne
  Ne669    1.0000 0.34246  0.42567  0.65510  Biso   1.000  Ne
  He669    1.0000 0.33174  0.44746  0.63275  Biso   1.000  He
  He670    1.0000 0.31218  0.47533  0.64394  Biso   1.000  He
  Ne670    1.0000 0.30134  0.50132  0.62328  Biso   1.000  Ne
  Ne671    1.0000 0.22454  0.72957  0.83107  Biso   1.000  Ne
  He671    1.0000 0.24520  0.75582  0.83793  Biso   1.000  He
  He672    1.0000 0.27780  0.74829  0.84703  Biso   1.000  He
  Ne672    1.0000 0.29763  0.77644  0.85310  Biso   1.000  Ne
  Ne673    1.0000 0.05489  0.54092  0.21881  Biso   1.000  Ne
  He673    1.0000 0.08176  0.54967  0.19996  Biso   1.000  He
  He674    1.0000 0.08093  0.57831  0.18401  Biso   1.000  He
  Ne674    1.0000 0.11225  0.58495  0.16925  Biso   1.000  Ne
  Ne675    1.0000 0.30761  0.04369  0.01841  Biso   1.000  Ne
  He675    1.0000 0.30635  0.07154  0.00329  Biso   1.000  He
  He676    1.0000 0.28748  0.07207  0.97605  Biso   1.000  He
  Ne676    1.0000 0.28403  0.10096  0.96123  Biso   1.000  Ne
  Ne677    1.0000 0.80657  0.55088  0.11365  Biso   1.000  Ne
  He677    1.0000 0.79292  0.57977  0.11889  Biso   1.000  He
  He678    1.0000 0.76544  0.58802  0.10060  Biso   1.000  He
  Ne678    1.0000 0.74723  0.61317  0.11188  Biso   1.000  Ne
  Ne679    1.0000 0.76859  0.07243  0.94139  Biso   1.000  Ne
  He679    1.0000 0.77765  0.10064  0.93231  Biso   1.000  He
  He680    1.0000 0.80998  0.11023  0.94299  Biso   1.000  He
  Ne680    1.0000 0.81588  0.14189  0.93533  Biso   1.000  Ne
  Ne681    1.0000 0.82575  0.43851  0.58577  Biso   1.000  Ne
  He681    1.0000 0.83670  0.42108  0.61191  Biso   1.000  He
  He682    1.0000 0.82374  0.43512  0.63900  Biso   1.000  He
  Ne682    1.0000 0.83825  0.42601  0.66801  Biso   1.000  Ne
  Ne683    1.0000 0.40579  0.68005  0.73487  Biso   1.000  Ne
  He683    1.0000 0.42001  0.67138  0.70808  Biso   1.000  He
  He684    1.0000 0.44287  0.64876  0.71546  Biso   1.000  He
  Ne684    1.0000 0.46050  0.63735  0.68934  Biso   1.000  Ne
  Ne685    1.0000 0.98296  0.10449  0.39633  Biso   1.000  Ne
  He685    1.0000 0.95656  0.12022  0.40565  Biso   1.000  He
  He686    1.0000 0.94103  0.13504  0.38414  Biso   1.000  He
  Ne686    1.0000 0.92349  0.15815  0.39802  Biso   1.000  Ne
  Ne687    1.0000 0.36709  0.14084  0.04140  Biso   1.000  Ne
  He687    1.0000 0.37691  0.14998  0.06935  Biso   1.000  He
  He688    1.0000 0.39275  0.12674  0.08443  Biso   1.000  He
  Ne688    1.0000 0.40746  0.13695  0.11345  Biso   1.000  Ne
  Ne689    1.0000 0.08319  0.08970  0.21825  Biso   1.000  Ne
  He689    1.0000 0.09189  0.10798  0.19051  Biso   1.000  He
  He690    1.0000 0.11122  0.09149  0.16963  Biso   1.000  He
  Ne690    1.0000 0.11550  0.10465  0.14124  Biso   1.000  Ne
  Ne691    1.0000 0.22445  0.55536  0.95966  Biso   1.000  Ne
  He691    1.0000 0.23072  0.56779  0.93189  Biso   1.000  He
  He692    1.0000 0.26086  0.57720  0.92769  Biso   1.000  He
  Ne692    1.0000 0.26748  0.58495  0.89593  Biso   1.000  Ne
  Ne693    1.0000 0.68301  0.61748  0.82176  Biso   1.000  Ne
  He693    1.0000 0.68592  0.62089  0.78779  Biso   1.000  He
  He694    1.0000 0.71659  0.61925  0.77723  Biso   1.000  He
  Ne694    1.0000 0.72964  0.58931  0.76700  Biso   1.000  Ne
  Ne695    1.0000 0.00231  0.00598  0.04416  Biso   1.000  Ne
  He695    1.0000 0.98569  0.02289  0.06654  Biso   1.000  He
  He696    1.0000 0.95394  0.02249  0.06373  Biso   1.000  He
  Ne696    1.0000 0.93626  0.03605  0.08698  Biso   1.000  Ne
  Ne697    1.0000 0.38209  0.02861  0.91531  Biso   1.000  Ne
  He697    1.0000 0.39741  0.05474  0.89543  Biso   1.000  He
  He698    1.0000 0.38881  0.08543  0.90043  Biso   1.000  He
  Ne698    1.0000 0.40467  0.11054  0.88413  Biso   1.000  Ne
  Ne699    1.0000 0.16591  0.93707  0.83367  Biso   1.000  Ne
  He699    1.0000 0.17986  0.92453  0.86089  Biso   1.000  He
  He700    1.0000 0.15605  0.91467  0.88213  Biso   1.000  He
  Ne700    1.0000 0.16533  0.90569  0.91334  Biso   1.000  Ne
  Ne701    1.0000 0.38068  0.75003  0.54662  Biso   1.000  Ne
  He701    1.0000 0.38339  0.77201  0.57129  Biso   1.000  He
  He702    1.0000 0.41658  0.78573  0.57741  Biso   1.000  He
  Ne702    1.0000 0.41913  0.80672  0.60333  Biso   1.000  Ne
  Ne703    1.0000 0.99269  0.78182  0.41928  Biso   1.000  Ne
  He703    1.0000 0.95903  0.78603  0.41698  Biso   1.000  He
  He704    1.0000 0.94350  0.76044  0.41060  Biso   1.000  He
  Ne704    1.0000 0.91232  0.76256  0.41643  Biso   1.000  Ne
  Ne705    1.0000 0.16766  0.79266  0.78691  Biso   1.000  Ne
  He705    1.0000 0.13822  0.79527  0.77617  Biso   1.000  He
  He706    1.0000 0.13032  0.82705  0.77182  Biso   1.000  He
  Ne706    1.0000 0.09903  0.83300  0.76118  Biso   1.000  Ne
  Ne707    1.0000 0.20719  0.34827  0.74243  Biso   1.000  Ne
  He707    1.0000 0.20414  0.31912  0.75409  Biso   1.000  He
  He708    1.0000 0.17950  0.31647  0.77823  Biso   1.000  He
  Ne708    1.0000 0.16940  0.28566  0.78823  Biso   1.000  Ne
  Ne709    1.0000 0.39781  0.38825  0.73218  Biso   1.000  Ne
  He709    1.0000 0.41944  0.41365  0.73150  Biso   1.000  He
  He710    1.0000 0.45074  0.40514  0.73896  Biso   1.000  He
  Ne710    1.0000 0.47120  0.43151  0.74264  Biso   1.000  Ne
  Ne711    1.0000 0.46980  0.29144  0.48388  Biso   1.000  Ne
  He711    1.0000 0.43811  0.29362  0.47818  Biso   1.000  He
  He712    1.0000 0.42967  0.32358  0.47698  Biso   1.000  He
  Ne712    1.0000 0.39605  0.32390  0.47325  Biso   1.000  Ne
  Ne713    1.0000 0.38298  0.22165  0.95671  Biso   1.000  Ne
  He713    1.0000 0.38062  0.18912  0.96352  Biso   1.000  He
  He714    1.0000 0.35260  0.17656  0.96722  Biso   1.000  He
  Ne714    1.0000 0.35373  0.14269  0.96468  Biso   1.000  Ne
  Ne715    1.0000 0.90821  0.20930  0.07748  Biso   1.000  Ne
  He715    1.0000 0.88766  0.22311  0.10073  Biso   1.000  He
  He716    1.0000 0.90150  0.25308  0.11138  Biso   1.000  He
  Ne716    1.0000 0.88657  0.27890  0.09672  Biso   1.000  Ne
  Ne717    1.0000 0.20222  0.20513  0.59408  Biso   1.000  Ne
  He717    1.0000 0.23515  0.20375  0.60593  Biso   1.000  He
  He718    1.0000 0.25922  0.19368  0.58583  Biso   1.000  He
  Ne718    1.0000 0.29030  0.19032  0.60042  Biso   1.000  Ne
  Ne719    1.0000 0.63243  0.76859  0.80271  Biso   1.000  Ne
  He719    1.0000 0.61325  0.73964  0.80736  Biso   1.000  He
  He720    1.0000 0.60486  0.72446  0.77903  Biso   1.000  He
  Ne720    1.0000 0.59110  0.69339  0.78367  Biso   1.000  Ne
  Ne721    1.0000 0.98912  0.57124  0.18756  Biso   1.000  Ne
  He721    1.0000 0.96545  0.54704  0.18536  Biso   1.000  He
  He722    1.0000 0.93721  0.55426  0.19984  Biso   1.000  He
  Ne722    1.0000 0.91505  0.53084  0.19632  Biso   1.000  Ne
  Ne723    1.0000 0.92006  0.53292  0.11882  Biso   1.000  Ne
  He723    1.0000 0.90299  0.52415  0.09319  Biso   1.000  He
  He724    1.0000 0.87977  0.50262  0.10059  Biso   1.000  He
  Ne724    1.0000 0.87010  0.48450  0.07212  Biso   1.000  Ne
  Ne725    1.0000 0.91409  0.99159  0.96392  Biso   1.000  Ne
  He725    1.0000 0.92876  0.96145  0.96323  Biso   1.000  He
  He726    1.0000 0.91453  0.93954  0.94377  Biso   1.000  He
  Ne726    1.0000 0.92588  0.90833  0.94190  Biso   1.000  Ne
  Ne727    1.0000 0.83171  0.60787  0.69245  Biso   1.000  Ne
  He727    1.0000 0.85545  0.60481  0.67107  Biso   1.000  He
  He728    1.0000 0.88447  0.61395  0.68364  Biso   1.000  He
  Ne728    1.0000 0.90954  0.61366  0.66085  Biso   1.000  Ne
  Ne729    1.0000 0.85786  0.58073  0.16897  Biso   1.000  Ne
  He729    1.0000 0.85736  0.61535  0.17449  Biso   1.000  He
  He730    1.0000 0.87043  0.63285  0.14681  Biso   1.000  He
  Ne730    1.0000 0.86707  0.66363  0.15010  Biso   1.000  Ne
  Ne731    1.0000 0.99189  0.90899  0.59844  Biso   1.000  Ne
  He731    1.0000 0.96969  0.93400  0.59432  Biso   1.000  He
  He732    1.0000 0.94451  0.92862  0.57247  Biso   1.000  He
  Ne732    1.0000 0.92343  0.95235  0.56692  Biso   1.000  Ne
  Ne733    1.0000 0.14583  0.18867  0.46515  Biso   1.000  Ne
  He733    1.0000 0.15252  0.15497  0.46053  Biso   1.000  He
  He734    1.0000 0.17102  0.15156  0.43306  Biso   1.000  He
  Ne734    1.0000 0.17885  0.11998  0.42932  Biso   1.000  Ne
  Ne735    1.0000 0.26889  0.32650  0.31017  Biso   1.000  Ne
  He735    1.0000 0.25117  0.30126  0.29566  Biso   1.000  He
  He736    1.0000 0.21651  0.30739  0.29562  Biso   1.000  He
  Ne736    1.0000 0.20739  0.32041  0.26390  Biso   1.000  Ne
  Ne737    1.0000 0.14770  0.42396  0.77351  Biso   1.000  Ne
  He737    1.0000 0.13870  0.39247  0.77781  Biso   1.000  He
  He738    1.0000 0.13635  0.38128  0.81275  Biso   1.000  He
  Ne738    1.0000 0.10405  0.38200  0.82516  Biso   1.000  Ne
  Ne739    1.0000 0.81497  0.45815  0.98296  Biso   1.000  Ne
  He739    1.0000 0.78866  0.45011  0.96315  Biso   1.000  He
  He740    1.0000 0.79104  0.41812  0.95789  Biso   1.000  He
  Ne740    1.0000 0.76427  0.40971  0.93691  Biso   1.000  Ne
  Ne741    1.0000 0.47942  0.28318  0.55993  Biso   1.000  Ne
  He741    1.0000 0.50725  0.28556  0.58039  Biso   1.000  He
  He742    1.0000 0.50633  0.31170  0.59926  Biso   1.000  He
  Ne742    1.0000 0.53125  0.31222  0.62038  Biso   1.000  Ne
  Ne743    1.0000 0.13331  0.82636  0.25479  Biso   1.000  Ne
  He743    1.0000 0.15363  0.83108  0.22521  Biso   1.000  He
  He744    1.0000 0.13736  0.82077  0.19800  Biso   1.000  He
  Ne744    1.0000 0.15464  0.82957  0.17100  Biso   1.000  Ne
  Ne745    1.0000 0.62093  0.85279  0.25119  Biso   1.000  Ne
  He745    1.0000 0.60389  0.86631  0.27643  Biso   1.000  He
  He746    1.0000 0.61787  0.89320  0.28738  Biso   1.000  He
  Ne746    1.0000 0.59618  0.91119  0.30421  Biso   1.000  Ne
  Ne747    1.0000 0.42064  0.38700  0.53503  Biso   1.000  Ne
  He747    1.0000 0.45213  0.39219  0.54047  Biso   1.000  He
  He748    1.0000 0.46098  0.40070  0.57235  Biso   1.000  He
  Ne748    1.0000 0.49350  0.40907  0.57268  Biso   1.000  Ne
  Ne749    1.0000 0.03081  0.16851  0.55537  Biso   1.000  Ne
  He749    1.0000 0.02995  0.19396  0.53324  Biso   1.000  He
  He750    1.0000 0.00093  0.19084  0.51662  Biso   1.000  He
  Ne750    1.0000 0.99436  0.21222  0.49106  Biso   1.000  Ne
  Ne751    1.0000 0.35165  0.27798  0.42316  Biso   1.000  Ne
  He751    1.0000 0.32613  0.25671  0.42363  Biso   1.000  He
  He752    1.0000 0.29907  0.26454  0.40708  Biso   1.000  He
  Ne752    1.0000 0.27454  0.24017  0.40640  Biso   1.000  Ne
  Ne753    1.0000 0.62614  0.64491  0.37902  Biso   1.000  Ne
  He753    1.0000 0.61224  0.67006  0.36989  Biso   1.000  He
  He754    1.0000 0.59144  0.66494  0.34348  Biso   1.000  He
  Ne754    1.0000 0.57381  0.69036  0.33477  Biso   1.000  Ne
  Ne755    1.0000 0.92208  0.65904  0.82866  Biso   1.000  Ne
  He755    1.0000 0.91893  0.64834  0.79626  Biso   1.000  He
  He756    1.0000 0.93472  0.66971  0.77567  Biso   1.000  He
  Ne756    1.0000 0.93347  0.66368  0.74405  Biso   1.000  Ne
  Ne757    1.0000 0.64489  0.88177  0.71015  Biso   1.000  Ne
  He757    1.0000 0.65725  0.88357  0.74129  Biso   1.000  He
  He758    1.0000 0.68091  0.90764  0.74437  Biso   1.000  He
  Ne758    1.0000 0.69665  0.91280  0.77427  Biso   1.000  Ne
  Ne759    1.0000 0.90541  0.56991  0.89884  Biso   1.000  Ne
  He759    1.0000 0.91563  0.54009  0.88967  Biso   1.000  He
  He760    1.0000 0.93649  0.53800  0.86468  Biso   1.000  He
  Ne760    1.0000 0.94574  0.50604  0.85926  Biso   1.000  Ne
  Ne761    1.0000 0.53934  0.58295  0.69326  Biso   1.000  Ne
  He761    1.0000 0.56107  0.58914  0.71885  Biso   1.000  He
  He762    1.0000 0.58711  0.56932  0.71677  Biso   1.000  He
  Ne762    1.0000 0.61236  0.58021  0.73477  Biso   1.000  Ne
  Ne763    1.0000 0.83138  0.34292  0.20132  Biso   1.000  Ne
  He763    1.0000 0.83844  0.31808  0.21957  Biso   1.000  He
  He764    1.0000 0.86037  0.32509  0.24346  Biso   1.000  He
  Ne764    1.0000 0.87103  0.29745  0.25902  Biso   1.000  Ne
  Ne765    1.0000 0.40088  0.57057  0.26478  Biso   1.000  Ne
  He765    1.0000 0.40149  0.58727  0.23701  Biso   1.000  He
  He766    1.0000 0.41488  0.61855  0.23499  Biso   1.000  He
  Ne766    1.0000 0.41645  0.63054  0.20425  Biso   1.000  Ne
  Ne767    1.0000 0.47519  0.70865  0.40730  Biso   1.000  Ne
  He767    1.0000 0.50948  0.70982  0.40533  Biso   1.000  He
  He768    1.0000 0.52421  0.68458  0.42057  Biso   1.000  He
  Ne768    1.0000 0.53587  0.69046  0.44900  Biso   1.000  Ne
  Ne769    1.0000 0.83074  0.82588  0.73772  Biso   1.000  Ne
  He769    1.0000 0.81113  0.85251  0.72301  Biso   1.000  He
  He770    1.0000 0.79434  0.86850  0.74552  Biso   1.000  He
  Ne770    1.0000 0.76950  0.88720  0.73500  Biso   1.000  Ne
  Ne771    1.0000 0.56321  0.85327  0.83156  Biso   1.000  Ne
  He771    1.0000 0.56492  0.81793  0.83862  Biso   1.000  He
  He772    1.0000 0.53746  0.79845  0.83067  Biso   1.000  He
  Ne772    1.0000 0.53944  0.78423  0.79823  Biso   1.000  Ne
  Ne773    1.0000 0.69434  0.93628  0.18151  Biso   1.000  Ne
  He773    1.0000 0.70650  0.93713  0.14980  Biso   1.000  He
  He774    1.0000 0.73091  0.91858  0.14447  Biso   1.000  He
  Ne774    1.0000 0.73856  0.91839  0.11305  Biso   1.000  Ne
  Ne775    1.0000 0.39471  0.57616  0.55196  Biso   1.000  Ne
  He775    1.0000 0.38356  0.59773  0.57313  Biso   1.000  He
  He776    1.0000 0.35370  0.58906  0.58933  Biso   1.000  He
  Ne776    1.0000 0.34293  0.60889  0.61513  Biso   1.000  Ne
  Ne777    1.0000 0.98000  0.85459  0.27532  Biso   1.000  Ne
  He777    1.0000 0.96700  0.85886  0.24579  Biso   1.000  He
  He778    1.0000 0.96298  0.82712  0.23191  Biso   1.000  He
  Ne778    1.0000 0.94003  0.82674  0.20722  Biso   1.000  Ne
  Ne779    1.0000 0.87190  0.28793  0.77898  Biso   1.000  Ne
  He779    1.0000 0.84833  0.29357  0.75559  Biso   1.000  He
  He780    1.0000 0.85326  0.32262  0.73633  Biso   1.000  He
  Ne780    1.0000 0.83013  0.33108  0.71475  Biso   1.000  Ne
  Ne781    1.0000 0.11724  0.31098  0.69878  Biso   1.000  Ne
  He781    1.0000 0.11061  0.28328  0.68320  Biso   1.000  He
  He782    1.0000 0.13567  0.26227  0.67985  Biso   1.000  He
  Ne782    1.0000 0.13037  0.23361  0.66575  Biso   1.000  Ne
  Ne783    1.0000 0.51241  0.33751  0.39923  Biso   1.000  Ne
  He783    1.0000 0.53193  0.31000  0.40912  Biso   1.000  He
  He784    1.0000 0.53172  0.30253  0.44099  Biso   1.000  He
  Ne784    1.0000 0.55012  0.27819  0.45176  Biso   1.000  Ne
  Ne785    1.0000 0.65097  0.30750  0.11317  Biso   1.000  Ne
  He785    1.0000 0.62547  0.32617  0.09893  Biso   1.000  He
  He786    1.0000 0.59488  0.31589  0.10515  Biso   1.000  He
  Ne786    1.0000 0.57200  0.32987  0.08592  Biso   1.000  Ne
  Ne787    1.0000 0.74353  0.69916  0.63984  Biso   1.000  Ne
  He787    1.0000 0.71797  0.68995  0.62237  Biso   1.000  He
  He788    1.0000 0.71532  0.70591  0.59213  Biso   1.000  He
  Ne788    1.0000 0.68746  0.70057  0.57543  Biso   1.000  Ne
  Ne789    1.0000 0.14600  0.30925  0.41748  Biso   1.000  Ne
  He789    1.0000 0.14983  0.27741  0.41216  Biso   1.000  He
  He790    1.0000 0.15443  0.27221  0.38100  Biso   1.000  He
  Ne790    1.0000 0.16104  0.24087  0.37282  Biso   1.000  Ne
  Ne791    1.0000 0.63649  0.85899  0.99824  Biso   1.000  Ne
  He791    1.0000 0.61428  0.87980  0.01380  Biso   1.000  He
  He792    1.0000 0.62141  0.91313  0.00901  Biso   1.000  He
  Ne792    1.0000 0.60174  0.93502  0.02086  Biso   1.000  Ne
  Ne793    1.0000 0.70549  0.59717  0.69404  Biso   1.000  Ne
  He793    1.0000 0.72566  0.60608  0.67062  Biso   1.000  He
  He794    1.0000 0.71176  0.60742  0.63877  Biso   1.000  He
  Ne794    1.0000 0.73446  0.60949  0.61337  Biso   1.000  Ne
  Ne795    1.0000 0.22540  0.03345  0.51740  Biso   1.000  Ne
  He795    1.0000 0.19678  0.02394  0.50325  Biso   1.000  He
  He796    1.0000 0.17453  0.04712  0.50817  Biso   1.000  He
  Ne796    1.0000 0.14396  0.03583  0.50052  Biso   1.000  Ne
  Ne797    1.0000 0.05029  0.57767  0.92489  Biso   1.000  Ne
  He797    1.0000 0.05805  0.56103  0.89667  Biso   1.000  He
  He798    1.0000 0.03792  0.53732  0.88479  Biso   1.000  He
  Ne798    1.0000 0.04675  0.51892  0.85856  Biso   1.000  Ne
  Ne799    1.0000 0.66824  0.64098  0.08705  Biso   1.000  Ne
  He799    1.0000 0.67687  0.66558  0.06511  Biso   1.000  He
  He800    1.0000 0.69237  0.68854  0.08127  Biso   1.000  He
  Ne800    1.0000 0.70019  0.71501  0.05962  Biso   1.000  Ne
  Ne801    1.0000 0.05194  0.81518  0.55157  Biso   1.000  Ne
  He801    1.0000 0.02441  0.82733  0.53268  Biso   1.000  He
  He802    1.0000 0.99419  0.81226  0.54118  Biso   1.000  He
  Ne802    1.0000 0.96627  0.82264  0.52894  Biso   1.000  Ne
  Ne803    1.0000 0.58556  0.58638  0.25611  Biso   1.000  Ne
  He803    1.0000 0.56057  0.61262  0.25455  Biso   1.000  He
  He804    1.0000 0.53967  0.61149  0.27668  Biso   1.000  He
  Ne804    1.0000 0.52531  0.64346  0.28074  Biso   1.000  Ne
  Ne805    1.0000 0.94050  0.62246  0.25216  Biso   1.000  Ne
  He805    1.0000 0.94631  0.60272  0.27644  Biso   1.000  He
  He806    1.0000 0.92736  0.60865  0.30380  Biso   1.000  He
  Ne806    1.0000 0.93214  0.59230  0.33119  Biso   1.000  Ne
  Ne807    1.0000 0.51449  0.01856  0.89473  Biso   1.000  Ne
  He807    1.0000 0.48689  0.03606  0.90435  Biso   1.000  He
  He808    1.0000 0.47664  0.06219  0.88564  Biso   1.000  He
  Ne808    1.0000 0.48746  0.09195  0.89901  Biso   1.000  Ne
  Ne809    1.0000 0.37228  0.80916  0.08120  Biso   1.000  Ne
  He809    1.0000 0.38741  0.79629  0.10973  Biso   1.000  He
  He810    1.0000 0.41696  0.78055  0.10429  Biso   1.000  He
  Ne810    1.0000 0.43246  0.76901  0.13139  Biso   1.000  Ne
  Ne811    1.0000 0.58232  0.25261  0.85851  Biso   1.000  Ne
  He811    1.0000 0.57903  0.24616  0.88995  Biso   1.000  He
  He812    1.0000 0.57205  0.27112  0.91002  Biso   1.000  He
  Ne812    1.0000 0.57312  0.26311  0.94173  Biso   1.000  Ne
  Ne813    1.0000 0.32985  0.26869  0.26371  Biso   1.000  Ne
  He813    1.0000 0.32327  0.29079  0.23955  Biso   1.000  He
  He814    1.0000 0.34972  0.31194  0.23031  Biso   1.000  He
  Ne814    1.0000 0.34183  0.33383  0.21174  Biso   1.000  Ne
  Ne815    1.0000 0.31353  0.69355  0.26583  Biso   1.000  Ne
  He815    1.0000 0.32206  0.67131  0.28896  Biso   1.000  He
  He816    1.0000 0.34804  0.65002  0.28211  Biso   1.000  He
  Ne816    1.0000 0.35221  0.62831  0.30805  Biso   1.000  Ne
  Ne817    1.0000 0.06182  0.50950  0.09132  Biso   1.000  Ne
  He817    1.0000 0.05047  0.51367  0.06095  Biso   1.000  He
  He818    1.0000 0.03806  0.48420  0.05552  Biso   1.000  He
  Ne818    1.0000 0.02401  0.48099  0.02557  Biso   1.000  Ne
  Ne819    1.0000 0.69103  0.41272  0.79679  Biso   1.000  Ne
  He819    1.0000 0.70003  0.38597  0.77739  Biso   1.000  He
  He820    1.0000 0.70727  0.35687  0.79178  Biso   1.000  He
  Ne820    1.0000 0.71090  0.33048  0.77183  Biso   1.000  Ne
  Ne821    1.0000 0.00506  0.46355  0.57824  Biso   1.000  Ne
  He821    1.0000 0.01729  0.43430  0.57402  Biso   1.000  He
  He822    1.0000 0.05028  0.43134  0.57897  Biso   1.000  He
  Ne822    1.0000 0.06191  0.39955  0.57864  Biso   1.000  Ne
  Ne823    1.0000 0.19250  0.65716  0.94700  Biso   1.000  Ne
  He823    1.0000 0.18295  0.66448  0.97864  Biso   1.000  He
  He824    1.0000 0.15098  0.65323  0.98345  Biso   1.000  He
  Ne824    1.0000 0.13644  0.65581  0.01477  Biso   1.000  Ne
  Ne825    1.0000 0.08129  0.00961  0.04181  Biso   1.000  Ne
  He825    1.0000 0.07851  0.04195  0.03481  Biso   1.000  He
  He826    1.0000 0.08187  0.05873  0.06197  Biso   1.000  He
  Ne826    1.0000 0.07416  0.09302  0.05689  Biso   1.000  Ne
  Ne827    1.0000 0.25651  0.15282  0.36751  Biso   1.000  Ne
  He827    1.0000 0.27886  0.12731  0.36854  Biso   1.000  He
  He828    1.0000 0.27048  0.10727  0.39557  Biso   1.000  He
  Ne828    1.0000 0.28957  0.08094  0.40162  Biso   1.000  Ne
  Ne829    1.0000 0.89168  0.41479  0.03414  Biso   1.000  Ne
  He829    1.0000 0.91341  0.38941  0.03591  Biso   1.000  He
  He830    1.0000 0.90079  0.36141  0.04754  Biso   1.000  He
  Ne830    1.0000 0.92537  0.33716  0.05319  Biso   1.000  Ne
  Ne831    1.0000 0.70382  0.18835  0.21353  Biso   1.000  Ne
  He831    1.0000 0.73463  0.19838  0.21596  Biso   1.000  He
  He832    1.0000 0.73993  0.22535  0.23587  Biso   1.000  He
  Ne832    1.0000 0.76957  0.23230  0.24224  Biso   1.000  Ne
  Ne833    1.0000 0.92986  0.62914  0.03666  Biso   1.000  Ne
  He833    1.0000 0.94889  0.65578  0.03720  Biso   1.000  He
  He834    1.0000 0.93981  0.67853  0.01173  Biso   1.000  He
  Ne834    1.0000 0.95794  0.70428  0.01336  Biso   1.000  Ne
  Ne835    1.0000 0.16521  0.71005  0.07489  Biso   1.000  Ne
  He835    1.0000 0.18636  0.69943  0.09732  Biso   1.000  He
  He836    1.0000 0.21956  0.70089  0.08642  Biso   1.000  He
  Ne836    1.0000 0.24128  0.69681  0.11377  Biso   1.000  Ne
  Ne837    1.0000 0.25911  0.57867  0.08224  Biso   1.000  Ne
  He837    1.0000 0.28715  0.59179  0.08423  Biso   1.000  He
  He838    1.0000 0.28965  0.62406  0.06946  Biso   1.000  He
  Ne838    1.0000 0.32087  0.63554  0.06845  Biso   1.000  Ne
  Ne839    1.0000 0.06031  0.32614  0.41521  Biso   1.000  Ne
  He839    1.0000 0.06475  0.35885  0.42528  Biso   1.000  He
  He840    1.0000 0.09614  0.36848  0.41772  Biso   1.000  He
  Ne840    1.0000 0.10608  0.39800  0.42866  Biso   1.000  Ne
  Ne841    1.0000 0.62712  0.07343  0.11790  Biso   1.000  Ne
  He841    1.0000 0.65515  0.08675  0.11029  Biso   1.000  He
  He842    1.0000 0.65293  0.10813  0.08227  Biso   1.000  He
  Ne842    1.0000 0.68022  0.12380  0.07652  Biso   1.000  Ne
  Ne843    1.0000 0.66207  0.90763  0.35823  Biso   1.000  Ne
  He843    1.0000 0.67324  0.88893  0.38089  Biso   1.000  He
  He844    1.0000 0.68611  0.90474  0.40730  Biso   1.000  He
  Ne844    1.0000 0.69386  0.88458  0.43197  Biso   1.000  Ne
  Ne845    1.0000 0.60015  0.57480  0.32562  Biso   1.000  Ne
  He845    1.0000 0.60759  0.54229  0.32638  Biso   1.000  He
  He846    1.0000 0.60148  0.52769  0.35572  Biso   1.000  He
  Ne846    1.0000 0.60340  0.49352  0.35800  Biso   1.000  Ne
  Ne847    1.0000 0.26638  0.84176  0.87766  Biso   1.000  Ne
  He847    1.0000 0.24009  0.85247  0.86105  Biso   1.000  He
  He848    1.0000 0.21461  0.83235  0.86102  Biso   1.000  He
  Ne848    1.0000 0.19067  0.84268  0.83986  Biso   1.000  Ne
  Ne849    1.0000 0.77019  0.19774  0.91242  Biso   1.000  Ne
  He849    1.0000 0.76277  0.19881  0.87874  Biso   1.000  He
  He850    1.0000 0.76599  0.17076  0.86603  Biso   1.000  He
  Ne850    1.0000 0.76096  0.17083  0.83244  Biso   1.000  Ne
  Ne851    1.0000 0.25769  0.92019  0.91699  Biso   1.000  Ne
  He851    1.0000 0.28006  0.94690  0.91712  Biso   1.000  He
  He852    1.0000 0.27259  0.96893  0.94187  Biso   1.000  He
  Ne852    1.0000 0.29752  0.99298  0.93977  Biso   1.000  Ne
  Ne853    1.0000 0.64094  0.56280  0.92045  Biso   1.000  Ne
  He853    1.0000 0.66351  0.58202  0.90594  Biso   1.000  He
  He854    1.0000 0.69360  0.57402  0.91474  Biso   1.000  He
  Ne854    1.0000 0.71554  0.59491  0.90418  Biso   1.000  Ne
  Ne855    1.0000 0.41223  0.60109  0.08903  Biso   1.000  Ne
  He855    1.0000 0.39917  0.59102  0.11668  Biso   1.000  He
  He856    1.0000 0.37004  0.60066  0.12359  Biso   1.000  He
  Ne856    1.0000 0.35557  0.58660  0.14812  Biso   1.000  Ne
  Ne857    1.0000 0.95437  0.01939  0.71206  Biso   1.000  Ne
  He857    1.0000 0.93662  0.00533  0.68695  Biso   1.000  He
  He858    1.0000 0.94725  0.97564  0.67641  Biso   1.000  He
  Ne858    1.0000 0.93335  0.97070  0.64710  Biso   1.000  Ne
  Ne859    1.0000 0.86644  0.92416  0.61910  Biso   1.000  Ne
  He859    1.0000 0.84762  0.92292  0.64621  Biso   1.000  He
  He860    1.0000 0.82671  0.94839  0.64654  Biso   1.000  He
  Ne860    1.0000 0.80669  0.94590  0.67300  Biso   1.000  Ne
  Ne861    1.0000 0.31260  0.89234  0.31582  Biso   1.000  Ne
  He861    1.0000 0.30884  0.90620  0.34462  Biso   1.000  He
  He862    1.0000 0.32837  0.89505  0.36981  Biso   1.000  He
  Ne862    1.0000 0.33329  0.91463  0.39327  Biso   1.000  Ne
  Ne863    1.0000 0.84648  0.43141  0.85309  Biso   1.000  Ne
  He863    1.0000 0.82397  0.40747  0.86436  Biso   1.000  He
  He864    1.0000 0.79310  0.41426  0.85201  Biso   1.000  He
  Ne864    1.0000 0.77346  0.38832  0.85173  Biso   1.000  Ne
  Ne865    1.0000 0.93262  0.40675  0.19334  Biso   1.000  Ne
  He865    1.0000 0.93376  0.38857  0.16545  Biso   1.000  He
  He866    1.0000 0.90894  0.36554  0.16450  Biso   1.000  He
  Ne866    1.0000 0.91329  0.34281  0.13994  Biso   1.000  Ne
  Ne867    1.0000 0.74272  0.22624  0.73078  Biso   1.000  Ne
  He867    1.0000 0.75806  0.25102  0.74758  Biso   1.000  He
  He868    1.0000 0.75871  0.24766  0.77991  Biso   1.000  He
  Ne868    1.0000 0.76823  0.27829  0.79503  Biso   1.000  Ne
  Ne869    1.0000 0.17692  0.17523  0.70277  Biso   1.000  Ne
  He869    1.0000 0.20602  0.18949  0.70305  Biso   1.000  He
  He870    1.0000 0.20391  0.21758  0.68207  Biso   1.000  He
  Ne870    1.0000 0.22894  0.23712  0.67956  Biso   1.000  Ne
  Ne871    1.0000 0.42206  0.23390  0.16280  Biso   1.000  Ne
  He871    1.0000 0.39230  0.23585  0.18111  Biso   1.000  He
  He872    1.0000 0.38472  0.20673  0.19629  Biso   1.000  He
  Ne872    1.0000 0.35838  0.20948  0.21466  Biso   1.000  Ne
  Ne873    1.0000 0.54606  0.96543  0.85019  Biso   1.000  Ne
  He873    1.0000 0.53759  0.97732  0.82178  Biso   1.000  He
  He874    1.0000 0.51846  0.95281  0.80557  Biso   1.000  He
  Ne874    1.0000 0.50126  0.96447  0.78006  Biso   1.000  Ne
  Ne875    1.0000 0.19710  0.09304  0.07320  Biso   1.000  Ne
  He875    1.0000 0.16990  0.10954  0.06649  Biso   1.000  He
  He876    1.0000 0.16465  0.13532  0.08279  Biso   1.000  He
  Ne876    1.0000 0.13402  0.15297  0.07687  Biso   1.000  Ne
  Ne877    1.0000 0.05921  0.41475  0.24621  Biso   1.000  Ne
  He877    1.0000 0.09266  0.41342  0.24557  Biso   1.000  He
  He878    1.0000 0.10537  0.39345  0.22349  Biso   1.000  He
  Ne878    1.0000 0.13891  0.38639  0.23015  Biso   1.000  Ne
  Ne879    1.0000 0.30344  0.33047  0.53481  Biso   1.000  Ne
  He879    1.0000 0.32257  0.34599  0.55536  Biso   1.000  He
  He880    1.0000 0.34362  0.32661  0.57362  Biso   1.000  He
  Ne880    1.0000 0.36479  0.34302  0.59498  Biso   1.000  Ne
  Ne881    1.0000 0.30574  0.62569  0.52528  Biso   1.000  Ne
  He881    1.0000 0.32994  0.64658  0.51601  Biso   1.000  He
  He882    1.0000 0.33851  0.64621  0.48573  Biso   1.000  He
  Ne882    1.0000 0.36096  0.66987  0.47499  Biso   1.000  Ne
  Ne883    1.0000 0.65453  0.39449  0.70589  Biso   1.000  Ne
  He883    1.0000 0.65881  0.37196  0.68153  Biso   1.000  He
  He884    1.0000 0.67152  0.34113  0.69339  Biso   1.000  He
  Ne884    1.0000 0.67312  0.32090  0.67019  Biso   1.000  Ne
  Ne885    1.0000 0.43500  0.98217  0.12281  Biso   1.000  Ne
  He885    1.0000 0.46638  0.98245  0.12041  Biso   1.000  He
  He886    1.0000 0.48082  0.00272  0.09872  Biso   1.000  He
  Ne886    1.0000 0.51302  0.00128  0.10166  Biso   1.000  Ne
  Ne887    1.0000 0.93201  0.21425  0.55881  Biso   1.000  Ne
  He887    1.0000 0.90204  0.20054  0.54993  Biso   1.000  He
  He888    1.0000 0.88190  0.22231  0.53754  Biso   1.000  He
  Ne888    1.0000 0.85104  0.21101  0.53368  Biso   1.000  Ne
  Ne889    1.0000 0.83171  0.08097  0.13011  Biso   1.000  Ne
  He889    1.0000 0.81448  0.10576  0.11303  Biso   1.000  He
  He890    1.0000 0.81354  0.13761  0.12398  Biso   1.000  He
  Ne890    1.0000 0.79003  0.15543  0.11091  Biso   1.000  Ne
  Ne891    1.0000 0.93153  0.47635  0.01272  Biso   1.000  Ne
  He891    1.0000 0.94788  0.47755  0.98530  Biso   1.000  He
  He892    1.0000 0.94696  0.50606  0.96579  Biso   1.000  He
  Ne892    1.0000 0.97366  0.52513  0.96745  Biso   1.000  Ne
  Ne893    1.0000 0.15007  0.90799  0.52314  Biso   1.000  Ne
  He893    1.0000 0.12293  0.89609  0.54007  Biso   1.000  He
  He894    1.0000 0.12616  0.90472  0.57396  Biso   1.000  He
  Ne894    1.0000 0.09898  0.89374  0.59091  Biso   1.000  Ne
  Ne895    1.0000 0.57745  0.33065  0.30259  Biso   1.000  Ne
  He895    1.0000 0.56659  0.34538  0.32931  Biso   1.000  He
  He896    1.0000 0.56739  0.37844  0.32857  Biso   1.000  He
  Ne896    1.0000 0.55583  0.39476  0.35475  Biso   1.000  Ne
  Ne897    1.0000 0.06289  0.51180  0.48546  Biso   1.000  Ne
  He897    1.0000 0.03320  0.51703  0.49119  Biso   1.000  He
  He898    1.0000 0.02400  0.54684  0.48442  Biso   1.000  He
  Ne898    1.0000 0.99243  0.55086  0.49301  Biso   1.000  Ne
  Ne899    1.0000 0.99451  0.00824  0.50864  Biso   1.000  Ne
  He899    1.0000 0.98653  0.02551  0.48218  Biso   1.000  He
  He900    1.0000 0.95631  0.02148  0.46733  Biso   1.000  He
  Ne900    1.0000 0.95540  0.04031  0.44200  Biso   1.000  Ne
