data_image0
_cell_length_a       46.8537
_cell_length_b       46.7131
_cell_length_c       46.6044
_cell_angle_alpha    90
_cell_angle_beta     90
_cell_angle_gamma    90

_symmetry_space_group_name_H-M    "P 1"
_symmetry_int_tables_number       1

loop_
  _symmetry_equiv_pos_as_xyz
  'x, y, z'

loop_
  _atom_site_label
  _atom_site_occupancy
  _atom_site_fract_x
  _atom_site_fract_y
  _atom_site_fract_z
  _atom_site_thermal_displace_type
  _atom_site_B_iso_or_equiv
  _atom_site_type_symbol
  Ne1      1.0000 0.48844  0.03076  0.59879  Biso   1.000  Ne
  He1      1.0000 0.47706  0.02183  0.56804  Biso   1.000  He
  He2      1.0000 0.46581  0.04855  0.54857  Biso   1.000  He
  Ne2      1.0000 0.46251  0.04263  0.51545  Biso   1.000  Ne
  Ne3      1.0000 0.94177  0.21752  0.88317  Biso   1.000  Ne
  He3      1.0000 0.95172  0.18574  0.88351  Biso   1.000  He
  He4      1.0000 0.94156  0.17053  0.91221  Biso   1.000  He
  Ne4      1.0000 0.95333  0.14169  0.91572  Biso   1.000  Ne
  Ne5      1.0000 0.12035  0.30352  0.41458  Biso   1.000  Ne
  He5      1.0000 0.10575  0.33499  0.41468  Biso   1.000  He
  He6      1.0000 0.11509  0.35577  0.39130  Biso   1.000  He
  Ne6      1.0000 0.10008  0.38539  0.39231  Biso   1.000  Ne
  Ne7      1.0000 0.45130  0.75479  0.60843  Biso   1.000  Ne
  He7      1.0000 0.46941  0.77361  0.62889  Biso   1.000  He
  He8      1.0000 0.45332  0.78160  0.65729  Biso   1.000  He
  Ne8      1.0000 0.47208  0.79742  0.67934  Biso   1.000  Ne
  Ne9      1.0000 0.81616  0.71238  0.12603  Biso   1.000  Ne
  He9      1.0000 0.79028  0.71199  0.10687  Biso   1.000  He
  He10     1.0000 0.77667  0.74083  0.09805  Biso   1.000  He
  Ne10     1.0000 0.74806  0.73599  0.08402  Biso   1.000  Ne
  Ne11     1.0000 0.71154  0.56714  0.08817  Biso   1.000  Ne
  He11     1.0000 0.72341  0.59801  0.09043  Biso   1.000  He
  He12     1.0000 0.70381  0.62026  0.10364  Biso   1.000  He
  Ne12     1.0000 0.71781  0.64955  0.10763  Biso   1.000  Ne
  Ne13     1.0000 0.28777  0.95421  0.19235  Biso   1.000  Ne
  He13     1.0000 0.26515  0.93053  0.19930  Biso   1.000  He
  He14     1.0000 0.26571  0.91248  0.22924  Biso   1.000  He
  Ne14     1.0000 0.24105  0.89176  0.23281  Biso   1.000  Ne
  Ne15     1.0000 0.27831  0.59628  0.60212  Biso   1.000  Ne
  He15     1.0000 0.29279  0.56902  0.58609  Biso   1.000  He
  He16     1.0000 0.32549  0.56912  0.59125  Biso   1.000  He
  Ne16     1.0000 0.34118  0.54133  0.58129  Biso   1.000  Ne
  Ne17     1.0000 0.46171  0.42966  0.92030  Biso   1.000  Ne
  He17     1.0000 0.49255  0.42016  0.92492  Biso   1.000  He
  He18     1.0000 0.49948  0.41930  0.95696  Biso   1.000  He
  Ne18     1.0000 0.53115  0.41071  0.96353  Biso   1.000  Ne
  Ne19     1.0000 0.03290  0.05931  0.30352  Biso   1.000  Ne
  He19     1.0000 0.04437  0.02973  0.29645  Biso   1.000  He
  He20     1.0000 0.02349  0.00444  0.30105  Biso   1.000  He
  Ne20     1.0000 0.02985  0.97340  0.29100  Biso   1.000  Ne
  Ne21     1.0000 0.65141  0.23023  0.09533  Biso   1.000  Ne
  He21     1.0000 0.64106  0.26199  0.08880  Biso   1.000  He
  He22     1.0000 0.61026  0.26516  0.08079  Biso   1.000  He
  Ne22     1.0000 0.60477  0.29964  0.07577  Biso   1.000  Ne
  Ne23     1.0000 0.45096  0.86941  0.26977  Biso   1.000  Ne
  He23     1.0000 0.45930  0.85137  0.29541  Biso   1.000  He
  He24     1.0000 0.44796  0.85784  0.32644  Biso   1.000  He
  Ne24     1.0000 0.45922  0.83601  0.34615  Biso   1.000  Ne
  Ne25     1.0000 0.84321  0.60949  0.43572  Biso   1.000  Ne
  He25     1.0000 0.83193  0.59522  0.40519  Biso   1.000  He
  He26     1.0000 0.85469  0.59094  0.38207  Biso   1.000  He
  Ne26     1.0000 0.84010  0.57568  0.35835  Biso   1.000  Ne
  Ne27     1.0000 0.17167  0.93631  0.80462  Biso   1.000  Ne
  He27     1.0000 0.15830  0.93219  0.83495  Biso   1.000  He
  He28     1.0000 0.13291  0.90955  0.83479  Biso   1.000  He
  Ne28     1.0000 0.11846  0.90008  0.86415  Biso   1.000  Ne
  Ne29     1.0000 0.80975  0.53926  0.96378  Biso   1.000  Ne
  He29     1.0000 0.80978  0.56893  0.94661  Biso   1.000  He
  He30     1.0000 0.82907  0.56853  0.91828  Biso   1.000  He
  Ne30     1.0000 0.83568  0.59868  0.90106  Biso   1.000  Ne
  Ne31     1.0000 0.60838  0.24890  0.92075  Biso   1.000  Ne
  He31     1.0000 0.60235  0.26572  0.89194  Biso   1.000  He
  He32     1.0000 0.61590  0.25278  0.86439  Biso   1.000  He
  Ne32     1.0000 0.60565  0.26496  0.83386  Biso   1.000  Ne
  Ne33     1.0000 0.91262  0.41859  0.30225  Biso   1.000  Ne
  He33     1.0000 0.88851  0.42166  0.32525  Biso   1.000  He
  He34     1.0000 0.86411  0.39894  0.32238  Biso   1.000  He
  Ne34     1.0000 0.84238  0.39464  0.34647  Biso   1.000  Ne
  Ne35     1.0000 0.24565  0.49498  0.05499  Biso   1.000  Ne
  He35     1.0000 0.25020  0.46524  0.07108  Biso   1.000  He
  He36     1.0000 0.24230  0.46499  0.10409  Biso   1.000  He
  Ne36     1.0000 0.24918  0.43737  0.12111  Biso   1.000  Ne
  Ne37     1.0000 0.42501  0.37113  0.14500  Biso   1.000  Ne
  He37     1.0000 0.42584  0.38273  0.17473  Biso   1.000  He
  He38     1.0000 0.42494  0.35821  0.19776  Biso   1.000  He
  Ne38     1.0000 0.42181  0.37338  0.22930  Biso   1.000  Ne
  Ne39     1.0000 0.19995  0.15953  0.80912  Biso   1.000  Ne
  He39     1.0000 0.19072  0.16859  0.83858  Biso   1.000  He
  He40     1.0000 0.17237  0.19673  0.83923  Biso   1.000  He
  Ne40     1.0000 0.13884  0.19228  0.84383  Biso   1.000  Ne
  Ne41     1.0000 0.61264  0.62618  0.21710  Biso   1.000  Ne
  He41     1.0000 0.62475  0.65677  0.21032  Biso   1.000  He
  He42     1.0000 0.62580  0.68293  0.23261  Biso   1.000  He
  Ne42     1.0000 0.64321  0.71019  0.22397  Biso   1.000  Ne
  Ne43     1.0000 0.31229  0.57573  0.91447  Biso   1.000  Ne
  He43     1.0000 0.28813  0.59318  0.90269  Biso   1.000  He
  He44     1.0000 0.26240  0.57445  0.89055  Biso   1.000  He
  Ne44     1.0000 0.24008  0.59391  0.87114  Biso   1.000  Ne
  Ne45     1.0000 0.37471  0.38759  0.07683  Biso   1.000  Ne
  He45     1.0000 0.34542  0.38437  0.09156  Biso   1.000  He
  He46     1.0000 0.34654  0.39522  0.12294  Biso   1.000  He
  Ne46     1.0000 0.31922  0.39454  0.14185  Biso   1.000  Ne
  Ne47     1.0000 0.81722  0.38132  0.58702  Biso   1.000  Ne
  He47     1.0000 0.84991  0.38421  0.58937  Biso   1.000  He
  He48     1.0000 0.86256  0.41536  0.58672  Biso   1.000  He
  Ne48     1.0000 0.89675  0.41516  0.58253  Biso   1.000  Ne
  Ne49     1.0000 0.12415  0.43972  0.55171  Biso   1.000  Ne
  He49     1.0000 0.11073  0.40888  0.55802  Biso   1.000  He
  He50     1.0000 0.12897  0.38820  0.57615  Biso   1.000  He
  Ne50     1.0000 0.11207  0.36097  0.58269  Biso   1.000  Ne
  Ne51     1.0000 0.87789  0.78143  0.93646  Biso   1.000  Ne
  He51     1.0000 0.89917  0.80303  0.93070  Biso   1.000  He
  He52     1.0000 0.89086  0.83531  0.93097  Biso   1.000  He
  Ne52     1.0000 0.91692  0.85730  0.92985  Biso   1.000  Ne
  Ne53     1.0000 0.42605  0.55733  0.94584  Biso   1.000  Ne
  He53     1.0000 0.42879  0.58732  0.92944  Biso   1.000  He
  He54     1.0000 0.44692  0.60929  0.94402  Biso   1.000  He
  Ne54     1.0000 0.47950  0.60976  0.93703  Biso   1.000  Ne
  Ne55     1.0000 0.91759  0.41648  0.45192  Biso   1.000  Ne
  He55     1.0000 0.91662  0.41343  0.42005  Biso   1.000  He
  He56     1.0000 0.94491  0.40398  0.40956  Biso   1.000  He
  Ne56     1.0000 0.94139  0.40276  0.37711  Biso   1.000  Ne
  Ne57     1.0000 0.67800  0.39151  0.21863  Biso   1.000  Ne
  He57     1.0000 0.64477  0.39299  0.22551  Biso   1.000  He
  He58     1.0000 0.62867  0.38727  0.19680  Biso   1.000  He
  Ne58     1.0000 0.59505  0.38761  0.20033  Biso   1.000  Ne
  Ne59     1.0000 0.46375  0.53185  0.72530  Biso   1.000  Ne
  He59     1.0000 0.43109  0.53863  0.73313  Biso   1.000  He
  He60     1.0000 0.40740  0.52793  0.71250  Biso   1.000  He
  Ne60     1.0000 0.37881  0.53640  0.72488  Biso   1.000  Ne
  Ne61     1.0000 0.82409  0.32444  0.95909  Biso   1.000  Ne
  He61     1.0000 0.79692  0.33948  0.94412  Biso   1.000  He
  He62     1.0000 0.78028  0.32011  0.92404  Biso   1.000  He
  Ne62     1.0000 0.75857  0.33668  0.90622  Biso   1.000  Ne
  Ne63     1.0000 0.09542  0.57711  0.47057  Biso   1.000  Ne
  He63     1.0000 0.06698  0.57813  0.45225  Biso   1.000  He
  He64     1.0000 0.04246  0.55658  0.46216  Biso   1.000  He
  Ne64     1.0000 0.01318  0.55726  0.44980  Biso   1.000  Ne
  Ne65     1.0000 0.60509  0.91859  0.18297  Biso   1.000  Ne
  He65     1.0000 0.59089  0.91771  0.21377  Biso   1.000  He
  He66     1.0000 0.57968  0.94956  0.22337  Biso   1.000  He
  Ne66     1.0000 0.56130  0.94682  0.24955  Biso   1.000  Ne
  Ne67     1.0000 0.23656  0.60325  0.34116  Biso   1.000  Ne
  He67     1.0000 0.25864  0.58368  0.32980  Biso   1.000  He
  He68     1.0000 0.28523  0.57939  0.35008  Biso   1.000  He
  Ne68     1.0000 0.30753  0.55658  0.33912  Biso   1.000  Ne
  Ne69     1.0000 0.26685  0.89997  0.95922  Biso   1.000  Ne
  He69     1.0000 0.25713  0.92152  0.94064  Biso   1.000  He
  He70     1.0000 0.23641  0.90756  0.91855  Biso   1.000  He
  Ne70     1.0000 0.22109  0.92817  0.89723  Biso   1.000  Ne
  Ne71     1.0000 0.24366  0.55848  0.20368  Biso   1.000  Ne
  He71     1.0000 0.27383  0.55761  0.19037  Biso   1.000  He
  He72     1.0000 0.29253  0.56676  0.21233  Biso   1.000  He
  Ne72     1.0000 0.32432  0.56840  0.20297  Biso   1.000  Ne
  Ne73     1.0000 0.62119  0.63034  0.92079  Biso   1.000  Ne
  He73     1.0000 0.63775  0.64791  0.89860  Biso   1.000  He
  He74     1.0000 0.64034  0.63184  0.86746  Biso   1.000  He
  Ne74     1.0000 0.64824  0.64955  0.83839  Biso   1.000  Ne
  Ne75     1.0000 0.15746  0.29077  0.26899  Biso   1.000  Ne
  He75     1.0000 0.14908  0.32325  0.26739  Biso   1.000  He
  He76     1.0000 0.13744  0.33547  0.29416  Biso   1.000  He
  Ne76     1.0000 0.12628  0.36738  0.28854  Biso   1.000  Ne
  Ne77     1.0000 0.36592  0.32668  0.92153  Biso   1.000  Ne
  He77     1.0000 0.35720  0.35725  0.92069  Biso   1.000  He
  He78     1.0000 0.38349  0.38020  0.92000  Biso   1.000  He
  Ne78     1.0000 0.37765  0.41283  0.92029  Biso   1.000  Ne
  Ne79     1.0000 0.30345  0.12975  0.72730  Biso   1.000  Ne
  He79     1.0000 0.32711  0.13877  0.74566  Biso   1.000  He
  He80     1.0000 0.33920  0.10945  0.75929  Biso   1.000  He
  Ne80     1.0000 0.35796  0.11566  0.78660  Biso   1.000  Ne
  Ne81     1.0000 0.95526  0.69946  0.68468  Biso   1.000  Ne
  He81     1.0000 0.95044  0.70996  0.71641  Biso   1.000  He
  He82     1.0000 0.93002  0.73720  0.72134  Biso   1.000  He
  Ne82     1.0000 0.93471  0.75112  0.75032  Biso   1.000  Ne
  Ne83     1.0000 0.42541  0.93536  0.68379  Biso   1.000  Ne
  He83     1.0000 0.41756  0.92761  0.65274  Biso   1.000  He
  He84     1.0000 0.44023  0.93867  0.62996  Biso   1.000  He
  Ne84     1.0000 0.43051  0.94058  0.59883  Biso   1.000  Ne
  Ne85     1.0000 0.66169  0.77815  0.10892  Biso   1.000  Ne
  He85     1.0000 0.64250  0.75526  0.09819  Biso   1.000  He
  He86     1.0000 0.63514  0.73421  0.12038  Biso   1.000  He
  Ne86     1.0000 0.61289  0.71046  0.11633  Biso   1.000  Ne
  Ne87     1.0000 0.98742  0.07652  0.02341  Biso   1.000  Ne
  He87     1.0000 0.00369  0.05549  0.00272  Biso   1.000  He
  He88     1.0000 0.02123  0.03244  0.01701  Biso   1.000  He
  Ne88     1.0000 0.04061  0.01795  0.99276  Biso   1.000  Ne
  Ne89     1.0000 0.36947  0.08593  0.60726  Biso   1.000  Ne
  He89     1.0000 0.35379  0.10978  0.62645  Biso   1.000  He
  He90     1.0000 0.35980  0.14213  0.61538  Biso   1.000  He
  Ne90     1.0000 0.35018  0.16205  0.63889  Biso   1.000  Ne
  Ne91     1.0000 0.66319  0.42725  0.78255  Biso   1.000  Ne
  He91     1.0000 0.64133  0.40740  0.78719  Biso   1.000  He
  He92     1.0000 0.64577  0.39132  0.81414  Biso   1.000  He
  Ne92     1.0000 0.62853  0.36099  0.81409  Biso   1.000  Ne
  Ne93     1.0000 0.94711  0.09475  0.20500  Biso   1.000  Ne
  He93     1.0000 0.92137  0.11083  0.19287  Biso   1.000  He
  He94     1.0000 0.90124  0.09390  0.17475  Biso   1.000  He
  Ne94     1.0000 0.87405  0.11084  0.15925  Biso   1.000  Ne
  Ne95     1.0000 0.95262  0.07324  0.10650  Biso   1.000  Ne
  He95     1.0000 0.91926  0.06693  0.10250  Biso   1.000  He
  He96     1.0000 0.90751  0.08310  0.07600  Biso   1.000  He
  Ne96     1.0000 0.87591  0.07759  0.07156  Biso   1.000  Ne
  Ne97     1.0000 0.33542  0.44001  0.62736  Biso   1.000  Ne
  He97     1.0000 0.32200  0.45384  0.60209  Biso   1.000  He
  He98     1.0000 0.34649  0.45831  0.58207  Biso   1.000  He
  Ne98     1.0000 0.33881  0.47305  0.55196  Biso   1.000  Ne
  Ne99     1.0000 0.20608  0.87525  0.50282  Biso   1.000  Ne
  He99     1.0000 0.21936  0.88552  0.52923  Biso   1.000  He
  He100    1.0000 0.22671  0.91918  0.52716  Biso   1.000  He
  Ne100    1.0000 0.24103  0.93027  0.55529  Biso   1.000  Ne
  Ne101    1.0000 0.86895  0.90824  0.14427  Biso   1.000  Ne
  He101    1.0000 0.88440  0.92194  0.17185  Biso   1.000  He
  He102    1.0000 0.91352  0.90824  0.18120  Biso   1.000  He
  Ne102    1.0000 0.92865  0.92382  0.20634  Biso   1.000  Ne
  Ne103    1.0000 0.86435  0.60341  0.66111  Biso   1.000  Ne
  He103    1.0000 0.88016  0.58410  0.64095  Biso   1.000  He
  He104    1.0000 0.87054  0.59020  0.61192  Biso   1.000  He
  Ne104    1.0000 0.88716  0.57622  0.58841  Biso   1.000  Ne
  Ne105    1.0000 0.67343  0.09265  0.75527  Biso   1.000  Ne
  He105    1.0000 0.65253  0.10796  0.74078  Biso   1.000  He
  He106    1.0000 0.66706  0.12515  0.71845  Biso   1.000  He
  Ne106    1.0000 0.64536  0.14570  0.70163  Biso   1.000  Ne
  Ne107    1.0000 0.12497  0.83644  0.79259  Biso   1.000  Ne
  He107    1.0000 0.12961  0.84516  0.76083  Biso   1.000  He
  He108    1.0000 0.13105  0.87872  0.75681  Biso   1.000  He
  Ne108    1.0000 0.13593  0.89118  0.72465  Biso   1.000  Ne
  Ne109    1.0000 0.39986  0.84408  0.63690  Biso   1.000  Ne
  He109    1.0000 0.36973  0.84746  0.65021  Biso   1.000  He
  He110    1.0000 0.36718  0.86257  0.68022  Biso   1.000  He
  Ne110    1.0000 0.33863  0.86481  0.69325  Biso   1.000  Ne
  Ne111    1.0000 0.32450  0.73835  0.42349  Biso   1.000  Ne
  He111    1.0000 0.30029  0.71806  0.43212  Biso   1.000  He
  He112    1.0000 0.30301  0.68636  0.42313  Biso   1.000  He
  Ne112    1.0000 0.27776  0.66921  0.43266  Biso   1.000  Ne
  Ne113    1.0000 0.96340  0.97083  0.93539  Biso   1.000  Ne
  He113    1.0000 0.96967  0.94264  0.95332  Biso   1.000  He
  He114    1.0000 0.00173  0.93088  0.94891  Biso   1.000  He
  Ne114    1.0000 0.00604  0.89878  0.96212  Biso   1.000  Ne
  Ne115    1.0000 0.11734  0.71514  0.61875  Biso   1.000  Ne
  He115    1.0000 0.11940  0.68321  0.60676  Biso   1.000  He
  He116    1.0000 0.12732  0.66062  0.63062  Biso   1.000  He
  Ne116    1.0000 0.12927  0.63055  0.61470  Biso   1.000  Ne
  Ne117    1.0000 0.45511  0.63862  0.11105  Biso   1.000  Ne
  He117    1.0000 0.46626  0.60763  0.12363  Biso   1.000  He
  He118    1.0000 0.47159  0.58584  0.10333  Biso   1.000  He
  Ne118    1.0000 0.48297  0.55812  0.11385  Biso   1.000  Ne
  Ne119    1.0000 0.92917  0.56115  0.78404  Biso   1.000  Ne
  He119    1.0000 0.90258  0.57212  0.77504  Biso   1.000  He
  He120    1.0000 0.87464  0.55992  0.79086  Biso   1.000  He
  Ne120    1.0000 0.84609  0.57231  0.77934  Biso   1.000  Ne
  Ne121    1.0000 0.44543  0.29547  0.89425  Biso   1.000  Ne
  He121    1.0000 0.43458  0.26539  0.88939  Biso   1.000  He
  He122    1.0000 0.42234  0.25199  0.91932  Biso   1.000  He
  Ne122    1.0000 0.40623  0.22168  0.92166  Biso   1.000  Ne
  Ne123    1.0000 0.42063  0.11886  0.69762  Biso   1.000  Ne
  He123    1.0000 0.44994  0.11594  0.71052  Biso   1.000  He
  He124    1.0000 0.45312  0.10516  0.74361  Biso   1.000  He
  Ne124    1.0000 0.48378  0.09810  0.75058  Biso   1.000  Ne
  Ne125    1.0000 0.10818  0.33087  0.66746  Biso   1.000  Ne
  He125    1.0000 0.13445  0.34851  0.66962  Biso   1.000  He
  He126    1.0000 0.12989  0.38094  0.65626  Biso   1.000  He
  Ne126    1.0000 0.15549  0.39980  0.66271  Biso   1.000  Ne
  Ne127    1.0000 0.73737  0.11099  0.35575  Biso   1.000  Ne
  He127    1.0000 0.73691  0.10895  0.38779  Biso   1.000  He
  He128    1.0000 0.74875  0.07891  0.39727  Biso   1.000  He
  Ne128    1.0000 0.74775  0.07586  0.42639  Biso   1.000  Ne
  Ne129    1.0000 0.77310  0.82865  0.10938  Biso   1.000  Ne
  He129    1.0000 0.80261  0.81798  0.09729  Biso   1.000  He
  He130    1.0000 0.83120  0.83673  0.10740  Biso   1.000  He
  Ne130    1.0000 0.83641  0.86539  0.09011  Biso   1.000  Ne
  Ne131    1.0000 0.36518  0.46471  0.34257  Biso   1.000  Ne
  He131    1.0000 0.36523  0.49359  0.32632  Biso   1.000  He
  He132    1.0000 0.38601  0.49806  0.29942  Biso   1.000  He
  Ne132    1.0000 0.39175  0.53041  0.28802  Biso   1.000  Ne
  Ne133    1.0000 0.46513  0.69459  0.77509  Biso   1.000  Ne
  He133    1.0000 0.49597  0.70107  0.76350  Biso   1.000  He
  He134    1.0000 0.49918  0.70122  0.73100  Biso   1.000  He
  Ne134    1.0000 0.52789  0.70803  0.71847  Biso   1.000  Ne
  Ne135    1.0000 0.11331  0.67283  0.37027  Biso   1.000  Ne
  He135    1.0000 0.10960  0.68183  0.40105  Biso   1.000  He
  He136    1.0000 0.13811  0.69692  0.41521  Biso   1.000  He
  Ne136    1.0000 0.13132  0.70805  0.44323  Biso   1.000  Ne
  Ne137    1.0000 0.39524  0.56310  0.17127  Biso   1.000  Ne
  He137    1.0000 0.41059  0.55559  0.19936  Biso   1.000  He
  He138    1.0000 0.44139  0.56728  0.20100  Biso   1.000  He
  Ne138    1.0000 0.45727  0.55628  0.23011  Biso   1.000  Ne
  Ne139    1.0000 0.38245  0.68793  0.10584  Biso   1.000  Ne
  He139    1.0000 0.41014  0.70090  0.11766  Biso   1.000  He
  He140    1.0000 0.42130  0.73152  0.10411  Biso   1.000  He
  Ne140    1.0000 0.45339  0.73893  0.10892  Biso   1.000  Ne
  Ne141    1.0000 0.21638  0.40538  0.26642  Biso   1.000  Ne
  He141    1.0000 0.20304  0.41587  0.29359  Biso   1.000  He
  He142    1.0000 0.20290  0.39570  0.31975  Biso   1.000  He
  Ne142    1.0000 0.19220  0.41100  0.34862  Biso   1.000  Ne
  Ne143    1.0000 0.11935  0.11784  0.77199  Biso   1.000  Ne
  He143    1.0000 0.10491  0.11480  0.80211  Biso   1.000  He
  He144    1.0000 0.12528  0.11538  0.82590  Biso   1.000  He
  Ne144    1.0000 0.11188  0.10896  0.85549  Biso   1.000  Ne
  Ne145    1.0000 0.73706  0.20833  0.61396  Biso   1.000  Ne
  He145    1.0000 0.72040  0.18359  0.59584  Biso   1.000  He
  He146    1.0000 0.69002  0.18928  0.59071  Biso   1.000  He
  Ne146    1.0000 0.67287  0.16657  0.57400  Biso   1.000  Ne
  Ne147    1.0000 0.34634  0.16439  0.01436  Biso   1.000  Ne
  He147    1.0000 0.31879  0.17124  0.99758  Biso   1.000  He
  He148    1.0000 0.32231  0.17586  0.96400  Biso   1.000  He
  Ne148    1.0000 0.29422  0.18442  0.95196  Biso   1.000  Ne
  Ne149    1.0000 0.39388  0.26548  0.21218  Biso   1.000  Ne
  He149    1.0000 0.39289  0.23569  0.22448  Biso   1.000  He
  He150    1.0000 0.41696  0.21478  0.21091  Biso   1.000  He
  Ne150    1.0000 0.42242  0.18616  0.22776  Biso   1.000  Ne
  Ne151    1.0000 0.17621  0.09518  0.20080  Biso   1.000  Ne
  He151    1.0000 0.15227  0.07869  0.21679  Biso   1.000  He
  He152    1.0000 0.11916  0.07780  0.20423  Biso   1.000  He
  Ne152    1.0000 0.09837  0.06744  0.22661  Biso   1.000  Ne
  Ne153    1.0000 0.84949  0.27302  0.77944  Biso   1.000  Ne
  He153    1.0000 0.85418  0.27511  0.74662  Biso   1.000  He
  He154    1.0000 0.84557  0.30529  0.73380  Biso   1.000  He
  Ne154    1.0000 0.84435  0.30904  0.70174  Biso   1.000  Ne
  Ne155    1.0000 0.66487  0.69275  0.56332  Biso   1.000  Ne
  He155    1.0000 0.63784  0.67656  0.55174  Biso   1.000  He
  He156    1.0000 0.61113  0.69011  0.56095  Biso   1.000  He
  Ne156    1.0000 0.58477  0.67505  0.55374  Biso   1.000  Ne
  Ne157    1.0000 0.10323  0.16830  0.66866  Biso   1.000  Ne
  He157    1.0000 0.09266  0.13822  0.67714  Biso   1.000  He
  He158    1.0000 0.11361  0.11926  0.69459  Biso   1.000  He
  Ne158    1.0000 0.10554  0.08868  0.70117  Biso   1.000  Ne
  Ne159    1.0000 0.59047  0.90511  0.44238  Biso   1.000  Ne
  He159    1.0000 0.58869  0.93978  0.44547  Biso   1.000  He
  He160    1.0000 0.61489  0.95120  0.46266  Biso   1.000  He
  Ne160    1.0000 0.61649  0.98351  0.46698  Biso   1.000  Ne
  Ne161    1.0000 0.61054  0.55540  0.18293  Biso   1.000  Ne
  He161    1.0000 0.63972  0.55282  0.16818  Biso   1.000  He
  He162    1.0000 0.66586  0.56647  0.18579  Biso   1.000  He
  Ne162    1.0000 0.69808  0.56531  0.17169  Biso   1.000  Ne
  Ne163    1.0000 0.23641  0.32844  0.39572  Biso   1.000  Ne
  He163    1.0000 0.22054  0.35629  0.40416  Biso   1.000  He
  He164    1.0000 0.24023  0.38070  0.41693  Biso   1.000  He
  Ne164    1.0000 0.22603  0.40596  0.42021  Biso   1.000  Ne
  Ne165    1.0000 0.88804  0.68435  0.45275  Biso   1.000  Ne
  He165    1.0000 0.90590  0.71270  0.45213  Biso   1.000  He
  He166    1.0000 0.92512  0.71677  0.42535  Biso   1.000  He
  Ne166    1.0000 0.95822  0.71342  0.43341  Biso   1.000  Ne
  Ne167    1.0000 0.88365  0.16830  0.06198  Biso   1.000  Ne
  He167    1.0000 0.86148  0.18720  0.07802  Biso   1.000  He
  He168    1.0000 0.83023  0.17788  0.07850  Biso   1.000  He
  Ne168    1.0000 0.80991  0.19662  0.09612  Biso   1.000  Ne
  Ne169    1.0000 0.45136  0.80910  0.41752  Biso   1.000  Ne
  He169    1.0000 0.44385  0.79495  0.44656  Biso   1.000  He
  He170    1.0000 0.41173  0.78230  0.44653  Biso   1.000  He
  Ne170    1.0000 0.40710  0.76111  0.47606  Biso   1.000  Ne
  Ne171    1.0000 0.64417  0.14611  0.41493  Biso   1.000  Ne
  He171    1.0000 0.66816  0.16183  0.39958  Biso   1.000  He
  He172    1.0000 0.69458  0.16303  0.41986  Biso   1.000  He
  Ne172    1.0000 0.71963  0.18539  0.41269  Biso   1.000  Ne
  Ne173    1.0000 0.16663  0.11190  0.11893  Biso   1.000  Ne
  He173    1.0000 0.15878  0.08146  0.10789  Biso   1.000  He
  He174    1.0000 0.12796  0.07245  0.10701  Biso   1.000  He
  Ne174    1.0000 0.12323  0.04238  0.09486  Biso   1.000  Ne
  Ne175    1.0000 0.61318  0.92526  0.55450  Biso   1.000  Ne
  He175    1.0000 0.62102  0.91293  0.58470  Biso   1.000  He
  He176    1.0000 0.59618  0.92098  0.60664  Biso   1.000  He
  Ne176    1.0000 0.59946  0.90716  0.63615  Biso   1.000  Ne
  Ne177    1.0000 0.31024  0.59035  0.11089  Biso   1.000  Ne
  He177    1.0000 0.33446  0.58060  0.09173  Biso   1.000  He
  He178    1.0000 0.36496  0.58651  0.09964  Biso   1.000  He
  Ne178    1.0000 0.38934  0.57472  0.08044  Biso   1.000  Ne
  Ne179    1.0000 0.61495  0.09745  0.36801  Biso   1.000  Ne
  He179    1.0000 0.61314  0.07225  0.38782  Biso   1.000  He
  He180    1.0000 0.58393  0.06792  0.40222  Biso   1.000  He
  Ne180    1.0000 0.57447  0.08424  0.43163  Biso   1.000  Ne
  Ne181    1.0000 0.66719  0.05809  0.62326  Biso   1.000  Ne
  He181    1.0000 0.69073  0.08243  0.62762  Biso   1.000  He
  He182    1.0000 0.71540  0.07319  0.65054  Biso   1.000  He
  Ne182    1.0000 0.74063  0.09304  0.65604  Biso   1.000  Ne
  Ne183    1.0000 0.86364  0.16965  0.90054  Biso   1.000  Ne
  He183    1.0000 0.84952  0.14189  0.89144  Biso   1.000  He
  He184    1.0000 0.85289  0.11735  0.91442  Biso   1.000  He
  Ne184    1.0000 0.83324  0.08970  0.90981  Biso   1.000  Ne
  Ne185    1.0000 0.82196  0.15489  0.38298  Biso   1.000  Ne
  He185    1.0000 0.83342  0.15323  0.34918  Biso   1.000  He
  He186    1.0000 0.80920  0.14514  0.32570  Biso   1.000  He
  Ne186    1.0000 0.81991  0.14915  0.29559  Biso   1.000  Ne
  Ne187    1.0000 0.86434  0.89929  0.88699  Biso   1.000  Ne
  He187    1.0000 0.86413  0.91403  0.85547  Biso   1.000  He
  He188    1.0000 0.83560  0.90498  0.83818  Biso   1.000  He
  Ne188    1.0000 0.83077  0.92143  0.81257  Biso   1.000  Ne
  Ne189    1.0000 0.95423  0.37887  0.62517  Biso   1.000  Ne
  He189    1.0000 0.94750  0.34536  0.63570  Biso   1.000  He
  He190    1.0000 0.93832  0.32392  0.61035  Biso   1.000  He
  Ne190    1.0000 0.93887  0.29324  0.62162  Biso   1.000  Ne
  Ne191    1.0000 0.93745  0.90152  0.82913  Biso   1.000  Ne
  He191    1.0000 0.95541  0.87646  0.84702  Biso   1.000  He
  He192    1.0000 0.94230  0.84512  0.84921  Biso   1.000  He
  Ne192    1.0000 0.96550  0.82240  0.85750  Biso   1.000  Ne
  Ne193    1.0000 0.19729  0.97830  0.37962  Biso   1.000  Ne
  He193    1.0000 0.20651  0.99747  0.35564  Biso   1.000  He
  He194    1.0000 0.18214  0.01212  0.33870  Biso   1.000  He
  Ne194    1.0000 0.19526  0.02255  0.30661  Biso   1.000  Ne
  Ne195    1.0000 0.51733  0.50983  0.93448  Biso   1.000  Ne
  He195    1.0000 0.51250  0.53570  0.95471  Biso   1.000  He
  He196    1.0000 0.53112  0.53522  0.98208  Biso   1.000  He
  Ne196    1.0000 0.52713  0.56155  0.00230  Biso   1.000  Ne
  Ne197    1.0000 0.10669  0.90546  0.17616  Biso   1.000  Ne
  He197    1.0000 0.13098  0.90399  0.19731  Biso   1.000  He
  He198    1.0000 0.12169  0.89335  0.22810  Biso   1.000  He
  Ne198    1.0000 0.14552  0.88773  0.25002  Biso   1.000  Ne
  Ne199    1.0000 0.36614  0.06468  0.36711  Biso   1.000  Ne
  He199    1.0000 0.39593  0.07956  0.37089  Biso   1.000  He
  He200    1.0000 0.41028  0.07232  0.40056  Biso   1.000  He
  Ne200    1.0000 0.44069  0.08237  0.40613  Biso   1.000  Ne
  Ne201    1.0000 0.96171  0.63494  0.61753  Biso   1.000  Ne
  He201    1.0000 0.97298  0.62643  0.64811  Biso   1.000  He
  He202    1.0000 0.96545  0.59704  0.65877  Biso   1.000  He
  Ne202    1.0000 0.97490  0.58737  0.68848  Biso   1.000  Ne
  Ne203    1.0000 0.52896  0.96099  0.53724  Biso   1.000  Ne
  He203    1.0000 0.50553  0.94809  0.51911  Biso   1.000  He
  He204    1.0000 0.47516  0.95222  0.53219  Biso   1.000  He
  Ne204    1.0000 0.45066  0.93606  0.51962  Biso   1.000  Ne
  Ne205    1.0000 0.16431  0.30297  0.60235  Biso   1.000  Ne
  He205    1.0000 0.19511  0.30791  0.59738  Biso   1.000  He
  He206    1.0000 0.21098  0.31214  0.62489  Biso   1.000  He
  Ne206    1.0000 0.24212  0.31884  0.62096  Biso   1.000  Ne
  Ne207    1.0000 0.62350  0.43165  0.95210  Biso   1.000  Ne
  He207    1.0000 0.63428  0.40886  0.92998  Biso   1.000  He
  He208    1.0000 0.60865  0.39923  0.90891  Biso   1.000  He
  Ne208    1.0000 0.59997  0.36830  0.90974  Biso   1.000  Ne
  Ne209    1.0000 0.70369  0.24937  0.93867  Biso   1.000  Ne
  He209    1.0000 0.69093  0.27342  0.92060  Biso   1.000  He
  He210    1.0000 0.67288  0.28906  0.93793  Biso   1.000  He
  Ne210    1.0000 0.66034  0.31480  0.91944  Biso   1.000  Ne
  Ne211    1.0000 0.59227  0.12806  0.24713  Biso   1.000  Ne
  He211    1.0000 0.58258  0.10222  0.26407  Biso   1.000  He
  He212    1.0000 0.58564  0.07427  0.24347  Biso   1.000  He
  Ne212    1.0000 0.57042  0.04463  0.25152  Biso   1.000  Ne
  Ne213    1.0000 0.59930  0.56412  0.70065  Biso   1.000  Ne
  He213    1.0000 0.60143  0.53014  0.69517  Biso   1.000  He
  He214    1.0000 0.59164  0.51162  0.72026  Biso   1.000  He
  Ne214    1.0000 0.59701  0.47797  0.71743  Biso   1.000  Ne
  Ne215    1.0000 0.92810  0.18856  0.43544  Biso   1.000  Ne
  He215    1.0000 0.95072  0.20977  0.44791  Biso   1.000  He
  He216    1.0000 0.98221  0.19550  0.44519  Biso   1.000  He
  Ne216    1.0000 0.00367  0.21966  0.44997  Biso   1.000  Ne
  Ne217    1.0000 0.73050  0.60026  0.33987  Biso   1.000  Ne
  He217    1.0000 0.73107  0.59461  0.30769  Biso   1.000  He
  He218    1.0000 0.72399  0.61942  0.28753  Biso   1.000  He
  Ne218    1.0000 0.72539  0.61144  0.25452  Biso   1.000  Ne
  Ne219    1.0000 0.29086  0.29158  0.16994  Biso   1.000  Ne
  He219    1.0000 0.26930  0.31020  0.15432  Biso   1.000  He
  He220    1.0000 0.25489  0.33324  0.17676  Biso   1.000  He
  Ne220    1.0000 0.23216  0.35355  0.16385  Biso   1.000  Ne
  Ne221    1.0000 0.93093  0.19930  0.11486  Biso   1.000  Ne
  He221    1.0000 0.93698  0.22165  0.08893  Biso   1.000  He
  He222    1.0000 0.93066  0.25190  0.09781  Biso   1.000  He
  Ne222    1.0000 0.93199  0.28015  0.07492  Biso   1.000  Ne
  Ne223    1.0000 0.39059  0.91060  0.44533  Biso   1.000  Ne
  He223    1.0000 0.41253  0.89898  0.42437  Biso   1.000  He
  He224    1.0000 0.44239  0.91298  0.42926  Biso   1.000  He
  Ne224    1.0000 0.46770  0.90309  0.40842  Biso   1.000  Ne
  Ne225    1.0000 0.75414  0.91390  0.41032  Biso   1.000  Ne
  He225    1.0000 0.77831  0.92898  0.39563  Biso   1.000  He
  He226    1.0000 0.80258  0.90897  0.38600  Biso   1.000  He
  Ne226    1.0000 0.82496  0.92607  0.36817  Biso   1.000  Ne
  Ne227    1.0000 0.60384  0.43699  0.05941  Biso   1.000  Ne
  He227    1.0000 0.58605  0.41653  0.08154  Biso   1.000  He
  He228    1.0000 0.60365  0.39250  0.09514  Biso   1.000  He
  Ne228    1.0000 0.58920  0.37244  0.11829  Biso   1.000  Ne
  Ne229    1.0000 0.21297  0.67843  0.62199  Biso   1.000  Ne
  He229    1.0000 0.19470  0.70094  0.60279  Biso   1.000  He
  He230    1.0000 0.19730  0.73275  0.61128  Biso   1.000  He
  Ne230    1.0000 0.18729  0.75320  0.58946  Biso   1.000  Ne
  Ne231    1.0000 0.96142  0.66584  0.37250  Biso   1.000  Ne
  He231    1.0000 0.94630  0.64568  0.39577  Biso   1.000  He
  He232    1.0000 0.95432  0.61335  0.39405  Biso   1.000  He
  Ne232    1.0000 0.94100  0.59631  0.41832  Biso   1.000  Ne
  Ne233    1.0000 0.09222  0.20823  0.09548  Biso   1.000  Ne
  He233    1.0000 0.09967  0.19658  0.12524  Biso   1.000  He
  He234    1.0000 0.08742  0.16514  0.12956  Biso   1.000  He
  Ne234    1.0000 0.09300  0.15252  0.15990  Biso   1.000  Ne
  Ne235    1.0000 0.68247  0.36325  0.08581  Biso   1.000  Ne
  He235    1.0000 0.71066  0.37414  0.09327  Biso   1.000  He
  He236    1.0000 0.71683  0.40563  0.08775  Biso   1.000  He
  Ne236    1.0000 0.74911  0.41302  0.09391  Biso   1.000  Ne
  Ne237    1.0000 0.55167  0.01111  0.43745  Biso   1.000  Ne
  He237    1.0000 0.52006  0.00024  0.44261  Biso   1.000  He
  He238    1.0000 0.49639  0.02202  0.43298  Biso   1.000  He
  Ne238    1.0000 0.46609  0.00966  0.44040  Biso   1.000  Ne
  Ne239    1.0000 0.19184  0.73492  0.93163  Biso   1.000  Ne
  He239    1.0000 0.18644  0.73738  0.89831  Biso   1.000  He
  He240    1.0000 0.20771  0.75649  0.88659  Biso   1.000  He
  Ne240    1.0000 0.19965  0.76676  0.85709  Biso   1.000  Ne
  Ne241    1.0000 0.04911  0.42713  0.42864  Biso   1.000  Ne
  He241    1.0000 0.02617  0.45078  0.43324  Biso   1.000  He
  He242    1.0000 0.01005  0.44805  0.46315  Biso   1.000  He
  Ne242    1.0000 0.98792  0.47271  0.47217  Biso   1.000  Ne
  Ne243    1.0000 0.34556  0.38899  0.29746  Biso   1.000  Ne
  He243    1.0000 0.31933  0.38423  0.28126  Biso   1.000  He
  He244    1.0000 0.32465  0.38720  0.24878  Biso   1.000  He
  Ne244    1.0000 0.29852  0.38244  0.22836  Biso   1.000  Ne
  Ne245    1.0000 0.61465  0.52813  0.07186  Biso   1.000  Ne
  He245    1.0000 0.60024  0.55578  0.08143  Biso   1.000  He
  He246    1.0000 0.62301  0.57854  0.09059  Biso   1.000  He
  Ne246    1.0000 0.61266  0.60815  0.10850  Biso   1.000  Ne
  Ne247    1.0000 0.27738  0.79210  0.10444  Biso   1.000  Ne
  He247    1.0000 0.28793  0.81196  0.07883  Biso   1.000  He
  He248    1.0000 0.31951  0.82134  0.08289  Biso   1.000  He
  Ne248    1.0000 0.33289  0.83874  0.06004  Biso   1.000  Ne
  Ne249    1.0000 0.90787  0.76075  0.10761  Biso   1.000  Ne
  He249    1.0000 0.92276  0.79051  0.09915  Biso   1.000  He
  He250    1.0000 0.94743  0.80118  0.12060  Biso   1.000  He
  Ne250    1.0000 0.96149  0.83220  0.11188  Biso   1.000  Ne
  Ne251    1.0000 0.41186  0.35052  0.73576  Biso   1.000  Ne
  He251    1.0000 0.42822  0.32923  0.75647  Biso   1.000  He
  He252    1.0000 0.45418  0.33823  0.77687  Biso   1.000  He
  Ne252    1.0000 0.44608  0.34867  0.80751  Biso   1.000  Ne
  Ne253    1.0000 0.23184  0.19907  0.27617  Biso   1.000  Ne
  He253    1.0000 0.23264  0.17111  0.28927  Biso   1.000  He
  He254    1.0000 0.23603  0.14469  0.27161  Biso   1.000  He
  Ne254    1.0000 0.23003  0.11661  0.28793  Biso   1.000  Ne
  Ne255    1.0000 0.72818  0.09196  0.24846  Biso   1.000  Ne
  He255    1.0000 0.70136  0.07694  0.25681  Biso   1.000  He
  He256    1.0000 0.68713  0.08931  0.28450  Biso   1.000  He
  Ne256    1.0000 0.65732  0.07678  0.28942  Biso   1.000  Ne
  Ne257    1.0000 0.78587  0.06799  0.17407  Biso   1.000  Ne
  He257    1.0000 0.75496  0.05832  0.18092  Biso   1.000  He
  He258    1.0000 0.73937  0.04297  0.15620  Biso   1.000  He
  Ne258    1.0000 0.70807  0.03308  0.16304  Biso   1.000  Ne
  Ne259    1.0000 0.09886  0.96461  0.06886  Biso   1.000  Ne
  He259    1.0000 0.06937  0.95584  0.06327  Biso   1.000  He
  He260    1.0000 0.06432  0.92352  0.06263  Biso   1.000  He
  Ne260    1.0000 0.03589  0.91435  0.04882  Biso   1.000  Ne
  Ne261    1.0000 0.44750  0.57852  0.82056  Biso   1.000  Ne
  He261    1.0000 0.44396  0.60271  0.84333  Biso   1.000  He
  He262    1.0000 0.46259  0.62815  0.83832  Biso   1.000  He
  Ne262    1.0000 0.45746  0.65017  0.86385  Biso   1.000  Ne
  Ne263    1.0000 0.38714  0.14064  0.44470  Biso   1.000  Ne
  He263    1.0000 0.35226  0.13707  0.44189  Biso   1.000  He
  He264    1.0000 0.33906  0.15901  0.41917  Biso   1.000  He
  Ne264    1.0000 0.30721  0.15467  0.41457  Biso   1.000  Ne
  Ne265    1.0000 0.84444  0.74860  0.59727  Biso   1.000  Ne
  He265    1.0000 0.87251  0.73999  0.61306  Biso   1.000  He
  He266    1.0000 0.87389  0.70982  0.62050  Biso   1.000  He
  Ne266    1.0000 0.89752  0.70386  0.64077  Biso   1.000  Ne
  Ne267    1.0000 0.91059  0.07722  0.87256  Biso   1.000  Ne
  He267    1.0000 0.92642  0.07106  0.89977  Biso   1.000  He
  He268    1.0000 0.95607  0.05911  0.89381  Biso   1.000  He
  Ne268    1.0000 0.97592  0.05586  0.91952  Biso   1.000  Ne
  Ne269    1.0000 0.08399  0.25936  0.82193  Biso   1.000  Ne
  He269    1.0000 0.10103  0.28224  0.80587  Biso   1.000  He
  He270    1.0000 0.11311  0.27049  0.77835  Biso   1.000  He
  Ne270    1.0000 0.13198  0.29582  0.76265  Biso   1.000  Ne
  Ne271    1.0000 0.93795  0.93958  0.05562  Biso   1.000  Ne
  He271    1.0000 0.96426  0.95449  0.06933  Biso   1.000  He
  He272    1.0000 0.95938  0.98454  0.08160  Biso   1.000  He
  Ne272    1.0000 0.98588  0.00015  0.09508  Biso   1.000  Ne
  Ne273    1.0000 0.09703  0.56133  0.38311  Biso   1.000  Ne
  He273    1.0000 0.10741  0.58792  0.36772  Biso   1.000  He
  He274    1.0000 0.11517  0.58078  0.33534  Biso   1.000  He
  Ne274    1.0000 0.12646  0.60735  0.31886  Biso   1.000  Ne
  Ne275    1.0000 0.94828  0.13957  0.80182  Biso   1.000  Ne
  He275    1.0000 0.92475  0.15311  0.81405  Biso   1.000  He
  He276    1.0000 0.90530  0.17027  0.79146  Biso   1.000  He
  Ne276    1.0000 0.87917  0.18617  0.80178  Biso   1.000  Ne
  Ne277    1.0000 0.17784  0.57984  0.58908  Biso   1.000  Ne
  He277    1.0000 0.18944  0.56812  0.61942  Biso   1.000  He
  He278    1.0000 0.16729  0.57015  0.64531  Biso   1.000  He
  Ne278    1.0000 0.17733  0.55672  0.67498  Biso   1.000  Ne
  Ne279    1.0000 0.28864  0.36615  0.75042  Biso   1.000  Ne
  He279    1.0000 0.25523  0.36707  0.75622  Biso   1.000  He
  He280    1.0000 0.23878  0.39366  0.74172  Biso   1.000  He
  Ne280    1.0000 0.21190  0.40393  0.75700  Biso   1.000  Ne
  Ne281    1.0000 0.41731  0.18853  0.37522  Biso   1.000  Ne
  He281    1.0000 0.44427  0.20347  0.38172  Biso   1.000  He
  He282    1.0000 0.44611  0.21308  0.41343  Biso   1.000  He
  Ne282    1.0000 0.47106  0.23231  0.42150  Biso   1.000  Ne
  Ne283    1.0000 0.78575  0.55370  0.14566  Biso   1.000  Ne
  He283    1.0000 0.79758  0.54217  0.17589  Biso   1.000  He
  He284    1.0000 0.78597  0.55857  0.20304  Biso   1.000  He
  Ne284    1.0000 0.80166  0.54859  0.23234  Biso   1.000  Ne
  Ne285    1.0000 0.18101  0.25927  0.06663  Biso   1.000  Ne
  He285    1.0000 0.19451  0.28451  0.04872  Biso   1.000  He
  He286    1.0000 0.21233  0.30809  0.06667  Biso   1.000  He
  Ne286    1.0000 0.24392  0.29874  0.07129  Biso   1.000  Ne
  Ne287    1.0000 0.18279  0.13988  0.94309  Biso   1.000  Ne
  He287    1.0000 0.15868  0.15998  0.93536  Biso   1.000  He
  He288    1.0000 0.12992  0.14921  0.94498  Biso   1.000  He
  Ne288    1.0000 0.10275  0.16848  0.93545  Biso   1.000  Ne
  Ne289    1.0000 0.60698  0.74181  0.47032  Biso   1.000  Ne
  He289    1.0000 0.62468  0.75494  0.44380  Biso   1.000  He
  He290    1.0000 0.61871  0.78647  0.43870  Biso   1.000  He
  Ne290    1.0000 0.63097  0.79714  0.40723  Biso   1.000  Ne
  Ne291    1.0000 0.08244  0.95288  0.95597  Biso   1.000  Ne
  He291    1.0000 0.11042  0.93673  0.94726  Biso   1.000  He
  He292    1.0000 0.13650  0.94841  0.96288  Biso   1.000  He
  Ne292    1.0000 0.16377  0.93289  0.95357  Biso   1.000  Ne
  Ne293    1.0000 0.29906  0.70703  0.21153  Biso   1.000  Ne
  He293    1.0000 0.30613  0.70193  0.18013  Biso   1.000  He
  He294    1.0000 0.28016  0.69809  0.15688  Biso   1.000  He
  Ne294    1.0000 0.29170  0.69477  0.12386  Biso   1.000  Ne
  Ne295    1.0000 0.14980  0.06458  0.95900  Biso   1.000  Ne
  He295    1.0000 0.13231  0.06940  0.92994  Biso   1.000  He
  He296    1.0000 0.10255  0.05264  0.93195  Biso   1.000  He
  Ne296    1.0000 0.08576  0.04908  0.90492  Biso   1.000  Ne
  Ne297    1.0000 0.20845  0.92385  0.10889  Biso   1.000  Ne
  He297    1.0000 0.17739  0.92321  0.10057  Biso   1.000  He
  He298    1.0000 0.16178  0.89386  0.10665  Biso   1.000  He
  Ne298    1.0000 0.12707  0.89537  0.10740  Biso   1.000  Ne
  Ne299    1.0000 0.11727  0.52591  0.58699  Biso   1.000  Ne
  He299    1.0000 0.09719  0.54560  0.57089  Biso   1.000  He
  He300    1.0000 0.06522  0.54053  0.57943  Biso   1.000  He
  Ne300    1.0000 0.04365  0.55906  0.55901  Biso   1.000  Ne
  Ne301    1.0000 0.02610  0.41269  0.56191  Biso   1.000  Ne
  He301    1.0000 0.00815  0.43207  0.58208  Biso   1.000  He
  He302    1.0000 0.01313  0.46425  0.57407  Biso   1.000  He
  Ne302    1.0000 0.00320  0.48508  0.59934  Biso   1.000  Ne
  Ne303    1.0000 0.44626  0.53347  0.03312  Biso   1.000  Ne
  He303    1.0000 0.44358  0.49867  0.03584  Biso   1.000  He
  He304    1.0000 0.45112  0.48497  0.00777  Biso   1.000  He
  Ne304    1.0000 0.45104  0.45020  0.00643  Biso   1.000  Ne
  Ne305    1.0000 0.49339  0.73853  0.92275  Biso   1.000  Ne
  He305    1.0000 0.47069  0.71664  0.91262  Biso   1.000  He
  He306    1.0000 0.43919  0.72549  0.92132  Biso   1.000  He
  Ne306    1.0000 0.41271  0.70601  0.91105  Biso   1.000  Ne
  Ne307    1.0000 0.37461  0.74973  0.61447  Biso   1.000  Ne
  He307    1.0000 0.34560  0.73794  0.60545  Biso   1.000  He
  He308    1.0000 0.32017  0.75001  0.62213  Biso   1.000  He
  Ne308    1.0000 0.30517  0.72757  0.64194  Biso   1.000  Ne
  Ne309    1.0000 0.65951  0.91577  0.37946  Biso   1.000  Ne
  He309    1.0000 0.63403  0.91231  0.35768  Biso   1.000  He
  He310    1.0000 0.64292  0.91754  0.32488  Biso   1.000  He
  Ne310    1.0000 0.61748  0.92043  0.30473  Biso   1.000  Ne
  Ne311    1.0000 0.45605  0.43832  0.11383  Biso   1.000  Ne
  He311    1.0000 0.45164  0.42122  0.08719  Biso   1.000  He
  He312    1.0000 0.47401  0.40148  0.07935  Biso   1.000  He
  Ne312    1.0000 0.46705  0.38316  0.05140  Biso   1.000  Ne
  Ne313    1.0000 0.46659  0.22227  0.59343  Biso   1.000  Ne
  He313    1.0000 0.45371  0.19356  0.58339  Biso   1.000  He
  He314    1.0000 0.46189  0.16567  0.59930  Biso   1.000  He
  Ne314    1.0000 0.44753  0.13813  0.58634  Biso   1.000  Ne
  Ne315    1.0000 0.67936  0.87498  0.66930  Biso   1.000  Ne
  He315    1.0000 0.71103  0.87360  0.65724  Biso   1.000  He
  He316    1.0000 0.72134  0.90631  0.65050  Biso   1.000  He
  Ne316    1.0000 0.75261  0.90899  0.63777  Biso   1.000  Ne
  Ne317    1.0000 0.58246  0.02535  0.60622  Biso   1.000  Ne
  He317    1.0000 0.57951  0.03053  0.57352  Biso   1.000  He
  He318    1.0000 0.60641  0.04211  0.55604  Biso   1.000  He
  Ne318    1.0000 0.59763  0.04537  0.52351  Biso   1.000  Ne
  Ne319    1.0000 0.95163  0.30334  0.40777  Biso   1.000  Ne
  He319    1.0000 0.91813  0.30558  0.40537  Biso   1.000  He
  He320    1.0000 0.90257  0.32274  0.42791  Biso   1.000  He
  Ne320    1.0000 0.87296  0.32370  0.42026  Biso   1.000  Ne
  Ne321    1.0000 0.43870  0.23899  0.10774  Biso   1.000  Ne
  He321    1.0000 0.42081  0.26653  0.10696  Biso   1.000  He
  He322    1.0000 0.44101  0.29166  0.09264  Biso   1.000  He
  Ne322    1.0000 0.42779  0.32254  0.09011  Biso   1.000  Ne
  Ne323    1.0000 0.13693  0.80477  0.16219  Biso   1.000  Ne
  He323    1.0000 0.16820  0.80245  0.15249  Biso   1.000  He
  He324    1.0000 0.17432  0.81538  0.12139  Biso   1.000  He
  Ne324    1.0000 0.20540  0.81888  0.11328  Biso   1.000  Ne
  Ne325    1.0000 0.25476  0.39654  0.65169  Biso   1.000  Ne
  He325    1.0000 0.24946  0.40399  0.61905  Biso   1.000  He
  He326    1.0000 0.21845  0.39823  0.60842  Biso   1.000  He
  Ne326    1.0000 0.21239  0.40970  0.57660  Biso   1.000  Ne
  Ne327    1.0000 0.33932  0.14322  0.89421  Biso   1.000  Ne
  He327    1.0000 0.32140  0.11926  0.90609  Biso   1.000  He
  He328    1.0000 0.29047  0.11619  0.89762  Biso   1.000  He
  Ne328    1.0000 0.27287  0.09519  0.91497  Biso   1.000  Ne
  Ne329    1.0000 0.81429  0.35692  0.08534  Biso   1.000  Ne
  He329    1.0000 0.82529  0.34386  0.05713  Biso   1.000  He
  He330    1.0000 0.85557  0.33093  0.05645  Biso   1.000  He
  Ne330    1.0000 0.86231  0.31321  0.02756  Biso   1.000  Ne
  Ne331    1.0000 0.24938  0.40633  0.84361  Biso   1.000  Ne
  He331    1.0000 0.28337  0.41136  0.84350  Biso   1.000  He
  He332    1.0000 0.30086  0.38484  0.85398  Biso   1.000  He
  Ne332    1.0000 0.33384  0.38821  0.84714  Biso   1.000  Ne
  Ne333    1.0000 0.80705  0.69791  0.25728  Biso   1.000  Ne
  He333    1.0000 0.82448  0.70785  0.28089  Biso   1.000  He
  He334    1.0000 0.81429  0.70120  0.31116  Biso   1.000  He
  Ne334    1.0000 0.83033  0.71305  0.33825  Biso   1.000  Ne
  Ne335    1.0000 0.11151  0.85429  0.94881  Biso   1.000  Ne
  He335    1.0000 0.13971  0.85286  0.92671  Biso   1.000  He
  He336    1.0000 0.16167  0.82988  0.93637  Biso   1.000  He
  Ne336    1.0000 0.19182  0.83235  0.91937  Biso   1.000  Ne
  Ne337    1.0000 0.53708  0.19425  0.13741  Biso   1.000  Ne
  He337    1.0000 0.55834  0.19108  0.16256  Biso   1.000  He
  He338    1.0000 0.58505  0.17442  0.15449  Biso   1.000  He
  Ne338    1.0000 0.60567  0.17308  0.18056  Biso   1.000  Ne
  Ne339    1.0000 0.09769  0.47100  0.48612  Biso   1.000  Ne
  He339    1.0000 0.12098  0.46792  0.46322  Biso   1.000  He
  He340    1.0000 0.13096  0.43544  0.45863  Biso   1.000  He
  Ne340    1.0000 0.15554  0.43548  0.43410  Biso   1.000  Ne
