data_image0
_cell_length_a       46.964
_cell_length_b       46.481
_cell_length_c       46.4381
_cell_angle_alpha    90
_cell_angle_beta     90
_cell_angle_gamma    90

_symmetry_space_group_name_H-M    "P 1"
_symmetry_int_tables_number       1

loop_
  _symmetry_equiv_pos_as_xyz
  'x, y, z'

loop_
  _atom_site_label
  _atom_site_occupancy
  _atom_site_fract_x
  _atom_site_fract_y
  _atom_site_fract_z
  _atom_site_thermal_displace_type
  _atom_site_B_iso_or_equiv
  _atom_site_type_symbol
  Ne1      1.0000 0.94773  0.79270  0.83568  Biso   1.000  Ne
  He1      1.0000 0.93088  0.79810  0.86364  Biso   1.000  He
  He2      1.0000 0.93100  0.77209  0.88335  Biso   1.000  He
  Ne2      1.0000 0.91526  0.77340  0.91143  Biso   1.000  Ne
  Ne3      1.0000 0.43250  0.39345  0.16352  Biso   1.000  Ne
  He3      1.0000 0.41224  0.37964  0.13685  Biso   1.000  He
  He4      1.0000 0.42702  0.35852  0.11494  Biso   1.000  He
  Ne4      1.0000 0.40980  0.35373  0.08809  Biso   1.000  Ne
  Ne5      1.0000 0.42545  0.30805  0.28558  Biso   1.000  Ne
  He5      1.0000 0.44141  0.33849  0.28330  Biso   1.000  He
  He6      1.0000 0.42090  0.36151  0.27167  Biso   1.000  He
  Ne6      1.0000 0.43479  0.39118  0.26424  Biso   1.000  Ne
  Ne7      1.0000 0.69632  0.39097  0.15575  Biso   1.000  Ne
  He7      1.0000 0.68537  0.37259  0.17823  Biso   1.000  He
  He8      1.0000 0.67401  0.34314  0.16602  Biso   1.000  He
  Ne8      1.0000 0.66388  0.31929  0.18739  Biso   1.000  Ne
  Ne9      1.0000 0.39562  0.61101  0.97060  Biso   1.000  Ne
  He9      1.0000 0.38273  0.63907  0.95547  Biso   1.000  He
  He10     1.0000 0.40598  0.65336  0.94016  Biso   1.000  He
  Ne10     1.0000 0.39894  0.68378  0.92516  Biso   1.000  Ne
  Ne11     1.0000 0.84355  0.61370  0.44486  Biso   1.000  Ne
  He11     1.0000 0.84778  0.59061  0.42012  Biso   1.000  He
  He12     1.0000 0.81932  0.58169  0.40467  Biso   1.000  He
  Ne12     1.0000 0.82733  0.55910  0.38213  Biso   1.000  Ne
  Ne13     1.0000 0.91656  0.52422  0.58333  Biso   1.000  Ne
  He13     1.0000 0.94033  0.54061  0.56393  Biso   1.000  He
  He14     1.0000 0.96720  0.54293  0.57954  Biso   1.000  He
  Ne14     1.0000 0.98991  0.56045  0.56237  Biso   1.000  Ne
  Ne15     1.0000 0.55203  0.71700  0.83674  Biso   1.000  Ne
  He15     1.0000 0.56937  0.68642  0.83790  Biso   1.000  He
  He16     1.0000 0.60235  0.68998  0.84484  Biso   1.000  He
  Ne16     1.0000 0.61311  0.65893  0.85065  Biso   1.000  Ne
  Ne17     1.0000 0.45367  0.45013  0.10383  Biso   1.000  Ne
  He17     1.0000 0.45430  0.43138  0.07552  Biso   1.000  He
  He18     1.0000 0.42733  0.42940  0.05734  Biso   1.000  He
  Ne18     1.0000 0.43187  0.40970  0.02970  Biso   1.000  Ne
  Ne19     1.0000 0.38144  0.26600  0.93483  Biso   1.000  Ne
  He19     1.0000 0.36789  0.27466  0.90553  Biso   1.000  He
  He20     1.0000 0.34454  0.29679  0.90377  Biso   1.000  He
  Ne20     1.0000 0.31393  0.28987  0.90478  Biso   1.000  Ne
  Ne21     1.0000 0.06193  0.39861  0.76019  Biso   1.000  Ne
  He21     1.0000 0.05271  0.39917  0.72893  Biso   1.000  He
  He22     1.0000 0.07896  0.40772  0.70783  Biso   1.000  He
  Ne22     1.0000 0.07190  0.41408  0.67444  Biso   1.000  Ne
  Ne23     1.0000 0.80659  0.36814  0.58563  Biso   1.000  Ne
  He23     1.0000 0.82366  0.39438  0.60253  Biso   1.000  He
  He24     1.0000 0.83897  0.38655  0.63082  Biso   1.000  He
  Ne24     1.0000 0.86038  0.41269  0.64096  Biso   1.000  Ne
  Ne25     1.0000 0.81407  0.09020  0.50946  Biso   1.000  Ne
  He25     1.0000 0.79489  0.11368  0.49687  Biso   1.000  He
  He26     1.0000 0.79639  0.11305  0.46374  Biso   1.000  He
  Ne26     1.0000 0.78184  0.13805  0.44760  Biso   1.000  Ne
  Ne27     1.0000 0.60117  0.42632  0.93157  Biso   1.000  Ne
  He27     1.0000 0.59267  0.39638  0.93163  Biso   1.000  He
  He28     1.0000 0.56034  0.39091  0.92641  Biso   1.000  He
  Ne28     1.0000 0.55491  0.35679  0.92454  Biso   1.000  Ne
  Ne29     1.0000 0.72875  0.90077  0.58893  Biso   1.000  Ne
  He29     1.0000 0.71630  0.91251  0.61621  Biso   1.000  He
  He30     1.0000 0.69134  0.89488  0.62793  Biso   1.000  He
  Ne30     1.0000 0.67709  0.90805  0.65587  Biso   1.000  Ne
  Ne31     1.0000 0.68917  0.39984  0.71806  Biso   1.000  Ne
  He31     1.0000 0.71811  0.39194  0.72344  Biso   1.000  He
  He32     1.0000 0.73767  0.39342  0.69900  Biso   1.000  He
  Ne32     1.0000 0.76895  0.38978  0.70454  Biso   1.000  Ne
  Ne33     1.0000 0.58507  0.70587  0.92630  Biso   1.000  Ne
  He33     1.0000 0.58315  0.67393  0.93064  Biso   1.000  He
  He34     1.0000 0.55698  0.65866  0.91935  Biso   1.000  He
  Ne34     1.0000 0.55219  0.62525  0.92880  Biso   1.000  Ne
  Ne35     1.0000 0.94144  0.55469  0.47320  Biso   1.000  Ne
  He35     1.0000 0.92317  0.56467  0.44798  Biso   1.000  He
  He36     1.0000 0.90339  0.54075  0.43850  Biso   1.000  He
  Ne36     1.0000 0.91339  0.52522  0.41115  Biso   1.000  Ne
  Ne37     1.0000 0.93347  0.88594  0.27960  Biso   1.000  Ne
  He37     1.0000 0.94453  0.90768  0.29765  Biso   1.000  He
  He38     1.0000 0.97274  0.92164  0.28596  Biso   1.000  He
  Ne38     1.0000 0.98426  0.94520  0.30546  Biso   1.000  Ne
  Ne39     1.0000 0.90651  0.03864  0.09052  Biso   1.000  Ne
  He39     1.0000 0.93602  0.05025  0.08374  Biso   1.000  He
  He40     1.0000 0.94054  0.05390  0.05226  Biso   1.000  He
  Ne40     1.0000 0.97138  0.06465  0.04387  Biso   1.000  Ne
  Ne41     1.0000 0.07854  0.64704  0.40949  Biso   1.000  Ne
  He41     1.0000 0.10140  0.67079  0.39718  Biso   1.000  He
  He42     1.0000 0.08937  0.69982  0.39764  Biso   1.000  He
  Ne42     1.0000 0.10632  0.72837  0.38590  Biso   1.000  Ne
  Ne43     1.0000 0.82594  0.91265  0.88480  Biso   1.000  Ne
  He43     1.0000 0.81123  0.89665  0.91199  Biso   1.000  He
  He44     1.0000 0.77945  0.90083  0.91751  Biso   1.000  He
  Ne44     1.0000 0.76532  0.88396  0.94392  Biso   1.000  Ne
  Ne45     1.0000 0.93127  0.67486  0.67240  Biso   1.000  Ne
  He45     1.0000 0.93938  0.70163  0.69097  Biso   1.000  He
  He46     1.0000 0.94489  0.70007  0.72260  Biso   1.000  He
  Ne46     1.0000 0.95677  0.73001  0.73561  Biso   1.000  Ne
  Ne47     1.0000 0.60155  0.20993  0.13685  Biso   1.000  Ne
  He47     1.0000 0.59624  0.24164  0.12588  Biso   1.000  He
  He48     1.0000 0.58225  0.24457  0.09671  Biso   1.000  He
  Ne48     1.0000 0.57866  0.27476  0.08371  Biso   1.000  Ne
  Ne49     1.0000 0.17987  0.83281  0.93209  Biso   1.000  Ne
  He49     1.0000 0.15022  0.81580  0.94503  Biso   1.000  He
  He50     1.0000 0.12570  0.81908  0.92474  Biso   1.000  He
  Ne50     1.0000 0.09714  0.80407  0.93246  Biso   1.000  Ne
  Ne51     1.0000 0.86229  0.57964  0.61674  Biso   1.000  Ne
  He51     1.0000 0.83695  0.59025  0.63584  Biso   1.000  He
  He52     1.0000 0.80917  0.57706  0.62570  Biso   1.000  He
  Ne52     1.0000 0.78222  0.58848  0.64372  Biso   1.000  Ne
  Ne53     1.0000 0.67509  0.75574  0.31125  Biso   1.000  Ne
  He53     1.0000 0.68748  0.78523  0.32164  Biso   1.000  He
  He54     1.0000 0.70879  0.79730  0.29863  Biso   1.000  He
  Ne54     1.0000 0.72059  0.82810  0.30758  Biso   1.000  Ne
  Ne55     1.0000 0.19503  0.21295  0.09130  Biso   1.000  Ne
  He55     1.0000 0.16453  0.20757  0.10802  Biso   1.000  He
  He56     1.0000 0.14247  0.19204  0.09098  Biso   1.000  He
  Ne56     1.0000 0.11420  0.18740  0.10958  Biso   1.000  Ne
  Ne57     1.0000 0.57898  0.15871  0.62827  Biso   1.000  Ne
  He57     1.0000 0.57602  0.12605  0.61980  Biso   1.000  He
  He58     1.0000 0.59560  0.11237  0.59799  Biso   1.000  He
  Ne58     1.0000 0.62478  0.10019  0.60997  Biso   1.000  Ne
  Ne59     1.0000 0.87877  0.12115  0.18862  Biso   1.000  Ne
  He59     1.0000 0.87760  0.14937  0.16872  Biso   1.000  He
  He60     1.0000 0.90282  0.15452  0.14638  Biso   1.000  He
  Ne60     1.0000 0.90237  0.18338  0.13001  Biso   1.000  Ne
  Ne61     1.0000 0.08110  0.30969  0.68509  Biso   1.000  Ne
  He61     1.0000 0.08383  0.30569  0.71896  Biso   1.000  He
  He62     1.0000 0.06938  0.27883  0.72819  Biso   1.000  He
  Ne62     1.0000 0.06839  0.27600  0.76210  Biso   1.000  Ne
  Ne63     1.0000 0.86712  0.39802  0.71658  Biso   1.000  Ne
  He63     1.0000 0.85986  0.37953  0.74316  Biso   1.000  He
  He64     1.0000 0.83175  0.38953  0.75910  Biso   1.000  He
  Ne64     1.0000 0.82566  0.37302  0.78920  Biso   1.000  Ne
  Ne65     1.0000 0.57978  0.21085  0.42241  Biso   1.000  Ne
  He65     1.0000 0.60430  0.18908  0.41129  Biso   1.000  He
  He66     1.0000 0.61825  0.17235  0.43421  Biso   1.000  He
  Ne66     1.0000 0.64345  0.15428  0.42361  Biso   1.000  Ne
  Ne67     1.0000 0.09944  0.74159  0.87686  Biso   1.000  Ne
  He67     1.0000 0.11639  0.71916  0.85647  Biso   1.000  He
  He68     1.0000 0.13446  0.69513  0.87370  Biso   1.000  He
  Ne68     1.0000 0.15065  0.67369  0.85472  Biso   1.000  Ne
  Ne69     1.0000 0.90063  0.36045  0.27619  Biso   1.000  Ne
  He69     1.0000 0.89040  0.33184  0.29220  Biso   1.000  He
  He70     1.0000 0.86322  0.33910  0.30371  Biso   1.000  He
  Ne70     1.0000 0.85272  0.31203  0.32272  Biso   1.000  Ne
  Ne71     1.0000 0.58546  0.85678  0.59887  Biso   1.000  Ne
  He71     1.0000 0.59100  0.88940  0.59451  Biso   1.000  He
  He72     1.0000 0.59056  0.89904  0.56373  Biso   1.000  He
  Ne72     1.0000 0.59045  0.93288  0.56251  Biso   1.000  Ne
  Ne73     1.0000 0.20020  0.48126  0.10003  Biso   1.000  Ne
  He73     1.0000 0.20117  0.47981  0.06695  Biso   1.000  He
  He74     1.0000 0.22546  0.49628  0.04984  Biso   1.000  He
  Ne74     1.0000 0.22159  0.49279  0.01458  Biso   1.000  Ne
  Ne75     1.0000 0.64267  0.06016  0.40618  Biso   1.000  Ne
  He75     1.0000 0.62682  0.06405  0.37824  Biso   1.000  He
  He76     1.0000 0.61365  0.03685  0.36564  Biso   1.000  He
  Ne76     1.0000 0.60160  0.03694  0.33537  Biso   1.000  Ne
  Ne77     1.0000 0.08725  0.16024  0.80808  Biso   1.000  Ne
  He77     1.0000 0.09530  0.12626  0.80195  Biso   1.000  He
  He78     1.0000 0.06839  0.10894  0.79222  Biso   1.000  He
  Ne78     1.0000 0.07664  0.07631  0.78788  Biso   1.000  Ne
  Ne79     1.0000 0.77826  0.14897  0.09561  Biso   1.000  Ne
  He79     1.0000 0.79841  0.12744  0.08052  Biso   1.000  He
  He80     1.0000 0.81701  0.10603  0.10053  Biso   1.000  He
  Ne80     1.0000 0.82711  0.07818  0.08580  Biso   1.000  Ne
  Ne81     1.0000 0.30792  0.62441  0.95600  Biso   1.000  Ne
  He81     1.0000 0.27459  0.61444  0.94899  Biso   1.000  He
  He82     1.0000 0.27185  0.58199  0.94024  Biso   1.000  He
  Ne82     1.0000 0.26123  0.55982  0.96272  Biso   1.000  Ne
  Ne83     1.0000 0.58575  0.29502  0.20679  Biso   1.000  Ne
  He83     1.0000 0.58225  0.32058  0.22427  Biso   1.000  He
  He84     1.0000 0.59235  0.35118  0.21047  Biso   1.000  He
  Ne84     1.0000 0.58717  0.37649  0.22835  Biso   1.000  Ne
  Ne85     1.0000 0.60925  0.18427  0.72124  Biso   1.000  Ne
  He85     1.0000 0.58130  0.17491  0.74184  Biso   1.000  He
  He86     1.0000 0.58743  0.16029  0.76992  Biso   1.000  He
  Ne86     1.0000 0.56347  0.16338  0.79088  Biso   1.000  Ne
  Ne87     1.0000 0.07234  0.43267  0.47515  Biso   1.000  Ne
  He87     1.0000 0.08801  0.42342  0.44758  Biso   1.000  He
  He88     1.0000 0.06493  0.41836  0.42262  Biso   1.000  He
  Ne88     1.0000 0.07944  0.40663  0.39516  Biso   1.000  Ne
  Ne89     1.0000 0.60357  0.02693  0.56461  Biso   1.000  Ne
  He89     1.0000 0.57368  0.03979  0.56883  Biso   1.000  He
  He90     1.0000 0.55164  0.03730  0.54064  Biso   1.000  He
  Ne90     1.0000 0.52446  0.04594  0.55077  Biso   1.000  Ne
  Ne91     1.0000 0.41163  0.04679  0.28405  Biso   1.000  Ne
  He91     1.0000 0.40360  0.04219  0.31703  Biso   1.000  He
  He92     1.0000 0.41962  0.06414  0.33773  Biso   1.000  He
  Ne92     1.0000 0.41589  0.05957  0.36871  Biso   1.000  Ne
  Ne93     1.0000 0.60961  0.26736  0.87001  Biso   1.000  Ne
  He93     1.0000 0.60898  0.29067  0.89656  Biso   1.000  He
  He94     1.0000 0.63877  0.30763  0.89828  Biso   1.000  He
  Ne94     1.0000 0.64157  0.32958  0.92489  Biso   1.000  Ne
  Ne95     1.0000 0.95714  0.91109  0.90142  Biso   1.000  Ne
  He95     1.0000 0.93959  0.89481  0.92469  Biso   1.000  He
  He96     1.0000 0.91734  0.87727  0.91043  Biso   1.000  He
  Ne96     1.0000 0.90145  0.85893  0.93294  Biso   1.000  Ne
  Ne97     1.0000 0.00374  0.07689  0.71393  Biso   1.000  Ne
  He97     1.0000 0.03167  0.09153  0.72638  Biso   1.000  He
  He98     1.0000 0.05028  0.11049  0.70657  Biso   1.000  He
  Ne98     1.0000 0.07702  0.12460  0.72018  Biso   1.000  Ne
  Ne99     1.0000 0.39857  0.13103  0.27965  Biso   1.000  Ne
  He99     1.0000 0.40922  0.15627  0.25891  Biso   1.000  He
  He100    1.0000 0.38816  0.18140  0.25632  Biso   1.000  He
  Ne100    1.0000 0.39571  0.20664  0.23589  Biso   1.000  Ne
  Ne101    1.0000 0.86908  0.05585  0.94412  Biso   1.000  Ne
  He101    1.0000 0.90351  0.06006  0.94428  Biso   1.000  He
  He102    1.0000 0.91939  0.04702  0.91623  Biso   1.000  He
  Ne102    1.0000 0.95247  0.05521  0.91392  Biso   1.000  Ne
  Ne103    1.0000 0.42694  0.07717  0.71933  Biso   1.000  Ne
  He103    1.0000 0.43288  0.05648  0.69393  Biso   1.000  He
  He104    1.0000 0.43961  0.07303  0.66283  Biso   1.000  He
  Ne104    1.0000 0.44212  0.04990  0.63913  Biso   1.000  Ne
  Ne105    1.0000 0.12803  0.69328  0.66704  Biso   1.000  Ne
  He105    1.0000 0.11176  0.71322  0.68785  Biso   1.000  He
  He106    1.0000 0.12830  0.72240  0.71553  Biso   1.000  He
  Ne106    1.0000 0.11222  0.74747  0.73076  Biso   1.000  Ne
  Ne107    1.0000 0.39694  0.82135  0.70581  Biso   1.000  Ne
  He107    1.0000 0.38172  0.84775  0.68874  Biso   1.000  He
  He108    1.0000 0.38427  0.87840  0.69611  Biso   1.000  He
  Ne108    1.0000 0.36387  0.90002  0.68207  Biso   1.000  Ne
  Ne109    1.0000 0.42594  0.49856  0.73418  Biso   1.000  Ne
  He109    1.0000 0.42024  0.52848  0.74709  Biso   1.000  He
  He110    1.0000 0.39066  0.54431  0.74286  Biso   1.000  He
  Ne110    1.0000 0.36481  0.54711  0.76712  Biso   1.000  Ne
  Ne111    1.0000 0.91820  0.18588  0.80537  Biso   1.000  Ne
  He111    1.0000 0.88581  0.19261  0.81429  Biso   1.000  He
  He112    1.0000 0.87680  0.22374  0.82492  Biso   1.000  He
  Ne112    1.0000 0.84349  0.22568  0.83531  Biso   1.000  Ne
  Ne113    1.0000 0.80371  0.38881  0.24839  Biso   1.000  Ne
  He113    1.0000 0.80979  0.40578  0.22323  Biso   1.000  He
  He114    1.0000 0.78807  0.40331  0.20154  Biso   1.000  He
  Ne114    1.0000 0.79511  0.41677  0.17163  Biso   1.000  Ne
  Ne115    1.0000 0.84124  0.29902  0.16261  Biso   1.000  Ne
  He115    1.0000 0.81440  0.31606  0.17300  Biso   1.000  He
  He116    1.0000 0.78888  0.29669  0.18439  Biso   1.000  He
  Ne116    1.0000 0.76148  0.31218  0.19542  Biso   1.000  Ne
  Ne117    1.0000 0.57914  0.37636  0.10008  Biso   1.000  Ne
  He117    1.0000 0.61071  0.37623  0.09299  Biso   1.000  He
  He118    1.0000 0.62148  0.40523  0.07821  Biso   1.000  He
  Ne118    1.0000 0.65332  0.40641  0.06958  Biso   1.000  Ne
  Ne119    1.0000 0.43101  0.52701  0.10632  Biso   1.000  Ne
  He119    1.0000 0.44132  0.54105  0.07996  Biso   1.000  He
  He120    1.0000 0.47060  0.52586  0.06829  Biso   1.000  He
  Ne120    1.0000 0.48551  0.53953  0.04178  Biso   1.000  Ne
  Ne121    1.0000 0.89191  0.57304  0.28201  Biso   1.000  Ne
  He121    1.0000 0.90646  0.58984  0.30663  Biso   1.000  He
  He122    1.0000 0.89512  0.57912  0.33567  Biso   1.000  He
  Ne122    1.0000 0.90930  0.59607  0.36282  Biso   1.000  Ne
  Ne123    1.0000 0.16700  0.34885  0.66879  Biso   1.000  Ne
  He123    1.0000 0.19631  0.35187  0.68493  Biso   1.000  He
  He124    1.0000 0.21050  0.38122  0.68410  Biso   1.000  He
  Ne124    1.0000 0.24037  0.38194  0.69963  Biso   1.000  Ne
  Ne125    1.0000 0.33826  0.39235  0.09026  Biso   1.000  Ne
  He125    1.0000 0.31661  0.36744  0.09309  Biso   1.000  He
  He126    1.0000 0.32941  0.33933  0.08868  Biso   1.000  He
  Ne126    1.0000 0.30829  0.31383  0.09254  Biso   1.000  Ne
  Ne127    1.0000 0.86393  0.89356  0.08208  Biso   1.000  Ne
  He127    1.0000 0.88779  0.91585  0.07432  Biso   1.000  He
  He128    1.0000 0.91870  0.90813  0.08376  Biso   1.000  He
  Ne128    1.0000 0.94012  0.93137  0.08019  Biso   1.000  Ne
  Ne129    1.0000 0.42425  0.88215  0.43077  Biso   1.000  Ne
  He129    1.0000 0.42905  0.87594  0.46276  Biso   1.000  He
  He130    1.0000 0.45817  0.88992  0.47118  Biso   1.000  He
  Ne130    1.0000 0.46512  0.89215  0.50444  Biso   1.000  Ne
  Ne131    1.0000 0.91885  0.97415  0.95910  Biso   1.000  Ne
  He131    1.0000 0.93116  0.95396  0.98138  Biso   1.000  He
  He132    1.0000 0.96232  0.96022  0.99033  Biso   1.000  He
  Ne132    1.0000 0.97504  0.93719  0.01039  Biso   1.000  Ne
  Ne133    1.0000 0.70625  0.11174  0.07539  Biso   1.000  Ne
  He133    1.0000 0.68273  0.11736  0.09644  Biso   1.000  He
  He134    1.0000 0.69155  0.12289  0.12957  Biso   1.000  He
  Ne134    1.0000 0.66439  0.12214  0.14835  Biso   1.000  Ne
  Ne135    1.0000 0.05900  0.93113  0.08197  Biso   1.000  Ne
  He135    1.0000 0.06376  0.90058  0.09325  Biso   1.000  He
  He136    1.0000 0.05972  0.87839  0.06891  Biso   1.000  He
  Ne136    1.0000 0.06736  0.84784  0.07749  Biso   1.000  Ne
  Ne137    1.0000 0.22773  0.13403  0.58999  Biso   1.000  Ne
  He137    1.0000 0.23950  0.16388  0.59083  Biso   1.000  He
  He138    1.0000 0.21981  0.18676  0.60234  Biso   1.000  He
  Ne138    1.0000 0.22915  0.21686  0.59412  Biso   1.000  Ne
  Ne139    1.0000 0.17761  0.27681  0.61035  Biso   1.000  Ne
  He139    1.0000 0.15304  0.25194  0.60541  Biso   1.000  He
  He140    1.0000 0.12639  0.25517  0.62455  Biso   1.000  He
  Ne140    1.0000 0.10641  0.22826  0.62260  Biso   1.000  Ne
  Ne141    1.0000 0.80548  0.88435  0.12848  Biso   1.000  Ne
  He141    1.0000 0.78485  0.86260  0.11191  Biso   1.000  He
  He142    1.0000 0.78679  0.82940  0.12207  Biso   1.000  He
  Ne142    1.0000 0.76731  0.80658  0.10728  Biso   1.000  Ne
  Ne143    1.0000 0.26602  0.14509  0.14484  Biso   1.000  Ne
  He143    1.0000 0.29005  0.15558  0.16208  Biso   1.000  He
  He144    1.0000 0.31111  0.13148  0.17471  Biso   1.000  He
  Ne144    1.0000 0.33946  0.14683  0.18582  Biso   1.000  Ne
  Ne145    1.0000 0.14377  0.56011  0.43642  Biso   1.000  Ne
  He145    1.0000 0.13695  0.55566  0.40736  Biso   1.000  He
  He146    1.0000 0.16317  0.56352  0.38816  Biso   1.000  He
  Ne146    1.0000 0.15999  0.55514  0.35562  Biso   1.000  Ne
  Ne147    1.0000 0.67048  0.52811  0.26785  Biso   1.000  Ne
  He147    1.0000 0.67516  0.54562  0.23987  Biso   1.000  He
  He148    1.0000 0.64644  0.55894  0.22834  Biso   1.000  He
  Ne148    1.0000 0.64821  0.57573  0.19932  Biso   1.000  Ne
  Ne149    1.0000 0.71790  0.54875  0.92678  Biso   1.000  Ne
  He149    1.0000 0.70165  0.57551  0.92088  Biso   1.000  He
  He150    1.0000 0.66943  0.56647  0.91219  Biso   1.000  He
  Ne150    1.0000 0.65011  0.59246  0.91010  Biso   1.000  Ne
  Ne151    1.0000 0.46896  0.57395  0.69239  Biso   1.000  Ne
  He151    1.0000 0.50050  0.56204  0.69743  Biso   1.000  He
  He152    1.0000 0.51237  0.55942  0.72737  Biso   1.000  He
  Ne152    1.0000 0.50903  0.52570  0.74411  Biso   1.000  Ne
  Ne153    1.0000 0.83080  0.24991  0.60317  Biso   1.000  Ne
  He153    1.0000 0.81348  0.26991  0.62205  Biso   1.000  He
  He154    1.0000 0.83171  0.29058  0.64029  Biso   1.000  He
  Ne154    1.0000 0.81650  0.31144  0.66279  Biso   1.000  Ne
  Ne155    1.0000 0.06974  0.54160  0.33626  Biso   1.000  Ne
  He155    1.0000 0.07103  0.57384  0.34635  Biso   1.000  He
  He156    1.0000 0.06593  0.59939  0.32632  Biso   1.000  He
  Ne156    1.0000 0.07196  0.62957  0.33885  Biso   1.000  Ne
  Ne157    1.0000 0.34313  0.38230  0.93558  Biso   1.000  Ne
  He157    1.0000 0.37112  0.36913  0.92632  Biso   1.000  He
  He158    1.0000 0.39388  0.37622  0.94871  Biso   1.000  He
  Ne158    1.0000 0.41999  0.35479  0.94916  Biso   1.000  Ne
  Ne159    1.0000 0.13024  0.69158  0.97199  Biso   1.000  Ne
  He159    1.0000 0.15296  0.70204  0.94916  Biso   1.000  He
  He160    1.0000 0.16705  0.72991  0.95865  Biso   1.000  He
  Ne160    1.0000 0.18944  0.73905  0.93840  Biso   1.000  Ne
  Ne161    1.0000 0.82394  0.28859  0.03183  Biso   1.000  Ne
  He161    1.0000 0.85343  0.28888  0.04173  Biso   1.000  He
  He162    1.0000 0.85800  0.30640  0.06827  Biso   1.000  He
  Ne162    1.0000 0.88750  0.30677  0.08139  Biso   1.000  Ne
  Ne163    1.0000 0.14496  0.36733  0.33864  Biso   1.000  Ne
  He163    1.0000 0.14207  0.37256  0.30439  Biso   1.000  He
  He164    1.0000 0.17240  0.38336  0.29190  Biso   1.000  He
  Ne164    1.0000 0.17294  0.39487  0.26012  Biso   1.000  Ne
  Ne165    1.0000 0.58020  0.00688  0.44580  Biso   1.000  Ne
  He165    1.0000 0.56912  0.03542  0.43467  Biso   1.000  He
  He166    1.0000 0.57755  0.06122  0.45249  Biso   1.000  He
  Ne166    1.0000 0.57564  0.09120  0.43824  Biso   1.000  Ne
  Ne167    1.0000 0.12082  0.39976  0.59459  Biso   1.000  Ne
  He167    1.0000 0.09034  0.40166  0.58041  Biso   1.000  He
  He168    1.0000 0.08055  0.43354  0.57427  Biso   1.000  He
  Ne168    1.0000 0.05082  0.43389  0.55912  Biso   1.000  Ne
  Ne169    1.0000 0.84515  0.70067  0.60216  Biso   1.000  Ne
  He169    1.0000 0.87892  0.71080  0.59872  Biso   1.000  He
  He170    1.0000 0.90280  0.68661  0.58886  Biso   1.000  He
  Ne170    1.0000 0.93292  0.70397  0.58628  Biso   1.000  Ne
  Ne171    1.0000 0.51344  0.54834  0.95340  Biso   1.000  Ne
  He171    1.0000 0.53119  0.52905  0.97309  Biso   1.000  He
  He172    1.0000 0.56379  0.53163  0.97369  Biso   1.000  He
  Ne172    1.0000 0.58044  0.51101  0.99524  Biso   1.000  Ne
  Ne173    1.0000 0.35569  0.78214  0.42614  Biso   1.000  Ne
  He173    1.0000 0.38902  0.78335  0.42311  Biso   1.000  He
  He174    1.0000 0.39904  0.75514  0.41453  Biso   1.000  He
  Ne174    1.0000 0.43157  0.75414  0.40647  Biso   1.000  Ne
  Ne175    1.0000 0.70364  0.35093  0.52195  Biso   1.000  Ne
  He175    1.0000 0.72006  0.36170  0.55012  Biso   1.000  He
  He176    1.0000 0.70872  0.34865  0.57853  Biso   1.000  He
  Ne176    1.0000 0.72545  0.36145  0.60706  Biso   1.000  Ne
  Ne177    1.0000 0.42436  0.85187  0.58957  Biso   1.000  Ne
  He177    1.0000 0.43809  0.87269  0.61173  Biso   1.000  He
  He178    1.0000 0.45962  0.89827  0.59783  Biso   1.000  He
  Ne178    1.0000 0.47094  0.91849  0.62146  Biso   1.000  Ne
  Ne179    1.0000 0.78647  0.05446  0.26195  Biso   1.000  Ne
  He179    1.0000 0.76811  0.07107  0.24186  Biso   1.000  He
  He180    1.0000 0.78018  0.08342  0.21640  Biso   1.000  He
  Ne180    1.0000 0.76186  0.10279  0.19479  Biso   1.000  Ne
  Ne181    1.0000 0.09232  0.52231  0.47952  Biso   1.000  Ne
  He181    1.0000 0.07607  0.54242  0.45786  Biso   1.000  He
  He182    1.0000 0.04362  0.53463  0.45430  Biso   1.000  He
  Ne182    1.0000 0.03100  0.54865  0.42574  Biso   1.000  Ne
  Ne183    1.0000 0.78345  0.30923  0.78368  Biso   1.000  Ne
  He183    1.0000 0.77515  0.27622  0.77905  Biso   1.000  He
  He184    1.0000 0.78999  0.26455  0.75102  Biso   1.000  He
  Ne184    1.0000 0.78284  0.23270  0.74687  Biso   1.000  Ne
  Ne185    1.0000 0.42150  0.57101  0.17213  Biso   1.000  Ne
  He185    1.0000 0.40641  0.58576  0.19518  Biso   1.000  He
  He186    1.0000 0.40540  0.62066  0.19811  Biso   1.000  He
  Ne186    1.0000 0.38257  0.63139  0.21978  Biso   1.000  Ne
  Ne187    1.0000 0.74526  0.31394  0.92066  Biso   1.000  Ne
  He187    1.0000 0.76093  0.29990  0.94574  Biso   1.000  He
  He188    1.0000 0.78999  0.28693  0.93468  Biso   1.000  He
  Ne188    1.0000 0.80560  0.26876  0.95860  Biso   1.000  Ne
  Ne189    1.0000 0.41025  0.41709  0.77530  Biso   1.000  Ne
  He189    1.0000 0.41108  0.40524  0.80605  Biso   1.000  He
  He190    1.0000 0.40040  0.37547  0.80779  Biso   1.000  He
  Ne190    1.0000 0.40424  0.35944  0.83625  Biso   1.000  Ne
  Ne191    1.0000 0.34432  0.36921  0.23964  Biso   1.000  Ne
  He191    1.0000 0.31785  0.38050  0.22153  Biso   1.000  He
  He192    1.0000 0.29135  0.35912  0.22407  Biso   1.000  He
  Ne192    1.0000 0.26325  0.36869  0.21324  Biso   1.000  Ne
  Ne193    1.0000 0.90399  0.67919  0.95457  Biso   1.000  Ne
  He193    1.0000 0.93315  0.68926  0.94563  Biso   1.000  He
  He194    1.0000 0.95798  0.68253  0.96758  Biso   1.000  He
  Ne194    1.0000 0.98757  0.69703  0.95761  Biso   1.000  Ne
  Ne195    1.0000 0.02198  0.18661  0.70312  Biso   1.000  Ne
  He195    1.0000 0.98877  0.18745  0.70095  Biso   1.000  He
  He196    1.0000 0.97367  0.16744  0.72475  Biso   1.000  He
  Ne196    1.0000 0.93922  0.16501  0.72762  Biso   1.000  Ne
  Ne197    1.0000 0.24739  0.58976  0.43927  Biso   1.000  Ne
  He197    1.0000 0.25657  0.59853  0.40786  Biso   1.000  He
  He198    1.0000 0.28592  0.61247  0.40503  Biso   1.000  He
  Ne198    1.0000 0.29748  0.61438  0.37317  Biso   1.000  Ne
  Ne199    1.0000 0.43533  0.03490  0.48959  Biso   1.000  Ne
  He199    1.0000 0.44053  0.02633  0.52139  Biso   1.000  He
  He200    1.0000 0.42233  0.99951  0.53099  Biso   1.000  He
  Ne200    1.0000 0.42943  0.99283  0.56314  Biso   1.000  Ne
  Ne201    1.0000 0.70639  0.06959  0.65244  Biso   1.000  Ne
  He201    1.0000 0.73050  0.06405  0.67324  Biso   1.000  He
  He202    1.0000 0.75850  0.07882  0.66637  Biso   1.000  He
  Ne202    1.0000 0.78465  0.06801  0.68622  Biso   1.000  Ne
  Ne203    1.0000 0.10767  0.07708  0.31155  Biso   1.000  Ne
  He203    1.0000 0.12900  0.06157  0.28992  Biso   1.000  He
  He204    1.0000 0.15795  0.07434  0.29130  Biso   1.000  He
  Ne204    1.0000 0.18102  0.06279  0.26618  Biso   1.000  Ne
  Ne205    1.0000 0.07395  0.18409  0.93530  Biso   1.000  Ne
  He205    1.0000 0.10356  0.18294  0.92178  Biso   1.000  He
  He206    1.0000 0.10521  0.17298  0.89097  Biso   1.000  He
  Ne206    1.0000 0.13531  0.16999  0.87876  Biso   1.000  Ne
  Ne207    1.0000 0.49759  0.76449  0.17891  Biso   1.000  Ne
  He207    1.0000 0.47398  0.76453  0.20078  Biso   1.000  He
  He208    1.0000 0.44688  0.78080  0.18779  Biso   1.000  He
  Ne208    1.0000 0.42219  0.78428  0.21152  Biso   1.000  Ne
  Ne209    1.0000 0.83984  0.30009  0.43773  Biso   1.000  Ne
  He209    1.0000 0.87272  0.29857  0.44707  Biso   1.000  He
  He210    1.0000 0.89265  0.31551  0.42981  Biso   1.000  He
  Ne210    1.0000 0.92518  0.31634  0.43797  Biso   1.000  Ne
  Ne211    1.0000 0.91960  0.13585  0.87113  Biso   1.000  Ne
  He211    1.0000 0.90759  0.11553  0.84631  Biso   1.000  He
  He212    1.0000 0.92465  0.08589  0.84205  Biso   1.000  He
  Ne212    1.0000 0.91136  0.06326  0.82010  Biso   1.000  Ne
  Ne213    1.0000 0.31971  0.68740  0.43476  Biso   1.000  Ne
  He213    1.0000 0.33866  0.68315  0.46220  Biso   1.000  He
  He214    1.0000 0.37186  0.67887  0.45495  Biso   1.000  He
  Ne214    1.0000 0.38911  0.66911  0.47995  Biso   1.000  Ne
  Ne215    1.0000 0.57031  0.80100  0.27988  Biso   1.000  Ne
  He215    1.0000 0.58662  0.80054  0.30750  Biso   1.000  He
  He216    1.0000 0.57054  0.80398  0.33437  Biso   1.000  He
  Ne216    1.0000 0.58877  0.80043  0.36047  Biso   1.000  Ne
  Ne217    1.0000 0.32166  0.56831  0.86252  Biso   1.000  Ne
  He217    1.0000 0.35407  0.56744  0.86922  Biso   1.000  He
  He218    1.0000 0.35899  0.54831  0.89760  Biso   1.000  He
  Ne218    1.0000 0.38787  0.55496  0.91202  Biso   1.000  Ne
  Ne219    1.0000 0.87206  0.05705  0.24686  Biso   1.000  Ne
  He219    1.0000 0.87867  0.04378  0.21722  Biso   1.000  He
  He220    1.0000 0.90882  0.04036  0.21204  Biso   1.000  He
  Ne220    1.0000 0.91534  0.03805  0.18134  Biso   1.000  Ne
  Ne221    1.0000 0.17516  0.68065  0.59460  Biso   1.000  Ne
  He221    1.0000 0.15285  0.65611  0.58052  Biso   1.000  He
  He222    1.0000 0.12459  0.66116  0.59291  Biso   1.000  He
  Ne222    1.0000 0.09961  0.64090  0.58203  Biso   1.000  Ne
  Ne223    1.0000 0.18272  0.89287  0.18570  Biso   1.000  Ne
  He223    1.0000 0.17716  0.88421  0.15305  Biso   1.000  He
  He224    1.0000 0.15174  0.89646  0.14001  Biso   1.000  He
  Ne224    1.0000 0.14554  0.88496  0.11129  Biso   1.000  Ne
  Ne225    1.0000 0.11957  0.64078  0.74569  Biso   1.000  Ne
  He225    1.0000 0.13505  0.61464  0.73342  Biso   1.000  He
  He226    1.0000 0.11495  0.58594  0.73394  Biso   1.000  He
  Ne226    1.0000 0.13037  0.55846  0.72050  Biso   1.000  Ne
  Ne227    1.0000 0.55919  0.57426  0.06500  Biso   1.000  Ne
  He227    1.0000 0.57856  0.57249  0.09050  Biso   1.000  He
  He228    1.0000 0.59558  0.54278  0.09553  Biso   1.000  He
  Ne228    1.0000 0.62047  0.54658  0.11584  Biso   1.000  Ne
  Ne229    1.0000 0.38539  0.80929  0.29773  Biso   1.000  Ne
  He229    1.0000 0.40129  0.83414  0.30915  Biso   1.000  He
  He230    1.0000 0.38672  0.86380  0.30490  Biso   1.000  He
  Ne230    1.0000 0.39895  0.88935  0.32571  Biso   1.000  Ne
  Ne231    1.0000 0.35461  0.18526  0.43359  Biso   1.000  Ne
  He231    1.0000 0.34169  0.15822  0.41702  Biso   1.000  He
  He232    1.0000 0.32846  0.13525  0.43731  Biso   1.000  He
  Ne232    1.0000 0.31115  0.10920  0.42184  Biso   1.000  Ne
  Ne233    1.0000 0.91868  0.80778  0.06635  Biso   1.000  Ne
  He233    1.0000 0.91357  0.80684  0.09909  Biso   1.000  He
  He234    1.0000 0.90612  0.83783  0.11224  Biso   1.000  He
  Ne234    1.0000 0.90814  0.84267  0.14583  Biso   1.000  Ne
  Ne235    1.0000 0.87843  0.27781  0.74939  Biso   1.000  Ne
  He235    1.0000 0.88350  0.27379  0.71829  Biso   1.000  He
  He236    1.0000 0.88972  0.24240  0.70803  Biso   1.000  He
  Ne236    1.0000 0.89834  0.23980  0.67746  Biso   1.000  Ne
  Ne237    1.0000 0.05546  0.03248  0.12879  Biso   1.000  Ne
  He237    1.0000 0.08272  0.04173  0.10940  Biso   1.000  He
  He238    1.0000 0.07426  0.06556  0.08925  Biso   1.000  He
  Ne238    1.0000 0.09026  0.09572  0.09502  Biso   1.000  Ne
  Ne239    1.0000 0.74113  0.16971  0.61469  Biso   1.000  Ne
  He239    1.0000 0.71843  0.15225  0.63316  Biso   1.000  He
  He240    1.0000 0.70781  0.16847  0.66231  Biso   1.000  He
  Ne240    1.0000 0.68610  0.14803  0.67577  Biso   1.000  Ne
  Ne241    1.0000 0.61298  0.67583  0.13733  Biso   1.000  Ne
  He241    1.0000 0.62276  0.64570  0.12448  Biso   1.000  He
  He242    1.0000 0.63919  0.64437  0.09524  Biso   1.000  He
  Ne242    1.0000 0.65479  0.61522  0.08355  Biso   1.000  Ne
  Ne243    1.0000 0.88608  0.86954  0.21863  Biso   1.000  Ne
  He243    1.0000 0.90118  0.83921  0.22265  Biso   1.000  He
  He244    1.0000 0.88472  0.81083  0.22847  Biso   1.000  He
  Ne244    1.0000 0.90999  0.78692  0.23185  Biso   1.000  Ne
  Ne245    1.0000 0.18875  0.30345  0.93336  Biso   1.000  Ne
  He245    1.0000 0.16174  0.28904  0.94794  Biso   1.000  He
  He246    1.0000 0.14907  0.30532  0.97385  Biso   1.000  He
  Ne246    1.0000 0.12207  0.29047  0.98516  Biso   1.000  Ne
  Ne247    1.0000 0.08625  0.32349  0.39009  Biso   1.000  Ne
  He247    1.0000 0.08471  0.29522  0.37216  Biso   1.000  He
  He248    1.0000 0.09678  0.29661  0.34042  Biso   1.000  He
  Ne248    1.0000 0.09319  0.26772  0.32433  Biso   1.000  Ne
  Ne249    1.0000 0.90959  0.31820  0.64572  Biso   1.000  Ne
  He249    1.0000 0.91880  0.34807  0.63212  Biso   1.000  He
  He250    1.0000 0.91992  0.35274  0.59891  Biso   1.000  He
  Ne250    1.0000 0.93680  0.38116  0.58588  Biso   1.000  Ne
  Ne251    1.0000 0.03920  0.91686  0.94082  Biso   1.000  Ne
  He251    1.0000 0.06746  0.89795  0.93555  Biso   1.000  He
  He252    1.0000 0.09431  0.91594  0.93451  Biso   1.000  He
  Ne252    1.0000 0.12215  0.89993  0.93589  Biso   1.000  Ne
  Ne253    1.0000 0.58004  0.91356  0.46581  Biso   1.000  Ne
  He253    1.0000 0.55189  0.93285  0.47079  Biso   1.000  He
  He254    1.0000 0.55070  0.95095  0.50127  Biso   1.000  He
  Ne254    1.0000 0.52545  0.97360  0.50301  Biso   1.000  Ne
  Ne255    1.0000 0.51595  0.26586  0.47733  Biso   1.000  Ne
  He255    1.0000 0.50630  0.25549  0.44882  Biso   1.000  He
  He256    1.0000 0.47436  0.24631  0.44899  Biso   1.000  He
  Ne256    1.0000 0.46299  0.22723  0.42424  Biso   1.000  Ne
  Ne257    1.0000 0.39942  0.17136  0.68182  Biso   1.000  Ne
  He257    1.0000 0.39824  0.16953  0.65010  Biso   1.000  He
  He258    1.0000 0.39596  0.13798  0.63764  Biso   1.000  He
  Ne258    1.0000 0.40033  0.13923  0.60557  Biso   1.000  Ne
  Ne259    1.0000 0.16272  0.07211  0.13497  Biso   1.000  Ne
  He259    1.0000 0.18361  0.09345  0.12223  Biso   1.000  He
  He260    1.0000 0.17754  0.10363  0.09432  Biso   1.000  He
  Ne260    1.0000 0.19987  0.12666  0.08353  Biso   1.000  Ne
  Ne261    1.0000 0.71455  0.27145  0.10239  Biso   1.000  Ne
  He261    1.0000 0.68209  0.26291  0.09238  Biso   1.000  He
  He262    1.0000 0.67908  0.23316  0.08048  Biso   1.000  He
  Ne262    1.0000 0.65058  0.22692  0.06607  Biso   1.000  Ne
  Ne263    1.0000 0.53693  0.42854  0.05941  Biso   1.000  Ne
  He263    1.0000 0.54775  0.43097  0.02838  Biso   1.000  He
  He264    1.0000 0.52802  0.44732  0.00901  Biso   1.000  He
  Ne264    1.0000 0.50998  0.42615  0.99137  Biso   1.000  Ne
  Ne265    1.0000 0.28220  0.09282  0.69568  Biso   1.000  Ne
  He265    1.0000 0.28690  0.08591  0.66317  Biso   1.000  He
  He266    1.0000 0.31556  0.07341  0.65310  Biso   1.000  He
  Ne266    1.0000 0.31534  0.06349  0.62160  Biso   1.000  Ne
  Ne267    1.0000 0.75055  0.41845  0.94561  Biso   1.000  Ne
  He267    1.0000 0.74383  0.40481  0.91740  Biso   1.000  He
  He268    1.0000 0.71572  0.38787  0.92159  Biso   1.000  He
  Ne268    1.0000 0.70046  0.37660  0.89623  Biso   1.000  Ne
  Ne269    1.0000 0.64037  0.32639  0.67587  Biso   1.000  Ne
  He269    1.0000 0.65392  0.32243  0.70375  Biso   1.000  He
  He270    1.0000 0.68369  0.30898  0.69804  Biso   1.000  He
  Ne270    1.0000 0.70293  0.30842  0.72701  Biso   1.000  Ne
  Ne271    1.0000 0.62855  0.33329  0.80288  Biso   1.000  Ne
  He271    1.0000 0.60135  0.35122  0.79875  Biso   1.000  He
  He272    1.0000 0.60360  0.36987  0.77292  Biso   1.000  He
  Ne272    1.0000 0.57915  0.39194  0.77074  Biso   1.000  Ne
  Ne273    1.0000 0.33334  0.80067  0.60154  Biso   1.000  Ne
  He273    1.0000 0.32902  0.80436  0.63542  Biso   1.000  He
  He274    1.0000 0.33095  0.77547  0.65414  Biso   1.000  He
  Ne274    1.0000 0.33000  0.77932  0.68884  Biso   1.000  Ne
  Ne275    1.0000 0.19673  0.39301  0.41642  Biso   1.000  Ne
  He275    1.0000 0.16734  0.37219  0.41731  Biso   1.000  He
  He276    1.0000 0.15111  0.37167  0.44555  Biso   1.000  He
  Ne276    1.0000 0.12188  0.35627  0.44593  Biso   1.000  Ne
  Ne277    1.0000 0.29700  0.39437  0.36506  Biso   1.000  Ne
  He277    1.0000 0.29880  0.42430  0.38039  Biso   1.000  He
  He278    1.0000 0.32894  0.43961  0.37547  Biso   1.000  He
  Ne278    1.0000 0.33096  0.46915  0.39071  Biso   1.000  Ne
  Ne279    1.0000 0.91152  0.21545  0.94395  Biso   1.000  Ne
  He279    1.0000 0.91008  0.18234  0.94884  Biso   1.000  He
  He280    1.0000 0.88050  0.16735  0.94643  Biso   1.000  He
  Ne280    1.0000 0.88217  0.13494  0.94309  Biso   1.000  Ne
  Ne281    1.0000 0.41401  0.27151  0.11900  Biso   1.000  Ne
  He281    1.0000 0.42375  0.28312  0.15003  Biso   1.000  He
  He282    1.0000 0.40095  0.28712  0.17369  Biso   1.000  He
  Ne282    1.0000 0.41307  0.30018  0.20155  Biso   1.000  Ne
  Ne283    1.0000 0.22163  0.54875  0.69146  Biso   1.000  Ne
  He283    1.0000 0.21385  0.57116  0.67061  Biso   1.000  He
  He284    1.0000 0.18442  0.56900  0.65357  Biso   1.000  He
  Ne284    1.0000 0.17768  0.59783  0.63740  Biso   1.000  Ne
  Ne285    1.0000 0.08560  0.21681  0.41530  Biso   1.000  Ne
  He285    1.0000 0.06923  0.19469  0.39482  Biso   1.000  He
  He286    1.0000 0.04723  0.17470  0.41102  Biso   1.000  He
  Ne286    1.0000 0.03484  0.15424  0.38883  Biso   1.000  Ne
  Ne287    1.0000 0.59040  0.89174  0.69384  Biso   1.000  Ne
  He287    1.0000 0.60821  0.89314  0.72275  Biso   1.000  He
  He288    1.0000 0.59731  0.87170  0.74694  Biso   1.000  He
  Ne288    1.0000 0.61939  0.86697  0.77200  Biso   1.000  Ne
  Ne289    1.0000 0.69434  0.87835  0.42392  Biso   1.000  Ne
  He289    1.0000 0.66405  0.87426  0.43439  Biso   1.000  He
  He290    1.0000 0.64551  0.84602  0.42532  Biso   1.000  He
  Ne290    1.0000 0.61309  0.84917  0.43445  Biso   1.000  Ne
  Ne291    1.0000 0.31055  0.87580  0.33665  Biso   1.000  Ne
  He291    1.0000 0.30751  0.88299  0.37038  Biso   1.000  He
  He292    1.0000 0.31309  0.85662  0.38943  Biso   1.000  He
  Ne292    1.0000 0.30915  0.86616  0.42184  Biso   1.000  Ne
  Ne293    1.0000 0.09637  0.87480  0.84594  Biso   1.000  Ne
  He293    1.0000 0.12895  0.88411  0.83652  Biso   1.000  He
  He294    1.0000 0.14867  0.90067  0.86061  Biso   1.000  He
  Ne294    1.0000 0.17908  0.90933  0.85058  Biso   1.000  Ne
  Ne295    1.0000 0.71095  0.03304  0.40614  Biso   1.000  Ne
  He295    1.0000 0.73199  0.02778  0.38378  Biso   1.000  He
  He296    1.0000 0.72501  0.04465  0.35580  Biso   1.000  He
  Ne296    1.0000 0.74336  0.03242  0.32974  Biso   1.000  Ne
  Ne297    1.0000 0.43901  0.49913  0.98576  Biso   1.000  Ne
  He297    1.0000 0.45678  0.47790  0.96765  Biso   1.000  He
  He298    1.0000 0.43564  0.45896  0.94862  Biso   1.000  He
  Ne298    1.0000 0.45141  0.43608  0.93224  Biso   1.000  Ne
  Ne299    1.0000 0.06784  0.09211  0.94646  Biso   1.000  Ne
  He299    1.0000 0.06379  0.06129  0.95588  Biso   1.000  He
  He300    1.0000 0.03260  0.04895  0.95656  Biso   1.000  He
  Ne300    1.0000 0.02861  0.02341  0.97585  Biso   1.000  Ne
  Ne301    1.0000 0.87322  0.37461  0.37164  Biso   1.000  Ne
  He301    1.0000 0.84721  0.38942  0.38770  Biso   1.000  He
  He302    1.0000 0.82399  0.40069  0.36753  Biso   1.000  He
  Ne302    1.0000 0.79812  0.41122  0.38614  Biso   1.000  Ne
  Ne303    1.0000 0.62172  0.06749  0.76195  Biso   1.000  Ne
  He303    1.0000 0.60330  0.06326  0.73649  Biso   1.000  He
  He304    1.0000 0.61963  0.06368  0.70892  Biso   1.000  He
  Ne304    1.0000 0.60441  0.06631  0.68010  Biso   1.000  Ne
  Ne305    1.0000 0.16574  0.04316  0.92223  Biso   1.000  Ne
  He305    1.0000 0.13906  0.06042  0.91465  Biso   1.000  He
  He306    1.0000 0.13447  0.06192  0.88301  Biso   1.000  He
  Ne306    1.0000 0.10661  0.07595  0.87467  Biso   1.000  Ne
  Ne307    1.0000 0.55965  0.56100  0.86831  Biso   1.000  Ne
  He307    1.0000 0.57260  0.57302  0.84249  Biso   1.000  He
  He308    1.0000 0.55075  0.58584  0.81903  Biso   1.000  He
  Ne308    1.0000 0.56383  0.59514  0.79069  Biso   1.000  Ne
  Ne309    1.0000 0.42214  0.17934  0.35161  Biso   1.000  Ne
  He309    1.0000 0.41648  0.16907  0.38260  Biso   1.000  He
  He310    1.0000 0.42596  0.14000  0.38680  Biso   1.000  He
  Ne310    1.0000 0.42479  0.12969  0.41643  Biso   1.000  Ne
  Ne311    1.0000 0.10155  0.53454  0.57507  Biso   1.000  Ne
  He311    1.0000 0.10496  0.55925  0.59843  Biso   1.000  He
  He312    1.0000 0.08433  0.55766  0.62515  Biso   1.000  He
  Ne312    1.0000 0.09473  0.58010  0.64767  Biso   1.000  Ne
  Ne313    1.0000 0.57503  0.11424  0.10403  Biso   1.000  Ne
  He313    1.0000 0.59253  0.13018  0.08201  Biso   1.000  He
  He314    1.0000 0.57478  0.15430  0.06394  Biso   1.000  He
  Ne314    1.0000 0.59572  0.17648  0.04513  Biso   1.000  Ne
  Ne315    1.0000 0.62677  0.22358  0.23078  Biso   1.000  Ne
  He315    1.0000 0.65611  0.22681  0.21728  Biso   1.000  He
  He316    1.0000 0.68116  0.23198  0.24149  Biso   1.000  He
  Ne316    1.0000 0.71088  0.23602  0.22889  Biso   1.000  Ne
  Ne317    1.0000 0.95359  0.40402  0.51360  Biso   1.000  Ne
  He317    1.0000 0.93323  0.40464  0.48807  Biso   1.000  He
  He318    1.0000 0.94833  0.40639  0.45692  Biso   1.000  He
  Ne318    1.0000 0.92369  0.40664  0.43411  Biso   1.000  Ne
  Ne319    1.0000 0.32423  0.57134  0.13667  Biso   1.000  Ne
  He319    1.0000 0.29261  0.56300  0.13840  Biso   1.000  He
  He320    1.0000 0.28027  0.54970  0.11047  Biso   1.000  He
  Ne320    1.0000 0.24946  0.53929  0.11558  Biso   1.000  Ne
  Ne321    1.0000 0.10553  0.77671  0.11089  Biso   1.000  Ne
  He321    1.0000 0.09394  0.78055  0.14192  Biso   1.000  He
  He322    1.0000 0.09758  0.81177  0.15144  Biso   1.000  He
  Ne322    1.0000 0.08381  0.82182  0.18109  Biso   1.000  Ne
  Ne323    1.0000 0.23531  0.11432  0.90847  Biso   1.000  Ne
  He323    1.0000 0.23567  0.08081  0.91596  Biso   1.000  He
  He324    1.0000 0.26397  0.06465  0.91338  Biso   1.000  He
  Ne324    1.0000 0.26353  0.03072  0.92276  Biso   1.000  Ne
  Ne325    1.0000 0.44051  0.74096  0.08889  Biso   1.000  Ne
  He325    1.0000 0.42980  0.71842  0.11122  Biso   1.000  He
  He326    1.0000 0.39618  0.71429  0.10928  Biso   1.000  He
  Ne326    1.0000 0.38562  0.68870  0.12865  Biso   1.000  Ne
  Ne327    1.0000 0.20922  0.41001  0.60058  Biso   1.000  Ne
  He327    1.0000 0.23235  0.38775  0.58864  Biso   1.000  He
  He328    1.0000 0.24551  0.36986  0.61180  Biso   1.000  He
  Ne328    1.0000 0.26894  0.34718  0.60248  Biso   1.000  Ne
  Ne329    1.0000 0.29242  0.91554  0.97970  Biso   1.000  Ne
  He329    1.0000 0.28463  0.88326  0.97529  Biso   1.000  He
  He330    1.0000 0.29797  0.86493  0.99844  Biso   1.000  He
  Ne330    1.0000 0.29332  0.83174  0.99052  Biso   1.000  Ne
  Ne331    1.0000 0.82625  0.90228  0.76431  Biso   1.000  Ne
  He331    1.0000 0.84339  0.88882  0.78915  Biso   1.000  He
  He332    1.0000 0.86943  0.90424  0.80189  Biso   1.000  He
  Ne332    1.0000 0.88166  0.88984  0.82952  Biso   1.000  Ne
  Ne333    1.0000 0.06906  0.30044  0.24774  Biso   1.000  Ne
  He333    1.0000 0.07485  0.27383  0.23172  Biso   1.000  He
  He334    1.0000 0.05289  0.24709  0.23768  Biso   1.000  He
  Ne334    1.0000 0.06271  0.21789  0.22178  Biso   1.000  Ne
  Ne335    1.0000 0.96543  0.79798  0.31455  Biso   1.000  Ne
  He335    1.0000 0.95622  0.76740  0.30424  Biso   1.000  He
  He336    1.0000 0.92813  0.75640  0.31794  Biso   1.000  He
  Ne336    1.0000 0.92139  0.72299  0.31018  Biso   1.000  Ne
  Ne337    1.0000 0.91738  0.22048  0.43345  Biso   1.000  Ne
  He337    1.0000 0.91387  0.24214  0.41033  Biso   1.000  He
  He338    1.0000 0.91040  0.22864  0.37972  Biso   1.000  He
  Ne338    1.0000 0.90433  0.24881  0.35420  Biso   1.000  Ne
  Ne339    1.0000 0.11856  0.07242  0.19694  Biso   1.000  Ne
  He339    1.0000 0.09577  0.09183  0.18672  Biso   1.000  He
  He340    1.0000 0.10220  0.12485  0.18971  Biso   1.000  He
  Ne340    1.0000 0.08126  0.14231  0.16952  Biso   1.000  Ne
