data_image0
_cell_length_a       46.5563
_cell_length_b       46.6382
_cell_length_c       46.5411
_cell_angle_alpha    90
_cell_angle_beta     90
_cell_angle_gamma    90

_symmetry_space_group_name_H-M    "P 1"
_symmetry_int_tables_number       1

loop_
  _symmetry_equiv_pos_as_xyz
  'x, y, z'

loop_
  _atom_site_label
  _atom_site_occupancy
  _atom_site_fract_x
  _atom_site_fract_y
  _atom_site_fract_z
  _atom_site_thermal_displace_type
  _atom_site_B_iso_or_equiv
  _atom_site_type_symbol
  Ne1      1.0000 0.90441  0.75438  0.11998  Biso   1.000  Ne
  He1      1.0000 0.89716  0.77932  0.09697  Biso   1.000  He
  He2      1.0000 0.89966  0.80895  0.10870  Biso   1.000  He
  Ne2      1.0000 0.88943  0.83544  0.09045  Biso   1.000  Ne
  Ne3      1.0000 0.57816  0.22515  0.59950  Biso   1.000  Ne
  He3      1.0000 0.58894  0.24331  0.62685  Biso   1.000  He
  He4      1.0000 0.56878  0.26434  0.64222  Biso   1.000  He
  Ne4      1.0000 0.57913  0.27699  0.67117  Biso   1.000  Ne
  Ne5      1.0000 0.42394  0.92980  0.26162  Biso   1.000  Ne
  He5      1.0000 0.43443  0.95468  0.24147  Biso   1.000  He
  He6      1.0000 0.45850  0.94322  0.22211  Biso   1.000  He
  Ne6      1.0000 0.47653  0.96274  0.20549  Biso   1.000  Ne
  Ne7      1.0000 0.05831  0.29356  0.19531  Biso   1.000  Ne
  He7      1.0000 0.07137  0.31078  0.21939  Biso   1.000  He
  He8      1.0000 0.07340  0.29375  0.24882  Biso   1.000  He
  Ne8      1.0000 0.08238  0.31336  0.27487  Biso   1.000  Ne
  Ne9      1.0000 0.58625  0.57422  0.89018  Biso   1.000  Ne
  He9      1.0000 0.58394  0.57561  0.85710  Biso   1.000  He
  He10     1.0000 0.57249  0.54627  0.84418  Biso   1.000  He
  Ne10     1.0000 0.56857  0.55100  0.81366  Biso   1.000  Ne
  Ne11     1.0000 0.91222  0.38077  0.64103  Biso   1.000  Ne
  He11     1.0000 0.91869  0.37549  0.60881  Biso   1.000  He
  He12     1.0000 0.94374  0.35542  0.59989  Biso   1.000  He
  Ne12     1.0000 0.94546  0.35226  0.56503  Biso   1.000  Ne
  Ne13     1.0000 0.22970  0.85208  0.21672  Biso   1.000  Ne
  He13     1.0000 0.25304  0.87701  0.21131  Biso   1.000  He
  He14     1.0000 0.23962  0.90464  0.19965  Biso   1.000  He
  Ne14     1.0000 0.26428  0.92968  0.19657  Biso   1.000  Ne
  Ne15     1.0000 0.44941  0.86613  0.59770  Biso   1.000  Ne
  He15     1.0000 0.42856  0.88905  0.61012  Biso   1.000  He
  He16     1.0000 0.41801  0.88126  0.63834  Biso   1.000  He
  Ne16     1.0000 0.40213  0.90636  0.65486  Biso   1.000  Ne
  Ne17     1.0000 0.05560  0.75989  0.44069  Biso   1.000  Ne
  He17     1.0000 0.05496  0.72774  0.44893  Biso   1.000  He
  He18     1.0000 0.05959  0.70697  0.42425  Biso   1.000  He
  Ne18     1.0000 0.06523  0.67389  0.43516  Biso   1.000  Ne
  Ne19     1.0000 0.30466  0.39365  0.94366  Biso   1.000  Ne
  He19     1.0000 0.33702  0.40343  0.94256  Biso   1.000  He
  He20     1.0000 0.35481  0.38949  0.91754  Biso   1.000  He
  Ne20     1.0000 0.38433  0.40363  0.91848  Biso   1.000  Ne
  Ne21     1.0000 0.27035  0.67263  0.92654  Biso   1.000  Ne
  He21     1.0000 0.25564  0.64668  0.91378  Biso   1.000  He
  He22     1.0000 0.27845  0.63336  0.89254  Biso   1.000  He
  Ne22     1.0000 0.26823  0.60770  0.87574  Biso   1.000  Ne
  Ne23     1.0000 0.30530  0.24942  0.12692  Biso   1.000  Ne
  He23     1.0000 0.27505  0.26410  0.12369  Biso   1.000  He
  He24     1.0000 0.27527  0.29252  0.10676  Biso   1.000  He
  Ne24     1.0000 0.24589  0.30784  0.10288  Biso   1.000  Ne
  Ne25     1.0000 0.19078  0.10150  0.22142  Biso   1.000  Ne
  He25     1.0000 0.19166  0.13413  0.21835  Biso   1.000  He
  He26     1.0000 0.17942  0.14219  0.18893  Biso   1.000  He
  Ne26     1.0000 0.17925  0.17602  0.18230  Biso   1.000  Ne
  Ne27     1.0000 0.53931  0.39540  0.00193  Biso   1.000  Ne
  He27     1.0000 0.55380  0.38327  0.97558  Biso   1.000  He
  He28     1.0000 0.58519  0.37400  0.98096  Biso   1.000  He
  Ne28     1.0000 0.59718  0.36211  0.95303  Biso   1.000  Ne
  Ne29     1.0000 0.93287  0.23029  0.59194  Biso   1.000  Ne
  He29     1.0000 0.93440  0.24555  0.62297  Biso   1.000  He
  He30     1.0000 0.94245  0.27691  0.62112  Biso   1.000  He
  Ne30     1.0000 0.94229  0.28875  0.65339  Biso   1.000  Ne
  Ne31     1.0000 0.62782  0.81983  0.74976  Biso   1.000  Ne
  He31     1.0000 0.61365  0.82523  0.71861  Biso   1.000  He
  He32     1.0000 0.61591  0.85560  0.70512  Biso   1.000  He
  Ne32     1.0000 0.59523  0.86130  0.67997  Biso   1.000  Ne
  Ne33     1.0000 0.91623  0.57268  0.59403  Biso   1.000  Ne
  He33     1.0000 0.94547  0.55996  0.59903  Biso   1.000  He
  He34     1.0000 0.95193  0.53269  0.57970  Biso   1.000  He
  Ne34     1.0000 0.97722  0.52031  0.58893  Biso   1.000  Ne
  Ne35     1.0000 0.48088  0.52220  0.10552  Biso   1.000  Ne
  He35     1.0000 0.50299  0.53780  0.08720  Biso   1.000  He
  He36     1.0000 0.51624  0.51874  0.06557  Biso   1.000  He
  Ne36     1.0000 0.50968  0.53067  0.03620  Biso   1.000  Ne
  Ne37     1.0000 0.59430  0.58265  0.73027  Biso   1.000  Ne
  He37     1.0000 0.58314  0.59692  0.69969  Biso   1.000  He
  He38     1.0000 0.56976  0.62919  0.70388  Biso   1.000  He
  Ne38     1.0000 0.55878  0.64379  0.67626  Biso   1.000  Ne
  Ne39     1.0000 0.94578  0.37392  0.24981  Biso   1.000  Ne
  He39     1.0000 0.94547  0.34361  0.23522  Biso   1.000  He
  He40     1.0000 0.91425  0.33241  0.23116  Biso   1.000  He
  Ne40     1.0000 0.91379  0.30157  0.21935  Biso   1.000  Ne
  Ne41     1.0000 0.81451  0.34212  0.43476  Biso   1.000  Ne
  He41     1.0000 0.80198  0.37017  0.42297  Biso   1.000  He
  He42     1.0000 0.81105  0.37979  0.39370  Biso   1.000  He
  Ne42     1.0000 0.79966  0.40630  0.38454  Biso   1.000  Ne
  Ne43     1.0000 0.37453  0.56912  0.18166  Biso   1.000  Ne
  He43     1.0000 0.38552  0.55203  0.20912  Biso   1.000  He
  He44     1.0000 0.41889  0.54570  0.20874  Biso   1.000  He
  Ne44     1.0000 0.42903  0.52849  0.23647  Biso   1.000  Ne
  Ne45     1.0000 0.79446  0.64973  0.44390  Biso   1.000  Ne
  He45     1.0000 0.77460  0.62174  0.44447  Biso   1.000  He
  He46     1.0000 0.74282  0.62832  0.45875  Biso   1.000  He
  Ne46     1.0000 0.71764  0.63361  0.43769  Biso   1.000  Ne
  Ne47     1.0000 0.07497  0.91403  0.98442  Biso   1.000  Ne
  He47     1.0000 0.09477  0.91012  0.95513  Biso   1.000  He
  He48     1.0000 0.08814  0.88123  0.94186  Biso   1.000  He
  Ne48     1.0000 0.10692  0.87510  0.91671  Biso   1.000  Ne
  Ne49     1.0000 0.20226  0.09852  0.11381  Biso   1.000  Ne
  He49     1.0000 0.17132  0.09107  0.10650  Biso   1.000  He
  He50     1.0000 0.16133  0.06256  0.11964  Biso   1.000  He
  Ne50     1.0000 0.13328  0.04891  0.10938  Biso   1.000  Ne
  Ne51     1.0000 0.44938  0.18613  0.25885  Biso   1.000  Ne
  He51     1.0000 0.41894  0.18576  0.27171  Biso   1.000  He
  He52     1.0000 0.41701  0.17214  0.30101  Biso   1.000  He
  Ne52     1.0000 0.38568  0.17477  0.31200  Biso   1.000  Ne
  Ne53     1.0000 0.27040  0.86820  0.30965  Biso   1.000  Ne
  He53     1.0000 0.25361  0.85017  0.33240  Biso   1.000  He
  He54     1.0000 0.22175  0.84814  0.32587  Biso   1.000  He
  Ne54     1.0000 0.20730  0.83065  0.34857  Biso   1.000  Ne
  Ne55     1.0000 0.84184  0.55492  0.44057  Biso   1.000  Ne
  He55     1.0000 0.85783  0.58103  0.43045  Biso   1.000  He
  He56     1.0000 0.86511  0.60476  0.45267  Biso   1.000  He
  Ne56     1.0000 0.88285  0.63058  0.44082  Biso   1.000  Ne
  Ne57     1.0000 0.19898  0.22237  0.11038  Biso   1.000  Ne
  He57     1.0000 0.17764  0.24495  0.09612  Biso   1.000  He
  He58     1.0000 0.19078  0.26388  0.07223  Biso   1.000  He
  Ne58     1.0000 0.16910  0.28861  0.06079  Biso   1.000  Ne
  Ne59     1.0000 0.33687  0.03934  0.20942  Biso   1.000  Ne
  He59     1.0000 0.30319  0.04146  0.20514  Biso   1.000  He
  He60     1.0000 0.29457  0.04307  0.17410  Biso   1.000  He
  Ne60     1.0000 0.26254  0.04465  0.16885  Biso   1.000  Ne
  Ne61     1.0000 0.44934  0.11436  0.36663  Biso   1.000  Ne
  He61     1.0000 0.43683  0.13303  0.38999  Biso   1.000  He
  He62     1.0000 0.40480  0.14008  0.38812  Biso   1.000  He
  Ne62     1.0000 0.38695  0.15204  0.41369  Biso   1.000  Ne
  Ne63     1.0000 0.49483  0.97700  0.56453  Biso   1.000  Ne
  He63     1.0000 0.47627  0.99831  0.54584  Biso   1.000  He
  He64     1.0000 0.44828  0.00076  0.55888  Biso   1.000  He
  Ne64     1.0000 0.43210  0.02306  0.54188  Biso   1.000  Ne
  Ne65     1.0000 0.13463  0.26245  0.42789  Biso   1.000  Ne
  He65     1.0000 0.11487  0.28767  0.41464  Biso   1.000  He
  He66     1.0000 0.11948  0.29036  0.38265  Biso   1.000  He
  Ne66     1.0000 0.09790  0.31034  0.37072  Biso   1.000  Ne
  Ne67     1.0000 0.09364  0.24979  0.06146  Biso   1.000  Ne
  He67     1.0000 0.06579  0.24726  0.07981  Biso   1.000  He
  He68     1.0000 0.05564  0.27451  0.09472  Biso   1.000  He
  Ne68     1.0000 0.02497  0.26983  0.10500  Biso   1.000  Ne
  Ne69     1.0000 0.62984  0.17507  0.28271  Biso   1.000  Ne
  He69     1.0000 0.61117  0.18946  0.30578  Biso   1.000  He
  He70     1.0000 0.61057  0.22386  0.30797  Biso   1.000  He
  Ne70     1.0000 0.59233  0.23795  0.33152  Biso   1.000  Ne
  Ne71     1.0000 0.36236  0.58645  0.84569  Biso   1.000  Ne
  He71     1.0000 0.34321  0.56448  0.83485  Biso   1.000  He
  He72     1.0000 0.31474  0.57785  0.82401  Biso   1.000  He
  Ne72     1.0000 0.29531  0.55724  0.80648  Biso   1.000  Ne
  Ne73     1.0000 0.59440  0.61683  0.13059  Biso   1.000  Ne
  He73     1.0000 0.59242  0.59347  0.10340  Biso   1.000  He
  He74     1.0000 0.60540  0.56375  0.10703  Biso   1.000  He
  Ne74     1.0000 0.60179  0.54478  0.08049  Biso   1.000  Ne
  Ne75     1.0000 0.69501  0.16469  0.43850  Biso   1.000  Ne
  He75     1.0000 0.66946  0.14804  0.45190  Biso   1.000  He
  He76     1.0000 0.64305  0.14585  0.43045  Biso   1.000  He
  Ne76     1.0000 0.61352  0.13978  0.44356  Biso   1.000  Ne
  Ne77     1.0000 0.38691  0.55313  0.09275  Biso   1.000  Ne
  He77     1.0000 0.35646  0.56175  0.10231  Biso   1.000  He
  He78     1.0000 0.34948  0.59526  0.10453  Biso   1.000  He
  Ne78     1.0000 0.31941  0.60380  0.11252  Biso   1.000  Ne
  Ne79     1.0000 0.54390  0.90948  0.41597  Biso   1.000  Ne
  He79     1.0000 0.55431  0.90209  0.38820  Biso   1.000  He
  He80     1.0000 0.57081  0.87452  0.39046  Biso   1.000  He
  Ne80     1.0000 0.57847  0.85926  0.36077  Biso   1.000  Ne
  Ne81     1.0000 0.57800  0.61994  0.21460  Biso   1.000  Ne
  He81     1.0000 0.58479  0.58798  0.21891  Biso   1.000  He
  He82     1.0000 0.59116  0.58115  0.25123  Biso   1.000  He
  Ne82     1.0000 0.59442  0.54617  0.25664  Biso   1.000  Ne
  Ne83     1.0000 0.89904  0.80951  0.82366  Biso   1.000  Ne
  He83     1.0000 0.90869  0.83466  0.84575  Biso   1.000  He
  He84     1.0000 0.93847  0.84610  0.83766  Biso   1.000  He
  Ne84     1.0000 0.94828  0.87080  0.85840  Biso   1.000  Ne
  Ne85     1.0000 0.42827  0.13363  0.74536  Biso   1.000  Ne
  He85     1.0000 0.41597  0.10715  0.72569  Biso   1.000  He
  He86     1.0000 0.43446  0.07990  0.72799  Biso   1.000  He
  Ne86     1.0000 0.43098  0.05635  0.70312  Biso   1.000  Ne
  Ne87     1.0000 0.09102  0.04726  0.82689  Biso   1.000  Ne
  He87     1.0000 0.10907  0.07611  0.82744  Biso   1.000  He
  He88     1.0000 0.10372  0.09529  0.85350  Biso   1.000  He
  Ne88     1.0000 0.11035  0.12762  0.85075  Biso   1.000  Ne
  Ne89     1.0000 0.17925  0.88754  0.89143  Biso   1.000  Ne
  He89     1.0000 0.21054  0.89856  0.89559  Biso   1.000  He
  He90     1.0000 0.22496  0.89913  0.86552  Biso   1.000  He
  Ne90     1.0000 0.25817  0.89722  0.86869  Biso   1.000  Ne
  Ne91     1.0000 0.93659  0.75066  0.93361  Biso   1.000  Ne
  He91     1.0000 0.91159  0.74815  0.91338  Biso   1.000  He
  He92     1.0000 0.88353  0.76111  0.92632  Biso   1.000  He
  Ne92     1.0000 0.85791  0.76562  0.90676  Biso   1.000  Ne
  Ne93     1.0000 0.34354  0.86268  0.95052  Biso   1.000  Ne
  He93     1.0000 0.31628  0.88053  0.95264  Biso   1.000  He
  He94     1.0000 0.31830  0.91148  0.94002  Biso   1.000  He
  Ne94     1.0000 0.28823  0.92785  0.93926  Biso   1.000  Ne
  Ne95     1.0000 0.83957  0.21450  0.60956  Biso   1.000  Ne
  He95     1.0000 0.82314  0.24295  0.61880  Biso   1.000  He
  He96     1.0000 0.84388  0.26496  0.63139  Biso   1.000  He
  Ne96     1.0000 0.85796  0.28700  0.60757  Biso   1.000  Ne
  Ne97     1.0000 0.92891  0.45084  0.54805  Biso   1.000  Ne
  He97     1.0000 0.93207  0.43419  0.51995  Biso   1.000  He
  He98     1.0000 0.95837  0.41235  0.52322  Biso   1.000  He
  Ne98     1.0000 0.96386  0.39624  0.49757  Biso   1.000  Ne
  Ne99     1.0000 0.97961  0.25857  0.94651  Biso   1.000  Ne
  He99     1.0000 0.97318  0.24946  0.97946  Biso   1.000  He
  He100    1.0000 0.99555  0.26562  0.00010  Biso   1.000  He
  Ne100    1.0000 0.99213  0.26077  0.03024  Biso   1.000  Ne
  Ne101    1.0000 0.20589  0.71909  0.98148  Biso   1.000  Ne
  He101    1.0000 0.17639  0.72398  0.96624  Biso   1.000  He
  He102    1.0000 0.14926  0.71072  0.97847  Biso   1.000  He
  Ne102    1.0000 0.12194  0.72192  0.96371  Biso   1.000  Ne
  Ne103    1.0000 0.15940  0.37443  0.21837  Biso   1.000  Ne
  He103    1.0000 0.18599  0.39177  0.22943  Biso   1.000  He
  He104    1.0000 0.20624  0.37364  0.25111  Biso   1.000  He
  Ne104    1.0000 0.23161  0.36199  0.23641  Biso   1.000  Ne
  Ne105    1.0000 0.05589  0.05174  0.07971  Biso   1.000  Ne
  He105    1.0000 0.02636  0.03642  0.08951  Biso   1.000  He
  He106    1.0000 0.00059  0.04252  0.06867  Biso   1.000  He
  Ne106    1.0000 0.97557  0.03305  0.08224  Biso   1.000  Ne
  Ne107    1.0000 0.57354  0.88538  0.58746  Biso   1.000  Ne
  He107    1.0000 0.59129  0.90774  0.57112  Biso   1.000  He
  He108    1.0000 0.57369  0.92828  0.54840  Biso   1.000  He
  Ne108    1.0000 0.59213  0.95375  0.53505  Biso   1.000  Ne
  Ne109    1.0000 0.30504  0.09218  0.05090  Biso   1.000  Ne
  He109    1.0000 0.27963  0.11559  0.05784  Biso   1.000  He
  He110    1.0000 0.28316  0.12483  0.09180  Biso   1.000  He
  Ne110    1.0000 0.26366  0.15059  0.10232  Biso   1.000  Ne
  Ne111    1.0000 0.12421  0.14183  0.93780  Biso   1.000  Ne
  He111    1.0000 0.10888  0.11137  0.94131  Biso   1.000  He
  He112    1.0000 0.12931  0.08730  0.93601  Biso   1.000  He
  Ne112    1.0000 0.11446  0.05780  0.93250  Biso   1.000  Ne
  Ne113    1.0000 0.33078  0.88110  0.63212  Biso   1.000  Ne
  He113    1.0000 0.30788  0.85814  0.63115  Biso   1.000  He
  He114    1.0000 0.31361  0.83237  0.61354  Biso   1.000  He
  Ne114    1.0000 0.29331  0.80587  0.62040  Biso   1.000  Ne
  Ne115    1.0000 0.31125  0.30674  0.32453  Biso   1.000  Ne
  He115    1.0000 0.31730  0.31807  0.29448  Biso   1.000  He
  He116    1.0000 0.30365  0.34905  0.29118  Biso   1.000  He
  Ne116    1.0000 0.30969  0.36390  0.25871  Biso   1.000  Ne
  Ne117    1.0000 0.92386  0.66288  0.61922  Biso   1.000  Ne
  He117    1.0000 0.91175  0.64219  0.64254  Biso   1.000  He
  He118    1.0000 0.88020  0.64809  0.64541  Biso   1.000  He
  Ne118    1.0000 0.86617  0.62388  0.66425  Biso   1.000  Ne
  Ne119    1.0000 0.11083  0.22787  0.68323  Biso   1.000  Ne
  He119    1.0000 0.10917  0.24476  0.71199  Biso   1.000  He
  He120    1.0000 0.12862  0.23543  0.73779  Biso   1.000  He
  Ne120    1.0000 0.12739  0.25344  0.76541  Biso   1.000  Ne
  Ne121    1.0000 0.14647  0.44440  0.84308  Biso   1.000  Ne
  He121    1.0000 0.15274  0.42772  0.86800  Biso   1.000  He
  He122    1.0000 0.18450  0.42819  0.87785  Biso   1.000  He
  Ne122    1.0000 0.19379  0.41038  0.90257  Biso   1.000  Ne
  Ne123    1.0000 0.09247  0.72048  0.58951  Biso   1.000  Ne
  He123    1.0000 0.07723  0.74986  0.58063  Biso   1.000  He
  He124    1.0000 0.04566  0.74379  0.56888  Biso   1.000  He
  Ne124    1.0000 0.03101  0.77207  0.55795  Biso   1.000  Ne
  Ne125    1.0000 0.07553  0.04062  0.26198  Biso   1.000  Ne
  He125    1.0000 0.07197  0.05304  0.23196  Biso   1.000  He
  He126    1.0000 0.09957  0.04933  0.21225  Biso   1.000  He
  Ne126    1.0000 0.09986  0.06077  0.17960  Biso   1.000  Ne
  Ne127    1.0000 0.42205  0.62600  0.91616  Biso   1.000  Ne
  He127    1.0000 0.42643  0.65124  0.93308  Biso   1.000  He
  He128    1.0000 0.40304  0.67445  0.92618  Biso   1.000  He
  Ne128    1.0000 0.40345  0.70195  0.94449  Biso   1.000  Ne
  Ne129    1.0000 0.13357  0.76664  0.11184  Biso   1.000  Ne
  He129    1.0000 0.10265  0.77644  0.11688  Biso   1.000  He
  He130    1.0000 0.08180  0.75026  0.11417  Biso   1.000  He
  Ne130    1.0000 0.07809  0.73795  0.14368  Biso   1.000  Ne
  Ne131    1.0000 0.91119  0.86212  0.73194  Biso   1.000  Ne
  He131    1.0000 0.88879  0.88317  0.73805  Biso   1.000  He
  He132    1.0000 0.86766  0.87064  0.75689  Biso   1.000  He
  Ne132    1.0000 0.84028  0.88684  0.76761  Biso   1.000  Ne
  Ne133    1.0000 0.36630  0.37664  0.18977  Biso   1.000  Ne
  He133    1.0000 0.38795  0.37444  0.21484  Biso   1.000  He
  He134    1.0000 0.41351  0.35143  0.21122  Biso   1.000  He
  Ne134    1.0000 0.44112  0.36244  0.19292  Biso   1.000  Ne
  Ne135    1.0000 0.59802  0.38159  0.82785  Biso   1.000  Ne
  He135    1.0000 0.59700  0.35420  0.80896  Biso   1.000  He
  He136    1.0000 0.59414  0.32605  0.82766  Biso   1.000  He
  Ne136    1.0000 0.59276  0.29608  0.81276  Biso   1.000  Ne
  Ne137    1.0000 0.38650  0.08563  0.32321  Biso   1.000  Ne
  He137    1.0000 0.39224  0.06893  0.29397  Biso   1.000  He
  He138    1.0000 0.42319  0.06169  0.29048  Biso   1.000  He
  Ne138    1.0000 0.43140  0.04624  0.26176  Biso   1.000  Ne
  Ne139    1.0000 0.79279  0.56631  0.60627  Biso   1.000  Ne
  He139    1.0000 0.81839  0.55151  0.62009  Biso   1.000  He
  He140    1.0000 0.82047  0.55417  0.65583  Biso   1.000  He
  Ne140    1.0000 0.84395  0.53299  0.66936  Biso   1.000  Ne
  Ne141    1.0000 0.76270  0.72239  0.44755  Biso   1.000  Ne
  He141    1.0000 0.73347  0.72348  0.42978  Biso   1.000  He
  He142    1.0000 0.70606  0.73467  0.44654  Biso   1.000  He
  Ne142    1.0000 0.68015  0.73253  0.42590  Biso   1.000  Ne
  Ne143    1.0000 0.24174  0.67888  0.61581  Biso   1.000  Ne
  He143    1.0000 0.20796  0.67669  0.61720  Biso   1.000  He
  He144    1.0000 0.19617  0.64743  0.63273  Biso   1.000  He
  Ne144    1.0000 0.18361  0.62064  0.61383  Biso   1.000  Ne
  Ne145    1.0000 0.56704  0.36975  0.08143  Biso   1.000  Ne
  He145    1.0000 0.60120  0.37309  0.08424  Biso   1.000  He
  He146    1.0000 0.61563  0.39331  0.10524  Biso   1.000  He
  Ne146    1.0000 0.64942  0.39752  0.10182  Biso   1.000  Ne
  Ne147    1.0000 0.82259  0.58852  0.81642  Biso   1.000  Ne
  He147    1.0000 0.80039  0.56793  0.80380  Biso   1.000  He
  He148    1.0000 0.80200  0.53782  0.81950  Biso   1.000  He
  Ne148    1.0000 0.81901  0.51391  0.80440  Biso   1.000  Ne
  Ne149    1.0000 0.06386  0.28669  0.91027  Biso   1.000  Ne
  He149    1.0000 0.07820  0.26196  0.93170  Biso   1.000  He
  He150    1.0000 0.06872  0.23088  0.92210  Biso   1.000  He
  Ne150    1.0000 0.07768  0.20439  0.94211  Biso   1.000  Ne
  Ne151    1.0000 0.66379  0.77741  0.82649  Biso   1.000  Ne
  He151    1.0000 0.67631  0.75878  0.80285  Biso   1.000  He
  He152    1.0000 0.69623  0.77254  0.78277  Biso   1.000  He
  Ne152    1.0000 0.70941  0.75435  0.75705  Biso   1.000  Ne
  Ne153    1.0000 0.14221  0.63457  0.36496  Biso   1.000  Ne
  He153    1.0000 0.13608  0.61530  0.34151  Biso   1.000  He
  He154    1.0000 0.12199  0.58483  0.34838  Biso   1.000  He
  Ne154    1.0000 0.11505  0.56516  0.32173  Biso   1.000  Ne
  Ne155    1.0000 0.43808  0.79090  0.66543  Biso   1.000  Ne
  He155    1.0000 0.42614  0.78948  0.63318  Biso   1.000  He
  He156    1.0000 0.39497  0.77855  0.63011  Biso   1.000  He
  Ne156    1.0000 0.38347  0.77855  0.59815  Biso   1.000  Ne
  Ne157    1.0000 0.42489  0.31835  0.85930  Biso   1.000  Ne
  He157    1.0000 0.42955  0.31300  0.89279  Biso   1.000  He
  He158    1.0000 0.40169  0.31749  0.90858  Biso   1.000  He
  Ne158    1.0000 0.40459  0.30806  0.94050  Biso   1.000  Ne
  Ne159    1.0000 0.55600  0.76984  0.86752  Biso   1.000  Ne
  He159    1.0000 0.53434  0.78594  0.88209  Biso   1.000  He
  He160    1.0000 0.50418  0.77824  0.87577  Biso   1.000  He
  Ne160    1.0000 0.48028  0.79948  0.89226  Biso   1.000  Ne
  Ne161    1.0000 0.62323  0.03723  0.67779  Biso   1.000  Ne
  He161    1.0000 0.60583  0.03540  0.70796  Biso   1.000  He
  He162    1.0000 0.62354  0.02489  0.73489  Biso   1.000  He
  Ne162    1.0000 0.60545  0.01981  0.76324  Biso   1.000  Ne
  Ne163    1.0000 0.77086  0.52760  0.93187  Biso   1.000  Ne
  He163    1.0000 0.77120  0.55981  0.92846  Biso   1.000  He
  He164    1.0000 0.80205  0.57735  0.93530  Biso   1.000  He
  Ne164    1.0000 0.79918  0.61140  0.92927  Biso   1.000  Ne
  Ne165    1.0000 0.01609  0.40586  0.96075  Biso   1.000  Ne
  He165    1.0000 0.02991  0.40119  0.98984  Biso   1.000  He
  He166    1.0000 0.01134  0.38622  0.01392  Biso   1.000  He
  Ne166    1.0000 0.02921  0.38188  0.04368  Biso   1.000  Ne
  Ne167    1.0000 0.20571  0.58710  0.69639  Biso   1.000  Ne
  He167    1.0000 0.20071  0.57030  0.72540  Biso   1.000  He
  He168    1.0000 0.21932  0.57849  0.75092  Biso   1.000  He
  Ne168    1.0000 0.21090  0.56049  0.77846  Biso   1.000  Ne
  Ne169    1.0000 0.10238  0.53390  0.71727  Biso   1.000  Ne
  He169    1.0000 0.10993  0.54381  0.68771  Biso   1.000  He
  He170    1.0000 0.14101  0.53424  0.67857  Biso   1.000  He
  Ne170    1.0000 0.15317  0.55144  0.65106  Biso   1.000  Ne
  Ne171    1.0000 0.24939  0.36274  0.68192  Biso   1.000  Ne
  He171    1.0000 0.24434  0.36349  0.65236  Biso   1.000  He
  He172    1.0000 0.23002  0.39038  0.64236  Biso   1.000  He
  Ne172    1.0000 0.22737  0.39486  0.60821  Biso   1.000  Ne
  Ne173    1.0000 0.38412  0.05473  0.44414  Biso   1.000  Ne
  He173    1.0000 0.41617  0.07083  0.44608  Biso   1.000  He
  He174    1.0000 0.43615  0.05486  0.46581  Biso   1.000  He
  Ne174    1.0000 0.46435  0.07041  0.47031  Biso   1.000  Ne
  Ne175    1.0000 0.64459  0.84600  0.60564  Biso   1.000  Ne
  He175    1.0000 0.67405  0.84091  0.59518  Biso   1.000  He
  He176    1.0000 0.69473  0.85706  0.61389  Biso   1.000  He
  Ne176    1.0000 0.72642  0.85724  0.60563  Biso   1.000  Ne
  Ne177    1.0000 0.72391  0.52112  0.32168  Biso   1.000  Ne
  He177    1.0000 0.69843  0.50174  0.31330  Biso   1.000  He
  He178    1.0000 0.66904  0.51419  0.32224  Biso   1.000  He
  Ne178    1.0000 0.64261  0.49643  0.31118  Biso   1.000  Ne
  Ne179    1.0000 0.79136  0.07944  0.19554  Biso   1.000  Ne
  He179    1.0000 0.81795  0.07057  0.17912  Biso   1.000  He
  He180    1.0000 0.81714  0.07727  0.14770  Biso   1.000  He
  Ne180    1.0000 0.84643  0.07250  0.13370  Biso   1.000  Ne
  Ne181    1.0000 0.56507  0.04975  0.59352  Biso   1.000  Ne
  He181    1.0000 0.59753  0.04739  0.60124  Biso   1.000  He
  He182    1.0000 0.61684  0.03206  0.58050  Biso   1.000  He
  Ne182    1.0000 0.64893  0.02997  0.58871  Biso   1.000  Ne
  Ne183    1.0000 0.68965  0.54727  0.92207  Biso   1.000  Ne
  He183    1.0000 0.69544  0.53510  0.88965  Biso   1.000  He
  He184    1.0000 0.67619  0.55007  0.86720  Biso   1.000  He
  Ne184    1.0000 0.67674  0.54014  0.83531  Biso   1.000  Ne
  Ne185    1.0000 0.44772  0.20492  0.82234  Biso   1.000  Ne
  He185    1.0000 0.41947  0.19794  0.83903  Biso   1.000  He
  He186    1.0000 0.39995  0.17470  0.82786  Biso   1.000  He
  Ne186    1.0000 0.41063  0.14381  0.83777  Biso   1.000  Ne
  Ne187    1.0000 0.18802  0.08334  0.84388  Biso   1.000  Ne
  He187    1.0000 0.18966  0.05762  0.82532  Biso   1.000  He
  He188    1.0000 0.17879  0.06064  0.79323  Biso   1.000  He
  Ne188    1.0000 0.18403  0.03465  0.77324  Biso   1.000  Ne
  Ne189    1.0000 0.34390  0.36728  0.80876  Biso   1.000  Ne
  He189    1.0000 0.32809  0.38227  0.78354  Biso   1.000  He
  He190    1.0000 0.32363  0.36479  0.75536  Biso   1.000  He
  Ne190    1.0000 0.30832  0.38385  0.73312  Biso   1.000  Ne
  Ne191    1.0000 0.47608  0.67364  0.67177  Biso   1.000  Ne
  He191    1.0000 0.47047  0.68022  0.70227  Biso   1.000  He
  He192    1.0000 0.44257  0.69944  0.70783  Biso   1.000  He
  Ne192    1.0000 0.43226  0.70139  0.74059  Biso   1.000  Ne
  Ne193    1.0000 0.23801  0.33256  0.42964  Biso   1.000  Ne
  He193    1.0000 0.26347  0.34747  0.41294  Biso   1.000  He
  He194    1.0000 0.29341  0.33208  0.41959  Biso   1.000  He
  Ne194    1.0000 0.32165  0.34754  0.40537  Biso   1.000  Ne
  Ne195    1.0000 0.06766  0.39658  0.25467  Biso   1.000  Ne
  He195    1.0000 0.09195  0.40349  0.27240  Biso   1.000  He
  He196    1.0000 0.09495  0.38594  0.29902  Biso   1.000  He
  Ne196    1.0000 0.12632  0.38859  0.31533  Biso   1.000  Ne
  Ne197    1.0000 0.53286  0.54036  0.94119  Biso   1.000  Ne
  He197    1.0000 0.53499  0.50772  0.94719  Biso   1.000  He
  He198    1.0000 0.56241  0.49116  0.93865  Biso   1.000  He
  Ne198    1.0000 0.56482  0.46272  0.95127  Biso   1.000  Ne
  Ne199    1.0000 0.91646  0.78987  0.25729  Biso   1.000  Ne
  He199    1.0000 0.89090  0.78238  0.24100  Biso   1.000  He
  He200    1.0000 0.89252  0.77861  0.20941  Biso   1.000  He
  Ne200    1.0000 0.86435  0.76753  0.19872  Biso   1.000  Ne
  Ne201    1.0000 0.29123  0.24865  0.95353  Biso   1.000  Ne
  He201    1.0000 0.29039  0.21814  0.96307  Biso   1.000  He
  He202    1.0000 0.31987  0.20797  0.97521  Biso   1.000  He
  Ne202    1.0000 0.32341  0.17734  0.98626  Biso   1.000  Ne
  Ne203    1.0000 0.73424  0.38093  0.16364  Biso   1.000  Ne
  He203    1.0000 0.71509  0.37606  0.19010  Biso   1.000  He
  He204    1.0000 0.68409  0.38890  0.18284  Biso   1.000  He
  Ne204    1.0000 0.66994  0.39270  0.21064  Biso   1.000  Ne
  Ne205    1.0000 0.41362  0.69827  0.60044  Biso   1.000  Ne
  He205    1.0000 0.43245  0.69492  0.57361  Biso   1.000  He
  He206    1.0000 0.46504  0.68646  0.57607  Biso   1.000  He
  Ne206    1.0000 0.48243  0.68888  0.54662  Biso   1.000  Ne
  Ne207    1.0000 0.73479  0.04735  0.66741  Biso   1.000  Ne
  He207    1.0000 0.73721  0.04953  0.69957  Biso   1.000  He
  He208    1.0000 0.71350  0.06977  0.71282  Biso   1.000  He
  Ne208    1.0000 0.71959  0.07704  0.74465  Biso   1.000  Ne
  Ne209    1.0000 0.26499  0.86990  0.12068  Biso   1.000  Ne
  He209    1.0000 0.29492  0.86767  0.10693  Biso   1.000  He
  He210    1.0000 0.30302  0.83837  0.09492  Biso   1.000  He
  Ne210    1.0000 0.29652  0.83201  0.06189  Biso   1.000  Ne
  Ne211    1.0000 0.86253  0.07506  0.73997  Biso   1.000  Ne
  He211    1.0000 0.84874  0.04653  0.72888  Biso   1.000  He
  He212    1.0000 0.82647  0.05065  0.70390  Biso   1.000  He
  Ne212    1.0000 0.81266  0.02281  0.69763  Biso   1.000  Ne
  Ne213    1.0000 0.42956  0.23183  0.59397  Biso   1.000  Ne
  He213    1.0000 0.43211  0.20258  0.58344  Biso   1.000  He
  He214    1.0000 0.41421  0.18010  0.59990  Biso   1.000  He
  Ne214    1.0000 0.41700  0.14707  0.58903  Biso   1.000  Ne
  Ne215    1.0000 0.39107  0.78298  0.43744  Biso   1.000  Ne
  He215    1.0000 0.36636  0.80707  0.44849  Biso   1.000  He
  He216    1.0000 0.33554  0.80099  0.43772  Biso   1.000  He
  Ne216    1.0000 0.31477  0.82561  0.44664  Biso   1.000  Ne
  Ne217    1.0000 0.36536  0.75295  0.73030  Biso   1.000  Ne
  He217    1.0000 0.35346  0.78329  0.73735  Biso   1.000  He
  He218    1.0000 0.36229  0.80686  0.71623  Biso   1.000  He
  Ne218    1.0000 0.35067  0.83832  0.72068  Biso   1.000  Ne
  Ne219    1.0000 0.34272  0.07126  0.63799  Biso   1.000  Ne
  He219    1.0000 0.31476  0.08219  0.65353  Biso   1.000  He
  He220    1.0000 0.32386  0.09283  0.68405  Biso   1.000  He
  Ne220    1.0000 0.30070  0.10643  0.70240  Biso   1.000  Ne
  Ne221    1.0000 0.15218  0.37808  0.70034  Biso   1.000  Ne
  He221    1.0000 0.13228  0.35285  0.69174  Biso   1.000  He
  He222    1.0000 0.10533  0.36567  0.67499  Biso   1.000  He
  Ne222    1.0000 0.08558  0.34367  0.66043  Biso   1.000  Ne
  Ne223    1.0000 0.82206  0.05077  0.80835  Biso   1.000  Ne
  He223    1.0000 0.85600  0.04860  0.81670  Biso   1.000  He
  He224    1.0000 0.85964  0.04530  0.84973  Biso   1.000  He
  Ne224    1.0000 0.88997  0.04959  0.85850  Biso   1.000  Ne
  Ne225    1.0000 0.91124  0.87172  0.22131  Biso   1.000  Ne
  He225    1.0000 0.87790  0.87013  0.21010  Biso   1.000  He
  He226    1.0000 0.86922  0.89738  0.19619  Biso   1.000  He
  Ne226    1.0000 0.84068  0.89577  0.18248  Biso   1.000  Ne
  Ne227    1.0000 0.34830  0.04565  0.75366  Biso   1.000  Ne
  He227    1.0000 0.34290  0.06843  0.77711  Biso   1.000  He
  He228    1.0000 0.31897  0.06043  0.79813  Biso   1.000  He
  Ne228    1.0000 0.31396  0.07812  0.82476  Biso   1.000  Ne
  Ne229    1.0000 0.00401  0.94522  0.10722  Biso   1.000  Ne
  He229    1.0000 0.97310  0.94147  0.10014  Biso   1.000  He
  He230    1.0000 0.96847  0.90777  0.09946  Biso   1.000  He
  Ne230    1.0000 0.97219  0.89257  0.06958  Biso   1.000  Ne
  Ne231    1.0000 0.15644  0.30951  0.58869  Biso   1.000  Ne
  He231    1.0000 0.13592  0.28350  0.58798  Biso   1.000  He
  He232    1.0000 0.15096  0.25467  0.58375  Biso   1.000  He
  Ne232    1.0000 0.13109  0.22682  0.58396  Biso   1.000  Ne
  Ne233    1.0000 0.20403  0.15851  0.92091  Biso   1.000  Ne
  He233    1.0000 0.19025  0.17992  0.90179  Biso   1.000  He
  He234    1.0000 0.19136  0.21065  0.91681  Biso   1.000  He
  Ne234    1.0000 0.17622  0.23384  0.90158  Biso   1.000  Ne
  Ne235    1.0000 0.12409  0.37124  0.44858  Biso   1.000  Ne
  He235    1.0000 0.11690  0.39350  0.42721  Biso   1.000  He
  He236    1.0000 0.09334  0.38307  0.40224  Biso   1.000  He
  Ne236    1.0000 0.08394  0.40604  0.38062  Biso   1.000  Ne
  Ne237    1.0000 0.70099  0.72491  0.10698  Biso   1.000  Ne
  He237    1.0000 0.67188  0.73127  0.12427  Biso   1.000  He
  He238    1.0000 0.64616  0.71657  0.10708  Biso   1.000  He
  Ne238    1.0000 0.61489  0.71945  0.12161  Biso   1.000  Ne
  Ne239    1.0000 0.91513  0.17884  0.87708  Biso   1.000  Ne
  He239    1.0000 0.90208  0.17079  0.90670  Biso   1.000  He
  He240    1.0000 0.87459  0.15106  0.90768  Biso   1.000  He
  Ne240    1.0000 0.86494  0.14241  0.93615  Biso   1.000  Ne
  Ne241    1.0000 0.81931  0.27544  0.00293  Biso   1.000  Ne
  He241    1.0000 0.82095  0.24295  0.99806  Biso   1.000  He
  He242    1.0000 0.81527  0.23788  0.96643  Biso   1.000  He
  Ne242    1.0000 0.81403  0.20604  0.95893  Biso   1.000  Ne
  Ne243    1.0000 0.21539  0.81251  0.90803  Biso   1.000  Ne
  He243    1.0000 0.18798  0.79717  0.91778  Biso   1.000  He
  He244    1.0000 0.17200  0.81005  0.94561  Biso   1.000  He
  Ne244    1.0000 0.13927  0.80098  0.95131  Biso   1.000  Ne
  Ne245    1.0000 0.23829  0.24308  0.19411  Biso   1.000  Ne
  He245    1.0000 0.20883  0.25652  0.20447  Biso   1.000  He
  He246    1.0000 0.21233  0.28305  0.22529  Biso   1.000  He
  Ne246    1.0000 0.18657  0.30042  0.23723  Biso   1.000  Ne
  Ne247    1.0000 0.30556  0.07078  0.90906  Biso   1.000  Ne
  He247    1.0000 0.27905  0.08355  0.92820  Biso   1.000  He
  He248    1.0000 0.25328  0.05958  0.93427  Biso   1.000  He
  Ne248    1.0000 0.23203  0.06873  0.95818  Biso   1.000  Ne
  Ne249    1.0000 0.25610  0.87682  0.76739  Biso   1.000  Ne
  He249    1.0000 0.26151  0.85542  0.74237  Biso   1.000  He
  He250    1.0000 0.23933  0.85548  0.71738  Biso   1.000  He
  Ne250    1.0000 0.24708  0.83609  0.69008  Biso   1.000  Ne
  Ne251    1.0000 0.42365  0.94070  0.45236  Biso   1.000  Ne
  He251    1.0000 0.43360  0.91706  0.42804  Biso   1.000  He
  He252    1.0000 0.40974  0.91355  0.41051  Biso   1.000  He
  Ne252    1.0000 0.41153  0.89039  0.38580  Biso   1.000  Ne
  Ne253    1.0000 0.03467  0.47044  0.56271  Biso   1.000  Ne
  He253    1.0000 0.03209  0.43780  0.57219  Biso   1.000  He
  He254    1.0000 0.05617  0.42961  0.59410  Biso   1.000  He
  Ne254    1.0000 0.05575  0.39881  0.60744  Biso   1.000  Ne
  Ne255    1.0000 0.90750  0.35565  0.71154  Biso   1.000  Ne
  He255    1.0000 0.87632  0.34334  0.71405  Biso   1.000  He
  He256    1.0000 0.85641  0.34433  0.68627  Biso   1.000  He
  Ne256    1.0000 0.82649  0.33370  0.69202  Biso   1.000  Ne
  Ne257    1.0000 0.10061  0.80337  0.21494  Biso   1.000  Ne
  He257    1.0000 0.09154  0.83164  0.22444  Biso   1.000  He
  He258    1.0000 0.10083  0.84015  0.25597  Biso   1.000  He
  Ne258    1.0000 0.09260  0.86905  0.26399  Biso   1.000  Ne
  Ne259    1.0000 0.93198  0.23546  0.39130  Biso   1.000  Ne
  He259    1.0000 0.92489  0.25030  0.35997  Biso   1.000  He
  He260    1.0000 0.93238  0.28301  0.35866  Biso   1.000  He
  Ne260    1.0000 0.92779  0.29843  0.32956  Biso   1.000  Ne
  Ne261    1.0000 0.92915  0.03628  0.94978  Biso   1.000  Ne
  He261    1.0000 0.93268  0.01003  0.93229  Biso   1.000  He
  He262    1.0000 0.94892  0.98437  0.94943  Biso   1.000  He
  Ne262    1.0000 0.95324  0.95777  0.93044  Biso   1.000  Ne
  Ne263    1.0000 0.57608  0.66275  0.89489  Biso   1.000  Ne
  He263    1.0000 0.59379  0.67404  0.86955  Biso   1.000  He
  He264    1.0000 0.58164  0.69522  0.84508  Biso   1.000  He
  Ne264    1.0000 0.60392  0.70953  0.82385  Biso   1.000  Ne
  Ne265    1.0000 0.31011  0.30120  0.20426  Biso   1.000  Ne
  He265    1.0000 0.33909  0.28962  0.18992  Biso   1.000  He
  He266    1.0000 0.36492  0.28346  0.20853  Biso   1.000  He
  Ne266    1.0000 0.39081  0.27305  0.19106  Biso   1.000  Ne
  Ne267    1.0000 0.75529  0.36466  0.95097  Biso   1.000  Ne
  He267    1.0000 0.73364  0.35685  0.92745  Biso   1.000  He
  He268    1.0000 0.70870  0.33366  0.93753  Biso   1.000  He
  Ne268    1.0000 0.68946  0.31997  0.91110  Biso   1.000  Ne
  Ne269    1.0000 0.81469  0.89944  0.26350  Biso   1.000  Ne
  He269    1.0000 0.84004  0.91959  0.27482  Biso   1.000  He
  He270    1.0000 0.83391  0.93324  0.30236  Biso   1.000  He
  Ne270    1.0000 0.85635  0.95810  0.31095  Biso   1.000  Ne
  Ne271    1.0000 0.92194  0.16972  0.76086  Biso   1.000  Ne
  He271    1.0000 0.92449  0.17529  0.72895  Biso   1.000  He
  He272    1.0000 0.90276  0.20053  0.71929  Biso   1.000  He
  Ne272    1.0000 0.90473  0.20378  0.68618  Biso   1.000  Ne
  Ne273    1.0000 0.59092  0.66734  0.28907  Biso   1.000  Ne
  He273    1.0000 0.55695  0.66718  0.29411  Biso   1.000  He
  He274    1.0000 0.54908  0.65217  0.32268  Biso   1.000  He
  Ne274    1.0000 0.51403  0.65076  0.32734  Biso   1.000  Ne
  Ne275    1.0000 0.66595  0.11034  0.18549  Biso   1.000  Ne
  He275    1.0000 0.68171  0.12178  0.15772  Biso   1.000  He
  He276    1.0000 0.71610  0.12735  0.16190  Biso   1.000  He
  Ne276    1.0000 0.72770  0.13661  0.13443  Biso   1.000  Ne
  Ne277    1.0000 0.43107  0.16014  0.07717  Biso   1.000  Ne
  He277    1.0000 0.39998  0.17050  0.08361  Biso   1.000  He
  He278    1.0000 0.38341  0.17595  0.05620  Biso   1.000  He
  Ne278    1.0000 0.35240  0.18637  0.05941  Biso   1.000  Ne
  Ne279    1.0000 0.89817  0.40790  0.42128  Biso   1.000  Ne
  He279    1.0000 0.90098  0.37690  0.43207  Biso   1.000  He
  He280    1.0000 0.92460  0.36006  0.41712  Biso   1.000  He
  Ne280    1.0000 0.93061  0.32822  0.42968  Biso   1.000  Ne
  Ne281    1.0000 0.11576  0.72874  0.76939  Biso   1.000  Ne
  He281    1.0000 0.09567  0.71376  0.74751  Biso   1.000  He
  He282    1.0000 0.08966  0.72911  0.71864  Biso   1.000  He
  Ne282    1.0000 0.06476  0.71423  0.69844  Biso   1.000  Ne
  Ne283    1.0000 0.08594  0.60526  0.58225  Biso   1.000  Ne
  He283    1.0000 0.10411  0.57838  0.57842  Biso   1.000  He
  He284    1.0000 0.08531  0.55500  0.56383  Biso   1.000  He
  Ne284    1.0000 0.09901  0.52561  0.56108  Biso   1.000  Ne
  Ne285    1.0000 0.59511  0.13509  0.62554  Biso   1.000  Ne
  He285    1.0000 0.62427  0.14190  0.63199  Biso   1.000  He
  He286    1.0000 0.64338  0.12147  0.62054  Biso   1.000  He
  Ne286    1.0000 0.67406  0.12492  0.62937  Biso   1.000  Ne
  Ne287    1.0000 0.40472  0.39530  0.08865  Biso   1.000  Ne
  He287    1.0000 0.43557  0.40586  0.07950  Biso   1.000  He
  He288    1.0000 0.46247  0.38553  0.09142  Biso   1.000  He
  Ne288    1.0000 0.49242  0.39929  0.09129  Biso   1.000  Ne
  Ne289    1.0000 0.88753  0.56157  0.35899  Biso   1.000  Ne
  He289    1.0000 0.90077  0.57035  0.32924  Biso   1.000  He
  He290    1.0000 0.93117  0.58400  0.33337  Biso   1.000  He
  Ne290    1.0000 0.95034  0.58727  0.30704  Biso   1.000  Ne
  Ne291    1.0000 0.67832  0.78048  0.63735  Biso   1.000  Ne
  He291    1.0000 0.65192  0.76459  0.65034  Biso   1.000  He
  He292    1.0000 0.62950  0.75663  0.62872  Biso   1.000  He
  Ne292    1.0000 0.60317  0.73884  0.63726  Biso   1.000  Ne
  Ne293    1.0000 0.62654  0.37279  0.73252  Biso   1.000  Ne
  He293    1.0000 0.65860  0.36541  0.74061  Biso   1.000  He
  He294    1.0000 0.67945  0.38581  0.72228  Biso   1.000  He
  Ne294    1.0000 0.71168  0.37901  0.73108  Biso   1.000  Ne
  Ne295    1.0000 0.37361  0.56457  0.95348  Biso   1.000  Ne
  He295    1.0000 0.40326  0.56136  0.95807  Biso   1.000  He
  He296    1.0000 0.41686  0.53908  0.93945  Biso   1.000  He
  Ne296    1.0000 0.44827  0.54494  0.93576  Biso   1.000  Ne
  Ne297    1.0000 0.93899  0.83820  0.93046  Biso   1.000  Ne
  He297    1.0000 0.91910  0.86176  0.94623  Biso   1.000  He
  He298    1.0000 0.89632  0.87437  0.92378  Biso   1.000  He
  Ne298    1.0000 0.87220  0.89194  0.93834  Biso   1.000  Ne
  Ne299    1.0000 0.06827  0.89359  0.14419  Biso   1.000  Ne
  He299    1.0000 0.07769  0.89555  0.11079  Biso   1.000  He
  He300    1.0000 0.09270  0.92242  0.10196  Biso   1.000  He
  Ne300    1.0000 0.09920  0.92480  0.07103  Biso   1.000  Ne
  Ne301    1.0000 0.43304  0.07869  0.81322  Biso   1.000  Ne
  He301    1.0000 0.46119  0.06284  0.80442  Biso   1.000  He
  He302    1.0000 0.45882  0.02698  0.80765  Biso   1.000  He
  Ne302    1.0000 0.48528  0.01379  0.79870  Biso   1.000  Ne
  Ne303    1.0000 0.41295  0.63652  0.10655  Biso   1.000  Ne
  He303    1.0000 0.42546  0.65879  0.12940  Biso   1.000  He
  He304    1.0000 0.41724  0.68992  0.12561  Biso   1.000  He
  Ne304    1.0000 0.42730  0.71038  0.14996  Biso   1.000  Ne
  Ne305    1.0000 0.59435  0.11948  0.72430  Biso   1.000  Ne
  He305    1.0000 0.59836  0.14949  0.73595  Biso   1.000  He
  He306    1.0000 0.61965  0.15139  0.76124  Biso   1.000  He
  Ne306    1.0000 0.63286  0.17931  0.76871  Biso   1.000  Ne
  Ne307    1.0000 0.18510  0.82539  0.11142  Biso   1.000  Ne
  He307    1.0000 0.17143  0.85477  0.11880  Biso   1.000  He
  He308    1.0000 0.17379  0.85990  0.15158  Biso   1.000  He
  Ne308    1.0000 0.15785  0.88636  0.16402  Biso   1.000  Ne
  Ne309    1.0000 0.77863  0.81467  0.67532  Biso   1.000  Ne
  He309    1.0000 0.76219  0.83506  0.69411  Biso   1.000  He
  He310    1.0000 0.73029  0.82904  0.69201  Biso   1.000  He
  Ne310    1.0000 0.71592  0.85101  0.71083  Biso   1.000  Ne
  Ne311    1.0000 0.07484  0.59674  0.42582  Biso   1.000  Ne
  He311    1.0000 0.05828  0.58694  0.45041  Biso   1.000  He
  He312    1.0000 0.04547  0.55801  0.44426  Biso   1.000  He
  Ne312    1.0000 0.02555  0.54756  0.47170  Biso   1.000  Ne
  Ne313    1.0000 0.66254  0.25399  0.58301  Biso   1.000  Ne
  He313    1.0000 0.67575  0.25144  0.61300  Biso   1.000  He
  He314    1.0000 0.70319  0.23277  0.60825  Biso   1.000  He
  Ne314    1.0000 0.72020  0.22617  0.63590  Biso   1.000  Ne
  Ne315    1.0000 0.68851  0.57891  0.08501  Biso   1.000  Ne
  He315    1.0000 0.72154  0.58588  0.07880  Biso   1.000  He
  He316    1.0000 0.72880  0.61820  0.08623  Biso   1.000  He
  Ne316    1.0000 0.75886  0.62394  0.07645  Biso   1.000  Ne
  Ne317    1.0000 0.93688  0.56350  0.43689  Biso   1.000  Ne
  He317    1.0000 0.94150  0.53623  0.45986  Biso   1.000  He
  He318    1.0000 0.92764  0.54152  0.48887  Biso   1.000  He
  Ne318    1.0000 0.92799  0.51417  0.50598  Biso   1.000  Ne
  Ne319    1.0000 0.08399  0.70816  0.30171  Biso   1.000  Ne
  He319    1.0000 0.06961  0.69576  0.27333  Biso   1.000  He
  He320    1.0000 0.06940  0.71633  0.24788  Biso   1.000  He
  Ne320    1.0000 0.04903  0.71110  0.22678  Biso   1.000  Ne
  Ne321    1.0000 0.86343  0.38326  0.31263  Biso   1.000  Ne
  He321    1.0000 0.88385  0.40443  0.32726  Biso   1.000  He
  He322    1.0000 0.91698  0.39652  0.33184  Biso   1.000  He
  Ne322    1.0000 0.93335  0.41344  0.35418  Biso   1.000  Ne
  Ne323    1.0000 0.23419  0.55691  0.44128  Biso   1.000  Ne
  He323    1.0000 0.20683  0.56520  0.45528  Biso   1.000  He
  He324    1.0000 0.18026  0.55787  0.43589  Biso   1.000  He
  Ne324    1.0000 0.15383  0.56519  0.45059  Biso   1.000  Ne
  Ne325    1.0000 0.74358  0.04112  0.87051  Biso   1.000  Ne
  He325    1.0000 0.72902  0.03540  0.89854  Biso   1.000  He
  He326    1.0000 0.69932  0.05304  0.90203  Biso   1.000  He
  Ne326    1.0000 0.68485  0.05273  0.93118  Biso   1.000  Ne
  Ne327    1.0000 0.69296  0.91754  0.03680  Biso   1.000  Ne
  He327    1.0000 0.69338  0.94387  0.01684  Biso   1.000  He
  He328    1.0000 0.71118  0.97105  0.02877  Biso   1.000  He
  Ne328    1.0000 0.71294  0.99860  0.00786  Biso   1.000  Ne
  Ne329    1.0000 0.08970  0.19157  0.16836  Biso   1.000  Ne
  He329    1.0000 0.08654  0.16725  0.14503  Biso   1.000  He
  He330    1.0000 0.09541  0.17214  0.11341  Biso   1.000  He
  Ne330    1.0000 0.08774  0.14738  0.09152  Biso   1.000  Ne
  Ne331    1.0000 0.92012  0.12470  0.18806  Biso   1.000  Ne
  He331    1.0000 0.92713  0.10602  0.16055  Biso   1.000  He
  He332    1.0000 0.91464  0.12026  0.13236  Biso   1.000  He
  Ne332    1.0000 0.92020  0.10458  0.10271  Biso   1.000  Ne
  Ne333    1.0000 0.34248  0.34386  0.10783  Biso   1.000  Ne
  He333    1.0000 0.37140  0.33334  0.11896  Biso   1.000  He
  He334    1.0000 0.37836  0.30189  0.11034  Biso   1.000  He
  Ne334    1.0000 0.41053  0.30081  0.11206  Biso   1.000  Ne
  Ne335    1.0000 0.15337  0.65728  0.71676  Biso   1.000  Ne
  He335    1.0000 0.13593  0.64652  0.69006  Biso   1.000  He
  He336    1.0000 0.10507  0.63576  0.69549  Biso   1.000  He
  Ne336    1.0000 0.09075  0.63072  0.66699  Biso   1.000  Ne
  Ne337    1.0000 0.50463  0.98510  0.43885  Biso   1.000  Ne
  He337    1.0000 0.51643  0.01647  0.44813  Biso   1.000  He
  He338    1.0000 0.54940  0.01905  0.45532  Biso   1.000  He
  Ne338    1.0000 0.55467  0.05029  0.46670  Biso   1.000  Ne
  Ne339    1.0000 0.34589  0.90129  0.45763  Biso   1.000  Ne
  He339    1.0000 0.32549  0.90853  0.43223  Biso   1.000  He
  He340    1.0000 0.33296  0.89592  0.40407  Biso   1.000  He
  Ne340    1.0000 0.30739  0.90319  0.38411  Biso   1.000  Ne
  Ne341    1.0000 0.78612  0.38143  0.58341  Biso   1.000  Ne
  He341    1.0000 0.78567  0.35072  0.60168  Biso   1.000  He
  He342    1.0000 0.76459  0.35508  0.62732  Biso   1.000  He
  Ne342    1.0000 0.75780  0.32455  0.64290  Biso   1.000  Ne
  Ne343    1.0000 0.19481  0.37633  0.35536  Biso   1.000  Ne
  He343    1.0000 0.21760  0.35305  0.35117  Biso   1.000  He
  He344    1.0000 0.20456  0.32239  0.35462  Biso   1.000  He
  Ne344    1.0000 0.22538  0.29838  0.34934  Biso   1.000  Ne
  Ne345    1.0000 0.57928  0.28682  0.96079  Biso   1.000  Ne
  He345    1.0000 0.59743  0.27875  0.93649  Biso   1.000  He
  He346    1.0000 0.61806  0.25306  0.94059  Biso   1.000  He
  Ne346    1.0000 0.63873  0.24561  0.91432  Biso   1.000  Ne
  Ne347    1.0000 0.60249  0.21626  0.10656  Biso   1.000  Ne
  He347    1.0000 0.58875  0.22967  0.13503  Biso   1.000  He
  He348    1.0000 0.59819  0.26046  0.14043  Biso   1.000  He
  Ne348    1.0000 0.58685  0.27284  0.17016  Biso   1.000  Ne
  Ne349    1.0000 0.56285  0.18339  0.02441  Biso   1.000  Ne
  He349    1.0000 0.57200  0.18885  0.99614  Biso   1.000  He
  He350    1.0000 0.55907  0.17292  0.97142  Biso   1.000  He
  Ne350    1.0000 0.57047  0.18314  0.94250  Biso   1.000  Ne
  Ne351    1.0000 0.67724  0.63837  0.85968  Biso   1.000  Ne
  He351    1.0000 0.70994  0.64394  0.85359  Biso   1.000  He
  He352    1.0000 0.71951  0.67538  0.84729  Biso   1.000  He
  Ne352    1.0000 0.75124  0.68177  0.84535  Biso   1.000  Ne
  Ne353    1.0000 0.63447  0.04713  0.40304  Biso   1.000  Ne
  He353    1.0000 0.62830  0.05613  0.37252  Biso   1.000  He
  He354    1.0000 0.65542  0.06023  0.35460  Biso   1.000  He
  Ne354    1.0000 0.64643  0.07054  0.32600  Biso   1.000  Ne
  Ne355    1.0000 0.98334  0.43310  0.42272  Biso   1.000  Ne
  He355    1.0000 0.00097  0.45506  0.43990  Biso   1.000  He
  He356    1.0000 0.03408  0.44810  0.44093  Biso   1.000  He
  Ne356    1.0000 0.05192  0.46712  0.46352  Biso   1.000  Ne
  Ne357    1.0000 0.04398  0.01728  0.92205  Biso   1.000  Ne
  He357    1.0000 0.03672  0.02625  0.95284  Biso   1.000  He
  He358    1.0000 0.05479  0.01332  0.97868  Biso   1.000  He
  Ne358    1.0000 0.05012  0.02630  0.00859  Biso   1.000  Ne
  Ne359    1.0000 0.69648  0.30948  0.11044  Biso   1.000  Ne
  He359    1.0000 0.68621  0.28265  0.12131  Biso   1.000  He
  He360    1.0000 0.70719  0.27086  0.14236  Biso   1.000  He
  Ne360    1.0000 0.69853  0.23925  0.14985  Biso   1.000  Ne
