data_image0
_cell_length_a       46.5563
_cell_length_b       46.6105
_cell_length_c       46.5682
_cell_angle_alpha    90
_cell_angle_beta     90
_cell_angle_gamma    90

_symmetry_space_group_name_H-M    "P 1"
_symmetry_int_tables_number       1

loop_
  _symmetry_equiv_pos_as_xyz
  'x, y, z'

loop_
  _atom_site_label
  _atom_site_occupancy
  _atom_site_fract_x
  _atom_site_fract_y
  _atom_site_fract_z
  _atom_site_thermal_displace_type
  _atom_site_B_iso_or_equiv
  _atom_site_type_symbol
  Ne1      1.0000 0.91152  0.59794  0.71198  Biso   1.000  Ne
  He1      1.0000 0.91239  0.59261  0.74272  Biso   1.000  He
  He2      1.0000 0.90235  0.61771  0.76167  Biso   1.000  He
  Ne2      1.0000 0.89710  0.61084  0.79260  Biso   1.000  Ne
  Ne3      1.0000 0.27976  0.84286  0.11359  Biso   1.000  Ne
  He3      1.0000 0.27628  0.86777  0.09334  Biso   1.000  He
  He4      1.0000 0.30251  0.87361  0.07453  Biso   1.000  He
  Ne4      1.0000 0.29697  0.89641  0.04961  Biso   1.000  Ne
  Ne5      1.0000 0.44834  0.14452  0.22318  Biso   1.000  Ne
  He5      1.0000 0.48070  0.14516  0.23391  Biso   1.000  He
  He6      1.0000 0.50375  0.12522  0.21973  Biso   1.000  He
  Ne6      1.0000 0.53417  0.13019  0.23148  Biso   1.000  Ne
  Ne7      1.0000 0.36772  0.58161  0.21160  Biso   1.000  Ne
  He7      1.0000 0.39197  0.60570  0.20086  Biso   1.000  He
  He8      1.0000 0.40515  0.62556  0.22378  Biso   1.000  He
  Ne8      1.0000 0.42905  0.64570  0.21266  Biso   1.000  Ne
  Ne9      1.0000 0.04013  0.07734  0.54000  Biso   1.000  Ne
  He9      1.0000 0.05582  0.05674  0.51711  Biso   1.000  He
  He10     1.0000 0.08783  0.06351  0.51674  Biso   1.000  He
  Ne10     1.0000 0.10593  0.04040  0.49667  Biso   1.000  Ne
  Ne11     1.0000 0.43263  0.43501  0.11118  Biso   1.000  Ne
  He11     1.0000 0.45635  0.41812  0.08927  Biso   1.000  He
  He12     1.0000 0.45439  0.42956  0.05835  Biso   1.000  He
  Ne12     1.0000 0.47477  0.41610  0.03643  Biso   1.000  Ne
  Ne13     1.0000 0.45298  0.66966  0.53445  Biso   1.000  Ne
  He13     1.0000 0.48388  0.68432  0.53272  Biso   1.000  He
  He14     1.0000 0.48854  0.70570  0.50899  Biso   1.000  He
  Ne14     1.0000 0.52089  0.71144  0.50520  Biso   1.000  Ne
  Ne15     1.0000 0.10894  0.94428  0.07857  Biso   1.000  Ne
  He15     1.0000 0.13587  0.93114  0.09270  Biso   1.000  He
  He16     1.0000 0.13438  0.92926  0.12507  Biso   1.000  He
  Ne16     1.0000 0.16520  0.92122  0.13514  Biso   1.000  Ne
  Ne17     1.0000 0.33078  0.37280  0.24574  Biso   1.000  Ne
  He17     1.0000 0.33375  0.40729  0.25008  Biso   1.000  He
  He18     1.0000 0.33211  0.41494  0.28285  Biso   1.000  He
  Ne18     1.0000 0.29942  0.42192  0.29390  Biso   1.000  Ne
  Ne19     1.0000 0.46568  0.28371  0.67430  Biso   1.000  Ne
  He19     1.0000 0.43744  0.30185  0.67663  Biso   1.000  He
  He20     1.0000 0.44318  0.33382  0.68029  Biso   1.000  He
  Ne20     1.0000 0.41572  0.35104  0.68563  Biso   1.000  Ne
  Ne21     1.0000 0.85030  0.18086  0.35162  Biso   1.000  Ne
  He21     1.0000 0.87139  0.16015  0.35510  Biso   1.000  He
  He22     1.0000 0.87060  0.15309  0.38606  Biso   1.000  He
  Ne22     1.0000 0.89133  0.12859  0.39667  Biso   1.000  Ne
  Ne23     1.0000 0.26090  0.55338  0.34499  Biso   1.000  Ne
  He23     1.0000 0.27222  0.53873  0.37384  Biso   1.000  He
  He24     1.0000 0.26759  0.55715  0.40326  Biso   1.000  He
  Ne24     1.0000 0.27164  0.53726  0.42974  Biso   1.000  Ne
  Ne25     1.0000 0.25264  0.66244  0.93439  Biso   1.000  Ne
  He25     1.0000 0.28251  0.65744  0.95069  Biso   1.000  He
  He26     1.0000 0.31000  0.67169  0.93560  Biso   1.000  He
  Ne26     1.0000 0.33656  0.66626  0.95317  Biso   1.000  Ne
  Ne27     1.0000 0.07713  0.14983  0.83869  Biso   1.000  Ne
  He27     1.0000 0.09995  0.15876  0.81909  Biso   1.000  He
  He28     1.0000 0.09454  0.19097  0.81279  Biso   1.000  He
  Ne28     1.0000 0.11154  0.19871  0.78676  Biso   1.000  Ne
  Ne29     1.0000 0.54433  0.99691  0.01556  Biso   1.000  Ne
  He29     1.0000 0.55058  0.02933  0.00488  Biso   1.000  He
  He30     1.0000 0.54780  0.05058  0.02881  Biso   1.000  He
  Ne30     1.0000 0.54944  0.08005  0.01882  Biso   1.000  Ne
  Ne31     1.0000 0.24144  0.72163  0.12757  Biso   1.000  Ne
  He31     1.0000 0.26271  0.73664  0.14554  Biso   1.000  He
  He32     1.0000 0.29106  0.74869  0.13133  Biso   1.000  He
  Ne32     1.0000 0.31320  0.76657  0.15273  Biso   1.000  Ne
  Ne33     1.0000 0.96645  0.96159  0.02088  Biso   1.000  Ne
  He33     1.0000 0.94597  0.98470  0.01172  Biso   1.000  He
  He34     1.0000 0.93903  0.99112  0.97821  Biso   1.000  He
  Ne34     1.0000 0.91768  0.01493  0.97400  Biso   1.000  Ne
  Ne35     1.0000 0.91838  0.65137  0.33762  Biso   1.000  Ne
  He35     1.0000 0.92647  0.62140  0.32563  Biso   1.000  He
  He36     1.0000 0.90893  0.59654  0.33983  Biso   1.000  He
  Ne36     1.0000 0.91394  0.56743  0.32674  Biso   1.000  Ne
  Ne37     1.0000 0.49318  0.91352  0.20658  Biso   1.000  Ne
  He37     1.0000 0.50751  0.92569  0.17881  Biso   1.000  He
  He38     1.0000 0.53333  0.94717  0.18551  Biso   1.000  He
  Ne38     1.0000 0.54957  0.96097  0.16093  Biso   1.000  Ne
  Ne39     1.0000 0.84754  0.19208  0.83850  Biso   1.000  Ne
  He39     1.0000 0.87085  0.20693  0.85761  Biso   1.000  He
  He40     1.0000 0.85574  0.22584  0.88142  Biso   1.000  He
  Ne40     1.0000 0.87724  0.24667  0.89903  Biso   1.000  Ne
  Ne41     1.0000 0.38693  0.72551  0.22779  Biso   1.000  Ne
  He41     1.0000 0.41693  0.73387  0.22015  Biso   1.000  He
  He42     1.0000 0.42272  0.76733  0.21908  Biso   1.000  He
  Ne42     1.0000 0.45482  0.77602  0.20921  Biso   1.000  Ne
  Ne43     1.0000 0.65803  0.69309  0.19774  Biso   1.000  Ne
  He43     1.0000 0.67457  0.69410  0.16746  Biso   1.000  He
  He44     1.0000 0.65582  0.68536  0.14222  Biso   1.000  He
  Ne44     1.0000 0.67097  0.68131  0.11240  Biso   1.000  Ne
  Ne45     1.0000 0.07754  0.71027  0.43752  Biso   1.000  Ne
  He45     1.0000 0.10878  0.70128  0.44943  Biso   1.000  He
  He46     1.0000 0.13375  0.70305  0.42859  Biso   1.000  He
  Ne46     1.0000 0.16294  0.69159  0.44036  Biso   1.000  Ne
  Ne47     1.0000 0.96015  0.06097  0.41382  Biso   1.000  Ne
  He47     1.0000 0.95736  0.05990  0.38217  Biso   1.000  He
  He48     1.0000 0.97861  0.07981  0.36578  Biso   1.000  He
  Ne48     1.0000 0.97736  0.07754  0.33328  Biso   1.000  Ne
  Ne49     1.0000 0.56566  0.66555  0.83410  Biso   1.000  Ne
  He49     1.0000 0.57043  0.63091  0.83356  Biso   1.000  He
  He50     1.0000 0.58244  0.62009  0.86060  Biso   1.000  He
  Ne50     1.0000 0.58636  0.58576  0.86016  Biso   1.000  Ne
  Ne51     1.0000 0.71579  0.16573  0.86123  Biso   1.000  Ne
  He51     1.0000 0.71564  0.19943  0.86877  Biso   1.000  He
  He52     1.0000 0.73143  0.20510  0.89745  Biso   1.000  He
  Ne52     1.0000 0.72400  0.23697  0.90615  Biso   1.000  Ne
  Ne53     1.0000 0.24566  0.38554  0.68510  Biso   1.000  Ne
  He53     1.0000 0.24684  0.39319  0.65348  Biso   1.000  He
  He54     1.0000 0.24720  0.36509  0.63012  Biso   1.000  He
  Ne54     1.0000 0.24844  0.37677  0.59760  Biso   1.000  Ne
  Ne55     1.0000 0.42973  0.41489  0.91164  Biso   1.000  Ne
  He55     1.0000 0.43158  0.42936  0.94339  Biso   1.000  He
  He56     1.0000 0.40394  0.43911  0.95682  Biso   1.000  He
  Ne56     1.0000 0.40637  0.44670  0.98856  Biso   1.000  Ne
  Ne57     1.0000 0.01720  0.94486  0.46193  Biso   1.000  Ne
  He57     1.0000 0.01408  0.95101  0.49394  Biso   1.000  He
  He58     1.0000 0.98123  0.95436  0.50574  Biso   1.000  He
  Ne58     1.0000 0.97806  0.96149  0.53649  Biso   1.000  Ne
  Ne59     1.0000 0.40718  0.15577  0.67527  Biso   1.000  Ne
  He59     1.0000 0.40212  0.18558  0.66640  Biso   1.000  He
  He60     1.0000 0.40436  0.20611  0.69465  Biso   1.000  He
  Ne60     1.0000 0.39871  0.23791  0.68875  Biso   1.000  Ne
  Ne61     1.0000 0.42940  0.90955  0.78705  Biso   1.000  Ne
  He61     1.0000 0.44853  0.92428  0.80868  Biso   1.000  He
  He62     1.0000 0.44888  0.95822  0.80848  Biso   1.000  He
  Ne62     1.0000 0.47140  0.97385  0.82788  Biso   1.000  Ne
  Ne63     1.0000 0.11840  0.99623  0.72550  Biso   1.000  Ne
  He63     1.0000 0.14960  0.98678  0.71741  Biso   1.000  He
  He64     1.0000 0.15678  0.99342  0.68646  Biso   1.000  He
  Ne64     1.0000 0.18674  0.98456  0.67966  Biso   1.000  Ne
  Ne65     1.0000 0.89742  0.30455  0.78803  Biso   1.000  Ne
  He65     1.0000 0.89068  0.32068  0.75967  Biso   1.000  He
  He66     1.0000 0.88690  0.30095  0.73335  Biso   1.000  He
  Ne66     1.0000 0.85707  0.29946  0.72077  Biso   1.000  Ne
  Ne67     1.0000 0.62848  0.13250  0.78651  Biso   1.000  Ne
  He67     1.0000 0.65659  0.11506  0.79861  Biso   1.000  He
  He68     1.0000 0.67793  0.10625  0.77585  Biso   1.000  He
  Ne68     1.0000 0.70324  0.08775  0.78800  Biso   1.000  Ne
  Ne69     1.0000 0.89480  0.05045  0.76350  Biso   1.000  Ne
  He69     1.0000 0.88556  0.06845  0.79012  Biso   1.000  He
  He70     1.0000 0.90863  0.09108  0.79608  Biso   1.000  He
  Ne70     1.0000 0.90410  0.10510  0.82763  Biso   1.000  Ne
  Ne71     1.0000 0.59680  0.90507  0.40088  Biso   1.000  Ne
  He71     1.0000 0.58858  0.89557  0.37194  Biso   1.000  He
  He72     1.0000 0.60866  0.90613  0.34636  Biso   1.000  He
  Ne72     1.0000 0.59550  0.89890  0.31551  Biso   1.000  Ne
  Ne73     1.0000 0.41107  0.52978  0.42034  Biso   1.000  Ne
  He73     1.0000 0.44307  0.52630  0.42433  Biso   1.000  He
  He74     1.0000 0.45462  0.53420  0.45605  Biso   1.000  He
  Ne74     1.0000 0.49041  0.53555  0.46532  Biso   1.000  Ne
  Ne75     1.0000 0.95049  0.41444  0.47731  Biso   1.000  Ne
  He75     1.0000 0.93132  0.40396  0.45212  Biso   1.000  He
  He76     1.0000 0.90216  0.41971  0.45361  Biso   1.000  He
  Ne76     1.0000 0.87990  0.41344  0.43049  Biso   1.000  Ne
  Ne77     1.0000 0.15365  0.40687  0.67938  Biso   1.000  Ne
  He77     1.0000 0.15992  0.38312  0.65837  Biso   1.000  He
  He78     1.0000 0.14944  0.39085  0.62781  Biso   1.000  He
  Ne78     1.0000 0.15565  0.36931  0.60319  Biso   1.000  Ne
  Ne79     1.0000 0.89380  0.49473  0.81445  Biso   1.000  Ne
  He79     1.0000 0.90453  0.49990  0.84539  Biso   1.000  He
  He80     1.0000 0.92453  0.47806  0.86072  Biso   1.000  He
  Ne80     1.0000 0.93473  0.48518  0.89204  Biso   1.000  Ne
  Ne81     1.0000 0.34235  0.59503  0.30222  Biso   1.000  Ne
  He81     1.0000 0.36757  0.61741  0.30044  Biso   1.000  He
  He82     1.0000 0.39315  0.60694  0.31660  Biso   1.000  He
  Ne82     1.0000 0.42019  0.62544  0.31011  Biso   1.000  Ne
  Ne83     1.0000 0.11469  0.38020  0.15080  Biso   1.000  Ne
  He83     1.0000 0.10997  0.37370  0.11780  Biso   1.000  He
  He84     1.0000 0.07967  0.36528  0.11072  Biso   1.000  He
  Ne84     1.0000 0.07437  0.36144  0.07651  Biso   1.000  Ne
  Ne85     1.0000 0.21389  0.98653  0.46288  Biso   1.000  Ne
  He85     1.0000 0.21782  0.95880  0.44396  Biso   1.000  He
  He86     1.0000 0.21213  0.93066  0.46091  Biso   1.000  He
  Ne86     1.0000 0.22093  0.90377  0.44294  Biso   1.000  Ne
  Ne87     1.0000 0.49510  0.62164  0.35333  Biso   1.000  Ne
  He87     1.0000 0.50223  0.62734  0.38622  Biso   1.000  He
  He88     1.0000 0.47636  0.62983  0.40616  Biso   1.000  He
  Ne88     1.0000 0.48502  0.63848  0.43886  Biso   1.000  Ne
  Ne89     1.0000 0.13282  0.68939  0.16931  Biso   1.000  Ne
  He89     1.0000 0.15968  0.67336  0.15881  Biso   1.000  He
  He90     1.0000 0.18309  0.66829  0.18309  Biso   1.000  He
  Ne90     1.0000 0.20890  0.65208  0.17714  Biso   1.000  Ne
  Ne91     1.0000 0.57211  0.26756  0.30985  Biso   1.000  Ne
  He91     1.0000 0.60068  0.28155  0.32238  Biso   1.000  He
  He92     1.0000 0.59375  0.30664  0.34095  Biso   1.000  He
  Ne92     1.0000 0.62067  0.32007  0.35366  Biso   1.000  Ne
  Ne93     1.0000 0.20804  0.40174  0.75965  Biso   1.000  Ne
  He93     1.0000 0.17708  0.41299  0.76329  Biso   1.000  He
  He94     1.0000 0.16265  0.40060  0.79177  Biso   1.000  He
  Ne94     1.0000 0.13246  0.40787  0.79629  Biso   1.000  Ne
  Ne95     1.0000 0.20960  0.32372  0.80898  Biso   1.000  Ne
  He95     1.0000 0.21369  0.29037  0.79972  Biso   1.000  He
  He96     1.0000 0.18702  0.27230  0.78709  Biso   1.000  He
  Ne96     1.0000 0.18693  0.23946  0.78696  Biso   1.000  Ne
  Ne97     1.0000 0.80672  0.68611  0.60687  Biso   1.000  Ne
  He97     1.0000 0.83662  0.69296  0.59642  Biso   1.000  He
  He98     1.0000 0.85914  0.67002  0.59596  Biso   1.000  He
  Ne98     1.0000 0.89194  0.68159  0.58375  Biso   1.000  Ne
  Ne99     1.0000 0.66976  0.36752  0.71202  Biso   1.000  Ne
  He99     1.0000 0.68907  0.35255  0.73424  Biso   1.000  He
  He100    1.0000 0.68590  0.36830  0.76266  Biso   1.000  He
  Ne100    1.0000 0.70121  0.35634  0.78848  Biso   1.000  Ne
  Ne101    1.0000 0.83050  0.44733  0.24161  Biso   1.000  Ne
  He101    1.0000 0.83984  0.46354  0.21336  Biso   1.000  He
  He102    1.0000 0.87168  0.46236  0.20774  Biso   1.000  He
  Ne102    1.0000 0.88241  0.47621  0.17938  Biso   1.000  Ne
  Ne103    1.0000 0.05159  0.76570  0.39375  Biso   1.000  Ne
  He103    1.0000 0.08233  0.77585  0.39347  Biso   1.000  He
  He104    1.0000 0.10220  0.76275  0.37032  Biso   1.000  He
  Ne104    1.0000 0.13292  0.77491  0.36995  Biso   1.000  Ne
  Ne105    1.0000 0.89528  0.10069  0.28165  Biso   1.000  Ne
  He105    1.0000 0.89821  0.09585  0.25080  Biso   1.000  He
  He106    1.0000 0.92749  0.10723  0.23949  Biso   1.000  He
  Ne106    1.0000 0.93110  0.09998  0.20693  Biso   1.000  Ne
  Ne107    1.0000 0.06043  0.86593  0.95637  Biso   1.000  Ne
  He107    1.0000 0.06860  0.84844  0.93152  Biso   1.000  He
  He108    1.0000 0.08538  0.81853  0.93939  Biso   1.000  He
  Ne108    1.0000 0.09414  0.80122  0.91279  Biso   1.000  Ne
  Ne109    1.0000 0.92343  0.76099  0.65448  Biso   1.000  Ne
  He109    1.0000 0.90786  0.75281  0.68222  Biso   1.000  He
  He110    1.0000 0.89385  0.72064  0.68152  Biso   1.000  He
  Ne110    1.0000 0.87898  0.71526  0.70959  Biso   1.000  Ne
  Ne111    1.0000 0.08512  0.20918  0.42967  Biso   1.000  Ne
  He111    1.0000 0.11745  0.20594  0.43462  Biso   1.000  He
  He112    1.0000 0.12347  0.19025  0.46019  Biso   1.000  He
  Ne112    1.0000 0.15622  0.18128  0.46090  Biso   1.000  Ne
  Ne113    1.0000 0.37093  0.71049  0.11025  Biso   1.000  Ne
  He113    1.0000 0.39921  0.72551  0.11059  Biso   1.000  He
  He114    1.0000 0.39664  0.75720  0.11046  Biso   1.000  He
  Ne114    1.0000 0.42563  0.77162  0.10559  Biso   1.000  Ne
  Ne115    1.0000 0.05041  0.85171  0.34151  Biso   1.000  Ne
  He115    1.0000 0.02062  0.84127  0.35087  Biso   1.000  He
  He116    1.0000 0.00025  0.86582  0.36045  Biso   1.000  He
  Ne116    1.0000 0.97094  0.85577  0.37460  Biso   1.000  Ne
  Ne117    1.0000 0.92221  0.74641  0.95361  Biso   1.000  Ne
  He117    1.0000 0.90599  0.72038  0.96587  Biso   1.000  He
  He118    1.0000 0.92542  0.69544  0.96743  Biso   1.000  He
  Ne118    1.0000 0.90964  0.67069  0.98452  Biso   1.000  Ne
  Ne119    1.0000 0.74364  0.26351  0.21854  Biso   1.000  Ne
  He119    1.0000 0.76328  0.27334  0.19381  Biso   1.000  He
  He120    1.0000 0.75314  0.26461  0.16348  Biso   1.000  He
  Ne120    1.0000 0.76637  0.27778  0.13882  Biso   1.000  Ne
  Ne121    1.0000 0.54298  0.42304  0.58518  Biso   1.000  Ne
  He121    1.0000 0.52570  0.39861  0.60156  Biso   1.000  He
  He122    1.0000 0.53662  0.39390  0.63268  Biso   1.000  He
  Ne122    1.0000 0.52871  0.36480  0.64516  Biso   1.000  Ne
  Ne123    1.0000 0.46307  0.98282  0.56366  Biso   1.000  Ne
  He123    1.0000 0.44281  0.95739  0.56761  Biso   1.000  He
  He124    1.0000 0.45663  0.92870  0.58108  Biso   1.000  He
  Ne124    1.0000 0.43633  0.90347  0.58760  Biso   1.000  Ne
  Ne125    1.0000 0.21260  0.10895  0.80653  Biso   1.000  Ne
  He125    1.0000 0.23805  0.09509  0.78944  Biso   1.000  He
  He126    1.0000 0.25999  0.11822  0.77802  Biso   1.000  He
  Ne126    1.0000 0.28574  0.10705  0.76340  Biso   1.000  Ne
  Ne127    1.0000 0.59935  0.81032  0.73513  Biso   1.000  Ne
  He127    1.0000 0.60615  0.77758  0.73997  Biso   1.000  He
  He128    1.0000 0.59529  0.76387  0.77007  Biso   1.000  He
  Ne128    1.0000 0.60355  0.73336  0.77131  Biso   1.000  Ne
  Ne129    1.0000 0.57154  0.76652  0.18072  Biso   1.000  Ne
  He129    1.0000 0.57616  0.75896  0.14757  Biso   1.000  He
  He130    1.0000 0.55504  0.77065  0.12641  Biso   1.000  He
  Ne130    1.0000 0.56338  0.76287  0.09448  Biso   1.000  Ne
  Ne131    1.0000 0.12712  0.91822  0.76705  Biso   1.000  Ne
  He131    1.0000 0.09692  0.92760  0.77094  Biso   1.000  He
  He132    1.0000 0.07742  0.92081  0.74388  Biso   1.000  He
  Ne132    1.0000 0.04693  0.92505  0.74665  Biso   1.000  Ne
  Ne133    1.0000 0.13894  0.57787  0.69008  Biso   1.000  Ne
  He133    1.0000 0.16743  0.56112  0.69062  Biso   1.000  He
  He134    1.0000 0.18851  0.56958  0.71357  Biso   1.000  He
  Ne134    1.0000 0.21644  0.55471  0.71049  Biso   1.000  Ne
  Ne135    1.0000 0.92832  0.41270  0.35754  Biso   1.000  Ne
  He135    1.0000 0.92927  0.38134  0.36956  Biso   1.000  He
  He136    1.0000 0.91816  0.36091  0.34734  Biso   1.000  He
  Ne136    1.0000 0.91597  0.32869  0.35529  Biso   1.000  Ne
  Ne137    1.0000 0.15127  0.41181  0.33962  Biso   1.000  Ne
  He137    1.0000 0.12301  0.39619  0.33073  Biso   1.000  He
  He138    1.0000 0.12696  0.36483  0.32410  Biso   1.000  He
  Ne138    1.0000 0.09917  0.34810  0.31426  Biso   1.000  Ne
  Ne139    1.0000 0.98713  0.18450  0.35212  Biso   1.000  Ne
  He139    1.0000 0.98722  0.18045  0.38464  Biso   1.000  He
  He140    1.0000 0.95778  0.18648  0.39838  Biso   1.000  He
  Ne140    1.0000 0.95935  0.18524  0.43368  Biso   1.000  Ne
  Ne141    1.0000 0.32459  0.22671  0.10768  Biso   1.000  Ne
  He141    1.0000 0.35144  0.23891  0.12375  Biso   1.000  He
  He142    1.0000 0.35776  0.26993  0.11618  Biso   1.000  He
  Ne142    1.0000 0.38509  0.28183  0.12873  Biso   1.000  Ne
  Ne143    1.0000 0.69160  0.27772  0.30659  Biso   1.000  Ne
  He143    1.0000 0.67588  0.27889  0.27601  Biso   1.000  He
  He144    1.0000 0.66448  0.30938  0.27076  Biso   1.000  He
  Ne144    1.0000 0.64621  0.31138  0.24410  Biso   1.000  Ne
  Ne145    1.0000 0.31643  0.75485  0.96764  Biso   1.000  Ne
  He145    1.0000 0.28745  0.76327  0.95158  Biso   1.000  He
  He146    1.0000 0.26157  0.74371  0.95984  Biso   1.000  He
  Ne146    1.0000 0.23187  0.74902  0.94409  Biso   1.000  Ne
  Ne147    1.0000 0.67650  0.91836  0.40492  Biso   1.000  Ne
  He147    1.0000 0.66899  0.89035  0.41957  Biso   1.000  He
  He148    1.0000 0.69242  0.87720  0.44078  Biso   1.000  He
  Ne148    1.0000 0.68415  0.84867  0.45453  Biso   1.000  Ne
  Ne149    1.0000 0.25657  0.31605  0.10103  Biso   1.000  Ne
  He149    1.0000 0.23641  0.33625  0.08562  Biso   1.000  He
  He150    1.0000 0.20418  0.33206  0.09333  Biso   1.000  He
  Ne150    1.0000 0.18336  0.35159  0.07546  Biso   1.000  Ne
  Ne151    1.0000 0.11182  0.23358  0.34574  Biso   1.000  Ne
  He151    1.0000 0.08519  0.21447  0.33973  Biso   1.000  He
  He152    1.0000 0.09422  0.18253  0.33690  Biso   1.000  He
  Ne152    1.0000 0.06617  0.16154  0.33268  Biso   1.000  Ne
  Ne153    1.0000 0.03351  0.62897  0.15827  Biso   1.000  Ne
  He153    1.0000 0.02084  0.60966  0.18305  Biso   1.000  He
  He154    1.0000 0.02291  0.57773  0.17928  Biso   1.000  He
  Ne154    1.0000 0.01127  0.56183  0.20433  Biso   1.000  Ne
  Ne155    1.0000 0.71664  0.08284  0.87073  Biso   1.000  Ne
  He155    1.0000 0.72551  0.08576  0.90041  Biso   1.000  He
  He156    1.0000 0.74681  0.06353  0.91387  Biso   1.000  He
  Ne156    1.0000 0.75846  0.06910  0.94423  Biso   1.000  Ne
  Ne157    1.0000 0.62716  0.31833  0.65121  Biso   1.000  Ne
  He157    1.0000 0.64389  0.34435  0.64320  Biso   1.000  He
  He158    1.0000 0.62673  0.37407  0.64551  Biso   1.000  He
  Ne158    1.0000 0.64392  0.40165  0.64239  Biso   1.000  Ne
  Ne159    1.0000 0.80568  0.25225  0.29654  Biso   1.000  Ne
  He159    1.0000 0.83721  0.25722  0.28819  Biso   1.000  He
  He160    1.0000 0.83911  0.26357  0.25727  Biso   1.000  He
  Ne160    1.0000 0.86637  0.28005  0.25072  Biso   1.000  Ne
  Ne161    1.0000 0.20888  0.89927  0.33727  Biso   1.000  Ne
  He161    1.0000 0.20385  0.86667  0.32998  Biso   1.000  He
  He162    1.0000 0.21549  0.84347  0.35186  Biso   1.000  He
  Ne162    1.0000 0.20712  0.81158  0.34251  Biso   1.000  Ne
  Ne163    1.0000 0.46398  0.14080  0.07757  Biso   1.000  Ne
  He163    1.0000 0.45104  0.16014  0.05230  Biso   1.000  He
  He164    1.0000 0.42325  0.17683  0.06242  Biso   1.000  He
  Ne164    1.0000 0.41021  0.19160  0.03457  Biso   1.000  Ne
  Ne165    1.0000 0.20360  0.99885  0.53716  Biso   1.000  Ne
  He165    1.0000 0.21919  0.02024  0.55714  Biso   1.000  He
  He166    1.0000 0.20150  0.03010  0.58541  Biso   1.000  He
  Ne166    1.0000 0.21624  0.05104  0.60498  Biso   1.000  Ne
  Ne167    1.0000 0.39769  0.28998  0.49015  Biso   1.000  Ne
  He167    1.0000 0.38789  0.29445  0.45682  Biso   1.000  He
  He168    1.0000 0.37223  0.31991  0.45062  Biso   1.000  He
  Ne168    1.0000 0.36626  0.32365  0.41990  Biso   1.000  Ne
  Ne169    1.0000 0.32778  0.05600  0.83635  Biso   1.000  Ne
  He169    1.0000 0.33983  0.02697  0.81758  Biso   1.000  He
  He170    1.0000 0.36248  0.01118  0.83259  Biso   1.000  He
  Ne170    1.0000 0.37245  0.98604  0.81884  Biso   1.000  Ne
  Ne171    1.0000 0.44104  0.02100  0.47225  Biso   1.000  Ne
  He171    1.0000 0.42003  0.03793  0.45465  Biso   1.000  He
  He172    1.0000 0.43305  0.04847  0.42506  Biso   1.000  He
  Ne172    1.0000 0.41300  0.06968  0.41216  Biso   1.000  Ne
  Ne173    1.0000 0.89917  0.40991  0.01652  Biso   1.000  Ne
  He173    1.0000 0.92314  0.41574  0.03804  Biso   1.000  He
  He174    1.0000 0.94369  0.44048  0.02857  Biso   1.000  He
  Ne174    1.0000 0.96556  0.45322  0.05271  Biso   1.000  Ne
  Ne175    1.0000 0.60675  0.08372  0.68117  Biso   1.000  Ne
  He175    1.0000 0.59292  0.09369  0.65186  Biso   1.000  He
  He176    1.0000 0.56434  0.08048  0.64634  Biso   1.000  He
  Ne176    1.0000 0.55434  0.09076  0.61828  Biso   1.000  Ne
  Ne177    1.0000 0.55190  0.39579  0.95773  Biso   1.000  Ne
  He177    1.0000 0.56819  0.39340  0.93117  Biso   1.000  He
  He178    1.0000 0.59080  0.42080  0.92598  Biso   1.000  He
  Ne178    1.0000 0.60651  0.41822  0.89523  Biso   1.000  Ne
  Ne179    1.0000 0.79079  0.61078  0.91372  Biso   1.000  Ne
  He179    1.0000 0.80632  0.58234  0.92692  Biso   1.000  He
  He180    1.0000 0.78432  0.56191  0.94066  Biso   1.000  He
  Ne180    1.0000 0.79726  0.53698  0.95775  Biso   1.000  Ne
  Ne181    1.0000 0.65001  0.08169  0.34447  Biso   1.000  Ne
  He181    1.0000 0.62937  0.09458  0.32031  Biso   1.000  He
  He182    1.0000 0.59837  0.09650  0.33235  Biso   1.000  He
  Ne182    1.0000 0.57669  0.10885  0.30893  Biso   1.000  Ne
  Ne183    1.0000 0.06314  0.30155  0.68145  Biso   1.000  Ne
  He183    1.0000 0.06856  0.31348  0.71375  Biso   1.000  He
  He184    1.0000 0.06283  0.29153  0.73989  Biso   1.000  He
  Ne184    1.0000 0.07111  0.30498  0.76785  Biso   1.000  Ne
  Ne185    1.0000 0.58998  0.05637  0.82300  Biso   1.000  Ne
  He185    1.0000 0.55681  0.05883  0.82890  Biso   1.000  He
  He186    1.0000 0.53807  0.04895  0.80051  Biso   1.000  He
  Ne186    1.0000 0.50685  0.04885  0.80324  Biso   1.000  Ne
  Ne187    1.0000 0.39786  0.88410  0.34746  Biso   1.000  Ne
  He187    1.0000 0.41591  0.90426  0.33246  Biso   1.000  He
  He188    1.0000 0.42406  0.89205  0.30230  Biso   1.000  He
  Ne188    1.0000 0.43647  0.91496  0.28361  Biso   1.000  Ne
  Ne189    1.0000 0.67068  0.13517  0.62498  Biso   1.000  Ne
  He189    1.0000 0.69121  0.11298  0.63687  Biso   1.000  He
  He190    1.0000 0.71108  0.10014  0.61330  Biso   1.000  He
  Ne190    1.0000 0.73460  0.07986  0.62741  Biso   1.000  Ne
  Ne191    1.0000 0.96593  0.46272  0.60097  Biso   1.000  Ne
  He191    1.0000 0.96111  0.49402  0.58826  Biso   1.000  He
  He192    1.0000 0.98809  0.51276  0.59401  Biso   1.000  He
  Ne192    1.0000 0.98599  0.54530  0.58589  Biso   1.000  Ne
  Ne193    1.0000 0.86754  0.29190  0.17401  Biso   1.000  Ne
  He193    1.0000 0.85754  0.26403  0.15939  Biso   1.000  He
  He194    1.0000 0.85154  0.26828  0.12763  Biso   1.000  He
  Ne194    1.0000 0.83950  0.23834  0.11597  Biso   1.000  Ne
  Ne195    1.0000 0.65398  0.85812  0.21663  Biso   1.000  Ne
  He195    1.0000 0.65813  0.82968  0.23235  Biso   1.000  He
  He196    1.0000 0.64058  0.80676  0.21915  Biso   1.000  He
  Ne196    1.0000 0.63441  0.77975  0.23561  Biso   1.000  Ne
  Ne197    1.0000 0.52931  0.87595  0.85885  Biso   1.000  Ne
  He197    1.0000 0.54618  0.84850  0.85030  Biso   1.000  He
  He198    1.0000 0.57453  0.85303  0.83345  Biso   1.000  He
  Ne198    1.0000 0.58679  0.82434  0.82675  Biso   1.000  Ne
  Ne199    1.0000 0.27741  0.63143  0.68708  Biso   1.000  Ne
  He199    1.0000 0.30198  0.63897  0.66384  Biso   1.000  He
  He200    1.0000 0.33073  0.64429  0.67839  Biso   1.000  He
  Ne200    1.0000 0.35763  0.64640  0.65939  Biso   1.000  Ne
  Ne201    1.0000 0.38310  0.80064  0.76163  Biso   1.000  Ne
  He201    1.0000 0.40868  0.79399  0.78322  Biso   1.000  He
  He202    1.0000 0.42431  0.81997  0.79157  Biso   1.000  He
  Ne202    1.0000 0.45031  0.81378  0.81179  Biso   1.000  Ne
  Ne203    1.0000 0.08227  0.75540  0.68703  Biso   1.000  Ne
  He203    1.0000 0.06530  0.75808  0.65818  Biso   1.000  He
  He204    1.0000 0.04481  0.78456  0.65970  Biso   1.000  He
  Ne204    1.0000 0.02402  0.78779  0.63271  Biso   1.000  Ne
  Ne205    1.0000 0.34003  0.26147  0.56063  Biso   1.000  Ne
  He205    1.0000 0.36506  0.27127  0.58236  Biso   1.000  He
  He206    1.0000 0.39167  0.25329  0.58297  Biso   1.000  He
  Ne206    1.0000 0.41266  0.25943  0.60722  Biso   1.000  Ne
  Ne207    1.0000 0.42719  0.35710  0.16587  Biso   1.000  Ne
  He207    1.0000 0.40208  0.37592  0.17944  Biso   1.000  He
  He208    1.0000 0.40555  0.38283  0.21185  Biso   1.000  He
  Ne208    1.0000 0.42220  0.41202  0.22268  Biso   1.000  Ne
  Ne209    1.0000 0.08004  0.92900  0.36839  Biso   1.000  Ne
  He209    1.0000 0.05671  0.93453  0.34292  Biso   1.000  He
  He210    1.0000 0.06488  0.95643  0.31865  Biso   1.000  He
  Ne210    1.0000 0.04595  0.95214  0.29457  Biso   1.000  Ne
  Ne211    1.0000 0.87892  0.35744  0.65298  Biso   1.000  Ne
  He211    1.0000 0.90635  0.33954  0.64771  Biso   1.000  He
  He212    1.0000 0.90321  0.31077  0.63230  Biso   1.000  He
  Ne212    1.0000 0.89614  0.28259  0.65240  Biso   1.000  Ne
  Ne213    1.0000 0.18816  0.33614  0.98687  Biso   1.000  Ne
  He213    1.0000 0.16056  0.31735  0.98675  Biso   1.000  He
  He214    1.0000 0.14958  0.30529  0.01372  Biso   1.000  He
  Ne214    1.0000 0.12245  0.29092  0.01179  Biso   1.000  Ne
  Ne215    1.0000 0.41135  0.06148  0.30506  Biso   1.000  Ne
  He215    1.0000 0.42219  0.09114  0.31909  Biso   1.000  He
  He216    1.0000 0.42734  0.11302  0.29379  Biso   1.000  He
  Ne216    1.0000 0.42581  0.14377  0.30612  Biso   1.000  Ne
  Ne217    1.0000 0.08748  0.53575  0.48416  Biso   1.000  Ne
  He217    1.0000 0.07332  0.55290  0.50787  Biso   1.000  He
  He218    1.0000 0.03973  0.54638  0.50992  Biso   1.000  He
  Ne218    1.0000 0.02238  0.56564  0.53065  Biso   1.000  Ne
  Ne219    1.0000 0.14439  0.30568  0.39345  Biso   1.000  Ne
  He219    1.0000 0.11882  0.30026  0.41320  Biso   1.000  He
  He220    1.0000 0.08973  0.29363  0.39585  Biso   1.000  He
  Ne220    1.0000 0.06616  0.28195  0.41466  Biso   1.000  Ne
  Ne221    1.0000 0.39876  0.26749  0.33183  Biso   1.000  Ne
  He221    1.0000 0.40560  0.24730  0.30703  Biso   1.000  He
  He222    1.0000 0.38167  0.23270  0.29080  Biso   1.000  He
  Ne222    1.0000 0.39090  0.21118  0.26542  Biso   1.000  Ne
  Ne223    1.0000 0.31195  0.05622  0.93896  Biso   1.000  Ne
  He223    1.0000 0.32249  0.06371  0.97400  Biso   1.000  He
  He224    1.0000 0.35137  0.05153  0.98463  Biso   1.000  He
  Ne224    1.0000 0.35883  0.05987  0.01608  Biso   1.000  Ne
  Ne225    1.0000 0.74303  0.29117  0.49328  Biso   1.000  Ne
  He225    1.0000 0.75560  0.30447  0.46385  Biso   1.000  He
  He226    1.0000 0.77880  0.32736  0.46899  Biso   1.000  He
  Ne226    1.0000 0.79633  0.33546  0.44468  Biso   1.000  Ne
  Ne227    1.0000 0.26053  0.67648  0.23822  Biso   1.000  Ne
  He227    1.0000 0.26724  0.68498  0.26958  Biso   1.000  He
  He228    1.0000 0.29252  0.67119  0.28496  Biso   1.000  He
  Ne228    1.0000 0.29674  0.68426  0.31557  Biso   1.000  Ne
  Ne229    1.0000 0.26583  0.40549  0.12148  Biso   1.000  Ne
  He229    1.0000 0.30095  0.40749  0.12211  Biso   1.000  He
  He230    1.0000 0.31619  0.37759  0.12241  Biso   1.000  He
  Ne230    1.0000 0.34918  0.37739  0.11873  Biso   1.000  Ne
  Ne231    1.0000 0.73654  0.90427  0.80023  Biso   1.000  Ne
  He231    1.0000 0.76675  0.89510  0.79937  Biso   1.000  He
  He232    1.0000 0.77224  0.86410  0.79399  Biso   1.000  He
  Ne232    1.0000 0.80211  0.85612  0.79952  Biso   1.000  Ne
  Ne233    1.0000 0.16802  0.77968  0.46548  Biso   1.000  Ne
  He233    1.0000 0.13530  0.78878  0.46170  Biso   1.000  He
  He234    1.0000 0.11642  0.78377  0.48785  Biso   1.000  He
  Ne234    1.0000 0.08336  0.79095  0.48326  Biso   1.000  Ne
  Ne235    1.0000 0.15601  0.61456  0.78610  Biso   1.000  Ne
  He235    1.0000 0.12637  0.60015  0.78826  Biso   1.000  He
  He236    1.0000 0.12487  0.57027  0.77131  Biso   1.000  He
  Ne236    1.0000 0.09815  0.55252  0.77473  Biso   1.000  Ne
  Ne237    1.0000 0.98369  0.01244  0.09111  Biso   1.000  Ne
  He237    1.0000 0.97910  0.98116  0.10331  Biso   1.000  He
  He238    1.0000 0.00726  0.96149  0.09822  Biso   1.000  He
  Ne238    1.0000 0.00597  0.92890  0.10452  Biso   1.000  Ne
  Ne239    1.0000 0.55058  0.04579  0.53792  Biso   1.000  Ne
  He239    1.0000 0.53400  0.05080  0.50999  Biso   1.000  He
  He240    1.0000 0.54017  0.07987  0.49146  Biso   1.000  He
  Ne240    1.0000 0.52053  0.07861  0.46382  Biso   1.000  Ne
  Ne241    1.0000 0.14852  0.79717  0.15413  Biso   1.000  Ne
  He241    1.0000 0.16687  0.81281  0.13076  Biso   1.000  He
  He242    1.0000 0.18504  0.84193  0.13783  Biso   1.000  He
  Ne242    1.0000 0.20196  0.85336  0.11268  Biso   1.000  Ne
  Ne243    1.0000 0.80871  0.26576  0.65695  Biso   1.000  Ne
  He243    1.0000 0.80665  0.23261  0.65383  Biso   1.000  He
  He244    1.0000 0.83420  0.21838  0.65292  Biso   1.000  He
  Ne244    1.0000 0.83288  0.18675  0.64949  Biso   1.000  Ne
  Ne245    1.0000 0.84888  0.85224  0.14136  Biso   1.000  Ne
  He245    1.0000 0.87547  0.84236  0.15668  Biso   1.000  He
  He246    1.0000 0.88107  0.85716  0.18619  Biso   1.000  He
  Ne246    1.0000 0.90826  0.84911  0.20472  Biso   1.000  Ne
  Ne247    1.0000 0.26802  0.16569  0.10347  Biso   1.000  Ne
  He247    1.0000 0.24949  0.17752  0.12799  Biso   1.000  He
  He248    1.0000 0.24260  0.21005  0.12548  Biso   1.000  He
  Ne248    1.0000 0.22373  0.21920  0.15099  Biso   1.000  Ne
  Ne249    1.0000 0.32098  0.82062  0.90928  Biso   1.000  Ne
  He249    1.0000 0.29148  0.83744  0.89963  Biso   1.000  He
  He250    1.0000 0.26419  0.82218  0.89802  Biso   1.000  He
  Ne250    1.0000 0.24028  0.84097  0.88746  Biso   1.000  Ne
  Ne251    1.0000 0.49744  0.20260  0.97562  Biso   1.000  Ne
  He251    1.0000 0.46844  0.20476  0.95762  Biso   1.000  He
  He252    1.0000 0.44443  0.22224  0.96942  Biso   1.000  He
  Ne252    1.0000 0.41541  0.21641  0.95268  Biso   1.000  Ne
  Ne253    1.0000 0.17829  0.07854  0.88142  Biso   1.000  Ne
  He253    1.0000 0.20503  0.08572  0.89905  Biso   1.000  He
  He254    1.0000 0.19993  0.08081  0.92894  Biso   1.000  He
  Ne254    1.0000 0.22684  0.08679  0.94739  Biso   1.000  Ne
  Ne255    1.0000 0.19027  0.61548  0.37123  Biso   1.000  Ne
  He255    1.0000 0.19515  0.61186  0.40328  Biso   1.000  He
  He256    1.0000 0.18276  0.58463  0.41574  Biso   1.000  He
  Ne256    1.0000 0.18248  0.58022  0.45056  Biso   1.000  Ne
  Ne257    1.0000 0.72178  0.19032  0.66982  Biso   1.000  Ne
  He257    1.0000 0.70529  0.19581  0.69843  Biso   1.000  He
  He258    1.0000 0.68013  0.17278  0.70690  Biso   1.000  He
  Ne258    1.0000 0.66797  0.17766  0.73804  Biso   1.000  Ne
  Ne259    1.0000 0.82922  0.89179  0.87570  Biso   1.000  Ne
  He259    1.0000 0.81148  0.91900  0.89303  Biso   1.000  He
  He260    1.0000 0.78463  0.91439  0.91072  Biso   1.000  He
  Ne260    1.0000 0.79038  0.90630  0.94144  Biso   1.000  Ne
  Ne261    1.0000 0.22300  0.92285  0.85931  Biso   1.000  Ne
  He261    1.0000 0.20377  0.90864  0.83668  Biso   1.000  He
  He262    1.0000 0.21798  0.89593  0.81005  Biso   1.000  He
  Ne262    1.0000 0.19234  0.88132  0.79115  Biso   1.000  Ne
  Ne263    1.0000 0.16686  0.30130  0.67597  Biso   1.000  Ne
  He263    1.0000 0.19571  0.30013  0.68602  Biso   1.000  He
  He264    1.0000 0.21081  0.27413  0.67937  Biso   1.000  He
  Ne264    1.0000 0.24202  0.27387  0.69380  Biso   1.000  Ne
  Ne265    1.0000 0.65296  0.65395  0.82146  Biso   1.000  Ne
  He265    1.0000 0.66680  0.62900  0.80779  Biso   1.000  He
  He266    1.0000 0.64581  0.60492  0.79135  Biso   1.000  He
  Ne266    1.0000 0.66243  0.57974  0.77845  Biso   1.000  Ne
  Ne267    1.0000 0.78734  0.63930  0.32986  Biso   1.000  Ne
  He267    1.0000 0.81588  0.62282  0.34137  Biso   1.000  He
  He268    1.0000 0.80580  0.59063  0.34854  Biso   1.000  He
  Ne268    1.0000 0.82760  0.56816  0.35958  Biso   1.000  Ne
  Ne269    1.0000 0.77129  0.59311  0.24064  Biso   1.000  Ne
  He269    1.0000 0.75192  0.60909  0.25894  Biso   1.000  He
  He270    1.0000 0.71966  0.60749  0.25482  Biso   1.000  He
  Ne270    1.0000 0.70698  0.62846  0.27811  Biso   1.000  Ne
  Ne271    1.0000 0.07625  0.73912  0.12571  Biso   1.000  Ne
  He271    1.0000 0.07316  0.74796  0.15499  Biso   1.000  He
  He272    1.0000 0.05564  0.72648  0.17242  Biso   1.000  He
  Ne272    1.0000 0.05579  0.73314  0.20591  Biso   1.000  Ne
  Ne273    1.0000 0.32120  0.31640  0.67800  Biso   1.000  Ne
  He273    1.0000 0.33963  0.31318  0.70420  Biso   1.000  He
  He274    1.0000 0.32546  0.29806  0.72994  Biso   1.000  He
  Ne274    1.0000 0.34347  0.29071  0.75634  Biso   1.000  Ne
  Ne275    1.0000 0.40372  0.28359  0.20956  Biso   1.000  Ne
  He275    1.0000 0.43377  0.26433  0.20939  Biso   1.000  He
  He276    1.0000 0.43067  0.23956  0.18687  Biso   1.000  He
  Ne276    1.0000 0.45177  0.21501  0.19023  Biso   1.000  Ne
  Ne277    1.0000 0.38461  0.06431  0.14091  Biso   1.000  Ne
  He277    1.0000 0.41798  0.06125  0.14024  Biso   1.000  He
  He278    1.0000 0.43881  0.08918  0.14059  Biso   1.000  He
  Ne278    1.0000 0.46920  0.07827  0.14324  Biso   1.000  Ne
  Ne279    1.0000 0.81099  0.34419  0.79340  Biso   1.000  Ne
  He279    1.0000 0.81261  0.37528  0.80699  Biso   1.000  He
  He280    1.0000 0.82670  0.37625  0.83455  Biso   1.000  He
  Ne280    1.0000 0.82575  0.40601  0.85364  Biso   1.000  Ne
  Ne281    1.0000 0.85255  0.20528  0.56478  Biso   1.000  Ne
  He281    1.0000 0.87174  0.19930  0.53767  Biso   1.000  He
  He282    1.0000 0.86858  0.16940  0.52651  Biso   1.000  He
  Ne282    1.0000 0.88628  0.16158  0.50246  Biso   1.000  Ne
  Ne283    1.0000 0.61669  0.83298  0.10782  Biso   1.000  Ne
  He283    1.0000 0.61977  0.85666  0.13151  Biso   1.000  He
  He284    1.0000 0.59514  0.87852  0.13297  Biso   1.000  He
  Ne284    1.0000 0.60374  0.90411  0.15238  Biso   1.000  Ne
  Ne285    1.0000 0.19874  0.42537  0.27918  Biso   1.000  Ne
  He285    1.0000 0.17350  0.42320  0.25805  Biso   1.000  He
  He286    1.0000 0.16602  0.39387  0.24609  Biso   1.000  He
  Ne286    1.0000 0.13918  0.39304  0.22455  Biso   1.000  Ne
  Ne287    1.0000 0.24085  0.94038  0.10436  Biso   1.000  Ne
  He287    1.0000 0.25288  0.94850  0.13500  Biso   1.000  He
  He288    1.0000 0.27540  0.97188  0.12937  Biso   1.000  He
  Ne288    1.0000 0.28716  0.98396  0.15718  Biso   1.000  Ne
  Ne289    1.0000 0.45944  0.54646  0.13957  Biso   1.000  Ne
  He289    1.0000 0.43694  0.56545  0.12620  Biso   1.000  He
  He290    1.0000 0.44585  0.58380  0.09882  Biso   1.000  He
  Ne290    1.0000 0.42077  0.60239  0.08836  Biso   1.000  Ne
  Ne291    1.0000 0.33952  0.05350  0.21425  Biso   1.000  Ne
  He291    1.0000 0.36992  0.06880  0.22006  Biso   1.000  He
  He292    1.0000 0.39702  0.04998  0.21995  Biso   1.000  He
  Ne292    1.0000 0.42302  0.06693  0.22120  Biso   1.000  Ne
  Ne293    1.0000 0.21122  0.64359  0.63906  Biso   1.000  Ne
  He293    1.0000 0.19157  0.61692  0.64048  Biso   1.000  He
  He294    1.0000 0.19476  0.60342  0.61108  Biso   1.000  He
  Ne294    1.0000 0.17900  0.57096  0.60926  Biso   1.000  Ne
  Ne295    1.0000 0.06893  0.40683  0.66120  Biso   1.000  Ne
  He295    1.0000 0.07355  0.40715  0.69342  Biso   1.000  He
  He296    1.0000 0.04736  0.39749  0.71415  Biso   1.000  He
  Ne296    1.0000 0.05490  0.39402  0.74618  Biso   1.000  Ne
  Ne297    1.0000 0.14259  0.06380  0.80983  Biso   1.000  Ne
  He297    1.0000 0.11445  0.07718  0.80534  Biso   1.000  He
  He298    1.0000 0.09137  0.06350  0.78432  Biso   1.000  He
  Ne298    1.0000 0.06420  0.08248  0.77907  Biso   1.000  Ne
  Ne299    1.0000 0.76997  0.09033  0.16208  Biso   1.000  Ne
  He299    1.0000 0.80321  0.08419  0.15970  Biso   1.000  He
  He300    1.0000 0.82228  0.09386  0.18562  Biso   1.000  He
  Ne300    1.0000 0.85390  0.08754  0.18009  Biso   1.000  Ne
  Ne301    1.0000 0.85206  0.34904  0.23239  Biso   1.000  Ne
  He301    1.0000 0.84918  0.36587  0.20276  Biso   1.000  He
  He302    1.0000 0.87792  0.38123  0.19025  Biso   1.000  He
  Ne302    1.0000 0.87460  0.39404  0.15679  Biso   1.000  Ne
  Ne303    1.0000 0.59199  0.49230  0.97821  Biso   1.000  Ne
  He303    1.0000 0.57812  0.52060  0.97600  Biso   1.000  He
  He304    1.0000 0.58364  0.53757  0.94769  Biso   1.000  He
  Ne304    1.0000 0.60278  0.56707  0.95167  Biso   1.000  Ne
  Ne305    1.0000 0.35434  0.67768  0.53792  Biso   1.000  Ne
  He305    1.0000 0.36670  0.67486  0.56816  Biso   1.000  He
  He306    1.0000 0.36823  0.70232  0.58248  Biso   1.000  He
  Ne306    1.0000 0.34188  0.71035  0.60057  Biso   1.000  Ne
  Ne307    1.0000 0.42163  0.77778  0.62006  Biso   1.000  Ne
  He307    1.0000 0.41854  0.80943  0.62698  Biso   1.000  He
  He308    1.0000 0.39344  0.81757  0.64575  Biso   1.000  He
  Ne308    1.0000 0.39605  0.84976  0.65466  Biso   1.000  Ne
  Ne309    1.0000 0.90747  0.56738  0.97264  Biso   1.000  Ne
  He309    1.0000 0.94092  0.56790  0.97740  Biso   1.000  He
  He310    1.0000 0.95811  0.59625  0.97002  Biso   1.000  He
  Ne310    1.0000 0.98989  0.59088  0.97604  Biso   1.000  Ne
  Ne311    1.0000 0.08348  0.83287  0.82467  Biso   1.000  Ne
  He311    1.0000 0.07417  0.86115  0.84221  Biso   1.000  He
  He312    1.0000 0.09653  0.88556  0.84721  Biso   1.000  He
  Ne312    1.0000 0.08848  0.90545  0.87198  Biso   1.000  Ne
  Ne313    1.0000 0.00389  0.60422  0.83971  Biso   1.000  Ne
  He313    1.0000 0.98976  0.57355  0.84095  Biso   1.000  He
  He314    1.0000 0.99711  0.55285  0.81341  Biso   1.000  He
  Ne314    1.0000 0.97706  0.52563  0.81015  Biso   1.000  Ne
  Ne315    1.0000 0.30622  0.81192  0.41959  Biso   1.000  Ne
  He315    1.0000 0.28604  0.81461  0.44481  Biso   1.000  He
  He316    1.0000 0.25629  0.82550  0.43939  Biso   1.000  He
  Ne316    1.0000 0.23405  0.83045  0.46487  Biso   1.000  Ne
  Ne317    1.0000 0.68518  0.39147  0.92277  Biso   1.000  Ne
  He317    1.0000 0.67946  0.36211  0.93692  Biso   1.000  He
  He318    1.0000 0.67890  0.33755  0.91591  Biso   1.000  He
  Ne318    1.0000 0.67177  0.30935  0.92906  Biso   1.000  Ne
  Ne319    1.0000 0.69796  0.40048  0.48813  Biso   1.000  Ne
  He319    1.0000 0.72905  0.40129  0.47395  Biso   1.000  He
  He320    1.0000 0.73132  0.42403  0.44827  Biso   1.000  He
  Ne320    1.0000 0.76053  0.42550  0.43691  Biso   1.000  Ne
  Ne321    1.0000 0.57361  0.56085  0.39120  Biso   1.000  Ne
  He321    1.0000 0.59535  0.55680  0.41786  Biso   1.000  He
  He322    1.0000 0.58741  0.57109  0.44587  Biso   1.000  He
  Ne322    1.0000 0.61217  0.56915  0.46862  Biso   1.000  Ne
  Ne323    1.0000 0.06963  0.51647  0.84418  Biso   1.000  Ne
  He323    1.0000 0.08933  0.52894  0.86670  Biso   1.000  He
  He324    1.0000 0.07723  0.55209  0.88828  Biso   1.000  He
  Ne324    1.0000 0.09811  0.56505  0.90733  Biso   1.000  Ne
  Ne325    1.0000 0.05226  0.46730  0.55899  Biso   1.000  Ne
  He325    1.0000 0.06233  0.46741  0.52605  Biso   1.000  He
  He326    1.0000 0.04662  0.44742  0.50723  Biso   1.000  He
  Ne326    1.0000 0.05770  0.44919  0.47790  Biso   1.000  Ne
  Ne327    1.0000 0.48762  0.68465  0.61304  Biso   1.000  Ne
  He327    1.0000 0.51852  0.66809  0.61708  Biso   1.000  He
  He328    1.0000 0.53923  0.67796  0.59310  Biso   1.000  He
  Ne328    1.0000 0.56552  0.65930  0.59087  Biso   1.000  Ne
  Ne329    1.0000 0.88485  0.06960  0.10918  Biso   1.000  Ne
  He329    1.0000 0.91723  0.07120  0.10111  Biso   1.000  He
  He330    1.0000 0.92461  0.09265  0.07850  Biso   1.000  He
  Ne330    1.0000 0.95615  0.09076  0.06527  Biso   1.000  Ne
  Ne331    1.0000 0.72729  0.14379  0.45014  Biso   1.000  Ne
  He331    1.0000 0.75032  0.16927  0.45115  Biso   1.000  He
  He332    1.0000 0.76800  0.16860  0.48087  Biso   1.000  He
  Ne332    1.0000 0.79227  0.19367  0.48204  Biso   1.000  Ne
  Ne333    1.0000 0.63033  0.60528  0.26476  Biso   1.000  Ne
  He333    1.0000 0.61561  0.57798  0.26966  Biso   1.000  He
  He334    1.0000 0.58356  0.57561  0.27419  Biso   1.000  He
  Ne334    1.0000 0.57038  0.54336  0.27540  Biso   1.000  Ne
  Ne335    1.0000 0.31262  0.88705  0.37344  Biso   1.000  Ne
  He335    1.0000 0.32877  0.90749  0.39691  Biso   1.000  He
  He336    1.0000 0.33175  0.89171  0.42353  Biso   1.000  He
  Ne336    1.0000 0.34544  0.90494  0.44921  Biso   1.000  Ne
  Ne337    1.0000 0.70337  0.60381  0.69398  Biso   1.000  Ne
  He337    1.0000 0.68463  0.59570  0.66768  Biso   1.000  He
  He338    1.0000 0.65694  0.61218  0.66233  Biso   1.000  He
  Ne338    1.0000 0.63576  0.59660  0.63999  Biso   1.000  Ne
  Ne339    1.0000 0.74736  0.76636  0.66917  Biso   1.000  Ne
  He339    1.0000 0.75079  0.74352  0.64687  Biso   1.000  He
  He340    1.0000 0.72625  0.72086  0.64858  Biso   1.000  He
  Ne340    1.0000 0.72989  0.69559  0.62517  Biso   1.000  Ne
  Ne341    1.0000 0.07632  0.57427  0.36012  Biso   1.000  Ne
  He341    1.0000 0.09502  0.59029  0.38338  Biso   1.000  He
  He342    1.0000 0.07572  0.59824  0.41036  Biso   1.000  He
  Ne342    1.0000 0.09229  0.61357  0.43563  Biso   1.000  Ne
  Ne343    1.0000 0.61768  0.11039  0.15295  Biso   1.000  Ne
  He343    1.0000 0.59244  0.08897  0.15607  Biso   1.000  He
  He344    1.0000 0.58650  0.06781  0.13033  Biso   1.000  He
  Ne344    1.0000 0.56160  0.04583  0.13417  Biso   1.000  Ne
  Ne345    1.0000 0.29547  0.44095  0.41528  Biso   1.000  Ne
  He345    1.0000 0.27269  0.42358  0.39611  Biso   1.000  He
  He346    1.0000 0.28130  0.40578  0.37218  Biso   1.000  He
  Ne346    1.0000 0.25604  0.38927  0.35676  Biso   1.000  Ne
  Ne347    1.0000 0.74096  0.79046  0.80754  Biso   1.000  Ne
  He347    1.0000 0.71132  0.79852  0.79222  Biso   1.000  He
  He348    1.0000 0.69899  0.82714  0.79911  Biso   1.000  He
  Ne348    1.0000 0.66759  0.83243  0.78711  Biso   1.000  Ne
  Ne349    1.0000 0.34057  0.50143  0.37162  Biso   1.000  Ne
  He349    1.0000 0.33603  0.47658  0.35127  Biso   1.000  He
  He350    1.0000 0.36238  0.47301  0.32971  Biso   1.000  He
  Ne350    1.0000 0.38631  0.44938  0.33817  Biso   1.000  Ne
  Ne351    1.0000 0.03609  0.37733  0.21481  Biso   1.000  Ne
  He351    1.0000 0.06381  0.39313  0.22109  Biso   1.000  He
  He352    1.0000 0.05976  0.42532  0.22053  Biso   1.000  He
  Ne352    1.0000 0.08812  0.44408  0.22149  Biso   1.000  Ne
  Ne353    1.0000 0.20182  0.77898  0.20300  Biso   1.000  Ne
  He353    1.0000 0.22160  0.76158  0.22275  Biso   1.000  He
  He354    1.0000 0.24305  0.78058  0.23903  Biso   1.000  He
  Ne354    1.0000 0.26976  0.76340  0.25211  Biso   1.000  Ne
  Ne355    1.0000 0.62794  0.28366  0.49124  Biso   1.000  Ne
  He355    1.0000 0.64296  0.28742  0.46251  Biso   1.000  He
  He356    1.0000 0.65878  0.31901  0.45778  Biso   1.000  He
  Ne356    1.0000 0.67514  0.32302  0.43010  Biso   1.000  Ne
  Ne357    1.0000 0.18573  0.75591  0.85135  Biso   1.000  Ne
  He357    1.0000 0.18492  0.78884  0.86435  Biso   1.000  He
  He358    1.0000 0.15792  0.80772  0.86003  Biso   1.000  He
  Ne358    1.0000 0.16316  0.84167  0.86395  Biso   1.000  Ne
  Ne359    1.0000 0.91049  0.87843  0.84551  Biso   1.000  Ne
  He359    1.0000 0.90572  0.85607  0.87095  Biso   1.000  He
  He360    1.0000 0.90776  0.82374  0.85997  Biso   1.000  He
  Ne360    1.0000 0.89874  0.79799  0.88317  Biso   1.000  Ne
  Ne361    1.0000 0.49265  0.54044  0.94825  Biso   1.000  Ne
  He361    1.0000 0.48606  0.52586  0.97904  Biso   1.000  He
  He362    1.0000 0.49463  0.54372  0.00648  Biso   1.000  He
  Ne362    1.0000 0.47905  0.52937  0.03149  Biso   1.000  Ne
  Ne363    1.0000 0.72404  0.41072  0.37117  Biso   1.000  Ne
  He363    1.0000 0.69750  0.40073  0.38291  Biso   1.000  He
  He364    1.0000 0.67323  0.39879  0.36029  Biso   1.000  He
  Ne364    1.0000 0.64146  0.39778  0.37301  Biso   1.000  Ne
  Ne365    1.0000 0.79417  0.25982  0.81390  Biso   1.000  Ne
  He365    1.0000 0.78011  0.27771  0.83733  Biso   1.000  He
  He366    1.0000 0.75199  0.28913  0.82769  Biso   1.000  He
  Ne366    1.0000 0.73670  0.30774  0.85055  Biso   1.000  Ne
  Ne367    1.0000 0.49590  0.29541  0.54889  Biso   1.000  Ne
  He367    1.0000 0.50722  0.29900  0.57835  Biso   1.000  He
  He368    1.0000 0.53912  0.29476  0.58438  Biso   1.000  He
  Ne368    1.0000 0.54422  0.29822  0.61454  Biso   1.000  Ne
  Ne369    1.0000 0.79439  0.22817  0.74305  Biso   1.000  Ne
  He369    1.0000 0.76390  0.22240  0.75095  Biso   1.000  He
  He370    1.0000 0.76174  0.19612  0.77417  Biso   1.000  He
  Ne370    1.0000 0.73005  0.19269  0.78420  Biso   1.000  Ne
  Ne371    1.0000 0.79613  0.82883  0.56476  Biso   1.000  Ne
  He371    1.0000 0.80073  0.80382  0.58797  Biso   1.000  He
  He372    1.0000 0.83431  0.79504  0.58731  Biso   1.000  He
  Ne372    1.0000 0.83948  0.77008  0.60656  Biso   1.000  Ne
  Ne373    1.0000 0.92314  0.90072  0.09637  Biso   1.000  Ne
  He373    1.0000 0.92333  0.92454  0.11823  Biso   1.000  He
  He374    1.0000 0.90660  0.91359  0.14461  Biso   1.000  He
  Ne374    1.0000 0.90855  0.93580  0.16703  Biso   1.000  Ne
  Ne375    1.0000 0.55307  0.26513  0.46545  Biso   1.000  Ne
  He375    1.0000 0.54616  0.29943  0.45903  Biso   1.000  He
  He376    1.0000 0.55632  0.30606  0.42905  Biso   1.000  He
  Ne376    1.0000 0.55587  0.34031  0.42323  Biso   1.000  Ne
  Ne377    1.0000 0.70354  0.60376  0.17539  Biso   1.000  Ne
  He377    1.0000 0.68313  0.59399  0.15066  Biso   1.000  He
  He378    1.0000 0.69810  0.59174  0.12068  Biso   1.000  He
  Ne378    1.0000 0.67844  0.59155  0.09584  Biso   1.000  Ne
  Ne379    1.0000 0.17304  0.84341  0.55044  Biso   1.000  Ne
  He379    1.0000 0.15137  0.82504  0.56629  Biso   1.000  He
  He380    1.0000 0.15577  0.79535  0.56103  Biso   1.000  He
  Ne380    1.0000 0.14043  0.77434  0.58278  Biso   1.000  Ne
  Ne381    1.0000 0.45971  0.44563  0.41966  Biso   1.000  Ne
  He381    1.0000 0.42767  0.44144  0.41038  Biso   1.000  He
  He382    1.0000 0.41784  0.40911  0.40876  Biso   1.000  He
  Ne382    1.0000 0.38682  0.40289  0.40591  Biso   1.000  Ne
  Ne383    1.0000 0.80621  0.59522  0.72333  Biso   1.000  Ne
  He383    1.0000 0.79149  0.59968  0.75286  Biso   1.000  He
  He384    1.0000 0.75867  0.59272  0.75361  Biso   1.000  He
  Ne384    1.0000 0.74905  0.59513  0.78557  Biso   1.000  Ne
  Ne385    1.0000 0.27701  0.46460  0.52133  Biso   1.000  Ne
  He385    1.0000 0.30445  0.47896  0.50475  Biso   1.000  He
  He386    1.0000 0.32753  0.46038  0.49291  Biso   1.000  He
  Ne386    1.0000 0.35401  0.48031  0.48099  Biso   1.000  Ne
  Ne387    1.0000 0.40686  0.42334  0.48658  Biso   1.000  Ne
  He387    1.0000 0.39485  0.39614  0.50384  Biso   1.000  He
  He388    1.0000 0.40043  0.39474  0.53496  Biso   1.000  He
  Ne388    1.0000 0.38567  0.36800  0.54826  Biso   1.000  Ne
  Ne389    1.0000 0.92835  0.33659  0.89855  Biso   1.000  Ne
  He389    1.0000 0.92660  0.30881  0.87687  Biso   1.000  He
  He390    1.0000 0.95377  0.29574  0.86343  Biso   1.000  He
  Ne390    1.0000 0.94810  0.26698  0.84733  Biso   1.000  Ne
  Ne391    1.0000 0.68326  0.74239  0.72693  Biso   1.000  Ne
  He391    1.0000 0.70617  0.73430  0.74644  Biso   1.000  He
  He392    1.0000 0.70571  0.70181  0.75916  Biso   1.000  He
  Ne392    1.0000 0.73164  0.69361  0.77545  Biso   1.000  Ne
  Ne393    1.0000 0.08950  0.22660  0.90866  Biso   1.000  Ne
  He393    1.0000 0.08800  0.19496  0.91515  Biso   1.000  He
  He394    1.0000 0.08156  0.18717  0.94611  Biso   1.000  He
  Ne394    1.0000 0.07505  0.15428  0.95132  Biso   1.000  Ne
  Ne395    1.0000 0.15155  0.08190  0.72539  Biso   1.000  Ne
  He395    1.0000 0.16543  0.11174  0.73265  Biso   1.000  He
  He396    1.0000 0.19198  0.12047  0.71503  Biso   1.000  He
  Ne396    1.0000 0.20722  0.14880  0.72199  Biso   1.000  Ne
  Ne397    1.0000 0.36878  0.78776  0.46631  Biso   1.000  Ne
  He397    1.0000 0.39689  0.79669  0.45078  Biso   1.000  He
  He398    1.0000 0.38947  0.80339  0.41774  Biso   1.000  He
  Ne398    1.0000 0.41610  0.81194  0.40341  Biso   1.000  Ne
  Ne399    1.0000 0.77704  0.73277  0.94161  Biso   1.000  Ne
  He399    1.0000 0.75189  0.72441  0.96020  Biso   1.000  He
  He400    1.0000 0.72902  0.70439  0.94389  Biso   1.000  He
  Ne400    1.0000 0.70015  0.69402  0.96184  Biso   1.000  Ne
  Ne401    1.0000 0.26127  0.09133  0.69348  Biso   1.000  Ne
  He401    1.0000 0.28822  0.09797  0.67769  Biso   1.000  He
  He402    1.0000 0.31513  0.07941  0.68705  Biso   1.000  He
  Ne402    1.0000 0.34485  0.08572  0.67349  Biso   1.000  Ne
  Ne403    1.0000 0.37976  0.08838  0.73786  Biso   1.000  Ne
  He403    1.0000 0.39144  0.08745  0.76953  Biso   1.000  He
  He404    1.0000 0.42023  0.10484  0.77108  Biso   1.000  He
  Ne404    1.0000 0.43494  0.10468  0.80122  Biso   1.000  Ne
  Ne405    1.0000 0.29993  0.31363  0.82475  Biso   1.000  Ne
  He405    1.0000 0.28444  0.34072  0.82390  Biso   1.000  He
  He406    1.0000 0.29043  0.35539  0.79538  Biso   1.000  He
  Ne406    1.0000 0.27401  0.38440  0.79145  Biso   1.000  Ne
  Ne407    1.0000 0.16038  0.40529  0.44053  Biso   1.000  Ne
  He407    1.0000 0.13499  0.38732  0.43512  Biso   1.000  He
  He408    1.0000 0.10726  0.40216  0.43762  Biso   1.000  He
  Ne408    1.0000 0.08144  0.38330  0.43153  Biso   1.000  Ne
  Ne409    1.0000 0.85282  0.72967  0.12464  Biso   1.000  Ne
  He409    1.0000 0.87168  0.75913  0.12406  Biso   1.000  He
  He410    1.0000 0.89910  0.75588  0.10904  Biso   1.000  He
  Ne410    1.0000 0.92181  0.78034  0.11304  Biso   1.000  Ne
  Ne411    1.0000 0.68002  0.09711  0.26058  Biso   1.000  Ne
  He411    1.0000 0.71309  0.09511  0.26465  Biso   1.000  He
  He412    1.0000 0.73457  0.10674  0.24051  Biso   1.000  He
  Ne412    1.0000 0.76867  0.10682  0.24786  Biso   1.000  Ne
  Ne413    1.0000 0.39793  0.93276  0.89997  Biso   1.000  Ne
  He413    1.0000 0.40857  0.90709  0.88129  Biso   1.000  He
  He414    1.0000 0.39462  0.87965  0.89683  Biso   1.000  He
  Ne414    1.0000 0.40062  0.85029  0.88109  Biso   1.000  Ne
  Ne415    1.0000 0.26198  0.93107  0.94905  Biso   1.000  Ne
  He415    1.0000 0.26528  0.94570  0.91796  Biso   1.000  He
  He416    1.0000 0.29258  0.96772  0.91588  Biso   1.000  He
  Ne416    1.0000 0.29448  0.98463  0.89101  Biso   1.000  Ne
  Ne417    1.0000 0.91626  0.33292  0.12785  Biso   1.000  Ne
  He417    1.0000 0.93784  0.32167  0.10587  Biso   1.000  He
  He418    1.0000 0.93378  0.28987  0.09579  Biso   1.000  He
  Ne418    1.0000 0.95486  0.27743  0.07391  Biso   1.000  Ne
  Ne419    1.0000 0.08512  0.86088  0.62034  Biso   1.000  Ne
  He419    1.0000 0.09067  0.85646  0.65291  Biso   1.000  He
  He420    1.0000 0.12133  0.84101  0.66120  Biso   1.000  He
  Ne420    1.0000 0.12306  0.83815  0.69344  Biso   1.000  Ne
  Ne421    1.0000 0.71954  0.46542  0.52178  Biso   1.000  Ne
  He421    1.0000 0.73235  0.44637  0.54524  Biso   1.000  He
  He422    1.0000 0.71071  0.43729  0.56858  Biso   1.000  He
  Ne422    1.0000 0.72068  0.41660  0.59401  Biso   1.000  Ne
  Ne423    1.0000 0.58855  0.60791  0.18310  Biso   1.000  Ne
  He423    1.0000 0.57395  0.63511  0.17646  Biso   1.000  He
  He424    1.0000 0.58339  0.64508  0.14542  Biso   1.000  He
  Ne424    1.0000 0.57367  0.67499  0.13683  Biso   1.000  Ne
  Ne425    1.0000 0.91209  0.87921  0.32795  Biso   1.000  Ne
  He425    1.0000 0.91091  0.84902  0.31823  Biso   1.000  He
  He426    1.0000 0.92180  0.84561  0.28424  Biso   1.000  He
  Ne426    1.0000 0.92917  0.81365  0.27333  Biso   1.000  Ne
  Ne427    1.0000 0.18316  0.47364  0.98461  Biso   1.000  Ne
  He427    1.0000 0.18749  0.45791  0.01214  Biso   1.000  He
  He428    1.0000 0.20681  0.43007  0.01093  Biso   1.000  He
  Ne428    1.0000 0.20593  0.41614  0.03971  Biso   1.000  Ne
  Ne429    1.0000 0.69635  0.63514  0.57223  Biso   1.000  Ne
  He429    1.0000 0.67439  0.65231  0.55450  Biso   1.000  He
  He430    1.0000 0.64458  0.63974  0.55608  Biso   1.000  He
  Ne430    1.0000 0.62449  0.65543  0.53430  Biso   1.000  Ne
  Ne431    1.0000 0.39376  0.58861  0.77616  Biso   1.000  Ne
  He431    1.0000 0.40816  0.58093  0.80609  Biso   1.000  He
  He432    1.0000 0.40916  0.60859  0.82759  Biso   1.000  He
  Ne432    1.0000 0.42196  0.60072  0.85607  Biso   1.000  Ne
  Ne433    1.0000 0.13301  0.68900  0.82658  Biso   1.000  Ne
  He433    1.0000 0.12454  0.70749  0.80121  Biso   1.000  He
  He434    1.0000 0.12174  0.73996  0.80575  Biso   1.000  He
  Ne434    1.0000 0.11383  0.75759  0.77827  Biso   1.000  Ne
  Ne435    1.0000 0.53696  0.95854  0.60057  Biso   1.000  Ne
  He435    1.0000 0.55913  0.93944  0.58607  Biso   1.000  He
  He436    1.0000 0.56497  0.90860  0.59767  Biso   1.000  He
  Ne436    1.0000 0.58990  0.89627  0.57935  Biso   1.000  Ne
  Ne437    1.0000 0.58095  0.07766  0.40505  Biso   1.000  Ne
  He437    1.0000 0.60861  0.09478  0.41423  Biso   1.000  He
  He438    1.0000 0.61755  0.09011  0.44698  Biso   1.000  He
  Ne438    1.0000 0.64366  0.06802  0.45292  Biso   1.000  Ne
  Ne439    1.0000 0.56640  0.42953  0.28966  Biso   1.000  Ne
  He439    1.0000 0.56425  0.42234  0.32160  Biso   1.000  He
  He440    1.0000 0.54077  0.39748  0.33074  Biso   1.000  He
  Ne440    1.0000 0.53215  0.40080  0.36276  Biso   1.000  Ne
  Ne441    1.0000 0.05838  0.25238  0.10631  Biso   1.000  Ne
  He441    1.0000 0.09027  0.25481  0.11389  Biso   1.000  He
  He442    1.0000 0.10770  0.27462  0.09838  Biso   1.000  He
  Ne442    1.0000 0.14033  0.27315  0.10490  Biso   1.000  Ne
  Ne443    1.0000 0.26006  0.71966  0.65729  Biso   1.000  Ne
  He443    1.0000 0.28471  0.74094  0.66371  Biso   1.000  He
  He444    1.0000 0.31210  0.73208  0.67597  Biso   1.000  He
  Ne444    1.0000 0.33697  0.75246  0.67707  Biso   1.000  Ne
  Ne445    1.0000 0.66211  0.39651  0.09861  Biso   1.000  Ne
  He445    1.0000 0.66221  0.37801  0.12479  Biso   1.000  He
  He446    1.0000 0.68857  0.36204  0.13051  Biso   1.000  He
  Ne446    1.0000 0.68826  0.34916  0.15943  Biso   1.000  Ne
  Ne447    1.0000 0.91956  0.25433  0.47254  Biso   1.000  Ne
  He447    1.0000 0.90619  0.27028  0.44793  Biso   1.000  He
  He448    1.0000 0.88025  0.28948  0.45543  Biso   1.000  He
  Ne448    1.0000 0.86657  0.30493  0.43034  Biso   1.000  Ne
  Ne449    1.0000 0.58665  0.09816  0.93440  Biso   1.000  Ne
  He449    1.0000 0.61436  0.10909  0.92020  Biso   1.000  He
  He450    1.0000 0.61402  0.11512  0.88733  Biso   1.000  He
  Ne450    1.0000 0.63873  0.13280  0.87333  Biso   1.000  Ne
  Ne451    1.0000 0.59825  0.80997  0.43140  Biso   1.000  Ne
  He451    1.0000 0.57639  0.78660  0.42071  Biso   1.000  He
  He452    1.0000 0.56323  0.76924  0.44688  Biso   1.000  He
  Ne452    1.0000 0.54957  0.74243  0.43699  Biso   1.000  Ne
  Ne453    1.0000 0.82111  0.92232  0.11013  Biso   1.000  Ne
  He453    1.0000 0.80366  0.92652  0.13901  Biso   1.000  He
  He454    1.0000 0.77583  0.90771  0.14385  Biso   1.000  He
  Ne454    1.0000 0.74775  0.92024  0.13369  Biso   1.000  Ne
  Ne455    1.0000 0.88922  0.51806  0.04349  Biso   1.000  Ne
  He455    1.0000 0.86945  0.49974  0.06045  Biso   1.000  He
  He456    1.0000 0.88219  0.48538  0.08559  Biso   1.000  He
  Ne456    1.0000 0.86126  0.46812  0.10375  Biso   1.000  Ne
  Ne457    1.0000 0.82807  0.90029  0.26086  Biso   1.000  Ne
  He457    1.0000 0.80810  0.91525  0.23737  Biso   1.000  He
  He458    1.0000 0.77530  0.91016  0.24540  Biso   1.000  He
  Ne458    1.0000 0.75235  0.92448  0.22543  Biso   1.000  Ne
  Ne459    1.0000 0.31190  0.65801  0.12647  Biso   1.000  Ne
  He459    1.0000 0.32950  0.63313  0.11627  Biso   1.000  He
  He460    1.0000 0.31825  0.60166  0.12329  Biso   1.000  He
  Ne460    1.0000 0.33415  0.57513  0.11409  Biso   1.000  Ne
  Ne461    1.0000 0.75438  0.77549  0.17485  Biso   1.000  Ne
  He461    1.0000 0.74428  0.79104  0.20235  Biso   1.000  He
  He462    1.0000 0.74506  0.82557  0.20299  Biso   1.000  He
  Ne462    1.0000 0.73411  0.83738  0.22888  Biso   1.000  Ne
  Ne463    1.0000 0.95843  0.39970  0.14126  Biso   1.000  Ne
  He463    1.0000 0.98004  0.41911  0.13041  Biso   1.000  He
  He464    1.0000 0.00888  0.40316  0.12489  Biso   1.000  He
  Ne464    1.0000 0.02537  0.41914  0.10011  Biso   1.000  Ne
  Ne465    1.0000 0.90968  0.65884  0.42353  Biso   1.000  Ne
  He465    1.0000 0.89867  0.68498  0.43609  Biso   1.000  He
  He466    1.0000 0.91714  0.71155  0.42660  Biso   1.000  He
  Ne466    1.0000 0.91893  0.73807  0.44654  Biso   1.000  Ne
  Ne467    1.0000 0.47654  0.55025  0.28973  Biso   1.000  Ne
  He467    1.0000 0.48291  0.52825  0.31091  Biso   1.000  He
  He468    1.0000 0.50153  0.53868  0.33748  Biso   1.000  He
  Ne468    1.0000 0.50708  0.51783  0.36177  Biso   1.000  Ne
  Ne469    1.0000 0.18312  0.44421  0.13749  Biso   1.000  Ne
  He469    1.0000 0.18231  0.47090  0.15707  Biso   1.000  He
  He470    1.0000 0.20717  0.49470  0.14715  Biso   1.000  He
  Ne470    1.0000 0.21241  0.52148  0.16847  Biso   1.000  Ne
  Ne471    1.0000 0.81402  0.61652  0.83065  Biso   1.000  Ne
  He471    1.0000 0.82168  0.58633  0.84332  Biso   1.000  He
  He472    1.0000 0.80039  0.56026  0.83642  Biso   1.000  He
  Ne472    1.0000 0.80911  0.53056  0.84694  Biso   1.000  Ne
  Ne473    1.0000 0.18763  0.51195  0.87448  Biso   1.000  Ne
  He473    1.0000 0.18685  0.48068  0.88513  Biso   1.000  He
  He474    1.0000 0.17401  0.45657  0.86547  Biso   1.000  He
  Ne474    1.0000 0.16936  0.42593  0.87938  Biso   1.000  Ne
  Ne475    1.0000 0.68693  0.49463  0.39718  Biso   1.000  Ne
  He475    1.0000 0.71393  0.50614  0.37740  Biso   1.000  He
  He476    1.0000 0.70756  0.53321  0.35936  Biso   1.000  He
  Ne476    1.0000 0.73475  0.54937  0.34782  Biso   1.000  Ne
  Ne477    1.0000 0.64732  0.18789  0.99561  Biso   1.000  Ne
  He477    1.0000 0.65685  0.15562  0.00330  Biso   1.000  He
  He478    1.0000 0.67474  0.14037  0.98213  Biso   1.000  He
  Ne478    1.0000 0.70177  0.12899  0.99639  Biso   1.000  Ne
  Ne479    1.0000 0.22472  0.73826  0.40836  Biso   1.000  Ne
  He479    1.0000 0.24964  0.72625  0.42798  Biso   1.000  He
  He480    1.0000 0.25330  0.69379  0.42839  Biso   1.000  He
  Ne480    1.0000 0.25892  0.67872  0.45552  Biso   1.000  Ne
  Ne481    1.0000 0.55596  0.49557  0.51209  Biso   1.000  Ne
  He481    1.0000 0.56742  0.48339  0.48477  Biso   1.000  He
  He482    1.0000 0.54893  0.46017  0.47117  Biso   1.000  He
  Ne482    1.0000 0.55885  0.45000  0.44086  Biso   1.000  Ne
  Ne483    1.0000 0.35618  0.32803  0.31353  Biso   1.000  Ne
  He483    1.0000 0.33180  0.32662  0.33468  Biso   1.000  He
  He484    1.0000 0.31128  0.29788  0.33379  Biso   1.000  He
  Ne484    1.0000 0.28336  0.29676  0.35552  Biso   1.000  Ne
  Ne485    1.0000 0.33747  0.16393  0.59209  Biso   1.000  Ne
  He485    1.0000 0.32357  0.13571  0.60559  Biso   1.000  He
  He486    1.0000 0.29894  0.12279  0.58736  Biso   1.000  He
  Ne486    1.0000 0.28594  0.09151  0.59919  Biso   1.000  Ne
  Ne487    1.0000 0.57214  0.39599  0.06453  Biso   1.000  Ne
  He487    1.0000 0.58501  0.39777  0.09541  Biso   1.000  He
  He488    1.0000 0.56529  0.41557  0.11588  Biso   1.000  He
  Ne488    1.0000 0.57724  0.41749  0.14765  Biso   1.000  Ne
  Ne489    1.0000 0.68634  0.85645  0.09465  Biso   1.000  Ne
  He489    1.0000 0.71996  0.85148  0.08424  Biso   1.000  He
  He490    1.0000 0.73632  0.83343  0.10539  Biso   1.000  He
  Ne490    1.0000 0.77046  0.83591  0.10328  Biso   1.000  Ne
  Ne491    1.0000 0.33348  0.58609  0.85212  Biso   1.000  Ne
  He491    1.0000 0.33998  0.57987  0.88319  Biso   1.000  He
  He492    1.0000 0.31357  0.57607  0.90279  Biso   1.000  He
  Ne492    1.0000 0.31775  0.57227  0.93670  Biso   1.000  Ne
  Ne493    1.0000 0.27332  0.08995  0.12399  Biso   1.000  Ne
  He493    1.0000 0.27623  0.06810  0.09816  Biso   1.000  He
  He494    1.0000 0.25492  0.06716  0.07287  Biso   1.000  He
  Ne494    1.0000 0.26143  0.04520  0.04800  Biso   1.000  Ne
  Ne495    1.0000 0.13313  0.67993  0.61026  Biso   1.000  Ne
  He495    1.0000 0.11011  0.65930  0.62250  Biso   1.000  He
  He496    1.0000 0.08076  0.67571  0.63080  Biso   1.000  He
  Ne496    1.0000 0.05878  0.65274  0.64111  Biso   1.000  Ne
  Ne497    1.0000 0.59027  0.29377  0.70837  Biso   1.000  Ne
  He497    1.0000 0.59854  0.31938  0.72835  Biso   1.000  He
  He498    1.0000 0.59549  0.31733  0.76141  Biso   1.000  He
  Ne498    1.0000 0.61076  0.34148  0.77897  Biso   1.000  Ne
  Ne499    1.0000 0.68873  0.43038  0.84889  Biso   1.000  Ne
  He499    1.0000 0.71931  0.44185  0.85377  Biso   1.000  He
  He500    1.0000 0.73745  0.43811  0.82664  Biso   1.000  He
  Ne500    1.0000 0.76485  0.45402  0.82878  Biso   1.000  Ne
  Ne501    1.0000 0.92574  0.58744  0.56392  Biso   1.000  Ne
  He501    1.0000 0.91712  0.58577  0.59579  Biso   1.000  He
  He502    1.0000 0.89536  0.55920  0.60258  Biso   1.000  He
  Ne502    1.0000 0.88241  0.56011  0.63151  Biso   1.000  Ne
  Ne503    1.0000 0.55778  0.57229  0.09766  Biso   1.000  Ne
  He503    1.0000 0.55736  0.54631  0.07746  Biso   1.000  He
  He504    1.0000 0.58697  0.53003  0.07256  Biso   1.000  He
  Ne504    1.0000 0.57958  0.50496  0.05432  Biso   1.000  Ne
  Ne505    1.0000 0.67536  0.46886  0.30410  Biso   1.000  Ne
  He505    1.0000 0.65169  0.48852  0.31493  Biso   1.000  He
  He506    1.0000 0.63345  0.47628  0.34125  Biso   1.000  He
  Ne506    1.0000 0.60595  0.48875  0.34588  Biso   1.000  Ne
  Ne507    1.0000 0.73150  0.20512  0.09219  Biso   1.000  Ne
  He507    1.0000 0.72609  0.17810  0.10933  Biso   1.000  He
  He508    1.0000 0.72492  0.18088  0.14312  Biso   1.000  He
  Ne508    1.0000 0.71906  0.15434  0.16129  Biso   1.000  Ne
  Ne509    1.0000 0.09697  0.59014  0.58389  Biso   1.000  Ne
  He509    1.0000 0.09169  0.58063  0.61458  Biso   1.000  He
  He510    1.0000 0.06103  0.56885  0.61938  Biso   1.000  He
  Ne510    1.0000 0.05816  0.56018  0.65223  Biso   1.000  Ne
  Ne511    1.0000 0.59723  0.69278  0.23473  Biso   1.000  Ne
  He511    1.0000 0.58313  0.69684  0.26486  Biso   1.000  He
  He512    1.0000 0.59884  0.72033  0.28331  Biso   1.000  He
  Ne512    1.0000 0.58510  0.72130  0.31453  Biso   1.000  Ne
  Ne513    1.0000 0.67566  0.84419  0.62111  Biso   1.000  Ne
  He513    1.0000 0.70721  0.85318  0.61103  Biso   1.000  He
  He514    1.0000 0.71284  0.88426  0.60347  Biso   1.000  He
  Ne514    1.0000 0.74549  0.89366  0.59929  Biso   1.000  Ne
  Ne515    1.0000 0.92846  0.01221  0.32353  Biso   1.000  Ne
  He515    1.0000 0.95203  0.99961  0.33926  Biso   1.000  He
  He516    1.0000 0.94540  0.96807  0.34737  Biso   1.000  He
  Ne516    1.0000 0.97147  0.95388  0.36185  Biso   1.000  Ne
  Ne517    1.0000 0.27599  0.56971  0.20766  Biso   1.000  Ne
  He517    1.0000 0.26229  0.57130  0.23870  Biso   1.000  He
  He518    1.0000 0.26116  0.60022  0.24977  Biso   1.000  He
  Ne518    1.0000 0.24525  0.60348  0.27714  Biso   1.000  Ne
  Ne519    1.0000 0.16070  0.64722  0.04597  Biso   1.000  Ne
  He519    1.0000 0.14618  0.67794  0.04455  Biso   1.000  He
  He520    1.0000 0.13699  0.69095  0.07490  Biso   1.000  He
  Ne520    1.0000 0.12066  0.72220  0.07085  Biso   1.000  Ne
  Ne521    1.0000 0.16877  0.16264  0.94833  Biso   1.000  Ne
  He521    1.0000 0.20249  0.16492  0.93913  Biso   1.000  He
  He522    1.0000 0.21595  0.19435  0.93541  Biso   1.000  He
  Ne522    1.0000 0.24729  0.19561  0.92679  Biso   1.000  Ne
  Ne523    1.0000 0.42767  0.74325  0.86883  Biso   1.000  Ne
  He523    1.0000 0.40477  0.72509  0.85429  Biso   1.000  He
  He524    1.0000 0.39487  0.69978  0.87334  Biso   1.000  He
  Ne524    1.0000 0.37277  0.67758  0.86060  Biso   1.000  Ne
  Ne525    1.0000 0.67982  0.58544  0.86710  Biso   1.000  Ne
  He525    1.0000 0.67118  0.60463  0.89371  Biso   1.000  He
  He526    1.0000 0.68586  0.59742  0.92137  Biso   1.000  He
  Ne526    1.0000 0.67488  0.61497  0.94587  Biso   1.000  Ne
  Ne527    1.0000 0.33016  0.89019  0.62117  Biso   1.000  Ne
  He527    1.0000 0.30930  0.86845  0.63066  Biso   1.000  He
  He528    1.0000 0.30310  0.86667  0.66202  Biso   1.000  He
  Ne528    1.0000 0.28297  0.83962  0.66958  Biso   1.000  Ne
  Ne529    1.0000 0.19988  0.16361  0.29849  Biso   1.000  Ne
  He529    1.0000 0.19542  0.18885  0.31802  Biso   1.000  He
  He530    1.0000 0.17078  0.18389  0.33980  Biso   1.000  He
  Ne530    1.0000 0.17973  0.18715  0.37330  Biso   1.000  Ne
  Ne531    1.0000 0.85240  0.66236  0.06466  Biso   1.000  Ne
  He531    1.0000 0.81873  0.66153  0.07097  Biso   1.000  He
  He532    1.0000 0.80852  0.62882  0.07914  Biso   1.000  He
  Ne532    1.0000 0.77653  0.62369  0.09192  Biso   1.000  Ne
  Ne533    1.0000 0.13378  0.12582  0.53627  Biso   1.000  Ne
  He533    1.0000 0.16192  0.12063  0.54935  Biso   1.000  He
  He534    1.0000 0.18535  0.11508  0.52529  Biso   1.000  He
  Ne534    1.0000 0.21622  0.10755  0.53571  Biso   1.000  Ne
  Ne535    1.0000 0.68075  0.27919  0.11228  Biso   1.000  Ne
  He535    1.0000 0.67131  0.24801  0.11682  Biso   1.000  He
  He536    1.0000 0.64740  0.23679  0.09596  Biso   1.000  He
  Ne536    1.0000 0.63722  0.20622  0.10443  Biso   1.000  Ne
  Ne537    1.0000 0.33113  0.89950  0.28705  Biso   1.000  Ne
  He537    1.0000 0.33721  0.88397  0.26171  Biso   1.000  He
  He538    1.0000 0.32930  0.85239  0.26253  Biso   1.000  He
  Ne538    1.0000 0.34173  0.82968  0.23861  Biso   1.000  Ne
  Ne539    1.0000 0.07617  0.91319  0.18759  Biso   1.000  Ne
  He539    1.0000 0.07483  0.90806  0.22111  Biso   1.000  He
  He540    1.0000 0.09440  0.88497  0.23053  Biso   1.000  He
  Ne540    1.0000 0.08634  0.87478  0.26357  Biso   1.000  Ne
  Ne541    1.0000 0.88418  0.91361  0.77668  Biso   1.000  Ne
  He541    1.0000 0.85231  0.92262  0.77167  Biso   1.000  He
  He542    1.0000 0.84174  0.92484  0.73783  Biso   1.000  He
  Ne542    1.0000 0.80881  0.92273  0.73369  Biso   1.000  Ne
  Ne543    1.0000 0.13087  0.37818  0.93471  Biso   1.000  Ne
  He543    1.0000 0.12987  0.39290  0.96578  Biso   1.000  He
  He544    1.0000 0.10853  0.37934  0.98664  Biso   1.000  He
  Ne544    1.0000 0.11329  0.38934  0.01804  Biso   1.000  Ne
  Ne545    1.0000 0.80027  0.52699  0.09425  Biso   1.000  Ne
  He545    1.0000 0.80693  0.53286  0.12538  Biso   1.000  He
  He546    1.0000 0.78609  0.55545  0.13667  Biso   1.000  He
  Ne546    1.0000 0.78385  0.55568  0.16965  Biso   1.000  Ne
  Ne547    1.0000 0.02240  0.65868  0.79479  Biso   1.000  Ne
  He547    1.0000 0.04182  0.68098  0.77868  Biso   1.000  He
  He548    1.0000 0.06031  0.66575  0.75829  Biso   1.000  He
  Ne548    1.0000 0.07646  0.68006  0.73638  Biso   1.000  Ne
  Ne549    1.0000 0.59065  0.17253  0.61614  Biso   1.000  Ne
  He549    1.0000 0.59274  0.19776  0.63666  Biso   1.000  He
  He550    1.0000 0.59335  0.18693  0.66832  Biso   1.000  He
  Ne550    1.0000 0.59919  0.21243  0.69213  Biso   1.000  Ne
  Ne551    1.0000 0.41542  0.60656  0.48616  Biso   1.000  Ne
  He551    1.0000 0.38422  0.59286  0.48755  Biso   1.000  He
  He552    1.0000 0.37132  0.58112  0.45872  Biso   1.000  He
  Ne552    1.0000 0.34293  0.56434  0.46102  Biso   1.000  Ne
  Ne553    1.0000 0.61162  0.67903  0.70705  Biso   1.000  Ne
  He553    1.0000 0.57953  0.67755  0.70958  Biso   1.000  He
  He554    1.0000 0.56236  0.70471  0.70711  Biso   1.000  He
  Ne554    1.0000 0.52824  0.69989  0.71214  Biso   1.000  Ne
  Ne555    1.0000 0.65157  0.53202  0.52496  Biso   1.000  Ne
  He555    1.0000 0.64895  0.53392  0.55559  Biso   1.000  He
  He556    1.0000 0.66271  0.50897  0.57267  Biso   1.000  He
  Ne556    1.0000 0.67302  0.51841  0.60506  Biso   1.000  Ne
  Ne557    1.0000 0.76331  0.35926  0.10638  Biso   1.000  Ne
  He557    1.0000 0.78568  0.34083  0.09140  Biso   1.000  He
  He558    1.0000 0.79552  0.35790  0.06285  Biso   1.000  He
  Ne558    1.0000 0.81797  0.34084  0.04670  Biso   1.000  Ne
  Ne559    1.0000 0.46214  0.95459  0.42913  Biso   1.000  Ne
  He559    1.0000 0.43914  0.93556  0.44528  Biso   1.000  He
  He560    1.0000 0.44625  0.90431  0.43972  Biso   1.000  He
  Ne560    1.0000 0.42983  0.88182  0.45953  Biso   1.000  Ne
  Ne561    1.0000 0.07588  0.83420  0.16201  Biso   1.000  Ne
  He561    1.0000 0.09212  0.85169  0.14167  Biso   1.000  He
  He562    1.0000 0.08576  0.84704  0.11099  Biso   1.000  He
  Ne562    1.0000 0.10262  0.86538  0.09014  Biso   1.000  Ne
  Ne563    1.0000 0.87023  0.64790  0.91104  Biso   1.000  Ne
  He563    1.0000 0.88945  0.63718  0.88530  Biso   1.000  He
  He564    1.0000 0.90272  0.60715  0.89194  Biso   1.000  He
  Ne564    1.0000 0.93584  0.61020  0.89759  Biso   1.000  Ne
  Ne565    1.0000 0.64287  0.71292  0.38433  Biso   1.000  Ne
  He565    1.0000 0.66537  0.73145  0.39934  Biso   1.000  He
  He566    1.0000 0.69070  0.74746  0.37887  Biso   1.000  He
  Ne566    1.0000 0.71294  0.76665  0.39644  Biso   1.000  Ne
  Ne567    1.0000 0.82426  0.41314  0.32630  Biso   1.000  Ne
  He567    1.0000 0.82353  0.38138  0.31539  Biso   1.000  He
  He568    1.0000 0.83343  0.36059  0.33596  Biso   1.000  He
  Ne568    1.0000 0.83075  0.32841  0.32807  Biso   1.000  Ne
  Ne569    1.0000 0.32503  0.56640  0.54010  Biso   1.000  Ne
  He569    1.0000 0.32393  0.59037  0.56176  Biso   1.000  He
  He570    1.0000 0.29634  0.60960  0.56000  Biso   1.000  He
  Ne570    1.0000 0.27964  0.61083  0.58746  Biso   1.000  Ne
  Ne571    1.0000 0.38685  0.71521  0.41817  Biso   1.000  Ne
  He571    1.0000 0.41914  0.72037  0.41884  Biso   1.000  He
  He572    1.0000 0.43199  0.70435  0.39544  Biso   1.000  He
  Ne572    1.0000 0.46636  0.70396  0.39568  Biso   1.000  Ne
  Ne573    1.0000 0.94599  0.38330  0.81175  Biso   1.000  Ne
  He573    1.0000 0.97538  0.37916  0.82543  Biso   1.000  He
  He574    1.0000 0.99321  0.35158  0.81611  Biso   1.000  He
  Ne574    1.0000 0.02218  0.35084  0.82733  Biso   1.000  Ne
  Ne575    1.0000 0.55138  0.36066  0.53214  Biso   1.000  Ne
  He575    1.0000 0.52436  0.36805  0.51408  Biso   1.000  He
  He576    1.0000 0.49694  0.37593  0.53149  Biso   1.000  He
  Ne576    1.0000 0.47137  0.38380  0.51196  Biso   1.000  Ne
  Ne577    1.0000 0.08631  0.43881  0.88879  Biso   1.000  Ne
  He577    1.0000 0.06239  0.42089  0.90393  Biso   1.000  He
  He578    1.0000 0.06213  0.42080  0.93714  Biso   1.000  He
  Ne578    1.0000 0.03768  0.40375  0.95012  Biso   1.000  Ne
  Ne579    1.0000 0.59594  0.52318  0.66448  Biso   1.000  Ne
  He579    1.0000 0.59282  0.53139  0.63227  Biso   1.000  He
  He580    1.0000 0.56342  0.54302  0.62416  Biso   1.000  He
  Ne580    1.0000 0.55866  0.54948  0.59152  Biso   1.000  Ne
  Ne581    1.0000 0.42679  0.13004  0.58367  Biso   1.000  Ne
  He581    1.0000 0.43284  0.09842  0.58906  Biso   1.000  He
  He582    1.0000 0.40290  0.07827  0.59278  Biso   1.000  He
  Ne582    1.0000 0.41230  0.04706  0.60343  Biso   1.000  Ne
  Ne583    1.0000 0.26683  0.09427  0.23243  Biso   1.000  Ne
  He583    1.0000 0.24005  0.10752  0.21911  Biso   1.000  He
  He584    1.0000 0.22667  0.12928  0.23498  Biso   1.000  He
  Ne584    1.0000 0.20328  0.14370  0.21652  Biso   1.000  Ne
  Ne585    1.0000 0.75171  0.64297  0.42340  Biso   1.000  Ne
  He585    1.0000 0.75568  0.61324  0.40959  Biso   1.000  He
  He586    1.0000 0.78123  0.59818  0.42195  Biso   1.000  He
  Ne586    1.0000 0.77233  0.57038  0.43722  Biso   1.000  Ne
  Ne587    1.0000 0.37420  0.85397  0.11640  Biso   1.000  Ne
  He587    1.0000 0.40475  0.84894  0.12535  Biso   1.000  He
  He588    1.0000 0.40780  0.84386  0.15860  Biso   1.000  He
  Ne588    1.0000 0.43956  0.83777  0.17163  Biso   1.000  Ne
  Ne589    1.0000 0.86550  0.54975  0.23085  Biso   1.000  Ne
  He589    1.0000 0.89442  0.54419  0.24775  Biso   1.000  He
  He590    1.0000 0.92241  0.53294  0.23158  Biso   1.000  He
  Ne590    1.0000 0.94977  0.53247  0.25130  Biso   1.000  Ne
  Ne591    1.0000 0.18655  0.71678  0.33123  Biso   1.000  Ne
  He591    1.0000 0.16890  0.72623  0.30716  Biso   1.000  He
  He592    1.0000 0.15424  0.70326  0.28821  Biso   1.000  He
  Ne592    1.0000 0.13873  0.71570  0.26513  Biso   1.000  Ne
  Ne593    1.0000 0.85833  0.41537  0.76455  Biso   1.000  Ne
  He593    1.0000 0.86221  0.41427  0.73131  Biso   1.000  He
  He594    1.0000 0.89461  0.41397  0.71937  Biso   1.000  He
  Ne594    1.0000 0.89240  0.42142  0.68882  Biso   1.000  Ne
  Ne595    1.0000 0.60531  0.91503  0.76958  Biso   1.000  Ne
  He595    1.0000 0.60578  0.91962  0.73676  Biso   1.000  He
  He596    1.0000 0.57821  0.91283  0.71856  Biso   1.000  He
  Ne596    1.0000 0.58659  0.91109  0.68624  Biso   1.000  Ne
  Ne597    1.0000 0.17686  0.08517  0.11512  Biso   1.000  Ne
  He597    1.0000 0.18233  0.11848  0.11140  Biso   1.000  He
  He598    1.0000 0.15557  0.13763  0.11108  Biso   1.000  He
  Ne598    1.0000 0.15904  0.17039  0.11273  Biso   1.000  Ne
  Ne599    1.0000 0.62573  0.79490  0.33986  Biso   1.000  Ne
  He599    1.0000 0.64882  0.81784  0.34849  Biso   1.000  He
  He600    1.0000 0.66674  0.83113  0.32554  Biso   1.000  He
  Ne600    1.0000 0.69421  0.85202  0.33205  Biso   1.000  Ne
  Ne601    1.0000 0.59559  0.74074  0.98261  Biso   1.000  Ne
  He601    1.0000 0.60096  0.71568  0.96273  Biso   1.000  He
  He602    1.0000 0.57855  0.69268  0.95807  Biso   1.000  He
  Ne602    1.0000 0.59039  0.66404  0.94635  Biso   1.000  Ne
  Ne603    1.0000 0.14736  0.71100  0.96561  Biso   1.000  Ne
  He603    1.0000 0.11855  0.72678  0.96005  Biso   1.000  He
  He604    1.0000 0.09069  0.70662  0.96657  Biso   1.000  He
  Ne604    1.0000 0.06045  0.72130  0.95830  Biso   1.000  Ne
  Ne605    1.0000 0.58806  0.17501  0.36562  Biso   1.000  Ne
  He605    1.0000 0.61353  0.18809  0.35004  Biso   1.000  He
  He606    1.0000 0.64587  0.17687  0.36142  Biso   1.000  He
  Ne606    1.0000 0.67114  0.19167  0.35107  Biso   1.000  Ne
  Ne607    1.0000 0.95647  0.66174  0.06644  Biso   1.000  Ne
  He607    1.0000 0.95385  0.69562  0.05799  Biso   1.000  He
  He608    1.0000 0.98140  0.71041  0.04527  Biso   1.000  He
  Ne608    1.0000 0.00015  0.72650  0.06952  Biso   1.000  Ne
  Ne609    1.0000 0.33630  0.50753  0.69757  Biso   1.000  Ne
  He609    1.0000 0.32586  0.53717  0.68508  Biso   1.000  He
  He610    1.0000 0.29424  0.53453  0.67087  Biso   1.000  He
  Ne610    1.0000 0.28587  0.56334  0.65600  Biso   1.000  Ne
  Ne611    1.0000 0.46924  0.31009  0.43296  Biso   1.000  Ne
  He611    1.0000 0.45959  0.29862  0.40316  Biso   1.000  He
  He612    1.0000 0.45907  0.32405  0.37890  Biso   1.000  He
  Ne612    1.0000 0.45988  0.31370  0.34701  Biso   1.000  Ne
  Ne613    1.0000 0.92165  0.66164  0.24365  Biso   1.000  Ne
  He613    1.0000 0.89991  0.67523  0.22426  Biso   1.000  He
  He614    1.0000 0.87233  0.65983  0.21912  Biso   1.000  He
  Ne614    1.0000 0.85227  0.67392  0.19702  Biso   1.000  Ne
  Ne615    1.0000 0.19805  0.85042  0.68634  Biso   1.000  Ne
  He615    1.0000 0.20380  0.81848  0.68100  Biso   1.000  He
  He616    1.0000 0.20810  0.81089  0.64850  Biso   1.000  He
  Ne616    1.0000 0.21339  0.77635  0.64116  Biso   1.000  Ne
  Ne617    1.0000 0.27485  0.27832  0.26214  Biso   1.000  Ne
  He617    1.0000 0.28646  0.26968  0.23292  Biso   1.000  He
  He618    1.0000 0.31925  0.26353  0.22863  Biso   1.000  He
  Ne618    1.0000 0.32847  0.25653  0.19832  Biso   1.000  Ne
  Ne619    1.0000 0.34198  0.08731  0.33840  Biso   1.000  Ne
  He619    1.0000 0.31931  0.08019  0.36160  Biso   1.000  He
  He620    1.0000 0.33489  0.07470  0.39041  Biso   1.000  He
  Ne620    1.0000 0.31552  0.06938  0.41798  Biso   1.000  Ne
  Ne621    1.0000 0.59387  0.82547  0.62260  Biso   1.000  Ne
  He621    1.0000 0.60017  0.79397  0.61761  Biso   1.000  He
  He622    1.0000 0.59052  0.77230  0.64089  Biso   1.000  He
  Ne622    1.0000 0.59835  0.74028  0.63429  Biso   1.000  Ne
  Ne623    1.0000 0.25494  0.38567  0.20537  Biso   1.000  Ne
  He623    1.0000 0.24482  0.35546  0.20238  Biso   1.000  He
  He624    1.0000 0.24945  0.34110  0.17419  Biso   1.000  He
  Ne624    1.0000 0.24496  0.30829  0.17405  Biso   1.000  Ne
  Ne625    1.0000 0.42004  0.30570  0.93414  Biso   1.000  Ne
  He625    1.0000 0.38566  0.29982  0.92438  Biso   1.000  He
  He626    1.0000 0.36391  0.31823  0.94101  Biso   1.000  He
  Ne626    1.0000 0.33164  0.31249  0.93156  Biso   1.000  Ne
  Ne627    1.0000 0.25617  0.40654  0.92956  Biso   1.000  Ne
  He627    1.0000 0.28292  0.41755  0.91687  Biso   1.000  He
  He628    1.0000 0.30718  0.39472  0.91360  Biso   1.000  He
  Ne628    1.0000 0.33278  0.40927  0.89969  Biso   1.000  Ne
  Ne629    1.0000 0.43924  0.37275  0.31227  Biso   1.000  Ne
  He629    1.0000 0.44379  0.40377  0.31353  Biso   1.000  He
  He630    1.0000 0.46578  0.41770  0.29392  Biso   1.000  He
  Ne630    1.0000 0.46824  0.45035  0.29044  Biso   1.000  Ne
  Ne631    1.0000 0.12690  0.08706  0.20248  Biso   1.000  Ne
  He631    1.0000 0.12279  0.09176  0.23327  Biso   1.000  He
  He632    1.0000 0.09103  0.08079  0.24361  Biso   1.000  He
  Ne632    1.0000 0.08560  0.08412  0.27399  Biso   1.000  Ne
  Ne633    1.0000 0.22575  0.59483  0.84508  Biso   1.000  Ne
  He633    1.0000 0.24692  0.60390  0.82317  Biso   1.000  He
  He634    1.0000 0.24140  0.59155  0.79580  Biso   1.000  He
  Ne634    1.0000 0.26695  0.59609  0.77346  Biso   1.000  Ne
  Ne635    1.0000 0.01542  0.18039  0.73014  Biso   1.000  Ne
  He635    1.0000 0.03481  0.17157  0.70755  Biso   1.000  He
  He636    1.0000 0.04721  0.19512  0.68655  Biso   1.000  He
  Ne636    1.0000 0.06388  0.18383  0.66046  Biso   1.000  Ne
  Ne637    1.0000 0.83185  0.58369  0.02183  Biso   1.000  Ne
  He637    1.0000 0.83140  0.60216  0.99252  Biso   1.000  He
  He638    1.0000 0.82429  0.63468  0.99457  Biso   1.000  He
  Ne638    1.0000 0.79190  0.64518  0.99254  Biso   1.000  Ne
  Ne639    1.0000 0.05425  0.07459  0.04410  Biso   1.000  Ne
  He639    1.0000 0.06786  0.06976  0.07530  Biso   1.000  He
  He640    1.0000 0.08669  0.09514  0.08959  Biso   1.000  He
  Ne640    1.0000 0.07216  0.11183  0.11614  Biso   1.000  Ne
  Ne641    1.0000 0.98521  0.77265  0.50617  Biso   1.000  Ne
  He641    1.0000 0.98041  0.77002  0.47450  Biso   1.000  He
  He642    1.0000 0.98646  0.79783  0.45822  Biso   1.000  He
  Ne642    1.0000 0.98010  0.79437  0.42420  Biso   1.000  Ne
  Ne643    1.0000 0.66865  0.19689  0.45854  Biso   1.000  Ne
  He643    1.0000 0.63593  0.20068  0.45628  Biso   1.000  He
  He644    1.0000 0.62053  0.17383  0.45747  Biso   1.000  He
  Ne644    1.0000 0.58958  0.17732  0.45658  Biso   1.000  Ne
  Ne645    1.0000 0.52355  0.95129  0.51529  Biso   1.000  Ne
  He645    1.0000 0.53168  0.93541  0.48725  Biso   1.000  He
  He646    1.0000 0.54570  0.90389  0.49192  Biso   1.000  He
  Ne646    1.0000 0.54971  0.88710  0.46285  Biso   1.000  Ne
  Ne647    1.0000 0.34210  0.91417  0.73015  Biso   1.000  Ne
  He647    1.0000 0.36027  0.92487  0.70251  Biso   1.000  He
  He648    1.0000 0.39401  0.91854  0.70385  Biso   1.000  He
  Ne648    1.0000 0.40844  0.92617  0.67480  Biso   1.000  Ne
  Ne649    1.0000 0.83697  0.82226  0.36349  Biso   1.000  Ne
  He649    1.0000 0.82433  0.81710  0.39344  Biso   1.000  He
  He650    1.0000 0.79673  0.83520  0.40013  Biso   1.000  He
  Ne650    1.0000 0.78447  0.83239  0.43112  Biso   1.000  Ne
  Ne651    1.0000 0.74009  0.38509  0.27355  Biso   1.000  Ne
  He651    1.0000 0.74402  0.37623  0.24053  Biso   1.000  He
  He652    1.0000 0.76301  0.39605  0.22158  Biso   1.000  He
  Ne652    1.0000 0.76296  0.38711  0.18990  Biso   1.000  Ne
  Ne653    1.0000 0.57101  0.34757  0.85424  Biso   1.000  Ne
  He653    1.0000 0.58307  0.31761  0.85875  Biso   1.000  He
  He654    1.0000 0.59113  0.30884  0.89126  Biso   1.000  He
  Ne654    1.0000 0.60457  0.28015  0.89536  Biso   1.000  Ne
  Ne655    1.0000 0.14259  0.69938  0.68419  Biso   1.000  Ne
  He655    1.0000 0.16320  0.69975  0.71091  Biso   1.000  He
  He656    1.0000 0.17989  0.67183  0.71430  Biso   1.000  He
  Ne656    1.0000 0.19403  0.66919  0.74362  Biso   1.000  Ne
  Ne657    1.0000 0.28434  0.66287  0.85684  Biso   1.000  Ne
  He657    1.0000 0.26467  0.68893  0.86015  Biso   1.000  He
  He658    1.0000 0.27987  0.71698  0.85281  Biso   1.000  He
  Ne658    1.0000 0.25849  0.74380  0.85307  Biso   1.000  Ne
  Ne659    1.0000 0.52415  0.59545  0.51085  Biso   1.000  Ne
  He659    1.0000 0.49468  0.59811  0.52355  Biso   1.000  He
  He660    1.0000 0.49000  0.58135  0.54960  Biso   1.000  He
  Ne660    1.0000 0.45781  0.57853  0.55868  Biso   1.000  Ne
  Ne661    1.0000 0.92452  0.93498  0.92081  Biso   1.000  Ne
  He661    1.0000 0.91995  0.91103  0.94080  Biso   1.000  He
  He662    1.0000 0.88766  0.90126  0.93725  Biso   1.000  He
  Ne662    1.0000 0.87529  0.87984  0.96227  Biso   1.000  Ne
  Ne663    1.0000 0.91314  0.16611  0.72145  Biso   1.000  Ne
  He663    1.0000 0.92962  0.14104  0.71133  Biso   1.000  He
  He664    1.0000 0.94898  0.14418  0.68820  Biso   1.000  He
  Ne664    1.0000 0.96218  0.11594  0.68197  Biso   1.000  Ne
  Ne665    1.0000 0.09442  0.06116  0.88645  Biso   1.000  Ne
  He665    1.0000 0.07240  0.07844  0.90098  Biso   1.000  He
  He666    1.0000 0.06246  0.06553  0.92911  Biso   1.000  He
  Ne666    1.0000 0.03817  0.08145  0.94390  Biso   1.000  Ne
  Ne667    1.0000 0.46750  0.17392  0.83632  Biso   1.000  Ne
  He667    1.0000 0.43723  0.18485  0.84071  Biso   1.000  He
  He668    1.0000 0.41095  0.16711  0.83955  Biso   1.000  He
  Ne668    1.0000 0.38405  0.18269  0.84671  Biso   1.000  Ne
  Ne669    1.0000 0.42171  0.65276  0.93439  Biso   1.000  Ne
  He669    1.0000 0.40608  0.62448  0.93580  Biso   1.000  He
  He670    1.0000 0.42540  0.59817  0.93893  Biso   1.000  He
  Ne670    1.0000 0.40922  0.57178  0.94837  Biso   1.000  Ne
  Ne671    1.0000 0.25070  0.86245  0.19430  Biso   1.000  Ne
  He671    1.0000 0.23087  0.87747  0.21589  Biso   1.000  He
  He672    1.0000 0.20987  0.90230  0.20397  Biso   1.000  He
  Ne672    1.0000 0.18984  0.91568  0.22590  Biso   1.000  Ne
  Ne673    1.0000 0.88815  0.74076  0.82678  Biso   1.000  Ne
  He673    1.0000 0.88889  0.71342  0.80954  Biso   1.000  He
  He674    1.0000 0.86368  0.69307  0.81329  Biso   1.000  He
  Ne674    1.0000 0.84191  0.69000  0.78878  Biso   1.000  Ne
  Ne675    1.0000 0.08566  0.24397  0.61008  Biso   1.000  Ne
  He675    1.0000 0.08462  0.27724  0.61264  Biso   1.000  He
  He676    1.0000 0.09737  0.29495  0.58894  Biso   1.000  He
  Ne676    1.0000 0.09282  0.32609  0.59458  Biso   1.000  Ne
  Ne677    1.0000 0.76048  0.83233  0.93855  Biso   1.000  Ne
  He677    1.0000 0.78625  0.81277  0.93641  Biso   1.000  He
  He678    1.0000 0.81501  0.82581  0.94152  Biso   1.000  He
  Ne678    1.0000 0.83862  0.80212  0.94610  Biso   1.000  Ne
  Ne679    1.0000 0.17504  0.20558  0.56436  Biso   1.000  Ne
  He679    1.0000 0.18345  0.19299  0.59339  Biso   1.000  He
  He680    1.0000 0.21787  0.18771  0.59724  Biso   1.000  He
  Ne680    1.0000 0.23511  0.21430  0.61136  Biso   1.000  Ne
  Ne681    1.0000 0.10983  0.63916  0.29340  Biso   1.000  Ne
  He681    1.0000 0.08900  0.65678  0.31090  Biso   1.000  He
  He682    1.0000 0.10196  0.66647  0.33949  Biso   1.000  He
  Ne682    1.0000 0.08227  0.68058  0.35935  Biso   1.000  Ne
  Ne683    1.0000 0.78848  0.02407  0.47487  Biso   1.000  Ne
  He683    1.0000 0.78836  0.01259  0.50557  Biso   1.000  He
  He684    1.0000 0.78141  0.97857  0.50520  Biso   1.000  He
  Ne684    1.0000 0.78589  0.96361  0.53497  Biso   1.000  Ne
  Ne685    1.0000 0.31157  0.43528  0.66295  Biso   1.000  Ne
  He685    1.0000 0.33033  0.42045  0.64254  Biso   1.000  He
  He686    1.0000 0.32182  0.42980  0.61417  Biso   1.000  He
  Ne686    1.0000 0.33494  0.41575  0.58946  Biso   1.000  Ne
  Ne687    1.0000 0.29569  0.94431  0.80189  Biso   1.000  Ne
  He687    1.0000 0.30982  0.91706  0.81763  Biso   1.000  He
  He688    1.0000 0.31095  0.88760  0.80164  Biso   1.000  He
  Ne688    1.0000 0.32116  0.86299  0.82191  Biso   1.000  Ne
  Ne689    1.0000 0.88911  0.17070  0.09739  Biso   1.000  Ne
  He689    1.0000 0.86742  0.14618  0.10248  Biso   1.000  He
  He690    1.0000 0.83597  0.15363  0.09189  Biso   1.000  He
  Ne690    1.0000 0.81538  0.12959  0.08730  Biso   1.000  Ne
  Ne691    1.0000 0.38314  0.15861  0.40372  Biso   1.000  Ne
  He691    1.0000 0.39631  0.18952  0.40060  Biso   1.000  He
  He692    1.0000 0.42556  0.18974  0.41678  Biso   1.000  He
  Ne692    1.0000 0.44254  0.21639  0.41351  Biso   1.000  Ne
  Ne693    1.0000 0.69226  0.26023  0.75654  Biso   1.000  Ne
  He693    1.0000 0.68578  0.27202  0.72657  Biso   1.000  He
  He694    1.0000 0.71297  0.27603  0.70767  Biso   1.000  He
  Ne694    1.0000 0.71026  0.28937  0.67954  Biso   1.000  Ne
  Ne695    1.0000 0.63632  0.37554  0.53727  Biso   1.000  Ne
  He695    1.0000 0.66285  0.36196  0.54892  Biso   1.000  He
  He696    1.0000 0.66091  0.33911  0.56921  Biso   1.000  He
  Ne696    1.0000 0.68465  0.31954  0.56964  Biso   1.000  Ne
  Ne697    1.0000 0.31188  0.35416  0.49085  Biso   1.000  Ne
  He697    1.0000 0.28915  0.34196  0.47412  Biso   1.000  He
  He698    1.0000 0.28070  0.35584  0.44453  Biso   1.000  He
  Ne698    1.0000 0.25597  0.33759  0.43135  Biso   1.000  Ne
  Ne699    1.0000 0.81073  0.18591  0.16912  Biso   1.000  Ne
  He699    1.0000 0.83756  0.18373  0.18792  Biso   1.000  He
  He700    1.0000 0.82759  0.17908  0.22046  Biso   1.000  He
  Ne700    1.0000 0.85229  0.17392  0.24426  Biso   1.000  Ne
  Ne701    1.0000 0.09845  0.94007  0.97732  Biso   1.000  Ne
  He701    1.0000 0.08046  0.96716  0.96983  Biso   1.000  He
  He702    1.0000 0.05593  0.95854  0.94862  Biso   1.000  He
  Ne702    1.0000 0.03858  0.98594  0.94193  Biso   1.000  Ne
  Ne703    1.0000 0.59991  0.01582  0.23382  Biso   1.000  Ne
  He703    1.0000 0.56746  0.02225  0.21833  Biso   1.000  He
  He704    1.0000 0.54398  0.01850  0.24110  Biso   1.000  He
  Ne704    1.0000 0.51370  0.02305  0.22969  Biso   1.000  Ne
  Ne705    1.0000 0.33831  0.14522  0.27571  Biso   1.000  Ne
  He705    1.0000 0.32126  0.17092  0.28650  Biso   1.000  He
  He706    1.0000 0.28998  0.17043  0.27282  Biso   1.000  He
  Ne706    1.0000 0.27462  0.19942  0.27950  Biso   1.000  Ne
  Ne707    1.0000 0.58342  0.30387  0.08870  Biso   1.000  Ne
  He707    1.0000 0.60149  0.31060  0.11493  Biso   1.000  He
  He708    1.0000 0.59039  0.29726  0.14347  Biso   1.000  He
  Ne708    1.0000 0.58013  0.31927  0.16662  Biso   1.000  Ne
  Ne709    1.0000 0.71406  0.01914  0.99757  Biso   1.000  Ne
  He709    1.0000 0.69457  0.03427  0.97505  Biso   1.000  He
  He710    1.0000 0.68002  0.01206  0.95505  Biso   1.000  He
  Ne710    1.0000 0.66452  0.02642  0.93318  Biso   1.000  Ne
  Ne711    1.0000 0.77729  0.41658  0.70177  Biso   1.000  Ne
  He711    1.0000 0.75027  0.42814  0.70944  Biso   1.000  He
  He712    1.0000 0.72985  0.43103  0.68166  Biso   1.000  He
  Ne712    1.0000 0.69960  0.44278  0.68890  Biso   1.000  Ne
  Ne713    1.0000 0.05955  0.72929  0.86310  Biso   1.000  Ne
  He713    1.0000 0.05230  0.69491  0.86275  Biso   1.000  He
  He714    1.0000 0.02011  0.68564  0.86500  Biso   1.000  He
  Ne714    1.0000 0.01207  0.66813  0.89304  Biso   1.000  Ne
  Ne715    1.0000 0.43025  0.33690  0.77119  Biso   1.000  Ne
  He715    1.0000 0.42518  0.34897  0.79843  Biso   1.000  He
  He716    1.0000 0.41096  0.32795  0.82212  Biso   1.000  He
  Ne716    1.0000 0.41009  0.33858  0.85370  Biso   1.000  Ne
  Ne717    1.0000 0.86110  0.59267  0.44399  Biso   1.000  Ne
  He717    1.0000 0.88590  0.57401  0.43482  Biso   1.000  He
  He718    1.0000 0.89760  0.55426  0.45832  Biso   1.000  He
  Ne718    1.0000 0.92380  0.53596  0.44765  Biso   1.000  Ne
  Ne719    1.0000 0.86694  0.41689  0.59829  Biso   1.000  Ne
  He719    1.0000 0.83447  0.40171  0.59586  Biso   1.000  He
  He720    1.0000 0.81439  0.40799  0.61950  Biso   1.000  He
  Ne720    1.0000 0.78875  0.38808  0.61870  Biso   1.000  Ne
  Ne721    1.0000 0.41434  0.53052  0.69694  Biso   1.000  Ne
  He721    1.0000 0.44516  0.54079  0.69613  Biso   1.000  He
  He722    1.0000 0.46242  0.53730  0.72517  Biso   1.000  He
  Ne722    1.0000 0.49180  0.55309  0.72185  Biso   1.000  Ne
  Ne723    1.0000 0.74585  0.07469  0.41598  Biso   1.000  Ne
  He723    1.0000 0.75501  0.05969  0.38931  Biso   1.000  He
  He724    1.0000 0.75848  0.08314  0.36313  Biso   1.000  He
  Ne724    1.0000 0.76734  0.07005  0.33395  Biso   1.000  Ne
  Ne725    1.0000 0.28093  0.76146  0.34543  Biso   1.000  Ne
  He725    1.0000 0.30779  0.76785  0.33092  Biso   1.000  He
  He726    1.0000 0.31929  0.79675  0.33918  Biso   1.000  He
  Ne726    1.0000 0.34555  0.80603  0.32233  Biso   1.000  Ne
  Ne727    1.0000 0.94006  0.37256  0.26639  Biso   1.000  Ne
  He727    1.0000 0.96456  0.39164  0.25618  Biso   1.000  He
  He728    1.0000 0.95012  0.42001  0.24732  Biso   1.000  He
  Ne728    1.0000 0.97138  0.44416  0.24322  Biso   1.000  Ne
  Ne729    1.0000 0.91394  0.16053  0.89321  Biso   1.000  Ne
  He729    1.0000 0.92167  0.13774  0.91422  Biso   1.000  He
  He730    1.0000 0.92023  0.10618  0.90221  Biso   1.000  He
  Ne730    1.0000 0.93301  0.08403  0.92265  Biso   1.000  Ne
  Ne731    1.0000 0.59357  0.41357  0.80740  Biso   1.000  Ne
  He731    1.0000 0.59287  0.41797  0.77504  Biso   1.000  He
  He732    1.0000 0.61293  0.44406  0.76293  Biso   1.000  He
  Ne732    1.0000 0.61595  0.44601  0.72905  Biso   1.000  Ne
  Ne733    1.0000 0.17748  0.83469  0.95182  Biso   1.000  Ne
  He733    1.0000 0.16908  0.86550  0.94469  Biso   1.000  He
  He734    1.0000 0.19346  0.88662  0.93629  Biso   1.000  He
  Ne734    1.0000 0.18651  0.91717  0.94537  Biso   1.000  Ne
  Ne735    1.0000 0.13876  0.09570  0.34448  Biso   1.000  Ne
  He735    1.0000 0.11505  0.07940  0.36512  Biso   1.000  He
  He736    1.0000 0.09444  0.09677  0.38217  Biso   1.000  He
  Ne736    1.0000 0.07624  0.07733  0.40328  Biso   1.000  Ne
  Ne737    1.0000 0.69037  0.71298  0.87070  Biso   1.000  Ne
  He737    1.0000 0.66023  0.71623  0.88135  Biso   1.000  He
  He738    1.0000 0.64162  0.73550  0.85813  Biso   1.000  He
  Ne738    1.0000 0.61156  0.74548  0.87012  Biso   1.000  Ne
  Ne739    1.0000 0.74810  0.17596  0.31744  Biso   1.000  Ne
  He739    1.0000 0.74775  0.17624  0.28427  Biso   1.000  He
  He740    1.0000 0.71680  0.18549  0.27298  Biso   1.000  He
  Ne740    1.0000 0.71346  0.18830  0.23975  Biso   1.000  Ne
  Ne741    1.0000 0.58052  0.18788  0.04972  Biso   1.000  Ne
  He741    1.0000 0.55959  0.18503  0.07522  Biso   1.000  He
  He742    1.0000 0.53816  0.20913  0.08167  Biso   1.000  He
  Ne742    1.0000 0.51365  0.19903  0.10195  Biso   1.000  Ne
  Ne743    1.0000 0.79682  0.98923  0.38112  Biso   1.000  Ne
  He743    1.0000 0.82166  0.99107  0.36171  Biso   1.000  He
  He744    1.0000 0.81926  0.01573  0.33880  Biso   1.000  He
  Ne744    1.0000 0.84716  0.01928  0.32046  Biso   1.000  Ne
  Ne745    1.0000 0.21859  0.06679  0.41077  Biso   1.000  Ne
  He745    1.0000 0.21326  0.07025  0.37864  Biso   1.000  He
  He746    1.0000 0.23495  0.05276  0.36048  Biso   1.000  He
  Ne746    1.0000 0.23362  0.05760  0.32855  Biso   1.000  Ne
  Ne747    1.0000 0.92976  0.56757  0.16013  Biso   1.000  Ne
  He747    1.0000 0.94092  0.55195  0.13273  Biso   1.000  He
  He748    1.0000 0.95494  0.57544  0.11156  Biso   1.000  He
  Ne748    1.0000 0.96382  0.56505  0.08093  Biso   1.000  Ne
  Ne749    1.0000 0.78106  0.73457  0.26858  Biso   1.000  Ne
  He749    1.0000 0.76066  0.75999  0.27614  Biso   1.000  He
  He750    1.0000 0.77640  0.78852  0.28227  Biso   1.000  He
  Ne750    1.0000 0.77426  0.79576  0.31587  Biso   1.000  Ne
  Ne751    1.0000 0.27017  0.77310  0.76956  Biso   1.000  Ne
  He751    1.0000 0.29624  0.75734  0.75728  Biso   1.000  He
  He752    1.0000 0.31648  0.74187  0.77856  Biso   1.000  He
  Ne752    1.0000 0.34179  0.72376  0.76527  Biso   1.000  Ne
  Ne753    1.0000 0.23756  0.15694  0.42856  Biso   1.000  Ne
  He753    1.0000 0.25724  0.18372  0.42413  Biso   1.000  He
  He754    1.0000 0.28862  0.17864  0.40831  Biso   1.000  He
  Ne754    1.0000 0.30852  0.20714  0.40320  Biso   1.000  Ne
  Ne755    1.0000 0.93831  0.74719  0.34212  Biso   1.000  Ne
  He755    1.0000 0.90700  0.75057  0.34229  Biso   1.000  He
  He756    1.0000 0.88889  0.72853  0.32226  Biso   1.000  He
  Ne756    1.0000 0.85790  0.73092  0.31915  Biso   1.000  Ne
  Ne757    1.0000 0.43459  0.45204  0.73103  Biso   1.000  Ne
  He757    1.0000 0.46002  0.43260  0.72113  Biso   1.000  He
  He758    1.0000 0.48461  0.45220  0.70823  Biso   1.000  He
  Ne758    1.0000 0.51117  0.43593  0.69859  Biso   1.000  Ne
  Ne759    1.0000 0.93822  0.18099  0.28104  Biso   1.000  Ne
  He759    1.0000 0.92083  0.19614  0.30640  Biso   1.000  He
  He760    1.0000 0.92878  0.22742  0.31405  Biso   1.000  He
  Ne760    1.0000 0.91185  0.23755  0.33830  Biso   1.000  Ne
  Ne761    1.0000 0.77510  0.73058  0.36112  Biso   1.000  Ne
  He761    1.0000 0.77782  0.71625  0.39026  Biso   1.000  He
  He762    1.0000 0.80834  0.70404  0.39338  Biso   1.000  He
  Ne762    1.0000 0.81354  0.68650  0.42258  Biso   1.000  Ne
  Ne763    1.0000 0.70868  0.97348  0.19231  Biso   1.000  Ne
  He763    1.0000 0.69375  0.99787  0.17372  Biso   1.000  He
  He764    1.0000 0.66958  0.01130  0.18698  Biso   1.000  He
  Ne764    1.0000 0.65911  0.03556  0.16708  Biso   1.000  Ne
  Ne765    1.0000 0.62441  0.15634  0.24853  Biso   1.000  Ne
  He765    1.0000 0.62105  0.16859  0.22054  Biso   1.000  He
  He766    1.0000 0.59599  0.18667  0.22235  Biso   1.000  He
  Ne766    1.0000 0.59089  0.20270  0.19452  Biso   1.000  Ne
  Ne767    1.0000 0.80570  0.45439  0.00779  Biso   1.000  Ne
  He767    1.0000 0.79255  0.43529  0.03111  Biso   1.000  He
  He768    1.0000 0.77889  0.45445  0.05362  Biso   1.000  He
  Ne768    1.0000 0.76775  0.43781  0.07821  Biso   1.000  Ne
  Ne769    1.0000 0.18134  0.28192  0.23359  Biso   1.000  Ne
  He769    1.0000 0.18821  0.29739  0.26280  Biso   1.000  He
  He770    1.0000 0.17266  0.28936  0.28783  Biso   1.000  He
  Ne770    1.0000 0.18497  0.30301  0.31546  Biso   1.000  Ne
  Ne771    1.0000 0.66726  0.86892  0.69571  Biso   1.000  Ne
  He771    1.0000 0.68710  0.89209  0.68813  Biso   1.000  He
  He772    1.0000 0.71563  0.89454  0.70706  Biso   1.000  He
  Ne772    1.0000 0.74220  0.91443  0.69483  Biso   1.000  Ne
  Ne773    1.0000 0.79384  0.08803  0.79659  Biso   1.000  Ne
  He773    1.0000 0.80272  0.06439  0.77766  Biso   1.000  He
  He774    1.0000 0.81089  0.07784  0.74864  Biso   1.000  He
  Ne774    1.0000 0.82069  0.05429  0.72608  Biso   1.000  Ne
  Ne775    1.0000 0.58839  0.20076  0.77910  Biso   1.000  Ne
  He775    1.0000 0.56941  0.21103  0.80043  Biso   1.000  He
  He776    1.0000 0.57053  0.24443  0.80827  Biso   1.000  He
  Ne776    1.0000 0.55378  0.25065  0.83709  Biso   1.000  Ne
  Ne777    1.0000 0.69407  0.92351  0.29129  Biso   1.000  Ne
  He777    1.0000 0.66608  0.92652  0.27456  Biso   1.000  He
  He778    1.0000 0.66580  0.94033  0.24535  Biso   1.000  He
  Ne778    1.0000 0.63631  0.94494  0.23081  Biso   1.000  Ne
  Ne779    1.0000 0.13367  0.17517  0.25662  Biso   1.000  Ne
  He779    1.0000 0.13299  0.18203  0.22248  Biso   1.000  He
  He780    1.0000 0.10647  0.16596  0.20830  Biso   1.000  He
  Ne780    1.0000 0.10572  0.17196  0.17419  Biso   1.000  Ne
  Ne781    1.0000 0.15803  0.82084  0.26098  Biso   1.000  Ne
  He781    1.0000 0.13544  0.81101  0.28450  Biso   1.000  He
  He782    1.0000 0.11260  0.79190  0.27077  Biso   1.000  He
  Ne782    1.0000 0.08767  0.78262  0.28995  Biso   1.000  Ne
  Ne783    1.0000 0.07683  0.26691  0.20544  Biso   1.000  Ne
  He783    1.0000 0.06829  0.27791  0.23501  Biso   1.000  He
  He784    1.0000 0.08409  0.26748  0.25813  Biso   1.000  He
  Ne784    1.0000 0.07804  0.28546  0.28522  Biso   1.000  Ne
  Ne785    1.0000 0.80643  0.59198  0.62188  Biso   1.000  Ne
  He785    1.0000 0.79164  0.57533  0.59610  Biso   1.000  He
  He786    1.0000 0.75928  0.57388  0.59957  Biso   1.000  He
  Ne786    1.0000 0.74049  0.55802  0.57406  Biso   1.000  Ne
  Ne787    1.0000 0.97424  0.71866  0.15084  Biso   1.000  Ne
  He787    1.0000 0.95959  0.68819  0.15000  Biso   1.000  He
  He788    1.0000 0.92767  0.69034  0.14038  Biso   1.000  He
  Ne788    1.0000 0.91015  0.66262  0.13249  Biso   1.000  Ne
  Ne789    1.0000 0.82163  0.13369  0.92112  Biso   1.000  Ne
  He789    1.0000 0.84030  0.11833  0.89306  Biso   1.000  He
  He790    1.0000 0.83023  0.08760  0.89044  Biso   1.000  He
  Ne790    1.0000 0.84907  0.06562  0.87144  Biso   1.000  Ne
  Ne791    1.0000 0.75704  0.31521  0.96142  Biso   1.000  Ne
  He791    1.0000 0.78575  0.30106  0.96651  Biso   1.000  He
  He792    1.0000 0.78886  0.27128  0.95215  Biso   1.000  He
  Ne792    1.0000 0.82015  0.25649  0.95608  Biso   1.000  Ne
  Ne793    1.0000 0.76689  0.34630  0.36353  Biso   1.000  Ne
  He793    1.0000 0.74522  0.32682  0.37742  Biso   1.000  He
  He794    1.0000 0.75033  0.29304  0.37360  Biso   1.000  He
  Ne794    1.0000 0.72930  0.26983  0.38785  Biso   1.000  Ne
  Ne795    1.0000 0.67578  0.42148  0.21291  Biso   1.000  Ne
  He795    1.0000 0.64968  0.41663  0.23059  Biso   1.000  He
  He796    1.0000 0.62758  0.39375  0.21967  Biso   1.000  He
  Ne796    1.0000 0.60537  0.38302  0.24527  Biso   1.000  Ne
  Ne797    1.0000 0.93296  0.81693  0.72561  Biso   1.000  Ne
  He797    1.0000 0.96422  0.83053  0.73295  Biso   1.000  He
  He798    1.0000 0.98825  0.82316  0.71206  Biso   1.000  He
  Ne798    1.0000 0.01611  0.84145  0.71433  Biso   1.000  Ne
  Ne799    1.0000 0.44874  0.61623  0.65443  Biso   1.000  Ne
  He799    1.0000 0.46924  0.62332  0.68314  Biso   1.000  He
  He800    1.0000 0.45656  0.64943  0.70114  Biso   1.000  He
  Ne800    1.0000 0.47162  0.65270  0.73020  Biso   1.000  Ne
