data_image0
_cell_length_a       46.7583
_cell_length_b       46.5236
_cell_length_c       46.4828
_cell_angle_alpha    90
_cell_angle_beta     90
_cell_angle_gamma    90

_symmetry_space_group_name_H-M    "P 1"
_symmetry_int_tables_number       1

loop_
  _symmetry_equiv_pos_as_xyz
  'x, y, z'

loop_
  _atom_site_label
  _atom_site_occupancy
  _atom_site_fract_x
  _atom_site_fract_y
  _atom_site_fract_z
  _atom_site_thermal_displace_type
  _atom_site_B_iso_or_equiv
  _atom_site_type_symbol
  Ne1      1.0000 0.16749  0.21669  0.75333  Biso   1.000  Ne
  He1      1.0000 0.15592  0.18682  0.76040  Biso   1.000  He
  He2      1.0000 0.12804  0.17977  0.74303  Biso   1.000  He
  Ne2      1.0000 0.11496  0.14942  0.75135  Biso   1.000  Ne
  Ne3      1.0000 0.94879  0.38796  0.04178  Biso   1.000  Ne
  He3      1.0000 0.96906  0.41474  0.04514  Biso   1.000  He
  He4      1.0000 0.96955  0.42365  0.07731  Biso   1.000  He
  Ne4      1.0000 0.99459  0.44500  0.08704  Biso   1.000  Ne
  Ne5      1.0000 0.92000  0.41553  0.77112  Biso   1.000  Ne
  He5      1.0000 0.94860  0.41717  0.78428  Biso   1.000  He
  He6      1.0000 0.96516  0.44823  0.78568  Biso   1.000  He
  Ne6      1.0000 0.99565  0.44866  0.79590  Biso   1.000  Ne
  Ne7      1.0000 0.33734  0.56536  0.89184  Biso   1.000  Ne
  He7      1.0000 0.31163  0.56882  0.91275  Biso   1.000  He
  He8      1.0000 0.31891  0.56860  0.94461  Biso   1.000  He
  Ne8      1.0000 0.29576  0.56881  0.96758  Biso   1.000  Ne
  Ne9      1.0000 0.49450  0.05337  0.18521  Biso   1.000  Ne
  He9      1.0000 0.51231  0.08148  0.18738  Biso   1.000  He
  He10     1.0000 0.50027  0.10787  0.17194  Biso   1.000  He
  Ne10     1.0000 0.51828  0.13445  0.17813  Biso   1.000  Ne
  Ne11     1.0000 0.09935  0.85128  0.92600  Biso   1.000  Ne
  He11     1.0000 0.09372  0.81925  0.91252  Biso   1.000  He
  He12     1.0000 0.10926  0.79528  0.92624  Biso   1.000  He
  Ne12     1.0000 0.10148  0.76599  0.91520  Biso   1.000  Ne
  Ne13     1.0000 0.49199  0.53216  0.70797  Biso   1.000  Ne
  He13     1.0000 0.45699  0.52843  0.71003  Biso   1.000  He
  He14     1.0000 0.44166  0.52808  0.67781  Biso   1.000  He
  Ne14     1.0000 0.40691  0.52699  0.68131  Biso   1.000  Ne
  Ne15     1.0000 0.42944  0.75635  0.16800  Biso   1.000  Ne
  He15     1.0000 0.43231  0.75585  0.13793  Biso   1.000  He
  He16     1.0000 0.40393  0.74696  0.12161  Biso   1.000  He
  Ne16     1.0000 0.40673  0.74544  0.09004  Biso   1.000  Ne
  Ne17     1.0000 0.60316  0.57549  0.85290  Biso   1.000  Ne
  He17     1.0000 0.57841  0.56797  0.87068  Biso   1.000  He
  He18     1.0000 0.58648  0.56470  0.90295  Biso   1.000  He
  Ne18     1.0000 0.55987  0.56958  0.92052  Biso   1.000  Ne
  Ne19     1.0000 0.80468  0.21203  0.09023  Biso   1.000  Ne
  He19     1.0000 0.78612  0.20553  0.11639  Biso   1.000  He
  He20     1.0000 0.75998  0.18509  0.10879  Biso   1.000  He
  Ne20     1.0000 0.73909  0.17819  0.13184  Biso   1.000  Ne
  Ne21     1.0000 0.59872  0.45447  0.96693  Biso   1.000  Ne
  He21     1.0000 0.58570  0.43572  0.99091  Biso   1.000  He
  He22     1.0000 0.56431  0.44999  0.01093  Biso   1.000  He
  Ne22     1.0000 0.55672  0.42995  0.03691  Biso   1.000  Ne
  Ne23     1.0000 0.44824  0.24927  0.13796  Biso   1.000  Ne
  He23     1.0000 0.44422  0.27062  0.11320  Biso   1.000  He
  He24     1.0000 0.44238  0.30404  0.12020  Biso   1.000  He
  Ne24     1.0000 0.43215  0.32200  0.09414  Biso   1.000  Ne
  Ne25     1.0000 0.92072  0.51214  0.98236  Biso   1.000  Ne
  He25     1.0000 0.94452  0.52262  0.00568  Biso   1.000  He
  He26     1.0000 0.93839  0.51493  0.03350  Biso   1.000  He
  Ne26     1.0000 0.96131  0.51749  0.05816  Biso   1.000  Ne
  Ne27     1.0000 0.59173  0.82843  0.68066  Biso   1.000  Ne
  He27     1.0000 0.60320  0.79729  0.67485  Biso   1.000  He
  He28     1.0000 0.60379  0.77524  0.70159  Biso   1.000  He
  Ne28     1.0000 0.61295  0.74449  0.69649  Biso   1.000  Ne
  Ne29     1.0000 0.83656  0.30224  0.16393  Biso   1.000  Ne
  He29     1.0000 0.80745  0.30941  0.18004  Biso   1.000  He
  He30     1.0000 0.78736  0.33292  0.16790  Biso   1.000  He
  Ne30     1.0000 0.76344  0.34069  0.19182  Biso   1.000  Ne
  Ne31     1.0000 0.32721  0.22030  0.65017  Biso   1.000  Ne
  He31     1.0000 0.34244  0.23239  0.67939  Biso   1.000  He
  He32     1.0000 0.32740  0.26022  0.69418  Biso   1.000  He
  Ne32     1.0000 0.34292  0.29134  0.69261  Biso   1.000  Ne
  Ne33     1.0000 0.08508  0.88350  0.05382  Biso   1.000  Ne
  He33     1.0000 0.07868  0.90609  0.07615  Biso   1.000  He
  He34     1.0000 0.07462  0.89189  0.10719  Biso   1.000  He
  Ne34     1.0000 0.08164  0.91395  0.12943  Biso   1.000  Ne
  Ne35     1.0000 0.11263  0.04354  0.96077  Biso   1.000  Ne
  He35     1.0000 0.08659  0.06370  0.94852  Biso   1.000  He
  He36     1.0000 0.05517  0.05085  0.95645  Biso   1.000  He
  Ne36     1.0000 0.02775  0.07400  0.95936  Biso   1.000  Ne
  Ne37     1.0000 0.08502  0.64740  0.15804  Biso   1.000  Ne
  He37     1.0000 0.11159  0.66941  0.15359  Biso   1.000  He
  He38     1.0000 0.13288  0.65960  0.12862  Biso   1.000  He
  Ne38     1.0000 0.15923  0.67656  0.13080  Biso   1.000  Ne
  Ne39     1.0000 0.26716  0.19896  0.87830  Biso   1.000  Ne
  He39     1.0000 0.29588  0.21055  0.88950  Biso   1.000  He
  He40     1.0000 0.30880  0.19256  0.91440  Biso   1.000  He
  Ne40     1.0000 0.33299  0.20988  0.92980  Biso   1.000  Ne
  Ne41     1.0000 0.32615  0.92375  0.05269  Biso   1.000  Ne
  He41     1.0000 0.30764  0.94324  0.03513  Biso   1.000  He
  He42     1.0000 0.31965  0.96961  0.02266  Biso   1.000  He
  Ne42     1.0000 0.29599  0.98437  0.00337  Biso   1.000  Ne
  Ne43     1.0000 0.60391  0.11826  0.58816  Biso   1.000  Ne
  He43     1.0000 0.62163  0.14252  0.57747  Biso   1.000  He
  He44     1.0000 0.61955  0.16561  0.59941  Biso   1.000  He
  Ne44     1.0000 0.63776  0.19233  0.58923  Biso   1.000  Ne
  Ne45     1.0000 0.61638  0.35795  0.18147  Biso   1.000  Ne
  He45     1.0000 0.63842  0.33505  0.17623  Biso   1.000  He
  He46     1.0000 0.66004  0.33623  0.20034  Biso   1.000  He
  Ne46     1.0000 0.68395  0.31533  0.19362  Biso   1.000  Ne
  Ne47     1.0000 0.48723  0.50652  0.29965  Biso   1.000  Ne
  He47     1.0000 0.47064  0.53545  0.30162  Biso   1.000  He
  He48     1.0000 0.46297  0.54764  0.27360  Biso   1.000  He
  Ne48     1.0000 0.45208  0.58044  0.27195  Biso   1.000  Ne
  Ne49     1.0000 0.27722  0.58056  0.59023  Biso   1.000  Ne
  He49     1.0000 0.28352  0.61164  0.59694  Biso   1.000  He
  He50     1.0000 0.31159  0.62279  0.58600  Biso   1.000  He
  Ne50     1.0000 0.31629  0.65556  0.59209  Biso   1.000  Ne
  Ne51     1.0000 0.23446  0.78135  0.91053  Biso   1.000  Ne
  He51     1.0000 0.22579  0.79879  0.88536  Biso   1.000  He
  He52     1.0000 0.23517  0.78376  0.85581  Biso   1.000  He
  Ne52     1.0000 0.22654  0.80224  0.83107  Biso   1.000  Ne
  Ne53     1.0000 0.95894  0.81030  0.72898  Biso   1.000  Ne
  He53     1.0000 0.92933  0.81321  0.74002  Biso   1.000  He
  He54     1.0000 0.91980  0.80128  0.77142  Biso   1.000  He
  Ne54     1.0000 0.88633  0.80294  0.77917  Biso   1.000  Ne
  Ne55     1.0000 0.23978  0.02001  0.33509  Biso   1.000  Ne
  He55     1.0000 0.20576  0.01383  0.33476  Biso   1.000  He
  He56     1.0000 0.19055  0.00666  0.30460  Biso   1.000  He
  Ne56     1.0000 0.15628  0.00587  0.30533  Biso   1.000  Ne
  Ne57     1.0000 0.55460  0.72372  0.47148  Biso   1.000  Ne
  He57     1.0000 0.58198  0.73240  0.45188  Biso   1.000  He
  He58     1.0000 0.60909  0.71579  0.45829  Biso   1.000  He
  Ne58     1.0000 0.63412  0.72903  0.44006  Biso   1.000  Ne
  Ne59     1.0000 0.63047  0.88913  0.29717  Biso   1.000  Ne
  He59     1.0000 0.63304  0.88691  0.26330  Biso   1.000  He
  He60     1.0000 0.62388  0.91567  0.24892  Biso   1.000  He
  Ne60     1.0000 0.62445  0.91500  0.21765  Biso   1.000  Ne
  Ne61     1.0000 0.79144  0.29039  0.43400  Biso   1.000  Ne
  He61     1.0000 0.78540  0.27275  0.40995  Biso   1.000  He
  He62     1.0000 0.80275  0.24272  0.40958  Biso   1.000  He
  Ne62     1.0000 0.79242  0.21897  0.38868  Biso   1.000  Ne
  Ne63     1.0000 0.20378  0.30780  0.59715  Biso   1.000  Ne
  He63     1.0000 0.17412  0.32270  0.60307  Biso   1.000  He
  He64     1.0000 0.14917  0.30952  0.58505  Biso   1.000  He
  Ne64     1.0000 0.12214  0.32317  0.58943  Biso   1.000  Ne
  Ne65     1.0000 0.70889  0.25855  0.35243  Biso   1.000  Ne
  He65     1.0000 0.69120  0.25657  0.32496  Biso   1.000  He
  He66     1.0000 0.69449  0.27762  0.30032  Biso   1.000  He
  Ne66     1.0000 0.67037  0.27120  0.27913  Biso   1.000  Ne
  Ne67     1.0000 0.69185  0.79407  0.42343  Biso   1.000  Ne
  He67     1.0000 0.72313  0.80160  0.43302  Biso   1.000  He
  He68     1.0000 0.74501  0.78763  0.41212  Biso   1.000  He
  Ne68     1.0000 0.77644  0.79043  0.42380  Biso   1.000  Ne
  Ne69     1.0000 0.86673  0.70183  0.97602  Biso   1.000  Ne
  He69     1.0000 0.89364  0.68434  0.98535  Biso   1.000  He
  He70     1.0000 0.88558  0.65571  0.99467  Biso   1.000  He
  Ne70     1.0000 0.91181  0.63735  0.00796  Biso   1.000  Ne
  Ne71     1.0000 0.44405  0.73095  0.56905  Biso   1.000  Ne
  He71     1.0000 0.41755  0.74720  0.57651  Biso   1.000  He
  He72     1.0000 0.41662  0.77944  0.57378  Biso   1.000  He
  Ne72     1.0000 0.38988  0.79289  0.58567  Biso   1.000  Ne
  Ne73     1.0000 0.46027  0.49049  0.02740  Biso   1.000  Ne
  He73     1.0000 0.47843  0.50027  0.05138  Biso   1.000  He
  He74     1.0000 0.46781  0.52684  0.07325  Biso   1.000  He
  Ne74     1.0000 0.48602  0.53098  0.09980  Biso   1.000  Ne
  Ne75     1.0000 0.59724  0.21319  0.34084  Biso   1.000  Ne
  He75     1.0000 0.61002  0.19928  0.31529  Biso   1.000  He
  He76     1.0000 0.63556  0.18066  0.32446  Biso   1.000  He
  Ne76     1.0000 0.64938  0.17073  0.29822  Biso   1.000  Ne
  Ne77     1.0000 0.42726  0.99443  0.23519  Biso   1.000  Ne
  He77     1.0000 0.45632  0.97959  0.22537  Biso   1.000  He
  He78     1.0000 0.46336  0.94685  0.23516  Biso   1.000  He
  Ne78     1.0000 0.48780  0.93027  0.21997  Biso   1.000  Ne
  Ne79     1.0000 0.27373  0.15847  0.69749  Biso   1.000  Ne
  He79     1.0000 0.24880  0.14688  0.71500  Biso   1.000  He
  He80     1.0000 0.22788  0.13254  0.69258  Biso   1.000  He
  Ne80     1.0000 0.19608  0.14054  0.69828  Biso   1.000  Ne
  Ne81     1.0000 0.84933  0.83446  0.91564  Biso   1.000  Ne
  He81     1.0000 0.84110  0.86718  0.91165  Biso   1.000  He
  He82     1.0000 0.81508  0.87617  0.93337  Biso   1.000  He
  Ne82     1.0000 0.80442  0.90407  0.93357  Biso   1.000  Ne
  Ne83     1.0000 0.42403  0.54472  0.78437  Biso   1.000  Ne
  He83     1.0000 0.39100  0.54658  0.77811  Biso   1.000  He
  He84     1.0000 0.37515  0.54161  0.80666  Biso   1.000  He
  Ne84     1.0000 0.34212  0.54382  0.80642  Biso   1.000  Ne
  Ne85     1.0000 0.16859  0.79352  0.59997  Biso   1.000  Ne
  He85     1.0000 0.14578  0.80601  0.62003  Biso   1.000  He
  He86     1.0000 0.13924  0.78542  0.64518  Biso   1.000  He
  Ne86     1.0000 0.12132  0.79772  0.66957  Biso   1.000  Ne
  Ne87     1.0000 0.28137  0.87979  0.45668  Biso   1.000  Ne
  He87     1.0000 0.26855  0.88537  0.42685  Biso   1.000  He
  He88     1.0000 0.24576  0.85978  0.42094  Biso   1.000  He
  Ne88     1.0000 0.22580  0.86571  0.39803  Biso   1.000  Ne
  Ne89     1.0000 0.10702  0.24000  0.91739  Biso   1.000  Ne
  He89     1.0000 0.09423  0.25670  0.89051  Biso   1.000  He
  He90     1.0000 0.10856  0.28587  0.89271  Biso   1.000  He
  Ne90     1.0000 0.10450  0.30704  0.86406  Biso   1.000  Ne
  Ne91     1.0000 0.87018  0.19232  0.56728  Biso   1.000  Ne
  He91     1.0000 0.89324  0.20964  0.58313  Biso   1.000  He
  He92     1.0000 0.92422  0.20927  0.57253  Biso   1.000  He
  Ne92     1.0000 0.94373  0.22698  0.59289  Biso   1.000  Ne
  Ne93     1.0000 0.14210  0.74848  0.28429  Biso   1.000  Ne
  He93     1.0000 0.13159  0.71885  0.27636  Biso   1.000  He
  He94     1.0000 0.11162  0.71609  0.24887  Biso   1.000  He
  Ne94     1.0000 0.10722  0.68692  0.24171  Biso   1.000  Ne
  Ne95     1.0000 0.72956  0.01542  0.95321  Biso   1.000  Ne
  He95     1.0000 0.71352  0.03411  0.92785  Biso   1.000  He
  He96     1.0000 0.68804  0.05113  0.93862  Biso   1.000  He
  Ne96     1.0000 0.67459  0.06569  0.91104  Biso   1.000  Ne
  Ne97     1.0000 0.12726  0.29242  0.26621  Biso   1.000  Ne
  He97     1.0000 0.15807  0.28825  0.25488  Biso   1.000  He
  He98     1.0000 0.18414  0.29265  0.27481  Biso   1.000  He
  Ne98     1.0000 0.21361  0.29197  0.26302  Biso   1.000  Ne
  Ne99     1.0000 0.34166  0.43444  0.42680  Biso   1.000  Ne
  He99     1.0000 0.36150  0.41183  0.40940  Biso   1.000  He
  He100    1.0000 0.37896  0.42430  0.38435  Biso   1.000  He
  Ne100    1.0000 0.39888  0.40266  0.36799  Biso   1.000  Ne
  Ne101    1.0000 0.08140  0.40748  0.25851  Biso   1.000  Ne
  He101    1.0000 0.09567  0.37916  0.25030  Biso   1.000  He
  He102    1.0000 0.07569  0.35558  0.23375  Biso   1.000  He
  Ne102    1.0000 0.08454  0.35353  0.20066  Biso   1.000  Ne
  Ne103    1.0000 0.28337  0.34663  0.95153  Biso   1.000  Ne
  He103    1.0000 0.27805  0.37149  0.97262  Biso   1.000  He
  He104    1.0000 0.25578  0.39713  0.96501  Biso   1.000  He
  Ne104    1.0000 0.25523  0.42164  0.98924  Biso   1.000  Ne
  Ne105    1.0000 0.58701  0.02107  0.58680  Biso   1.000  Ne
  He105    1.0000 0.57819  0.03751  0.55929  Biso   1.000  He
  He106    1.0000 0.59875  0.02908  0.53412  Biso   1.000  He
  Ne106    1.0000 0.59499  0.04195  0.50412  Biso   1.000  Ne
  Ne107    1.0000 0.69385  0.21914  0.81363  Biso   1.000  Ne
  He107    1.0000 0.67732  0.21613  0.84246  Biso   1.000  He
  He108    1.0000 0.68172  0.18660  0.85406  Biso   1.000  He
  Ne108    1.0000 0.66887  0.18433  0.88487  Biso   1.000  Ne
  Ne109    1.0000 0.42939  0.79161  0.81998  Biso   1.000  Ne
  He109    1.0000 0.40367  0.80419  0.80454  Biso   1.000  He
  He110    1.0000 0.40753  0.83601  0.79886  Biso   1.000  He
  Ne110    1.0000 0.38049  0.85028  0.78497  Biso   1.000  Ne
  Ne111    1.0000 0.30317  0.64941  0.95730  Biso   1.000  Ne
  He111    1.0000 0.29383  0.67572  0.93822  Biso   1.000  He
  He112    1.0000 0.30141  0.67008  0.90592  Biso   1.000  He
  Ne112    1.0000 0.29054  0.69446  0.88509  Biso   1.000  Ne
  Ne113    1.0000 0.60183  0.43423  0.68638  Biso   1.000  Ne
  He113    1.0000 0.57376  0.44422  0.69941  Biso   1.000  He
  He114    1.0000 0.54555  0.42795  0.68856  Biso   1.000  He
  Ne114    1.0000 0.52040  0.43413  0.70656  Biso   1.000  Ne
  Ne115    1.0000 0.92615  0.08284  0.13120  Biso   1.000  Ne
  He115    1.0000 0.94605  0.06873  0.10613  Biso   1.000  He
  He116    1.0000 0.94637  0.08634  0.07816  Biso   1.000  He
  Ne116    1.0000 0.96552  0.07268  0.05297  Biso   1.000  Ne
  Ne117    1.0000 0.46620  0.90059  0.83199  Biso   1.000  Ne
  He117    1.0000 0.46242  0.91597  0.80187  Biso   1.000  He
  He118    1.0000 0.46363  0.89787  0.77678  Biso   1.000  He
  Ne118    1.0000 0.45414  0.91088  0.74938  Biso   1.000  Ne
  Ne119    1.0000 0.45213  0.39668  0.18431  Biso   1.000  Ne
  He119    1.0000 0.45795  0.36239  0.18304  Biso   1.000  He
  He120    1.0000 0.43506  0.34533  0.19733  Biso   1.000  He
  Ne120    1.0000 0.44131  0.31391  0.20383  Biso   1.000  Ne
  Ne121    1.0000 0.94693  0.91418  0.10642  Biso   1.000  Ne
  He121    1.0000 0.94320  0.94899  0.10429  Biso   1.000  He
  He122    1.0000 0.95216  0.96293  0.07361  Biso   1.000  He
  Ne122    1.0000 0.95245  0.99686  0.07007  Biso   1.000  Ne
  Ne123    1.0000 0.79911  0.27237  0.80415  Biso   1.000  Ne
  He123    1.0000 0.79491  0.30214  0.78941  Biso   1.000  He
  He124    1.0000 0.76903  0.32111  0.79739  Biso   1.000  He
  Ne124    1.0000 0.76867  0.34993  0.78018  Biso   1.000  Ne
  Ne125    1.0000 0.94559  0.31765  0.41719  Biso   1.000  Ne
  He125    1.0000 0.94407  0.34307  0.39740  Biso   1.000  He
  He126    1.0000 0.94276  0.37355  0.41188  Biso   1.000  He
  Ne126    1.0000 0.94480  0.40002  0.38978  Biso   1.000  Ne
  Ne127    1.0000 0.13303  0.54178  0.86996  Biso   1.000  Ne
  He127    1.0000 0.13500  0.54507  0.90209  Biso   1.000  He
  He128    1.0000 0.15447  0.52381  0.92002  Biso   1.000  He
  Ne128    1.0000 0.15272  0.53004  0.95478  Biso   1.000  Ne
  Ne129    1.0000 0.16695  0.41500  0.73477  Biso   1.000  Ne
  He129    1.0000 0.18153  0.38468  0.73151  Biso   1.000  He
  He130    1.0000 0.20269  0.38350  0.70603  Biso   1.000  He
  Ne130    1.0000 0.21750  0.35418  0.70467  Biso   1.000  Ne
  Ne131    1.0000 0.73943  0.20966  0.95799  Biso   1.000  Ne
  He131    1.0000 0.70783  0.20406  0.96767  Biso   1.000  He
  He132    1.0000 0.68713  0.22598  0.95593  Biso   1.000  He
  Ne132    1.0000 0.65590  0.22160  0.96213  Biso   1.000  Ne
  Ne133    1.0000 0.54841  0.56108  0.03863  Biso   1.000  Ne
  He133    1.0000 0.56575  0.58991  0.04135  Biso   1.000  He
  He134    1.0000 0.55919  0.60778  0.06824  Biso   1.000  He
  Ne134    1.0000 0.57578  0.63261  0.07364  Biso   1.000  Ne
  Ne135    1.0000 0.73237  0.97422  0.86382  Biso   1.000  Ne
  He135    1.0000 0.71209  0.96778  0.84052  Biso   1.000  He
  He136    1.0000 0.72119  0.94330  0.82268  Biso   1.000  He
  Ne136    1.0000 0.70382  0.93583  0.79897  Biso   1.000  Ne
  Ne137    1.0000 0.35718  0.69462  0.51840  Biso   1.000  Ne
  He137    1.0000 0.33190  0.67417  0.50596  Biso   1.000  He
  He138    1.0000 0.32024  0.68656  0.47816  Biso   1.000  He
  Ne138    1.0000 0.29208  0.67012  0.46837  Biso   1.000  Ne
  Ne139    1.0000 0.18224  0.45659  0.22832  Biso   1.000  Ne
  He139    1.0000 0.15294  0.44912  0.23482  Biso   1.000  He
  He140    1.0000 0.12770  0.45706  0.21384  Biso   1.000  He
  Ne140    1.0000 0.11391  0.48642  0.22000  Biso   1.000  Ne
  Ne141    1.0000 0.08670  0.83316  0.18779  Biso   1.000  Ne
  He141    1.0000 0.11238  0.81488  0.18657  Biso   1.000  He
  He142    1.0000 0.10986  0.78510  0.20469  Biso   1.000  He
  Ne142    1.0000 0.14022  0.77296  0.20114  Biso   1.000  Ne
  Ne143    1.0000 0.72725  0.58505  0.78922  Biso   1.000  Ne
  He143    1.0000 0.73260  0.58201  0.82292  Biso   1.000  He
  He144    1.0000 0.74897  0.60757  0.84246  Biso   1.000  He
  Ne144    1.0000 0.75265  0.59964  0.87402  Biso   1.000  Ne
  Ne145    1.0000 0.85964  0.82238  0.38310  Biso   1.000  Ne
  He145    1.0000 0.86550  0.84990  0.39777  Biso   1.000  He
  He146    1.0000 0.84449  0.87255  0.39026  Biso   1.000  He
  Ne146    1.0000 0.85414  0.90427  0.40060  Biso   1.000  Ne
  Ne147    1.0000 0.67162  0.99407  0.19645  Biso   1.000  Ne
  He147    1.0000 0.64171  0.99938  0.18757  Biso   1.000  He
  He148    1.0000 0.62816  0.97848  0.16851  Biso   1.000  He
  Ne148    1.0000 0.59604  0.98297  0.16009  Biso   1.000  Ne
  Ne149    1.0000 0.73212  0.09485  0.01307  Biso   1.000  Ne
  He149    1.0000 0.71989  0.11300  0.03605  Biso   1.000  He
  He150    1.0000 0.72352  0.14323  0.02707  Biso   1.000  He
  Ne150    1.0000 0.71385  0.16551  0.04928  Biso   1.000  Ne
  Ne151    1.0000 0.74812  0.71460  0.89891  Biso   1.000  Ne
  He151    1.0000 0.76082  0.68331  0.90662  Biso   1.000  He
  He152    1.0000 0.76661  0.67756  0.93947  Biso   1.000  He
  Ne152    1.0000 0.77128  0.64772  0.94784  Biso   1.000  Ne
  Ne153    1.0000 0.54854  0.19099  0.93461  Biso   1.000  Ne
  He153    1.0000 0.54777  0.19117  0.90169  Biso   1.000  He
  He154    1.0000 0.57865  0.19570  0.88932  Biso   1.000  He
  Ne154    1.0000 0.57893  0.19481  0.85703  Biso   1.000  Ne
  Ne155    1.0000 0.18713  0.10540  0.14692  Biso   1.000  Ne
  He155    1.0000 0.21327  0.09039  0.14549  Biso   1.000  He
  He156    1.0000 0.21489  0.07439  0.11464  Biso   1.000  He
  Ne156    1.0000 0.24699  0.07021  0.10364  Biso   1.000  Ne
  Ne157    1.0000 0.25415  0.27970  0.70765  Biso   1.000  Ne
  He157    1.0000 0.24497  0.27350  0.74059  Biso   1.000  He
  He158    1.0000 0.25725  0.24871  0.75353  Biso   1.000  He
  Ne158    1.0000 0.25187  0.24799  0.78654  Biso   1.000  Ne
  Ne159    1.0000 0.53304  0.91082  0.49549  Biso   1.000  Ne
  He159    1.0000 0.54808  0.93232  0.51662  Biso   1.000  He
  He160    1.0000 0.55028  0.92241  0.54824  Biso   1.000  He
  Ne160    1.0000 0.57110  0.94182  0.56253  Biso   1.000  Ne
  Ne161    1.0000 0.17354  0.22176  0.66845  Biso   1.000  Ne
  He161    1.0000 0.14365  0.21047  0.66164  Biso   1.000  He
  He162    1.0000 0.12351  0.23189  0.64385  Biso   1.000  He
  Ne162    1.0000 0.12160  0.22737  0.60914  Biso   1.000  Ne
  Ne163    1.0000 0.21299  0.61527  0.09585  Biso   1.000  Ne
  He163    1.0000 0.19336  0.60135  0.07155  Biso   1.000  He
  He164    1.0000 0.20418  0.60372  0.04121  Biso   1.000  He
  Ne164    1.0000 0.19249  0.58622  0.01857  Biso   1.000  Ne
  Ne165    1.0000 0.91836  0.56120  0.81865  Biso   1.000  Ne
  He165    1.0000 0.90071  0.53852  0.83205  Biso   1.000  He
  He166    1.0000 0.90668  0.53782  0.86515  Biso   1.000  He
  Ne166    1.0000 0.88494  0.51722  0.88309  Biso   1.000  Ne
  Ne167    1.0000 0.07767  0.12242  0.32078  Biso   1.000  Ne
  He167    1.0000 0.05617  0.13630  0.34364  Biso   1.000  He
  He168    1.0000 0.03076  0.15327  0.33152  Biso   1.000  He
  Ne168    1.0000 0.01307  0.16512  0.35622  Biso   1.000  Ne
  Ne169    1.0000 0.59689  0.59932  0.23479  Biso   1.000  Ne
  He169    1.0000 0.58146  0.59647  0.20353  Biso   1.000  He
  He170    1.0000 0.60363  0.59120  0.17787  Biso   1.000  He
  Ne170    1.0000 0.58937  0.59280  0.14829  Biso   1.000  Ne
  Ne171    1.0000 0.06273  0.28870  0.00441  Biso   1.000  Ne
  He171    1.0000 0.04196  0.31111  0.01934  Biso   1.000  He
  He172    1.0000 0.01020  0.30407  0.01121  Biso   1.000  He
  Ne172    1.0000 0.99130  0.32190  0.02685  Biso   1.000  Ne
  Ne173    1.0000 0.22771  0.61203  0.92696  Biso   1.000  Ne
  He173    1.0000 0.20630  0.63601  0.93326  Biso   1.000  He
  He174    1.0000 0.21139  0.66711  0.92499  Biso   1.000  He
  Ne174    1.0000 0.18774  0.68847  0.93197  Biso   1.000  Ne
  Ne175    1.0000 0.92868  0.89289  0.80486  Biso   1.000  Ne
  He175    1.0000 0.93523  0.90747  0.77744  Biso   1.000  He
  He176    1.0000 0.93145  0.89036  0.75131  Biso   1.000  He
  Ne176    1.0000 0.93788  0.90878  0.72427  Biso   1.000  Ne
  Ne177    1.0000 0.93255  0.55891  0.39867  Biso   1.000  Ne
  He177    1.0000 0.92523  0.57863  0.42456  Biso   1.000  He
  He178    1.0000 0.94608  0.60645  0.42433  Biso   1.000  He
  Ne178    1.0000 0.94047  0.62787  0.44819  Biso   1.000  Ne
  Ne179    1.0000 0.17143  0.44418  0.84998  Biso   1.000  Ne
  He179    1.0000 0.17506  0.41160  0.85681  Biso   1.000  He
  He180    1.0000 0.14836  0.39522  0.87197  Biso   1.000  He
  Ne180    1.0000 0.15216  0.36223  0.87240  Biso   1.000  Ne
  Ne181    1.0000 0.91924  0.73243  0.20686  Biso   1.000  Ne
  He181    1.0000 0.91198  0.76487  0.20846  Biso   1.000  He
  He182    1.0000 0.92483  0.78186  0.18169  Biso   1.000  He
  Ne182    1.0000 0.91924  0.81182  0.18398  Biso   1.000  Ne
  Ne183    1.0000 0.17223  0.91857  0.31403  Biso   1.000  Ne
  He183    1.0000 0.17268  0.90655  0.34512  Biso   1.000  He
  He184    1.0000 0.14699  0.90989  0.36538  Biso   1.000  He
  Ne184    1.0000 0.14815  0.88797  0.39064  Biso   1.000  Ne
  Ne185    1.0000 0.65610  0.43293  0.20244  Biso   1.000  Ne
  He185    1.0000 0.68409  0.43683  0.19064  Biso   1.000  He
  He186    1.0000 0.69669  0.41096  0.17644  Biso   1.000  He
  Ne186    1.0000 0.72848  0.41502  0.16776  Biso   1.000  Ne
  Ne187    1.0000 0.09620  0.58420  0.72205  Biso   1.000  Ne
  He187    1.0000 0.07974  0.58445  0.69524  Biso   1.000  He
  He188    1.0000 0.09732  0.56935  0.66878  Biso   1.000  He
  Ne188    1.0000 0.08069  0.56523  0.64053  Biso   1.000  Ne
  Ne189    1.0000 0.59963  0.90663  0.75468  Biso   1.000  Ne
  He189    1.0000 0.58723  0.88165  0.77294  Biso   1.000  He
  He190    1.0000 0.59417  0.85175  0.75906  Biso   1.000  He
  Ne190    1.0000 0.57727  0.82651  0.77150  Biso   1.000  Ne
  Ne191    1.0000 0.90583  0.29494  0.00360  Biso   1.000  Ne
  He191    1.0000 0.92909  0.29698  0.97728  Biso   1.000  He
  He192    1.0000 0.94388  0.26812  0.97103  Biso   1.000  He
  Ne192    1.0000 0.96930  0.27248  0.94989  Biso   1.000  Ne
  Ne193    1.0000 0.93556  0.37598  0.57897  Biso   1.000  Ne
  He193    1.0000 0.92900  0.40364  0.56426  Biso   1.000  He
  He194    1.0000 0.94922  0.41023  0.53960  Biso   1.000  He
  Ne194    1.0000 0.94132  0.43982  0.52341  Biso   1.000  Ne
  Ne195    1.0000 0.22985  0.37963  0.89721  Biso   1.000  Ne
  He195    1.0000 0.25102  0.38098  0.87139  Biso   1.000  He
  He196    1.0000 0.28301  0.39268  0.88039  Biso   1.000  He
  Ne196    1.0000 0.30688  0.38780  0.85828  Biso   1.000  Ne
  Ne197    1.0000 0.10607  0.62235  0.32125  Biso   1.000  Ne
  He197    1.0000 0.11979  0.59350  0.31921  Biso   1.000  He
  He198    1.0000 0.15378  0.59390  0.32230  Biso   1.000  He
  Ne198    1.0000 0.16936  0.56788  0.31491  Biso   1.000  Ne
  Ne199    1.0000 0.22891  0.89952  0.80489  Biso   1.000  Ne
  He199    1.0000 0.24603  0.88923  0.82827  Biso   1.000  He
  He200    1.0000 0.27156  0.90860  0.83158  Biso   1.000  He
  Ne200    1.0000 0.28808  0.90158  0.85648  Biso   1.000  Ne
  Ne201    1.0000 0.94103  0.08382  0.77952  Biso   1.000  Ne
  He201    1.0000 0.94135  0.07934  0.81297  Biso   1.000  He
  He202    1.0000 0.97058  0.08029  0.82808  Biso   1.000  He
  Ne202    1.0000 0.96688  0.07554  0.86268  Biso   1.000  Ne
  Ne203    1.0000 0.87674  0.71059  0.42831  Biso   1.000  Ne
  He203    1.0000 0.89905  0.73497  0.42999  Biso   1.000  He
  He204    1.0000 0.91912  0.73079  0.45315  Biso   1.000  He
  Ne204    1.0000 0.94328  0.75588  0.45531  Biso   1.000  Ne
  Ne205    1.0000 0.66854  0.44196  0.65663  Biso   1.000  Ne
  He205    1.0000 0.65867  0.44272  0.62609  Biso   1.000  He
  He206    1.0000 0.65289  0.47323  0.61616  Biso   1.000  He
  Ne206    1.0000 0.64030  0.47310  0.58674  Biso   1.000  Ne
  Ne207    1.0000 0.22962  0.09818  0.47936  Biso   1.000  Ne
  He207    1.0000 0.22959  0.06458  0.47173  Biso   1.000  He
  He208    1.0000 0.23371  0.04412  0.49763  Biso   1.000  He
  Ne208    1.0000 0.23357  0.01053  0.48694  Biso   1.000  Ne
  Ne209    1.0000 0.80131  0.77517  0.28373  Biso   1.000  Ne
  He209    1.0000 0.77311  0.76493  0.27090  Biso   1.000  He
  He210    1.0000 0.77838  0.74282  0.24628  Biso   1.000  He
  Ne210    1.0000 0.75109  0.73335  0.22895  Biso   1.000  Ne
  Ne211    1.0000 0.83964  0.34641  0.85529  Biso   1.000  Ne
  He211    1.0000 0.86236  0.34511  0.87792  Biso   1.000  He
  He212    1.0000 0.88463  0.31958  0.87546  Biso   1.000  He
  Ne212    1.0000 0.91064  0.32507  0.89398  Biso   1.000  Ne
  Ne213    1.0000 0.83430  0.74422  0.68960  Biso   1.000  Ne
  He213    1.0000 0.81144  0.76277  0.70402  Biso   1.000  He
  He214    1.0000 0.80756  0.79039  0.68939  Biso   1.000  He
  Ne214    1.0000 0.78119  0.80898  0.69766  Biso   1.000  Ne
  Ne215    1.0000 0.07962  0.41530  0.68782  Biso   1.000  Ne
  He215    1.0000 0.08292  0.38343  0.68532  Biso   1.000  He
  He216    1.0000 0.11054  0.37380  0.67015  Biso   1.000  He
  Ne216    1.0000 0.11513  0.34045  0.66905  Biso   1.000  Ne
  Ne217    1.0000 0.96704  0.45670  0.22648  Biso   1.000  Ne
  He217    1.0000 0.97879  0.43690  0.20498  Biso   1.000  He
  He218    1.0000 0.96773  0.40615  0.20578  Biso   1.000  He
  Ne218    1.0000 0.97995  0.38824  0.18401  Biso   1.000  Ne
  Ne219    1.0000 0.57640  0.27442  0.48248  Biso   1.000  Ne
  He219    1.0000 0.54403  0.27086  0.47053  Biso   1.000  He
  He220    1.0000 0.53507  0.29435  0.44532  Biso   1.000  He
  Ne220    1.0000 0.50483  0.28702  0.43700  Biso   1.000  Ne
  Ne221    1.0000 0.61535  0.63932  0.60131  Biso   1.000  Ne
  He221    1.0000 0.64287  0.65803  0.58988  Biso   1.000  He
  He222    1.0000 0.63722  0.68087  0.56731  Biso   1.000  He
  Ne222    1.0000 0.66378  0.69810  0.55742  Biso   1.000  Ne
  Ne223    1.0000 0.77122  0.72443  0.35552  Biso   1.000  Ne
  He223    1.0000 0.76376  0.69136  0.35997  Biso   1.000  He
  He224    1.0000 0.74856  0.68464  0.38890  Biso   1.000  He
  Ne224    1.0000 0.74714  0.65283  0.39975  Biso   1.000  Ne
  Ne225    1.0000 0.78367  0.54287  0.03141  Biso   1.000  Ne
  He225    1.0000 0.80279  0.54060  0.05920  Biso   1.000  He
  He226    1.0000 0.83603  0.54299  0.05073  Biso   1.000  He
  Ne226    1.0000 0.85523  0.55295  0.07592  Biso   1.000  Ne
  Ne227    1.0000 0.60757  0.20092  0.41997  Biso   1.000  Ne
  He227    1.0000 0.64000  0.19599  0.42598  Biso   1.000  He
  He228    1.0000 0.65326  0.17816  0.40108  Biso   1.000  He
  Ne228    1.0000 0.68636  0.17271  0.40488  Biso   1.000  Ne
  Ne229    1.0000 0.61919  0.30136  0.92229  Biso   1.000  Ne
  He229    1.0000 0.60342  0.32612  0.90897  Biso   1.000  He
  He230    1.0000 0.60339  0.35304  0.92779  Biso   1.000  He
  Ne230    1.0000 0.58071  0.37651  0.91749  Biso   1.000  Ne
  Ne231    1.0000 0.60199  0.15184  0.16259  Biso   1.000  Ne
  He231    1.0000 0.60190  0.17273  0.18786  Biso   1.000  He
  He232    1.0000 0.61824  0.20080  0.18271  Biso   1.000  He
  Ne232    1.0000 0.61926  0.21663  0.21139  Biso   1.000  Ne
  Ne233    1.0000 0.39697  0.39568  0.79067  Biso   1.000  Ne
  He233    1.0000 0.36912  0.38290  0.79255  Biso   1.000  He
  He234    1.0000 0.36617  0.34981  0.78299  Biso   1.000  He
  Ne234    1.0000 0.33376  0.33620  0.78230  Biso   1.000  Ne
  Ne235    1.0000 0.87855  0.94000  0.49252  Biso   1.000  Ne
  He235    1.0000 0.88613  0.97160  0.47712  Biso   1.000  He
  He236    1.0000 0.88453  0.96797  0.44564  Biso   1.000  He
  Ne236    1.0000 0.89440  0.99431  0.42702  Biso   1.000  Ne
  Ne237    1.0000 0.43610  0.56545  0.15911  Biso   1.000  Ne
  He237    1.0000 0.40987  0.55624  0.14319  Biso   1.000  He
  He238    1.0000 0.40623  0.56614  0.11125  Biso   1.000  He
  Ne238    1.0000 0.37720  0.55763  0.09838  Biso   1.000  Ne
  Ne239    1.0000 0.79929  0.93572  0.32239  Biso   1.000  Ne
  He239    1.0000 0.77167  0.92445  0.30517  Biso   1.000  He
  He240    1.0000 0.74627  0.91442  0.32542  Biso   1.000  He
  Ne240    1.0000 0.71703  0.90285  0.30997  Biso   1.000  Ne
  Ne241    1.0000 0.67907  0.59944  0.91428  Biso   1.000  Ne
  He241    1.0000 0.66472  0.62916  0.91282  Biso   1.000  He
  He242    1.0000 0.68692  0.65156  0.92140  Biso   1.000  He
  Ne242    1.0000 0.67215  0.68059  0.92657  Biso   1.000  Ne
  Ne243    1.0000 0.90317  0.08056  0.90468  Biso   1.000  Ne
  He243    1.0000 0.91553  0.07574  0.93397  Biso   1.000  He
  He244    1.0000 0.92714  0.04570  0.94254  Biso   1.000  He
  Ne244    1.0000 0.93466  0.04336  0.97266  Biso   1.000  Ne
  Ne245    1.0000 0.35950  0.06977  0.43904  Biso   1.000  Ne
  He245    1.0000 0.38260  0.08852  0.42133  Biso   1.000  He
  He246    1.0000 0.41197  0.07749  0.43090  Biso   1.000  He
  Ne246    1.0000 0.43761  0.09208  0.41933  Biso   1.000  Ne
  Ne247    1.0000 0.41704  0.09604  0.79655  Biso   1.000  Ne
  He247    1.0000 0.42892  0.07653  0.77272  Biso   1.000  He
  He248    1.0000 0.45675  0.06062  0.77953  Biso   1.000  He
  Ne248    1.0000 0.47168  0.04103  0.75572  Biso   1.000  Ne
  Ne249    1.0000 0.09983  0.55838  0.45367  Biso   1.000  Ne
  He249    1.0000 0.12275  0.57672  0.43907  Biso   1.000  He
  He250    1.0000 0.15452  0.56731  0.44060  Biso   1.000  He
  Ne250    1.0000 0.17752  0.58628  0.42566  Biso   1.000  Ne
  Ne251    1.0000 0.42887  0.23108  0.62585  Biso   1.000  Ne
  He251    1.0000 0.43846  0.19924  0.62845  Biso   1.000  He
  He252    1.0000 0.44887  0.18564  0.59968  Biso   1.000  He
  Ne252    1.0000 0.45374  0.15229  0.60176  Biso   1.000  Ne
  Ne253    1.0000 0.89526  0.56327  0.74409  Biso   1.000  Ne
  He253    1.0000 0.88408  0.56805  0.71272  Biso   1.000  He
  He254    1.0000 0.90318  0.57191  0.68990  Biso   1.000  He
  Ne254    1.0000 0.88751  0.57717  0.65879  Biso   1.000  Ne
  Ne255    1.0000 0.71918  0.17923  0.25798  Biso   1.000  Ne
  He255    1.0000 0.70676  0.20290  0.24109  Biso   1.000  He
  He256    1.0000 0.71407  0.20038  0.20927  Biso   1.000  He
  Ne256    1.0000 0.70499  0.22768  0.19132  Biso   1.000  Ne
  Ne257    1.0000 0.99166  0.14045  0.68360  Biso   1.000  Ne
  He257    1.0000 0.96131  0.14649  0.69256  Biso   1.000  He
  He258    1.0000 0.95102  0.17959  0.69225  Biso   1.000  He
  Ne258    1.0000 0.92143  0.18784  0.70086  Biso   1.000  Ne
  Ne259    1.0000 0.11467  0.45478  0.47904  Biso   1.000  Ne
  He259    1.0000 0.09782  0.45582  0.45105  Biso   1.000  He
  He260    1.0000 0.08692  0.42555  0.44134  Biso   1.000  He
  Ne260    1.0000 0.06864  0.42513  0.41284  Biso   1.000  Ne
  Ne261    1.0000 0.88401  0.76410  0.57169  Biso   1.000  Ne
  He261    1.0000 0.91126  0.76647  0.58984  Biso   1.000  He
  He262    1.0000 0.93632  0.74539  0.57890  Biso   1.000  He
  Ne262    1.0000 0.96501  0.74630  0.59539  Biso   1.000  Ne
  Ne263    1.0000 0.68102  0.32966  0.67721  Biso   1.000  Ne
  He263    1.0000 0.64992  0.33420  0.69087  Biso   1.000  He
  He264    1.0000 0.62852  0.34482  0.66944  Biso   1.000  He
  Ne264    1.0000 0.59831  0.34301  0.67731  Biso   1.000  Ne
  Ne265    1.0000 0.26260  0.36227  0.16420  Biso   1.000  Ne
  He265    1.0000 0.24727  0.36743  0.19144  Biso   1.000  He
  He266    1.0000 0.21666  0.36488  0.18706  Biso   1.000  He
  Ne266    1.0000 0.19697  0.36823  0.21140  Biso   1.000  Ne
  Ne267    1.0000 0.83441  0.52921  0.17188  Biso   1.000  Ne
  He267    1.0000 0.81361  0.54774  0.16193  Biso   1.000  He
  He268    1.0000 0.80126  0.56738  0.18327  Biso   1.000  He
  Ne268    1.0000 0.77205  0.57571  0.17555  Biso   1.000  Ne
  Ne269    1.0000 0.16646  0.58470  0.59893  Biso   1.000  Ne
  He269    1.0000 0.17724  0.57250  0.62853  Biso   1.000  He
  He270    1.0000 0.19833  0.59172  0.64684  Biso   1.000  He
  Ne270    1.0000 0.20181  0.57878  0.67810  Biso   1.000  Ne
  Ne271    1.0000 0.64119  0.80821  0.34119  Biso   1.000  Ne
  He271    1.0000 0.61028  0.81538  0.35313  Biso   1.000  He
  He272    1.0000 0.59811  0.79463  0.37484  Biso   1.000  He
  Ne272    1.0000 0.60315  0.80023  0.40950  Biso   1.000  Ne
  Ne273    1.0000 0.80713  0.69379  0.62843  Biso   1.000  Ne
  He273    1.0000 0.78229  0.71245  0.61728  Biso   1.000  He
  He274    1.0000 0.75787  0.71979  0.64213  Biso   1.000  He
  Ne274    1.0000 0.73447  0.74116  0.62788  Biso   1.000  Ne
  Ne275    1.0000 0.32594  0.07387  0.33126  Biso   1.000  Ne
  He275    1.0000 0.35572  0.05859  0.32866  Biso   1.000  He
  He276    1.0000 0.37889  0.06646  0.35229  Biso   1.000  He
  Ne276    1.0000 0.40878  0.04900  0.34765  Biso   1.000  Ne
  Ne277    1.0000 0.94873  0.15746  0.13261  Biso   1.000  Ne
  He277    1.0000 0.93353  0.17621  0.15640  Biso   1.000  He
  He278    1.0000 0.89979  0.17679  0.15674  Biso   1.000  He
  Ne278    1.0000 0.88660  0.19541  0.18231  Biso   1.000  Ne
  Ne279    1.0000 0.18035  0.05724  0.91065  Biso   1.000  Ne
  He279    1.0000 0.20869  0.07001  0.92211  Biso   1.000  He
  He280    1.0000 0.23394  0.06792  0.90272  Biso   1.000  He
  Ne280    1.0000 0.26146  0.07672  0.91755  Biso   1.000  Ne
  Ne281    1.0000 0.24261  0.95670  0.56501  Biso   1.000  Ne
  He281    1.0000 0.25209  0.95689  0.59779  Biso   1.000  He
  He282    1.0000 0.22931  0.97303  0.61921  Biso   1.000  He
  Ne282    1.0000 0.23777  0.97243  0.65184  Biso   1.000  Ne
  Ne283    1.0000 0.35793  0.90453  0.42709  Biso   1.000  Ne
  He283    1.0000 0.34823  0.88553  0.40323  Biso   1.000  He
  He284    1.0000 0.36446  0.88753  0.37556  Biso   1.000  He
  Ne284    1.0000 0.35099  0.87153  0.35342  Biso   1.000  Ne
  Ne285    1.0000 0.34196  0.25838  0.42355  Biso   1.000  Ne
  He285    1.0000 0.35495  0.27393  0.45094  Biso   1.000  He
  He286    1.0000 0.33310  0.29417  0.46492  Biso   1.000  He
  Ne286    1.0000 0.34514  0.30508  0.49268  Biso   1.000  Ne
  Ne287    1.0000 0.60380  0.95861  0.90560  Biso   1.000  Ne
  He287    1.0000 0.59183  0.92776  0.90215  Biso   1.000  He
  He288    1.0000 0.59498  0.91072  0.92718  Biso   1.000  He
  Ne288    1.0000 0.58180  0.87987  0.92522  Biso   1.000  Ne
  Ne289    1.0000 0.82354  0.34031  0.94972  Biso   1.000  Ne
  He289    1.0000 0.83020  0.34128  0.98176  Biso   1.000  He
  He290    1.0000 0.83941  0.37284  0.99395  Biso   1.000  He
  Ne290    1.0000 0.84061  0.37442  0.02685  Biso   1.000  Ne
  Ne291    1.0000 0.42560  0.40381  0.87349  Biso   1.000  Ne
  He291    1.0000 0.39962  0.39205  0.88830  Biso   1.000  He
  He292    1.0000 0.39386  0.40463  0.91982  Biso   1.000  He
  Ne292    1.0000 0.36610  0.39469  0.93441  Biso   1.000  Ne
  Ne293    1.0000 0.27480  0.42376  0.11011  Biso   1.000  Ne
  He293    1.0000 0.25325  0.44471  0.12525  Biso   1.000  He
  He294    1.0000 0.22424  0.43028  0.13464  Biso   1.000  He
  Ne294    1.0000 0.20311  0.45485  0.14377  Biso   1.000  Ne
  Ne295    1.0000 0.68319  0.45622  0.40806  Biso   1.000  Ne
  He295    1.0000 0.70409  0.43575  0.42650  Biso   1.000  He
  He296    1.0000 0.73336  0.43486  0.41872  Biso   1.000  He
  Ne296    1.0000 0.75073  0.41014  0.43221  Biso   1.000  Ne
  Ne297    1.0000 0.77503  0.17866  0.89730  Biso   1.000  Ne
  He297    1.0000 0.80386  0.19376  0.89432  Biso   1.000  He
  He298    1.0000 0.81222  0.21628  0.91678  Biso   1.000  He
  Ne298    1.0000 0.84334  0.22682  0.91056  Biso   1.000  Ne
  Ne299    1.0000 0.09666  0.36702  0.94265  Biso   1.000  Ne
  He299    1.0000 0.07903  0.39082  0.92717  Biso   1.000  He
  He300    1.0000 0.06443  0.38138  0.89850  Biso   1.000  He
  Ne300    1.0000 0.04710  0.40545  0.88278  Biso   1.000  Ne
  Ne301    1.0000 0.26536  0.82914  0.34133  Biso   1.000  Ne
  He301    1.0000 0.27074  0.85622  0.32336  Biso   1.000  He
  He302    1.0000 0.29505  0.85229  0.29987  Biso   1.000  He
  Ne302    1.0000 0.30094  0.88080  0.28181  Biso   1.000  Ne
  Ne303    1.0000 0.16145  0.19783  0.10057  Biso   1.000  Ne
  He303    1.0000 0.15532  0.23110  0.10476  Biso   1.000  He
  He304    1.0000 0.17105  0.24710  0.12917  Biso   1.000  He
  Ne304    1.0000 0.16174  0.27877  0.13010  Biso   1.000  Ne
  Ne305    1.0000 0.75370  0.06698  0.39042  Biso   1.000  Ne
  He305    1.0000 0.73159  0.08413  0.40364  Biso   1.000  He
  He306    1.0000 0.70080  0.07153  0.39853  Biso   1.000  He
  Ne306    1.0000 0.68014  0.08957  0.41790  Biso   1.000  Ne
  Ne307    1.0000 0.59260  0.45208  0.11476  Biso   1.000  Ne
  He307    1.0000 0.61038  0.42442  0.11823  Biso   1.000  He
  He308    1.0000 0.63700  0.42625  0.09910  Biso   1.000  He
  Ne308    1.0000 0.64799  0.39675  0.09155  Biso   1.000  Ne
  Ne309    1.0000 0.38389  0.91055  0.67896  Biso   1.000  Ne
  He309    1.0000 0.35448  0.91051  0.69626  Biso   1.000  He
  He310    1.0000 0.35891  0.90638  0.72911  Biso   1.000  He
  Ne310    1.0000 0.33185  0.90414  0.74694  Biso   1.000  Ne
  Ne311    1.0000 0.92284  0.55246  0.58266  Biso   1.000  Ne
  He311    1.0000 0.94693  0.53313  0.58824  Biso   1.000  He
  He312    1.0000 0.96586  0.53060  0.56020  Biso   1.000  He
  Ne312    1.0000 0.99364  0.51192  0.56594  Biso   1.000  Ne
  Ne313    1.0000 0.35815  0.85745  0.03098  Biso   1.000  Ne
  He313    1.0000 0.38867  0.84696  0.02692  Biso   1.000  He
  He314    1.0000 0.41313  0.87232  0.02897  Biso   1.000  He
  Ne314    1.0000 0.44172  0.86349  0.01712  Biso   1.000  Ne
  Ne315    1.0000 0.48180  0.39393  0.05270  Biso   1.000  Ne
  He315    1.0000 0.48124  0.39732  0.08370  Biso   1.000  He
  He316    1.0000 0.47460  0.42991  0.09229  Biso   1.000  He
  Ne316    1.0000 0.44233  0.43639  0.10177  Biso   1.000  Ne
  Ne317    1.0000 0.12902  0.44505  0.10152  Biso   1.000  Ne
  He317    1.0000 0.11703  0.43071  0.13041  Biso   1.000  He
  He318    1.0000 0.08581  0.41770  0.12787  Biso   1.000  He
  Ne318    1.0000 0.08624  0.38675  0.12092  Biso   1.000  Ne
  Ne319    1.0000 0.28597  0.57097  0.48336  Biso   1.000  Ne
  He319    1.0000 0.29151  0.57711  0.44950  Biso   1.000  He
  He320    1.0000 0.26562  0.56834  0.42828  Biso   1.000  He
  Ne320    1.0000 0.27382  0.57754  0.39658  Biso   1.000  Ne
  Ne321    1.0000 0.18753  0.42418  0.32264  Biso   1.000  Ne
  He321    1.0000 0.19774  0.41305  0.29370  Biso   1.000  He
  He322    1.0000 0.23086  0.41304  0.29152  Biso   1.000  He
  Ne322    1.0000 0.24674  0.40469  0.26162  Biso   1.000  Ne
  Ne323    1.0000 0.45886  0.26964  0.75051  Biso   1.000  Ne
  He323    1.0000 0.44173  0.24605  0.76759  Biso   1.000  He
  He324    1.0000 0.42600  0.22308  0.74948  Biso   1.000  He
  Ne324    1.0000 0.40368  0.19875  0.76154  Biso   1.000  Ne
  Ne325    1.0000 0.91088  0.26331  0.23075  Biso   1.000  Ne
  He325    1.0000 0.92738  0.26021  0.25848  Biso   1.000  He
  He326    1.0000 0.91324  0.27708  0.28592  Biso   1.000  He
  Ne326    1.0000 0.92855  0.27108  0.31365  Biso   1.000  Ne
  Ne327    1.0000 0.90075  0.81355  0.27971  Biso   1.000  Ne
  He327    1.0000 0.88304  0.83629  0.29833  Biso   1.000  He
  He328    1.0000 0.85173  0.83705  0.29006  Biso   1.000  He
  Ne328    1.0000 0.83475  0.85657  0.31161  Biso   1.000  Ne
  Ne329    1.0000 0.62775  0.76152  0.91240  Biso   1.000  Ne
  He329    1.0000 0.63215  0.76540  0.94718  Biso   1.000  He
  He330    1.0000 0.60698  0.78282  0.96038  Biso   1.000  He
  Ne330    1.0000 0.61283  0.79183  0.99108  Biso   1.000  Ne
  Ne331    1.0000 0.53753  0.12458  0.82313  Biso   1.000  Ne
  He331    1.0000 0.52750  0.10857  0.84951  Biso   1.000  He
  He332    1.0000 0.51572  0.12602  0.87405  Biso   1.000  He
  Ne332    1.0000 0.50242  0.10655  0.89921  Biso   1.000  Ne
  Ne333    1.0000 0.46845  0.01921  0.53294  Biso   1.000  Ne
  He333    1.0000 0.49359  0.02955  0.55256  Biso   1.000  He
  He334    1.0000 0.48481  0.03148  0.58127  Biso   1.000  He
  Ne334    1.0000 0.50928  0.02769  0.60402  Biso   1.000  Ne
  Ne335    1.0000 0.40378  0.60950  0.67607  Biso   1.000  Ne
  He335    1.0000 0.37362  0.59481  0.67787  Biso   1.000  He
  He336    1.0000 0.34998  0.61349  0.69324  Biso   1.000  He
  Ne336    1.0000 0.31925  0.59959  0.69960  Biso   1.000  Ne
  Ne337    1.0000 0.12214  0.17307  0.18268  Biso   1.000  Ne
  He337    1.0000 0.10665  0.19666  0.19273  Biso   1.000  He
  He338    1.0000 0.11494  0.22776  0.18321  Biso   1.000  He
  Ne338    1.0000 0.09297  0.24946  0.18935  Biso   1.000  Ne
  Ne339    1.0000 0.90514  0.94335  0.28286  Biso   1.000  Ne
  He339    1.0000 0.87563  0.95361  0.29239  Biso   1.000  He
  He340    1.0000 0.87356  0.98635  0.29357  Biso   1.000  He
  Ne340    1.0000 0.84703  0.99984  0.30504  Biso   1.000  Ne
  Ne341    1.0000 0.51372  0.76489  0.82324  Biso   1.000  Ne
  He341    1.0000 0.50387  0.78436  0.84952  Biso   1.000  He
  He342    1.0000 0.51961  0.81637  0.85247  Biso   1.000  He
  Ne342    1.0000 0.51190  0.83426  0.87798  Biso   1.000  Ne
  Ne343    1.0000 0.25019  0.14825  0.58571  Biso   1.000  Ne
  He343    1.0000 0.26591  0.17675  0.58543  Biso   1.000  He
  He344    1.0000 0.24826  0.20253  0.57423  Biso   1.000  He
  Ne344    1.0000 0.26511  0.23220  0.57450  Biso   1.000  Ne
  Ne345    1.0000 0.65096  0.13662  0.99222  Biso   1.000  Ne
  He345    1.0000 0.63743  0.10702  0.98513  Biso   1.000  He
  He346    1.0000 0.60528  0.10828  0.98460  Biso   1.000  He
  Ne346    1.0000 0.59124  0.07887  0.98170  Biso   1.000  Ne
  Ne347    1.0000 0.42785  0.77658  0.30646  Biso   1.000  Ne
  He347    1.0000 0.41442  0.76117  0.28074  Biso   1.000  He
  He348    1.0000 0.39997  0.73110  0.28576  Biso   1.000  He
  Ne348    1.0000 0.38803  0.71902  0.25513  Biso   1.000  Ne
  Ne349    1.0000 0.77986  0.12444  0.18249  Biso   1.000  Ne
  He349    1.0000 0.81101  0.13468  0.18752  Biso   1.000  He
  He350    1.0000 0.82914  0.11182  0.20269  Biso   1.000  He
  Ne350    1.0000 0.86203  0.11590  0.20435  Biso   1.000  Ne
  Ne351    1.0000 0.65968  0.40156  0.75039  Biso   1.000  Ne
  He351    1.0000 0.68500  0.41547  0.73190  Biso   1.000  He
  He352    1.0000 0.70881  0.39495  0.72216  Biso   1.000  He
  Ne352    1.0000 0.73482  0.40732  0.70810  Biso   1.000  Ne
  Ne353    1.0000 0.27951  0.80522  0.59344  Biso   1.000  Ne
  He353    1.0000 0.29906  0.81974  0.61490  Biso   1.000  He
  He354    1.0000 0.32430  0.83826  0.60250  Biso   1.000  He
  Ne354    1.0000 0.33851  0.86043  0.62455  Biso   1.000  Ne
  Ne355    1.0000 0.31209  0.36397  0.33533  Biso   1.000  Ne
  He355    1.0000 0.32386  0.33303  0.33662  Biso   1.000  He
  He356    1.0000 0.34109  0.32895  0.36144  Biso   1.000  He
  Ne356    1.0000 0.35424  0.30013  0.36632  Biso   1.000  Ne
  Ne357    1.0000 0.25238  0.83623  0.75274  Biso   1.000  Ne
  He357    1.0000 0.24014  0.85041  0.72638  Biso   1.000  He
  He358    1.0000 0.26100  0.86163  0.70391  Biso   1.000  He
  Ne358    1.0000 0.24521  0.87430  0.67662  Biso   1.000  Ne
  Ne359    1.0000 0.33279  0.43719  0.58401  Biso   1.000  Ne
  He359    1.0000 0.32829  0.44490  0.55034  Biso   1.000  He
  He360    1.0000 0.32593  0.47658  0.54410  Biso   1.000  He
  Ne360    1.0000 0.30289  0.48719  0.52313  Biso   1.000  Ne
  Ne361    1.0000 0.67191  0.90851  0.59126  Biso   1.000  Ne
  He361    1.0000 0.70237  0.89169  0.59180  Biso   1.000  He
  He362    1.0000 0.72678  0.90818  0.60921  Biso   1.000  He
  Ne362    1.0000 0.75770  0.89471  0.60714  Biso   1.000  Ne
  Ne363    1.0000 0.87088  0.35967  0.12537  Biso   1.000  Ne
  He363    1.0000 0.87489  0.38953  0.12321  Biso   1.000  He
  He364    1.0000 0.90096  0.40149  0.14096  Biso   1.000  He
  Ne364    1.0000 0.90718  0.43518  0.13569  Biso   1.000  Ne
  Ne365    1.0000 0.01164  0.67885  0.15387  Biso   1.000  Ne
  He365    1.0000 0.97954  0.67607  0.16426  Biso   1.000  He
  He366    1.0000 0.97452  0.65608  0.19147  Biso   1.000  He
  Ne366    1.0000 0.93959  0.65278  0.20213  Biso   1.000  Ne
  Ne367    1.0000 0.61306  0.14369  0.78632  Biso   1.000  Ne
  He367    1.0000 0.62265  0.17213  0.77481  Biso   1.000  He
  He368    1.0000 0.62311  0.17217  0.74076  Biso   1.000  He
  Ne368    1.0000 0.63272  0.20137  0.72472  Biso   1.000  Ne
  Ne369    1.0000 0.26669  0.74816  0.69636  Biso   1.000  Ne
  He369    1.0000 0.23427  0.74658  0.69392  Biso   1.000  He
  He370    1.0000 0.21832  0.75714  0.72099  Biso   1.000  He
  Ne370    1.0000 0.18554  0.75248  0.72235  Biso   1.000  Ne
  Ne371    1.0000 0.50474  0.04469  0.09892  Biso   1.000  Ne
  He371    1.0000 0.52279  0.02611  0.07722  Biso   1.000  He
  He372    1.0000 0.52787  0.04173  0.04731  Biso   1.000  He
  Ne372    1.0000 0.54631  0.02586  0.02544  Biso   1.000  Ne
  Ne373    1.0000 0.28947  0.36547  0.65859  Biso   1.000  Ne
  He373    1.0000 0.29490  0.38604  0.68478  Biso   1.000  He
  He374    1.0000 0.32802  0.39348  0.68962  Biso   1.000  He
  Ne374    1.0000 0.33016  0.41249  0.71703  Biso   1.000  Ne
  Ne375    1.0000 0.31479  0.19449  0.35016  Biso   1.000  Ne
  He375    1.0000 0.29649  0.17590  0.37042  Biso   1.000  He
  He376    1.0000 0.31290  0.15881  0.39498  Biso   1.000  He
  Ne376    1.0000 0.31692  0.12500  0.38891  Biso   1.000  Ne
  Ne377    1.0000 0.44226  0.23121  0.44704  Biso   1.000  Ne
  He377    1.0000 0.42356  0.20494  0.43058  Biso   1.000  He
  He378    1.0000 0.39291  0.19853  0.44348  Biso   1.000  He
  Ne378    1.0000 0.37767  0.17045  0.43421  Biso   1.000  Ne
  Ne379    1.0000 0.21560  0.68684  0.29090  Biso   1.000  Ne
  He379    1.0000 0.21058  0.70300  0.26362  Biso   1.000  He
  He380    1.0000 0.22157  0.73573  0.26837  Biso   1.000  He
  Ne380    1.0000 0.21609  0.75731  0.24278  Biso   1.000  Ne
  Ne381    1.0000 0.27280  0.07298  0.71645  Biso   1.000  Ne
  He381    1.0000 0.30580  0.07437  0.72392  Biso   1.000  He
  He382    1.0000 0.32498  0.06967  0.69711  Biso   1.000  He
  Ne382    1.0000 0.35831  0.07062  0.70511  Biso   1.000  Ne
  Ne383    1.0000 0.25307  0.38382  0.58017  Biso   1.000  Ne
  He383    1.0000 0.22289  0.39616  0.58615  Biso   1.000  He
  He384    1.0000 0.22085  0.41676  0.61013  Biso   1.000  He
  Ne384    1.0000 0.19026  0.42450  0.62014  Biso   1.000  Ne
  Ne385    1.0000 0.27713  0.08256  0.82837  Biso   1.000  Ne
  He385    1.0000 0.25306  0.09518  0.80965  Biso   1.000  He
  He386    1.0000 0.24655  0.12480  0.81766  Biso   1.000  He
  Ne386    1.0000 0.22370  0.13786  0.79937  Biso   1.000  Ne
  Ne387    1.0000 0.16061  0.89289  0.17310  Biso   1.000  Ne
  He387    1.0000 0.16853  0.86855  0.19634  Biso   1.000  He
  He388    1.0000 0.19871  0.87361  0.20930  Biso   1.000  He
  Ne388    1.0000 0.20747  0.84511  0.22606  Biso   1.000  Ne
  Ne389    1.0000 0.89901  0.43036  0.95896  Biso   1.000  Ne
  He389    1.0000 0.90314  0.42912  0.92659  Biso   1.000  He
  He390    1.0000 0.93384  0.42230  0.91417  Biso   1.000  He
  Ne390    1.0000 0.93866  0.42018  0.88171  Biso   1.000  Ne
  Ne391    1.0000 0.17559  0.40591  0.40749  Biso   1.000  Ne
  He391    1.0000 0.20989  0.40555  0.40903  Biso   1.000  He
  He392    1.0000 0.22698  0.40951  0.43687  Biso   1.000  He
  Ne392    1.0000 0.25875  0.41126  0.43306  Biso   1.000  Ne
  Ne393    1.0000 0.77494  0.38997  0.61875  Biso   1.000  Ne
  He393    1.0000 0.76327  0.38052  0.59006  Biso   1.000  He
  He394    1.0000 0.74411  0.35494  0.59137  Biso   1.000  He
  Ne394    1.0000 0.73747  0.34299  0.56208  Biso   1.000  Ne
  Ne395    1.0000 0.81153  0.17517  0.28917  Biso   1.000  Ne
  He395    1.0000 0.82695  0.20417  0.29045  Biso   1.000  He
  He396    1.0000 0.80545  0.22880  0.29838  Biso   1.000  He
  Ne396    1.0000 0.82310  0.25739  0.30078  Biso   1.000  Ne
  Ne397    1.0000 0.99110  0.79172  0.35758  Biso   1.000  Ne
  He397    1.0000 0.98630  0.82374  0.35357  Biso   1.000  He
  He398    1.0000 0.95779  0.83041  0.33466  Biso   1.000  He
  Ne398    1.0000 0.94866  0.86109  0.33004  Biso   1.000  Ne
  Ne399    1.0000 0.82138  0.41618  0.25238  Biso   1.000  Ne
  He399    1.0000 0.83195  0.38537  0.24882  Biso   1.000  He
  He400    1.0000 0.82776  0.36710  0.27590  Biso   1.000  He
  Ne400    1.0000 0.83811  0.33727  0.27394  Biso   1.000  Ne
  Ne401    1.0000 0.34536  0.97095  0.13909  Biso   1.000  Ne
  He401    1.0000 0.32119  0.96339  0.16231  Biso   1.000  He
  He402    1.0000 0.33413  0.95112  0.19221  Biso   1.000  He
  Ne402    1.0000 0.31361  0.93486  0.21290  Biso   1.000  Ne
  Ne403    1.0000 0.82393  0.26495  0.67883  Biso   1.000  Ne
  He403    1.0000 0.83402  0.29651  0.67343  Biso   1.000  He
  He404    1.0000 0.80790  0.31631  0.66753  Biso   1.000  He
  Ne404    1.0000 0.81033  0.34540  0.68363  Biso   1.000  Ne
  Ne405    1.0000 0.15904  0.73389  0.84438  Biso   1.000  Ne
  He405    1.0000 0.17692  0.72097  0.81730  Biso   1.000  He
  He406    1.0000 0.16081  0.70206  0.79488  Biso   1.000  He
  Ne406    1.0000 0.16376  0.67073  0.79835  Biso   1.000  Ne
  Ne407    1.0000 0.41452  0.86146  0.26242  Biso   1.000  Ne
  He407    1.0000 0.43511  0.88087  0.28214  Biso   1.000  He
  He408    1.0000 0.42483  0.88245  0.31431  Biso   1.000  He
  Ne408    1.0000 0.44749  0.89729  0.33135  Biso   1.000  Ne
  Ne409    1.0000 0.81517  0.54171  0.83603  Biso   1.000  Ne
  He409    1.0000 0.80596  0.53371  0.80313  Biso   1.000  He
  He410    1.0000 0.81531  0.55811  0.78290  Biso   1.000  He
  Ne410    1.0000 0.80416  0.55266  0.75121  Biso   1.000  Ne
  Ne411    1.0000 0.42588  0.27470  0.85739  Biso   1.000  Ne
  He411    1.0000 0.44155  0.28674  0.88387  Biso   1.000  He
  He412    1.0000 0.43417  0.27116  0.91178  Biso   1.000  He
  Ne412    1.0000 0.44600  0.28756  0.93595  Biso   1.000  Ne
  Ne413    1.0000 0.13104  0.92024  0.78075  Biso   1.000  Ne
  He413    1.0000 0.11167  0.91045  0.80553  Biso   1.000  He
  He414    1.0000 0.12919  0.91183  0.83357  Biso   1.000  He
  Ne414    1.0000 0.11313  0.90182  0.86059  Biso   1.000  Ne
  Ne415    1.0000 0.55234  0.75015  0.05876  Biso   1.000  Ne
  He415    1.0000 0.55429  0.76582  0.08790  Biso   1.000  He
  He416    1.0000 0.57500  0.75680  0.10983  Biso   1.000  He
  Ne416    1.0000 0.57973  0.77461  0.13636  Biso   1.000  Ne
  Ne417    1.0000 0.84535  0.87809  0.78939  Biso   1.000  Ne
  He417    1.0000 0.81828  0.87509  0.80612  Biso   1.000  He
  He418    1.0000 0.81282  0.89554  0.83044  Biso   1.000  He
  Ne418    1.0000 0.78317  0.89207  0.84681  Biso   1.000  Ne
  Ne419    1.0000 0.08982  0.70194  0.69044  Biso   1.000  Ne
  He419    1.0000 0.10660  0.67854  0.70297  Biso   1.000  He
  He420    1.0000 0.13910  0.68646  0.70190  Biso   1.000  He
  Ne420    1.0000 0.15974  0.66659  0.71189  Biso   1.000  Ne
  Ne421    1.0000 0.29315  0.58995  0.11038  Biso   1.000  Ne
  He421    1.0000 0.29024  0.62599  0.10718  Biso   1.000  He
  He422    1.0000 0.31764  0.64187  0.11668  Biso   1.000  He
  Ne422    1.0000 0.31682  0.67524  0.11434  Biso   1.000  Ne
  Ne423    1.0000 0.90769  0.91759  0.92242  Biso   1.000  Ne
  He423    1.0000 0.94052  0.92419  0.91464  Biso   1.000  He
  He424    1.0000 0.96217  0.91850  0.93912  Biso   1.000  He
  Ne424    1.0000 0.99382  0.92431  0.93040  Biso   1.000  Ne
  Ne425    1.0000 0.82730  0.61465  0.36153  Biso   1.000  Ne
  He425    1.0000 0.82279  0.61004  0.39405  Biso   1.000  He
  He426    1.0000 0.81640  0.57988  0.40443  Biso   1.000  He
  Ne426    1.0000 0.81250  0.57424  0.43758  Biso   1.000  Ne
  Ne427    1.0000 0.34940  0.71584  0.36863  Biso   1.000  Ne
  He427    1.0000 0.37310  0.72213  0.39399  Biso   1.000  He
  He428    1.0000 0.39711  0.70037  0.39398  Biso   1.000  He
  Ne428    1.0000 0.41920  0.71205  0.41662  Biso   1.000  Ne
  Ne429    1.0000 0.72695  0.00914  0.05321  Biso   1.000  Ne
  He429    1.0000 0.71476  0.97935  0.03924  Biso   1.000  He
  He430    1.0000 0.69815  0.96176  0.06012  Biso   1.000  He
  Ne430    1.0000 0.69214  0.93192  0.05048  Biso   1.000  Ne
  Ne431    1.0000 0.95391  0.16120  0.85428  Biso   1.000  Ne
  He431    1.0000 0.93387  0.15802  0.87962  Biso   1.000  He
  He432    1.0000 0.93850  0.17744  0.90858  Biso   1.000  He
  Ne432    1.0000 0.91341  0.17639  0.93005  Biso   1.000  Ne
  Ne433    1.0000 0.35014  0.81196  0.70135  Biso   1.000  Ne
  He433    1.0000 0.38197  0.81289  0.69184  Biso   1.000  He
  He434    1.0000 0.39908  0.83889  0.70415  Biso   1.000  He
  Ne434    1.0000 0.42867  0.84290  0.69183  Biso   1.000  Ne
  Ne435    1.0000 0.36254  0.38763  0.10891  Biso   1.000  Ne
  He435    1.0000 0.35044  0.36057  0.12495  Biso   1.000  He
  He436    1.0000 0.37087  0.34392  0.14481  Biso   1.000  He
  Ne436    1.0000 0.35733  0.31724  0.15731  Biso   1.000  Ne
  Ne437    1.0000 0.82378  0.63462  0.88320  Biso   1.000  Ne
  He437    1.0000 0.84735  0.62029  0.89738  Biso   1.000  He
  He438    1.0000 0.83929  0.61043  0.92864  Biso   1.000  He
  Ne438    1.0000 0.86174  0.58997  0.94169  Biso   1.000  Ne
  Ne439    1.0000 0.91455  0.22829  0.79335  Biso   1.000  Ne
  He439    1.0000 0.94097  0.23626  0.81291  Biso   1.000  He
  He440    1.0000 0.94093  0.26634  0.82362  Biso   1.000  He
  Ne440    1.0000 0.96043  0.27297  0.84941  Biso   1.000  Ne
  Ne441    1.0000 0.72754  0.05436  0.13637  Biso   1.000  Ne
  He441    1.0000 0.70256  0.07311  0.13688  Biso   1.000  He
  He442    1.0000 0.70197  0.09889  0.16017  Biso   1.000  He
  Ne442    1.0000 0.67586  0.11872  0.15470  Biso   1.000  Ne
  Ne443    1.0000 0.82683  0.56086  0.59514  Biso   1.000  Ne
  He443    1.0000 0.80954  0.57640  0.62134  Biso   1.000  He
  He444    1.0000 0.80861  0.55927  0.64879  Biso   1.000  He
  Ne444    1.0000 0.78778  0.57177  0.67374  Biso   1.000  Ne
  Ne445    1.0000 0.58720  0.66895  0.82241  Biso   1.000  Ne
  He445    1.0000 0.58693  0.67935  0.85294  Biso   1.000  He
  He446    1.0000 0.57119  0.65890  0.87492  Biso   1.000  He
  Ne446    1.0000 0.57356  0.66995  0.90559  Biso   1.000  Ne
  Ne447    1.0000 0.75248  0.59918  0.09333  Biso   1.000  Ne
  He447    1.0000 0.72228  0.58321  0.10003  Biso   1.000  He
  He448    1.0000 0.69674  0.59081  0.08062  Biso   1.000  He
  Ne448    1.0000 0.66927  0.57124  0.09047  Biso   1.000  Ne
  Ne449    1.0000 0.47915  0.01581  0.45265  Biso   1.000  Ne
  He449    1.0000 0.49228  0.98680  0.43954  Biso   1.000  He
  He450    1.0000 0.47200  0.96159  0.44147  Biso   1.000  He
  Ne450    1.0000 0.47822  0.93361  0.42355  Biso   1.000  Ne
  Ne451    1.0000 0.78893  0.02918  0.54789  Biso   1.000  Ne
  He451    1.0000 0.80055  0.00090  0.53912  Biso   1.000  He
  He452    1.0000 0.80429  0.99494  0.50635  Biso   1.000  He
  Ne452    1.0000 0.79927  0.96351  0.49626  Biso   1.000  Ne
  Ne453    1.0000 0.94642  0.25899  0.72526  Biso   1.000  Ne
  He453    1.0000 0.94190  0.28612  0.70743  Biso   1.000  He
  He454    1.0000 0.91776  0.30972  0.71679  Biso   1.000  He
  Ne454    1.0000 0.92926  0.33174  0.73786  Biso   1.000  Ne
  Ne455    1.0000 0.65036  0.33408  0.33845  Biso   1.000  Ne
  He455    1.0000 0.63196  0.32611  0.31250  Biso   1.000  He
  He456    1.0000 0.59968  0.32752  0.31924  Biso   1.000  He
  Ne456    1.0000 0.58147  0.32325  0.29146  Biso   1.000  Ne
  Ne457    1.0000 0.30661  0.51060  0.72873  Biso   1.000  Ne
  He457    1.0000 0.28341  0.53129  0.71918  Biso   1.000  He
  He458    1.0000 0.27233  0.54836  0.74724  Biso   1.000  He
  Ne458    1.0000 0.24568  0.56592  0.74368  Biso   1.000  Ne
  Ne459    1.0000 0.35688  0.08302  0.21594  Biso   1.000  Ne
  He459    1.0000 0.36679  0.09276  0.24679  Biso   1.000  He
  He460    1.0000 0.40023  0.09183  0.25158  Biso   1.000  He
  Ne460    1.0000 0.41087  0.09583  0.28208  Biso   1.000  Ne
  Ne461    1.0000 0.31673  0.78021  0.44962  Biso   1.000  Ne
  He461    1.0000 0.29147  0.76241  0.43397  Biso   1.000  He
  He462    1.0000 0.27826  0.77840  0.40974  Biso   1.000  He
  Ne462    1.0000 0.25176  0.76130  0.39531  Biso   1.000  Ne
  Ne463    1.0000 0.19994  0.32341  0.79236  Biso   1.000  Ne
  He463    1.0000 0.16779  0.32413  0.78265  Biso   1.000  He
  He464    1.0000 0.15544  0.29643  0.76720  Biso   1.000  He
  Ne464    1.0000 0.12327  0.29646  0.76486  Biso   1.000  Ne
  Ne465    1.0000 0.70325  0.07304  0.24298  Biso   1.000  Ne
  He465    1.0000 0.71731  0.08900  0.26987  Biso   1.000  He
  He466    1.0000 0.75125  0.08828  0.26977  Biso   1.000  He
  Ne466    1.0000 0.76372  0.10446  0.29449  Biso   1.000  Ne
  Ne467    1.0000 0.64870  0.29891  0.51497  Biso   1.000  Ne
  He467    1.0000 0.62599  0.31329  0.53330  Biso   1.000  He
  He468    1.0000 0.63610  0.34058  0.54980  Biso   1.000  He
  Ne468    1.0000 0.61419  0.35289  0.57229  Biso   1.000  Ne
  Ne469    1.0000 0.36636  0.62941  0.79021  Biso   1.000  Ne
  He469    1.0000 0.37560  0.63890  0.82025  Biso   1.000  He
  He470    1.0000 0.40628  0.63265  0.82351  Biso   1.000  He
  Ne470    1.0000 0.41699  0.65204  0.84843  Biso   1.000  Ne
  Ne471    1.0000 0.27565  0.16014  0.13356  Biso   1.000  Ne
  He471    1.0000 0.29059  0.17808  0.11083  Biso   1.000  He
  He472    1.0000 0.31843  0.16453  0.09638  Biso   1.000  He
  Ne472    1.0000 0.32949  0.18269  0.06950  Biso   1.000  Ne
  Ne473    1.0000 0.41686  0.66104  0.17065  Biso   1.000  Ne
  He473    1.0000 0.41789  0.66667  0.13708  Biso   1.000  He
  He474    1.0000 0.40888  0.64356  0.11508  Biso   1.000  He
  Ne474    1.0000 0.41487  0.65317  0.08614  Biso   1.000  Ne
  Ne475    1.0000 0.96466  0.10423  0.28153  Biso   1.000  Ne
  He475    1.0000 0.95017  0.12789  0.26024  Biso   1.000  He
  He476    1.0000 0.96149  0.15825  0.26690  Biso   1.000  He
  Ne476    1.0000 0.94399  0.18362  0.25141  Biso   1.000  Ne
  Ne477    1.0000 0.31036  0.30321  0.88219  Biso   1.000  Ne
  He477    1.0000 0.34163  0.30604  0.89336  Biso   1.000  He
  He478    1.0000 0.34110  0.30604  0.92556  Biso   1.000  He
  Ne478    1.0000 0.37054  0.31385  0.94162  Biso   1.000  Ne
  Ne479    1.0000 0.61548  0.96438  0.07783  Biso   1.000  Ne
  He479    1.0000 0.60163  0.96896  0.05015  Biso   1.000  He
  He480    1.0000 0.60637  0.94062  0.02944  Biso   1.000  He
  Ne480    1.0000 0.59525  0.94856  0.99723  Biso   1.000  Ne
  Ne481    1.0000 0.35603  0.41946  0.30342  Biso   1.000  Ne
  He481    1.0000 0.35311  0.42431  0.26959  Biso   1.000  He
  He482    1.0000 0.36467  0.39861  0.25333  Biso   1.000  He
  Ne482    1.0000 0.36203  0.39898  0.21931  Biso   1.000  Ne
  Ne483    1.0000 0.63243  0.09503  0.23829  Biso   1.000  Ne
  He483    1.0000 0.60226  0.07762  0.23730  Biso   1.000  He
  He484    1.0000 0.58038  0.09170  0.25754  Biso   1.000  He
  Ne484    1.0000 0.54978  0.07612  0.26229  Biso   1.000  Ne
  Ne485    1.0000 0.06585  0.00918  0.71574  Biso   1.000  Ne
  He485    1.0000 0.05025  0.98007  0.71774  Biso   1.000  He
  He486    1.0000 0.01864  0.97964  0.72118  Biso   1.000  He
  Ne486    1.0000 0.01203  0.95016  0.72916  Biso   1.000  Ne
  Ne487    1.0000 0.49729  0.18222  0.02666  Biso   1.000  Ne
  He487    1.0000 0.46782  0.19264  0.04023  Biso   1.000  He
  He488    1.0000 0.44098  0.18261  0.02138  Biso   1.000  He
  Ne488    1.0000 0.41124  0.18189  0.03558  Biso   1.000  Ne
  Ne489    1.0000 0.59001  0.68059  0.16237  Biso   1.000  Ne
  He489    1.0000 0.60136  0.70164  0.18627  Biso   1.000  He
  He490    1.0000 0.63056  0.69446  0.20266  Biso   1.000  He
  Ne490    1.0000 0.62932  0.71399  0.23173  Biso   1.000  Ne
  Ne491    1.0000 0.84754  0.29213  0.06831  Biso   1.000  Ne
  He491    1.0000 0.86840  0.26750  0.08063  Biso   1.000  He
  He492    1.0000 0.89457  0.28253  0.09931  Biso   1.000  He
  Ne492    1.0000 0.91230  0.26076  0.11769  Biso   1.000  Ne
  Ne493    1.0000 0.66209  0.89220  0.38356  Biso   1.000  Ne
  He493    1.0000 0.69067  0.88707  0.39233  Biso   1.000  He
  He494    1.0000 0.70074  0.90433  0.41822  Biso   1.000  He
  Ne494    1.0000 0.72897  0.90041  0.42777  Biso   1.000  Ne
  Ne495    1.0000 0.34459  0.94936  0.93902  Biso   1.000  Ne
  He495    1.0000 0.35971  0.97136  0.91882  Biso   1.000  He
  He496    1.0000 0.34641  0.97111  0.88856  Biso   1.000  He
  Ne496    1.0000 0.35942  0.99433  0.86662  Biso   1.000  Ne
  Ne497    1.0000 0.82127  0.06555  0.91054  Biso   1.000  Ne
  He497    1.0000 0.79609  0.06563  0.88759  Biso   1.000  He
  He498    1.0000 0.80585  0.07269  0.85716  Biso   1.000  He
  Ne498    1.0000 0.77958  0.07149  0.83694  Biso   1.000  Ne
  Ne499    1.0000 0.67480  0.40126  0.27459  Biso   1.000  Ne
  He499    1.0000 0.64781  0.41123  0.29222  Biso   1.000  He
  He500    1.0000 0.65542  0.42660  0.32144  Biso   1.000  He
  Ne500    1.0000 0.63050  0.44458  0.33444  Biso   1.000  Ne
  Ne501    1.0000 0.79353  0.42784  0.33168  Biso   1.000  Ne
  He501    1.0000 0.77143  0.44788  0.33876  Biso   1.000  He
  He502    1.0000 0.75463  0.45716  0.31244  Biso   1.000  He
  Ne502    1.0000 0.72946  0.47921  0.31616  Biso   1.000  Ne
  Ne503    1.0000 0.38728  0.57416  0.31350  Biso   1.000  Ne
  He503    1.0000 0.37134  0.54465  0.32037  Biso   1.000  He
  He504    1.0000 0.37292  0.53898  0.35445  Biso   1.000  He
  Ne504    1.0000 0.35390  0.51508  0.36671  Biso   1.000  Ne
  Ne505    1.0000 0.36607  0.17512  0.17412  Biso   1.000  Ne
  He505    1.0000 0.35689  0.20413  0.16088  Biso   1.000  He
  He506    1.0000 0.37462  0.21307  0.13382  Biso   1.000  He
  Ne506    1.0000 0.36137  0.24038  0.11954  Biso   1.000  Ne
  Ne507    1.0000 0.81196  0.08384  0.09025  Biso   1.000  Ne
  He507    1.0000 0.83353  0.10458  0.07526  Biso   1.000  He
  He508    1.0000 0.85128  0.12388  0.09385  Biso   1.000  He
  Ne508    1.0000 0.87835  0.13675  0.07729  Biso   1.000  Ne
  Ne509    1.0000 0.60892  0.83154  0.18205  Biso   1.000  Ne
  He509    1.0000 0.60711  0.81526  0.21261  Biso   1.000  He
  He510    1.0000 0.58343  0.82274  0.23327  Biso   1.000  He
  Ne510    1.0000 0.58216  0.80692  0.26321  Biso   1.000  Ne
  Ne511    1.0000 0.92468  0.89813  0.18640  Biso   1.000  Ne
  He511    1.0000 0.89957  0.91226  0.20438  Biso   1.000  He
  He512    1.0000 0.87852  0.88903  0.21117  Biso   1.000  He
  Ne512    1.0000 0.85352  0.89983  0.23045  Biso   1.000  Ne
  Ne513    1.0000 0.58842  0.95731  0.44637  Biso   1.000  Ne
  He513    1.0000 0.58898  0.93231  0.42386  Biso   1.000  He
  He514    1.0000 0.59719  0.90595  0.44037  Biso   1.000  He
  Ne514    1.0000 0.59308  0.87979  0.42347  Biso   1.000  Ne
  Ne515    1.0000 0.42509  0.29795  0.28938  Biso   1.000  Ne
  He515    1.0000 0.41655  0.33090  0.29520  Biso   1.000  He
  He516    1.0000 0.44124  0.35320  0.28679  Biso   1.000  He
  Ne516    1.0000 0.43472  0.38583  0.29054  Biso   1.000  Ne
  Ne517    1.0000 0.30732  0.17801  0.25936  Biso   1.000  Ne
  He517    1.0000 0.28474  0.20099  0.25272  Biso   1.000  He
  He518    1.0000 0.28844  0.21801  0.22427  Biso   1.000  He
  Ne518    1.0000 0.27343  0.24605  0.21913  Biso   1.000  Ne
  Ne519    1.0000 0.44700  0.98330  0.99225  Biso   1.000  Ne
  He519    1.0000 0.43844  0.97850  0.02351  Biso   1.000  He
  He520    1.0000 0.45908  0.96084  0.04389  Biso   1.000  He
  Ne520    1.0000 0.44170  0.95906  0.07191  Biso   1.000  Ne
  Ne521    1.0000 0.34476  0.08503  0.03607  Biso   1.000  Ne
  He521    1.0000 0.32871  0.10570  0.01747  Biso   1.000  He
  He522    1.0000 0.32883  0.09733  0.98366  Biso   1.000  He
  Ne522    1.0000 0.31064  0.12175  0.96742  Biso   1.000  Ne
  Ne523    1.0000 0.08374  0.85986  0.31439  Biso   1.000  Ne
  He523    1.0000 0.08094  0.87827  0.28696  Biso   1.000  He
  He524    1.0000 0.10684  0.88094  0.26836  Biso   1.000  He
  Ne524    1.0000 0.09968  0.89451  0.23988  Biso   1.000  Ne
  Ne525    1.0000 0.48935  0.43802  0.97370  Biso   1.000  Ne
  He525    1.0000 0.46495  0.41637  0.96876  Biso   1.000  He
  He526    1.0000 0.47582  0.38992  0.95433  Biso   1.000  He
  Ne526    1.0000 0.45257  0.36740  0.94682  Biso   1.000  Ne
  Ne527    1.0000 0.91526  0.69107  0.66231  Biso   1.000  Ne
  He527    1.0000 0.91988  0.68409  0.62905  Biso   1.000  He
  He528    1.0000 0.93109  0.65318  0.62338  Biso   1.000  He
  Ne528    1.0000 0.92888  0.64318  0.59007  Biso   1.000  Ne
  Ne529    1.0000 0.75374  0.34149  0.88381  Biso   1.000  Ne
  He529    1.0000 0.73661  0.31565  0.89676  Biso   1.000  He
  He530    1.0000 0.71683  0.32092  0.91794  Biso   1.000  He
  Ne530    1.0000 0.69993  0.29360  0.92564  Biso   1.000  Ne
  Ne531    1.0000 0.51108  0.34810  0.35122  Biso   1.000  Ne
  He531    1.0000 0.48398  0.33526  0.36044  Biso   1.000  He
  He532    1.0000 0.48257  0.30230  0.35856  Biso   1.000  He
  Ne532    1.0000 0.45436  0.28672  0.37121  Biso   1.000  Ne
  Ne533    1.0000 0.37882  0.57204  0.59447  Biso   1.000  Ne
  He533    1.0000 0.39824  0.58899  0.57552  Biso   1.000  He
  He534    1.0000 0.41309  0.61302  0.59312  Biso   1.000  He
  Ne534    1.0000 0.42770  0.63807  0.57514  Biso   1.000  Ne
  Ne535    1.0000 0.62579  0.28234  0.08507  Biso   1.000  Ne
  He535    1.0000 0.65622  0.27076  0.09545  Biso   1.000  He
  He536    1.0000 0.65858  0.23941  0.10832  Biso   1.000  He
  Ne536    1.0000 0.66507  0.21809  0.08236  Biso   1.000  Ne
  Ne537    1.0000 0.84324  0.31628  0.58675  Biso   1.000  Ne
  He537    1.0000 0.85051  0.34726  0.59528  Biso   1.000  He
  He538    1.0000 0.83949  0.36783  0.57218  Biso   1.000  He
  Ne538    1.0000 0.84542  0.40120  0.57659  Biso   1.000  Ne
  Ne539    1.0000 0.44895  0.40873  0.51633  Biso   1.000  Ne
  He539    1.0000 0.47945  0.42003  0.52038  Biso   1.000  He
  He540    1.0000 0.50077  0.42015  0.49518  Biso   1.000  He
  Ne540    1.0000 0.52895  0.43920  0.49895  Biso   1.000  Ne
  Ne541    1.0000 0.05500  0.84144  0.62548  Biso   1.000  Ne
  He541    1.0000 0.03677  0.83110  0.65094  Biso   1.000  He
  He542    1.0000 0.02873  0.80077  0.64574  Biso   1.000  He
  Ne542    1.0000 0.01526  0.78449  0.67265  Biso   1.000  Ne
  Ne543    1.0000 0.03220  0.42123  0.57195  Biso   1.000  Ne
  He543    1.0000 0.06122  0.43476  0.58355  Biso   1.000  He
  He544    1.0000 0.08953  0.42170  0.57067  Biso   1.000  He
  Ne544    1.0000 0.11578  0.42806  0.58898  Biso   1.000  Ne
  Ne545    1.0000 0.47110  0.20667  0.94612  Biso   1.000  Ne
  He545    1.0000 0.46714  0.17922  0.92904  Biso   1.000  He
  He546    1.0000 0.44461  0.18370  0.90265  Biso   1.000  He
  Ne546    1.0000 0.44121  0.15559  0.88599  Biso   1.000  Ne
  Ne547    1.0000 0.22857  0.57404  0.22799  Biso   1.000  Ne
  He547    1.0000 0.25318  0.58415  0.24547  Biso   1.000  He
  He548    1.0000 0.24588  0.60686  0.26648  Biso   1.000  He
  Ne548    1.0000 0.27434  0.62095  0.27666  Biso   1.000  Ne
  Ne549    1.0000 0.43638  0.16037  0.23599  Biso   1.000  Ne
  He549    1.0000 0.46235  0.18151  0.24566  Biso   1.000  He
  He550    1.0000 0.47373  0.20417  0.22229  Biso   1.000  He
  Ne550    1.0000 0.46109  0.23614  0.22540  Biso   1.000  Ne
  Ne551    1.0000 0.21975  0.29560  0.87214  Biso   1.000  Ne
  He551    1.0000 0.21267  0.28190  0.90082  Biso   1.000  He
  He552    1.0000 0.23758  0.26854  0.91768  Biso   1.000  He
  Ne552    1.0000 0.23034  0.25396  0.94636  Biso   1.000  Ne
  Ne553    1.0000 0.93840  0.36254  0.27808  Biso   1.000  Ne
  He553    1.0000 0.91470  0.38276  0.28586  Biso   1.000  He
  He554    1.0000 0.92554  0.41441  0.28884  Biso   1.000  He
  Ne554    1.0000 0.90325  0.43698  0.29663  Biso   1.000  Ne
  Ne555    1.0000 0.36678  0.63157  0.24599  Biso   1.000  Ne
  He555    1.0000 0.34583  0.60688  0.24147  Biso   1.000  He
  He556    1.0000 0.34540  0.59777  0.20725  Biso   1.000  He
  Ne556    1.0000 0.32849  0.57036  0.19976  Biso   1.000  Ne
  Ne557    1.0000 0.43467  0.14709  0.36746  Biso   1.000  Ne
  He557    1.0000 0.42324  0.15991  0.34382  Biso   1.000  He
  He558    1.0000 0.40061  0.18302  0.34740  Biso   1.000  He
  Ne558    1.0000 0.41035  0.21584  0.34364  Biso   1.000  Ne
  Ne559    1.0000 0.71601  0.72147  0.74180  Biso   1.000  Ne
  He559    1.0000 0.73727  0.73718  0.76099  Biso   1.000  He
  He560    1.0000 0.76638  0.72178  0.77176  Biso   1.000  He
  Ne560    1.0000 0.78656  0.73884  0.79272  Biso   1.000  Ne
  Ne561    1.0000 0.09637  0.11421  0.12195  Biso   1.000  Ne
  He561    1.0000 0.08982  0.09774  0.09248  Biso   1.000  He
  He562    1.0000 0.11371  0.07367  0.08347  Biso   1.000  He
  Ne562    1.0000 0.10528  0.05646  0.05671  Biso   1.000  Ne
  Ne563    1.0000 0.14289  0.06922  0.20854  Biso   1.000  Ne
  He563    1.0000 0.15842  0.08378  0.23228  Biso   1.000  He
  He564    1.0000 0.18783  0.07102  0.23534  Biso   1.000  He
  Ne564    1.0000 0.20031  0.08185  0.26407  Biso   1.000  Ne
  Ne565    1.0000 0.30009  0.75574  0.29174  Biso   1.000  Ne
  He565    1.0000 0.32047  0.77515  0.27276  Biso   1.000  He
  He566    1.0000 0.31892  0.77027  0.23828  Biso   1.000  He
  Ne566    1.0000 0.34184  0.78254  0.21781  Biso   1.000  Ne
  Ne567    1.0000 0.86843  0.39179  0.39116  Biso   1.000  Ne
  He567    1.0000 0.86030  0.36742  0.36969  Biso   1.000  He
  He568    1.0000 0.84672  0.34033  0.38198  Biso   1.000  He
  Ne568    1.0000 0.84064  0.31758  0.35816  Biso   1.000  Ne
  Ne569    1.0000 0.08096  0.63060  0.82015  Biso   1.000  Ne
  He569    1.0000 0.08507  0.65938  0.83320  Biso   1.000  He
  He570    1.0000 0.05489  0.67454  0.83884  Biso   1.000  He
  Ne570    1.0000 0.05980  0.70135  0.85672  Biso   1.000  Ne
  Ne571    1.0000 0.92705  0.60752  0.30028  Biso   1.000  Ne
  He571    1.0000 0.92157  0.61590  0.33254  Biso   1.000  He
  He572    1.0000 0.91421  0.64861  0.33898  Biso   1.000  He
  Ne572    1.0000 0.91006  0.65966  0.36983  Biso   1.000  Ne
  Ne573    1.0000 0.83607  0.45487  0.82977  Biso   1.000  Ne
  He573    1.0000 0.83496  0.44160  0.80071  Biso   1.000  He
  He574    1.0000 0.83781  0.40858  0.79379  Biso   1.000  He
  Ne574    1.0000 0.83693  0.40185  0.76143  Biso   1.000  Ne
  Ne575    1.0000 0.01397  0.36096  0.11100  Biso   1.000  Ne
  He575    1.0000 0.01598  0.32771  0.11084  Biso   1.000  He
  He576    1.0000 0.98770  0.31176  0.11229  Biso   1.000  He
  Ne576    1.0000 0.98990  0.27747  0.11115  Biso   1.000  Ne
  Ne577    1.0000 0.95741  0.35411  0.83025  Biso   1.000  Ne
  He577    1.0000 0.98912  0.35710  0.83731  Biso   1.000  He
  He578    1.0000 0.00996  0.36274  0.81187  Biso   1.000  He
  Ne578    1.0000 0.04045  0.36564  0.81979  Biso   1.000  Ne
  Ne579    1.0000 0.45340  0.69411  0.64476  Biso   1.000  Ne
  He579    1.0000 0.42293  0.69217  0.65320  Biso   1.000  He
  He580    1.0000 0.40766  0.72005  0.64842  Biso   1.000  He
  Ne580    1.0000 0.37534  0.71847  0.65181  Biso   1.000  Ne
  Ne581    1.0000 0.57913  0.36443  0.75544  Biso   1.000  Ne
  He581    1.0000 0.58141  0.38653  0.78293  Biso   1.000  He
  He582    1.0000 0.57537  0.37185  0.81282  Biso   1.000  He
  Ne582    1.0000 0.57516  0.39494  0.83797  Biso   1.000  Ne
  Ne583    1.0000 0.79009  0.44761  0.07880  Biso   1.000  Ne
  He583    1.0000 0.81198  0.44680  0.10251  Biso   1.000  He
  He584    1.0000 0.79881  0.44408  0.13196  Biso   1.000  He
  Ne584    1.0000 0.81830  0.44265  0.15839  Biso   1.000  Ne
  Ne585    1.0000 0.03491  0.56939  0.49576  Biso   1.000  Ne
  He585    1.0000 0.05829  0.56014  0.51683  Biso   1.000  He
  He586    1.0000 0.05487  0.57696  0.54315  Biso   1.000  He
  Ne586    1.0000 0.08435  0.57996  0.56152  Biso   1.000  Ne
  Ne587    1.0000 0.61484  0.15749  0.08292  Biso   1.000  Ne
  He587    1.0000 0.59564  0.16859  0.05786  Biso   1.000  He
  He588    1.0000 0.60862  0.19333  0.03977  Biso   1.000  He
  Ne588    1.0000 0.58599  0.20401  0.01459  Biso   1.000  Ne
  Ne589    1.0000 0.64641  0.05493  0.05583  Biso   1.000  Ne
  He589    1.0000 0.63032  0.04857  0.08461  Biso   1.000  He
  He590    1.0000 0.60320  0.06883  0.09308  Biso   1.000  He
  Ne590    1.0000 0.59202  0.06508  0.12280  Biso   1.000  Ne
  Ne591    1.0000 0.07693  0.72115  0.05072  Biso   1.000  Ne
  He591    1.0000 0.09114  0.73867  0.07438  Biso   1.000  He
  He592    1.0000 0.07039  0.76046  0.09047  Biso   1.000  He
  Ne592    1.0000 0.08779  0.77942  0.11227  Biso   1.000  Ne
  Ne593    1.0000 0.19181  0.14693  0.92087  Biso   1.000  Ne
  He593    1.0000 0.16409  0.13987  0.90332  Biso   1.000  He
  He594    1.0000 0.13977  0.12455  0.91982  Biso   1.000  He
  Ne594    1.0000 0.11516  0.14295  0.93430  Biso   1.000  Ne
  Ne595    1.0000 0.78341  0.33952  0.07509  Biso   1.000  Ne
  He595    1.0000 0.75681  0.35510  0.08570  Biso   1.000  He
  He596    1.0000 0.73388  0.33453  0.09544  Biso   1.000  He
  Ne596    1.0000 0.70722  0.34805  0.10519  Biso   1.000  Ne
  Ne597    1.0000 0.63899  0.05202  0.73465  Biso   1.000  Ne
  He597    1.0000 0.64192  0.07547  0.71042  Biso   1.000  He
  He598    1.0000 0.61733  0.07756  0.68701  Biso   1.000  He
  Ne598    1.0000 0.62323  0.10221  0.66299  Biso   1.000  Ne
  Ne599    1.0000 0.80126  0.63777  0.76980  Biso   1.000  Ne
  He599    1.0000 0.80425  0.63712  0.73709  Biso   1.000  He
  He600    1.0000 0.83509  0.64616  0.72514  Biso   1.000  He
  Ne600    1.0000 0.83677  0.63855  0.69303  Biso   1.000  Ne
  Ne601    1.0000 0.76253  0.81943  0.93852  Biso   1.000  Ne
  He601    1.0000 0.73106  0.83314  0.93881  Biso   1.000  He
  He602    1.0000 0.72628  0.85705  0.91711  Biso   1.000  He
  Ne602    1.0000 0.69428  0.86676  0.91370  Biso   1.000  Ne
  Ne603    1.0000 0.66011  0.37987  0.84180  Biso   1.000  Ne
  He603    1.0000 0.66536  0.40893  0.85863  Biso   1.000  He
  He604    1.0000 0.66982  0.40313  0.89047  Biso   1.000  He
  Ne604    1.0000 0.67827  0.42911  0.91224  Biso   1.000  Ne
  Ne605    1.0000 0.48312  0.56078  0.97529  Biso   1.000  Ne
  He605    1.0000 0.45765  0.55417  0.95618  Biso   1.000  He
  He606    1.0000 0.46511  0.56040  0.92394  Biso   1.000  He
  Ne606    1.0000 0.44157  0.54917  0.90465  Biso   1.000  Ne
  Ne607    1.0000 0.09459  0.37680  0.34320  Biso   1.000  Ne
  He607    1.0000 0.10287  0.35418  0.36490  Biso   1.000  He
  He608    1.0000 0.10417  0.32485  0.35034  Biso   1.000  He
  Ne608    1.0000 0.11742  0.29948  0.36906  Biso   1.000  Ne
  Ne609    1.0000 0.86746  0.80831  0.47326  Biso   1.000  Ne
  He609    1.0000 0.85381  0.83363  0.48835  Biso   1.000  He
  He610    1.0000 0.82680  0.82756  0.50520  Biso   1.000  He
  Ne610    1.0000 0.81721  0.85227  0.52562  Biso   1.000  Ne
  Ne611    1.0000 0.11028  0.71145  0.36295  Biso   1.000  Ne
  He611    1.0000 0.09192  0.69144  0.38394  Biso   1.000  He
  He612    1.0000 0.10501  0.66270  0.39336  Biso   1.000  He
  Ne612    1.0000 0.08239  0.64617  0.41016  Biso   1.000  Ne
  Ne613    1.0000 0.11341  0.92513  0.94974  Biso   1.000  Ne
  He613    1.0000 0.10751  0.95338  0.97086  Biso   1.000  He
  He614    1.0000 0.08688  0.94439  0.99684  Biso   1.000  He
  Ne614    1.0000 0.07275  0.96838  0.01641  Biso   1.000  Ne
  Ne615    1.0000 0.44244  0.91798  0.91115  Biso   1.000  Ne
  He615    1.0000 0.46275  0.89449  0.92635  Biso   1.000  He
  He616    1.0000 0.48422  0.90854  0.94869  Biso   1.000  He
  Ne616    1.0000 0.50640  0.88600  0.96277  Biso   1.000  Ne
  Ne617    1.0000 0.06734  0.57868  0.92934  Biso   1.000  Ne
  He617    1.0000 0.05417  0.58662  0.95929  Biso   1.000  He
  He618    1.0000 0.02274  0.58826  0.95733  Biso   1.000  He
  Ne618    1.0000 0.00438  0.60120  0.98471  Biso   1.000  Ne
  Ne619    1.0000 0.19065  0.33465  0.35590  Biso   1.000  Ne
  He619    1.0000 0.20034  0.30561  0.36691  Biso   1.000  He
  He620    1.0000 0.22158  0.31077  0.39125  Biso   1.000  He
  Ne620    1.0000 0.23574  0.28223  0.39737  Biso   1.000  Ne
  Ne621    1.0000 0.68163  0.72899  0.08196  Biso   1.000  Ne
  He621    1.0000 0.66803  0.74227  0.11060  Biso   1.000  He
  He622    1.0000 0.68815  0.75676  0.13357  Biso   1.000  He
  Ne622    1.0000 0.67127  0.76721  0.15717  Biso   1.000  Ne
  Ne623    1.0000 0.17710  0.79189  0.11210  Biso   1.000  Ne
  He623    1.0000 0.20814  0.79978  0.12054  Biso   1.000  He
  He624    1.0000 0.20811  0.82789  0.13776  Biso   1.000  He
  Ne624    1.0000 0.23702  0.83977  0.15008  Biso   1.000  Ne
  Ne625    1.0000 0.18814  0.34496  0.06177  Biso   1.000  Ne
  He625    1.0000 0.21403  0.32775  0.05084  Biso   1.000  He
  He626    1.0000 0.21470  0.31847  0.01785  Biso   1.000  He
  Ne626    1.0000 0.24333  0.30216  0.00676  Biso   1.000  Ne
  Ne627    1.0000 0.93490  0.39416  0.69240  Biso   1.000  Ne
  He627    1.0000 0.90705  0.41147  0.68560  Biso   1.000  He
  He628    1.0000 0.88349  0.39545  0.67079  Biso   1.000  He
  Ne628    1.0000 0.85680  0.41419  0.66120  Biso   1.000  Ne
  Ne629    1.0000 0.72906  0.05929  0.65905  Biso   1.000  Ne
  He629    1.0000 0.73012  0.07429  0.68717  Biso   1.000  He
  He630    1.0000 0.72977  0.10651  0.68439  Biso   1.000  He
  Ne630    1.0000 0.72724  0.12344  0.71187  Biso   1.000  Ne
  Ne631    1.0000 0.82992  0.77524  0.09518  Biso   1.000  Ne
  He631    1.0000 0.82410  0.79828  0.11630  Biso   1.000  He
  He632    1.0000 0.84518  0.79793  0.14239  Biso   1.000  He
  Ne632    1.0000 0.84313  0.82250  0.16410  Biso   1.000  Ne
  Ne633    1.0000 0.75619  0.33560  0.28714  Biso   1.000  Ne
  He633    1.0000 0.74022  0.34780  0.31273  Biso   1.000  He
  He634    1.0000 0.73807  0.32952  0.33849  Biso   1.000  He
  Ne634    1.0000 0.72073  0.34073  0.36262  Biso   1.000  Ne
  Ne635    1.0000 0.72572  0.12658  0.58851  Biso   1.000  Ne
  He635    1.0000 0.69823  0.10827  0.57905  Biso   1.000  He
  He636    1.0000 0.70024  0.07419  0.58204  Biso   1.000  He
  Ne636    1.0000 0.67210  0.05633  0.57759  Biso   1.000  Ne
  Ne637    1.0000 0.32480  0.72177  0.78816  Biso   1.000  Ne
  He637    1.0000 0.34223  0.72381  0.76126  Biso   1.000  He
  He638    1.0000 0.36750  0.70482  0.76102  Biso   1.000  He
  Ne638    1.0000 0.38381  0.70051  0.72971  Biso   1.000  Ne
  Ne639    1.0000 0.15532  0.68673  0.02657  Biso   1.000  Ne
  He639    1.0000 0.13923  0.67346  0.00219  Biso   1.000  He
  He640    1.0000 0.11950  0.69319  0.98687  Biso   1.000  He
  Ne640    1.0000 0.09710  0.68060  0.96457  Biso   1.000  Ne
  Ne641    1.0000 0.27843  0.87948  0.95135  Biso   1.000  Ne
  He641    1.0000 0.24649  0.89053  0.94867  Biso   1.000  He
  He642    1.0000 0.23797  0.89475  0.91879  Biso   1.000  He
  Ne642    1.0000 0.20752  0.90457  0.91267  Biso   1.000  Ne
  Ne643    1.0000 0.14023  0.08558  0.83244  Biso   1.000  Ne
  He643    1.0000 0.13236  0.08427  0.79906  Biso   1.000  He
  He644    1.0000 0.15602  0.07154  0.78010  Biso   1.000  He
  Ne644    1.0000 0.14707  0.07033  0.74876  Biso   1.000  Ne
  Ne645    1.0000 0.00595  0.59527  0.83200  Biso   1.000  Ne
  He645    1.0000 0.01837  0.57008  0.85257  Biso   1.000  He
  He646    1.0000 0.04570  0.55737  0.84052  Biso   1.000  He
  Ne646    1.0000 0.04168  0.52933  0.82275  Biso   1.000  Ne
  Ne647    1.0000 0.66067  0.89970  0.70350  Biso   1.000  Ne
  He647    1.0000 0.68451  0.88050  0.71043  Biso   1.000  He
  He648    1.0000 0.70943  0.89320  0.73057  Biso   1.000  He
  Ne648    1.0000 0.73757  0.87761  0.73233  Biso   1.000  Ne
  Ne649    1.0000 0.90618  0.75798  0.10665  Biso   1.000  Ne
  He649    1.0000 0.91836  0.78603  0.09248  Biso   1.000  He
  He650    1.0000 0.90931  0.81509  0.10454  Biso   1.000  He
  Ne650    1.0000 0.92062  0.84133  0.08899  Biso   1.000  Ne
  Ne651    1.0000 0.78849  0.89731  0.15402  Biso   1.000  Ne
  He651    1.0000 0.80937  0.89520  0.12819  Biso   1.000  He
  He652    1.0000 0.83583  0.91246  0.12717  Biso   1.000  He
  Ne652    1.0000 0.85785  0.90740  0.10483  Biso   1.000  Ne
  Ne653    1.0000 0.90304  0.75377  0.92560  Biso   1.000  Ne
  He653    1.0000 0.90821  0.78733  0.92049  Biso   1.000  He
  He654    1.0000 0.91662  0.79415  0.89096  Biso   1.000  He
  Ne654    1.0000 0.92932  0.82580  0.88569  Biso   1.000  Ne
  Ne655    1.0000 0.74742  0.83680  0.28782  Biso   1.000  Ne
  He655    1.0000 0.74315  0.84889  0.25569  Biso   1.000  He
  He656    1.0000 0.71561  0.83527  0.24207  Biso   1.000  He
  Ne656    1.0000 0.70845  0.84483  0.21133  Biso   1.000  Ne
  Ne657    1.0000 0.86032  0.66893  0.19908  Biso   1.000  Ne
  He657    1.0000 0.83785  0.68133  0.18158  Biso   1.000  He
  He658    1.0000 0.83543  0.71295  0.18701  Biso   1.000  He
  Ne658    1.0000 0.81238  0.72840  0.17027  Biso   1.000  Ne
  Ne659    1.0000 0.14421  0.81234  0.81708  Biso   1.000  Ne
  He659    1.0000 0.12062  0.81625  0.79439  Biso   1.000  He
  He660    1.0000 0.12195  0.79429  0.76972  Biso   1.000  He
  Ne660    1.0000 0.10159  0.79825  0.74621  Biso   1.000  Ne
  Ne661    1.0000 0.97931  0.45780  0.42433  Biso   1.000  Ne
  He661    1.0000 0.98502  0.46792  0.45569  Biso   1.000  He
  He662    1.0000 0.01750  0.46687  0.46625  Biso   1.000  He
  Ne662    1.0000 0.02610  0.47146  0.49961  Biso   1.000  Ne
  Ne663    1.0000 0.09771  0.23044  0.82098  Biso   1.000  Ne
  He663    1.0000 0.12771  0.22614  0.83085  Biso   1.000  He
  He664    1.0000 0.13516  0.19448  0.83721  Biso   1.000  He
  Ne664    1.0000 0.16627  0.18827  0.83981  Biso   1.000  Ne
  Ne665    1.0000 0.66052  0.56915  0.73937  Biso   1.000  Ne
  He665    1.0000 0.63672  0.57394  0.76109  Biso   1.000  He
  He666    1.0000 0.61075  0.55512  0.75068  Biso   1.000  He
  Ne666    1.0000 0.58096  0.55628  0.76825  Biso   1.000  Ne
  Ne667    1.0000 0.44925  0.92496  0.63611  Biso   1.000  Ne
  He667    1.0000 0.45418  0.92882  0.60388  Biso   1.000  He
  He668    1.0000 0.42778  0.91839  0.58433  Biso   1.000  He
  Ne668    1.0000 0.43839  0.91858  0.55433  Biso   1.000  Ne
  Ne669    1.0000 0.45741  0.16522  0.12177  Biso   1.000  Ne
  He669    1.0000 0.43937  0.14016  0.10866  Biso   1.000  He
  He670    1.0000 0.42379  0.12060  0.12799  Biso   1.000  He
  Ne670    1.0000 0.40903  0.09288  0.11382  Biso   1.000  Ne
  Ne671    1.0000 0.40153  0.60605  0.94031  Biso   1.000  Ne
  He671    1.0000 0.41994  0.63240  0.93002  Biso   1.000  He
  He672    1.0000 0.40047  0.65946  0.93037  Biso   1.000  He
  Ne672    1.0000 0.41702  0.68843  0.92251  Biso   1.000  Ne
  Ne673    1.0000 0.01350  0.69332  0.92315  Biso   1.000  Ne
  He673    1.0000 0.98635  0.68512  0.90901  Biso   1.000  He
  He674    1.0000 0.97900  0.70980  0.88655  Biso   1.000  He
  Ne674    1.0000 0.95176  0.70915  0.86954  Biso   1.000  Ne
  Ne675    1.0000 0.16511  0.56818  0.16493  Biso   1.000  Ne
  He675    1.0000 0.14552  0.57339  0.19144  Biso   1.000  He
  He676    1.0000 0.14723  0.60631  0.20335  Biso   1.000  He
  Ne676    1.0000 0.12320  0.61431  0.22639  Biso   1.000  Ne
  Ne677    1.0000 0.64901  0.08077  0.32284  Biso   1.000  Ne
  He677    1.0000 0.62273  0.09783  0.32030  Biso   1.000  He
  He678    1.0000 0.59907  0.09060  0.34155  Biso   1.000  He
  Ne678    1.0000 0.57235  0.11059  0.34004  Biso   1.000  Ne
  Ne679    1.0000 0.52330  0.60005  0.66824  Biso   1.000  Ne
  He679    1.0000 0.53017  0.61158  0.63783  Biso   1.000  He
  He680    1.0000 0.50480  0.62209  0.61901  Biso   1.000  He
  Ne680    1.0000 0.51126  0.62705  0.58810  Biso   1.000  Ne
  Ne681    1.0000 0.57786  0.87873  0.60818  Biso   1.000  Ne
  He681    1.0000 0.60649  0.86129  0.60811  Biso   1.000  He
  He682    1.0000 0.60831  0.83213  0.59501  Biso   1.000  He
  Ne682    1.0000 0.63722  0.81885  0.58865  Biso   1.000  Ne
  Ne683    1.0000 0.43783  0.13398  0.71327  Biso   1.000  Ne
  He683    1.0000 0.45264  0.10823  0.69846  Biso   1.000  He
  He684    1.0000 0.43563  0.09299  0.67270  Biso   1.000  He
  Ne684    1.0000 0.45468  0.06954  0.65967  Biso   1.000  Ne
  Ne685    1.0000 0.36009  0.16593  0.59675  Biso   1.000  Ne
  He685    1.0000 0.36404  0.13575  0.60209  Biso   1.000  He
  He686    1.0000 0.34126  0.11302  0.59101  Biso   1.000  He
  Ne686    1.0000 0.34923  0.08080  0.59955  Biso   1.000  Ne
  Ne687    1.0000 0.72609  0.55289  0.35025  Biso   1.000  Ne
  He687    1.0000 0.71564  0.56425  0.37822  Biso   1.000  He
  He688    1.0000 0.71200  0.54247  0.40277  Biso   1.000  He
  Ne688    1.0000 0.70473  0.55865  0.42978  Biso   1.000  Ne
  Ne689    1.0000 0.59615  0.11428  0.43356  Biso   1.000  Ne
  He689    1.0000 0.58500  0.08407  0.42328  Biso   1.000  He
  He690    1.0000 0.55327  0.07867  0.42459  Biso   1.000  He
  Ne690    1.0000 0.54575  0.04950  0.41201  Biso   1.000  Ne
  Ne691    1.0000 0.17303  0.66106  0.58982  Biso   1.000  Ne
  He691    1.0000 0.14271  0.66688  0.58235  Biso   1.000  He
  He692    1.0000 0.11930  0.65148  0.59818  Biso   1.000  He
  Ne692    1.0000 0.08933  0.66090  0.58916  Biso   1.000  Ne
  Ne693    1.0000 0.44945  0.86454  0.41384  Biso   1.000  Ne
  He693    1.0000 0.42715  0.84041  0.41492  Biso   1.000  He
  He694    1.0000 0.42599  0.81873  0.38873  Biso   1.000  He
  Ne694    1.0000 0.39641  0.79978  0.39153  Biso   1.000  Ne
  Ne695    1.0000 0.44881  0.78596  0.97596  Biso   1.000  Ne
  He695    1.0000 0.47441  0.76792  0.96324  Biso   1.000  He
  He696    1.0000 0.49977  0.78862  0.95726  Biso   1.000  He
  Ne696    1.0000 0.52564  0.77345  0.94169  Biso   1.000  Ne
  Ne697    1.0000 0.57384  0.03591  0.84930  Biso   1.000  Ne
  He697    1.0000 0.58215  0.03500  0.82032  Biso   1.000  He
  He698    1.0000 0.59039  0.00443  0.81216  Biso   1.000  He
  Ne698    1.0000 0.59689  0.99890  0.78042  Biso   1.000  Ne
  Ne699    1.0000 0.16785  0.91015  0.09659  Biso   1.000  Ne
  He699    1.0000 0.19859  0.92571  0.09266  Biso   1.000  He
  He700    1.0000 0.22457  0.90325  0.09420  Biso   1.000  He
  Ne700    1.0000 0.25180  0.91900  0.08261  Biso   1.000  Ne
