data_image0
_cell_length_a       46.514
_cell_length_b       46.5621
_cell_length_c       46.5413
_cell_angle_alpha    90
_cell_angle_beta     90
_cell_angle_gamma    90

_symmetry_space_group_name_H-M    "P 1"
_symmetry_int_tables_number       1

loop_
  _symmetry_equiv_pos_as_xyz
  'x, y, z'

loop_
  _atom_site_label
  _atom_site_occupancy
  _atom_site_fract_x
  _atom_site_fract_y
  _atom_site_fract_z
  _atom_site_thermal_displace_type
  _atom_site_B_iso_or_equiv
  _atom_site_type_symbol
  Ne1      1.0000 0.52723  0.56824  0.07870  Biso   1.000  Ne
  He1      1.0000 0.51602  0.56895  0.04766  Biso   1.000  He
  He2      1.0000 0.48406  0.56133  0.04358  Biso   1.000  He
  Ne2      1.0000 0.47241  0.55869  0.01321  Biso   1.000  Ne
  Ne3      1.0000 0.25741  0.08643  0.37429  Biso   1.000  Ne
  He3      1.0000 0.26246  0.10825  0.40038  Biso   1.000  He
  He4      1.0000 0.28219  0.09502  0.42254  Biso   1.000  He
  Ne4      1.0000 0.29057  0.11621  0.44550  Biso   1.000  Ne
  Ne5      1.0000 0.27362  0.91439  0.04909  Biso   1.000  Ne
  He5      1.0000 0.25412  0.92416  0.07290  Biso   1.000  He
  He6      1.0000 0.25747  0.90871  0.10072  Biso   1.000  He
  Ne6      1.0000 0.22927  0.91093  0.11909  Biso   1.000  Ne
  Ne7      1.0000 0.85881  0.65854  0.45295  Biso   1.000  Ne
  He7      1.0000 0.88243  0.67150  0.43262  Biso   1.000  He
  He8      1.0000 0.88263  0.65961  0.40176  Biso   1.000  He
  Ne8      1.0000 0.90823  0.67212  0.38314  Biso   1.000  Ne
  Ne9      1.0000 0.80877  0.56082  0.18960  Biso   1.000  Ne
  He9      1.0000 0.79989  0.55645  0.22227  Biso   1.000  He
  He10     1.0000 0.81508  0.57675  0.24387  Biso   1.000  He
  Ne10     1.0000 0.81550  0.56518  0.27681  Biso   1.000  Ne
  Ne11     1.0000 0.47865  0.49489  0.96006  Biso   1.000  Ne
  He11     1.0000 0.49279  0.47362  0.94078  Biso   1.000  He
  He12     1.0000 0.52483  0.46487  0.95375  Biso   1.000  He
  Ne12     1.0000 0.53645  0.43896  0.93554  Biso   1.000  Ne
  Ne13     1.0000 0.43216  0.42737  0.91452  Biso   1.000  Ne
  He13     1.0000 0.43344  0.41404  0.94494  Biso   1.000  He
  He14     1.0000 0.41203  0.42926  0.96285  Biso   1.000  He
  Ne14     1.0000 0.41149  0.42174  0.99568  Biso   1.000  Ne
  Ne15     1.0000 0.37204  0.86062  0.59501  Biso   1.000  Ne
  He15     1.0000 0.39979  0.87827  0.60401  Biso   1.000  He
  He16     1.0000 0.39373  0.90580  0.61804  Biso   1.000  He
  Ne16     1.0000 0.42242  0.92256  0.62208  Biso   1.000  Ne
  Ne17     1.0000 0.93792  0.28686  0.88585  Biso   1.000  Ne
  He17     1.0000 0.94567  0.30865  0.86214  Biso   1.000  He
  He18     1.0000 0.96843  0.30118  0.83722  Biso   1.000  He
  Ne18     1.0000 0.99650  0.31935  0.83978  Biso   1.000  Ne
  Ne19     1.0000 0.56267  0.89010  0.70031  Biso   1.000  Ne
  He19     1.0000 0.58989  0.87438  0.70989  Biso   1.000  He
  He20     1.0000 0.61687  0.89201  0.70308  Biso   1.000  He
  Ne20     1.0000 0.63837  0.89288  0.72840  Biso   1.000  Ne
  Ne21     1.0000 0.37874  0.40474  0.10190  Biso   1.000  Ne
  He21     1.0000 0.40426  0.42549  0.08984  Biso   1.000  He
  He22     1.0000 0.43457  0.42688  0.10293  Biso   1.000  He
  Ne22     1.0000 0.45669  0.44584  0.08990  Biso   1.000  Ne
  Ne23     1.0000 0.50824  0.92877  0.60845  Biso   1.000  Ne
  He23     1.0000 0.53036  0.90429  0.61533  Biso   1.000  He
  He24     1.0000 0.55652  0.90737  0.59670  Biso   1.000  He
  Ne24     1.0000 0.57488  0.88181  0.59478  Biso   1.000  Ne
  Ne25     1.0000 0.30086  0.26705  0.68370  Biso   1.000  Ne
  He25     1.0000 0.27497  0.28231  0.66819  Biso   1.000  He
  He26     1.0000 0.28039  0.30530  0.64480  Biso   1.000  He
  Ne26     1.0000 0.24866  0.32013  0.63256  Biso   1.000  Ne
  Ne27     1.0000 0.82799  0.58097  0.62629  Biso   1.000  Ne
  He27     1.0000 0.79719  0.57490  0.63975  Biso   1.000  He
  He28     1.0000 0.77046  0.59770  0.63300  Biso   1.000  He
  Ne28     1.0000 0.74589  0.58559  0.61185  Biso   1.000  Ne
  Ne29     1.0000 0.76313  0.05195  0.12671  Biso   1.000  Ne
  He29     1.0000 0.78965  0.06909  0.12274  Biso   1.000  He
  He30     1.0000 0.81275  0.05840  0.14267  Biso   1.000  He
  Ne30     1.0000 0.84496  0.06789  0.13766  Biso   1.000  Ne
  Ne31     1.0000 0.41796  0.49438  0.01888  Biso   1.000  Ne
  He31     1.0000 0.41151  0.50032  0.05183  Biso   1.000  He
  He32     1.0000 0.41418  0.53097  0.06135  Biso   1.000  He
  Ne32     1.0000 0.40757  0.53312  0.09531  Biso   1.000  Ne
  Ne33     1.0000 0.31655  0.33093  0.89752  Biso   1.000  Ne
  He33     1.0000 0.30139  0.35479  0.91210  Biso   1.000  He
  He34     1.0000 0.32056  0.36722  0.93922  Biso   1.000  He
  Ne34     1.0000 0.33754  0.39573  0.93517  Biso   1.000  Ne
  Ne35     1.0000 0.47295  0.12959  0.82987  Biso   1.000  Ne
  He35     1.0000 0.44913  0.13524  0.80756  Biso   1.000  He
  He36     1.0000 0.42387  0.15210  0.81954  Biso   1.000  He
  Ne36     1.0000 0.40199  0.16426  0.79519  Biso   1.000  Ne
  Ne37     1.0000 0.76791  0.81264  0.64365  Biso   1.000  Ne
  He37     1.0000 0.78639  0.78673  0.65376  Biso   1.000  He
  He38     1.0000 0.77714  0.77636  0.68250  Biso   1.000  He
  Ne38     1.0000 0.79233  0.74944  0.69383  Biso   1.000  Ne
  Ne39     1.0000 0.87015  0.75107  0.45484  Biso   1.000  Ne
  He39     1.0000 0.89426  0.76586  0.47006  Biso   1.000  He
  He40     1.0000 0.92655  0.75244  0.46480  Biso   1.000  He
  Ne40     1.0000 0.95012  0.76314  0.48581  Biso   1.000  Ne
  Ne41     1.0000 0.58039  0.27525  0.59319  Biso   1.000  Ne
  He41     1.0000 0.59370  0.29009  0.56563  Biso   1.000  He
  He42     1.0000 0.62693  0.28733  0.56232  Biso   1.000  He
  Ne42     1.0000 0.63885  0.29978  0.53367  Biso   1.000  Ne
  Ne43     1.0000 0.55439  0.22748  0.84969  Biso   1.000  Ne
  He43     1.0000 0.54723  0.19920  0.86245  Biso   1.000  He
  He44     1.0000 0.56917  0.17616  0.86041  Biso   1.000  He
  Ne44     1.0000 0.56361  0.14809  0.87392  Biso   1.000  Ne
  Ne45     1.0000 0.77006  0.77032  0.85087  Biso   1.000  Ne
  He45     1.0000 0.79145  0.78485  0.87365  Biso   1.000  He
  He46     1.0000 0.77791  0.78617  0.90567  Biso   1.000  He
  Ne46     1.0000 0.79808  0.79550  0.92893  Biso   1.000  Ne
  Ne47     1.0000 0.19287  0.83702  0.67202  Biso   1.000  Ne
  He47     1.0000 0.16495  0.82842  0.68736  Biso   1.000  He
  He48     1.0000 0.14969  0.85245  0.70340  Biso   1.000  He
  Ne48     1.0000 0.12492  0.83880  0.72242  Biso   1.000  Ne
  Ne49     1.0000 0.65911  0.43634  0.35642  Biso   1.000  Ne
  He49     1.0000 0.65631  0.40579  0.34228  Biso   1.000  He
  He50     1.0000 0.68222  0.39334  0.32515  Biso   1.000  He
  Ne50     1.0000 0.67482  0.36963  0.30397  Biso   1.000  Ne
  Ne51     1.0000 0.67013  0.90470  0.79827  Biso   1.000  Ne
  He51     1.0000 0.69397  0.88315  0.80437  Biso   1.000  He
  He52     1.0000 0.69685  0.86110  0.77980  Biso   1.000  He
  Ne52     1.0000 0.71664  0.83485  0.78716  Biso   1.000  Ne
  Ne53     1.0000 0.07556  0.39195  0.55093  Biso   1.000  Ne
  He53     1.0000 0.04297  0.39690  0.56175  Biso   1.000  He
  He54     1.0000 0.04434  0.41434  0.59001  Biso   1.000  He
  Ne54     1.0000 0.01626  0.42234  0.60346  Biso   1.000  Ne
  Ne55     1.0000 0.49290  0.93955  0.84120  Biso   1.000  Ne
  He55     1.0000 0.46564  0.92877  0.85994  Biso   1.000  He
  He56     1.0000 0.43696  0.93258  0.84457  Biso   1.000  He
  Ne56     1.0000 0.41077  0.92709  0.86263  Biso   1.000  Ne
  Ne57     1.0000 0.56951  0.53521  0.96109  Biso   1.000  Ne
  He57     1.0000 0.55809  0.55045  0.93364  Biso   1.000  He
  He58     1.0000 0.58126  0.55617  0.91049  Biso   1.000  He
  Ne58     1.0000 0.56661  0.56752  0.88276  Biso   1.000  Ne
  Ne59     1.0000 0.89249  0.59457  0.46693  Biso   1.000  Ne
  He59     1.0000 0.91309  0.56965  0.47265  Biso   1.000  He
  He60     1.0000 0.90096  0.53800  0.47085  Biso   1.000  He
  Ne60     1.0000 0.92085  0.51384  0.48220  Biso   1.000  Ne
  Ne61     1.0000 0.28908  0.79100  0.22485  Biso   1.000  Ne
  He61     1.0000 0.30412  0.77870  0.25280  Biso   1.000  He
  He62     1.0000 0.28505  0.77168  0.28071  Biso   1.000  He
  Ne62     1.0000 0.29975  0.75452  0.30193  Biso   1.000  Ne
  Ne63     1.0000 0.97326  0.46987  0.43813  Biso   1.000  Ne
  He63     1.0000 0.99225  0.45086  0.45969  Biso   1.000  He
  He64     1.0000 0.98458  0.45658  0.49139  Biso   1.000  He
  Ne64     1.0000 0.99847  0.43698  0.50883  Biso   1.000  Ne
  Ne65     1.0000 0.19305  0.59974  0.42818  Biso   1.000  Ne
  He65     1.0000 0.16738  0.59735  0.45056  Biso   1.000  He
  He66     1.0000 0.14540  0.57772  0.43944  Biso   1.000  He
  Ne66     1.0000 0.11639  0.57451  0.45743  Biso   1.000  Ne
  Ne67     1.0000 0.11240  0.54413  0.60316  Biso   1.000  Ne
  He67     1.0000 0.08261  0.53449  0.59105  Biso   1.000  He
  He68     1.0000 0.05882  0.55126  0.60489  Biso   1.000  He
  Ne68     1.0000 0.02692  0.53905  0.59918  Biso   1.000  Ne
  Ne69     1.0000 0.42256  0.34955  0.18394  Biso   1.000  Ne
  He69     1.0000 0.41016  0.34903  0.21290  Biso   1.000  He
  He70     1.0000 0.39311  0.37767  0.21945  Biso   1.000  He
  Ne70     1.0000 0.37893  0.37659  0.24896  Biso   1.000  Ne
  Ne71     1.0000 0.13528  0.15382  0.52636  Biso   1.000  Ne
  He71     1.0000 0.10812  0.13501  0.52565  Biso   1.000  He
  He72     1.0000 0.09468  0.13039  0.55565  Biso   1.000  He
  Ne72     1.0000 0.06224  0.11837  0.55547  Biso   1.000  Ne
  Ne73     1.0000 0.55264  0.58887  0.20221  Biso   1.000  Ne
  He73     1.0000 0.54619  0.56794  0.22769  Biso   1.000  He
  He74     1.0000 0.55754  0.57693  0.25905  Biso   1.000  He
  Ne74     1.0000 0.53971  0.56003  0.27753  Biso   1.000  Ne
  Ne75     1.0000 0.59037  0.20821  0.35615  Biso   1.000  Ne
  He75     1.0000 0.57101  0.22894  0.33918  Biso   1.000  He
  He76     1.0000 0.55392  0.25033  0.35728  Biso   1.000  He
  Ne76     1.0000 0.53337  0.27219  0.34240  Biso   1.000  Ne
  Ne77     1.0000 0.06057  0.35889  0.81603  Biso   1.000  Ne
  He77     1.0000 0.08281  0.36416  0.79103  Biso   1.000  He
  He78     1.0000 0.11466  0.36383  0.80084  Biso   1.000  He
  Ne78     1.0000 0.13627  0.37155  0.77693  Biso   1.000  Ne
  Ne79     1.0000 0.70974  0.21100  0.39658  Biso   1.000  Ne
  He79     1.0000 0.72625  0.19674  0.42285  Biso   1.000  He
  He80     1.0000 0.74166  0.16639  0.41753  Biso   1.000  He
  Ne80     1.0000 0.76123  0.15879  0.44316  Biso   1.000  Ne
  Ne81     1.0000 0.68862  0.24543  0.72227  Biso   1.000  Ne
  He81     1.0000 0.66161  0.22639  0.72966  Biso   1.000  He
  He82     1.0000 0.66750  0.21005  0.75961  Biso   1.000  He
  Ne82     1.0000 0.64306  0.19720  0.77355  Biso   1.000  Ne
  Ne83     1.0000 0.29011  0.32872  0.11432  Biso   1.000  Ne
  He83     1.0000 0.29781  0.36116  0.11426  Biso   1.000  He
  He84     1.0000 0.26785  0.37659  0.11940  Biso   1.000  He
  Ne84     1.0000 0.27282  0.40818  0.12251  Biso   1.000  Ne
  Ne85     1.0000 0.73114  0.62291  0.12781  Biso   1.000  Ne
  He85     1.0000 0.73098  0.63352  0.15891  Biso   1.000  He
  He86     1.0000 0.70498  0.61876  0.17600  Biso   1.000  He
  Ne86     1.0000 0.70231  0.62734  0.20838  Biso   1.000  Ne
  Ne87     1.0000 0.19876  0.40856  0.39227  Biso   1.000  Ne
  He87     1.0000 0.16835  0.41585  0.40835  Biso   1.000  He
  He88     1.0000 0.13915  0.40805  0.39114  Biso   1.000  He
  Ne88     1.0000 0.11309  0.41444  0.40807  Biso   1.000  Ne
  Ne89     1.0000 0.44823  0.19497  0.19369  Biso   1.000  Ne
  He89     1.0000 0.46823  0.16938  0.18971  Biso   1.000  He
  He90     1.0000 0.48785  0.17182  0.16301  Biso   1.000  He
  Ne90     1.0000 0.51009  0.14579  0.15893  Biso   1.000  Ne
  Ne91     1.0000 0.25412  0.07684  0.17813  Biso   1.000  Ne
  He91     1.0000 0.28149  0.09017  0.16566  Biso   1.000  He
  He92     1.0000 0.30430  0.10488  0.18627  Biso   1.000  He
  Ne92     1.0000 0.33626  0.11040  0.17578  Biso   1.000  Ne
  Ne93     1.0000 0.39690  0.74557  0.71075  Biso   1.000  Ne
  He93     1.0000 0.39504  0.77100  0.68633  Biso   1.000  He
  He94     1.0000 0.38767  0.75943  0.65743  Biso   1.000  He
  Ne94     1.0000 0.38768  0.78182  0.63287  Biso   1.000  Ne
  Ne95     1.0000 0.63774  0.59732  0.95721  Biso   1.000  Ne
  He95     1.0000 0.61675  0.62250  0.95749  Biso   1.000  He
  He96     1.0000 0.62781  0.64794  0.94006  Biso   1.000  He
  Ne96     1.0000 0.61086  0.67722  0.94826  Biso   1.000  Ne
  Ne97     1.0000 0.46069  0.29863  0.32324  Biso   1.000  Ne
  He97     1.0000 0.44208  0.32093  0.30525  Biso   1.000  He
  He98     1.0000 0.41698  0.33568  0.32468  Biso   1.000  He
  Ne98     1.0000 0.42198  0.36614  0.33738  Biso   1.000  Ne
  Ne99     1.0000 0.77430  0.59963  0.35440  Biso   1.000  Ne
  He99     1.0000 0.79424  0.57808  0.36972  Biso   1.000  He
  He100    1.0000 0.79942  0.58638  0.40173  Biso   1.000  He
  Ne100    1.0000 0.81980  0.56621  0.41776  Biso   1.000  Ne
  Ne101    1.0000 0.25343  0.21576  0.92923  Biso   1.000  Ne
  He101    1.0000 0.23784  0.20438  0.90395  Biso   1.000  He
  He102    1.0000 0.20560  0.19531  0.91003  Biso   1.000  He
  Ne102    1.0000 0.19607  0.18202  0.88034  Biso   1.000  Ne
  Ne103    1.0000 0.40737  0.01141  0.14668  Biso   1.000  Ne
  He103    1.0000 0.37687  0.00686  0.16389  Biso   1.000  He
  He104    1.0000 0.35461  0.98998  0.14855  Biso   1.000  He
  Ne104    1.0000 0.32753  0.98633  0.16764  Biso   1.000  Ne
  Ne105    1.0000 0.46662  0.99392  0.20786  Biso   1.000  Ne
  He105    1.0000 0.48915  0.01782  0.21744  Biso   1.000  He
  He106    1.0000 0.52000  0.00747  0.21542  Biso   1.000  He
  Ne106    1.0000 0.54330  0.02653  0.23032  Biso   1.000  Ne
  Ne107    1.0000 0.33261  0.79410  0.42986  Biso   1.000  Ne
  He107    1.0000 0.35869  0.78228  0.44793  Biso   1.000  He
  He108    1.0000 0.38805  0.78549  0.43268  Biso   1.000  He
  Ne108    1.0000 0.41504  0.77054  0.44427  Biso   1.000  Ne
  Ne109    1.0000 0.91847  0.20861  0.64338  Biso   1.000  Ne
  He109    1.0000 0.94269  0.20613  0.62306  Biso   1.000  He
  He110    1.0000 0.94149  0.18054  0.60390  Biso   1.000  He
  Ne110    1.0000 0.96783  0.17529  0.58393  Biso   1.000  Ne
  Ne111    1.0000 0.85292  0.32850  0.37255  Biso   1.000  Ne
  He111    1.0000 0.87599  0.31847  0.39552  Biso   1.000  He
  He112    1.0000 0.86560  0.29497  0.41688  Biso   1.000  He
  Ne112    1.0000 0.88878  0.28567  0.43845  Biso   1.000  Ne
  Ne113    1.0000 0.60171  0.25111  0.18550  Biso   1.000  Ne
  He113    1.0000 0.60070  0.26000  0.15465  Biso   1.000  He
  He114    1.0000 0.60219  0.29485  0.15193  Biso   1.000  He
  Ne114    1.0000 0.59573  0.30640  0.12223  Biso   1.000  Ne
  Ne115    1.0000 0.05081  0.40564  0.27069  Biso   1.000  Ne
  He115    1.0000 0.06655  0.37642  0.27337  Biso   1.000  He
  He116    1.0000 0.06495  0.35643  0.24514  Biso   1.000  He
  Ne116    1.0000 0.08013  0.32592  0.24692  Biso   1.000  Ne
  Ne117    1.0000 0.41661  0.18927  0.28394  Biso   1.000  Ne
  He117    1.0000 0.39247  0.20816  0.27096  Biso   1.000  He
  He118    1.0000 0.39339  0.24004  0.28314  Biso   1.000  He
  Ne118    1.0000 0.37499  0.26173  0.26506  Biso   1.000  Ne
  Ne119    1.0000 0.32829  0.36100  0.46792  Biso   1.000  Ne
  He119    1.0000 0.35875  0.35264  0.45399  Biso   1.000  He
  He120    1.0000 0.37920  0.37812  0.44034  Biso   1.000  He
  Ne120    1.0000 0.37859  0.37759  0.40761  Biso   1.000  Ne
  Ne121    1.0000 0.30334  0.82838  0.61954  Biso   1.000  Ne
  He121    1.0000 0.29503  0.86166  0.61866  Biso   1.000  He
  He122    1.0000 0.26332  0.86396  0.61340  Biso   1.000  He
  Ne122    1.0000 0.25404  0.89588  0.61150  Biso   1.000  Ne
  Ne123    1.0000 0.58322  0.22357  0.67754  Biso   1.000  Ne
  He123    1.0000 0.58747  0.25368  0.68211  Biso   1.000  He
  He124    1.0000 0.57275  0.26616  0.71146  Biso   1.000  He
  Ne124    1.0000 0.57570  0.29759  0.72112  Biso   1.000  Ne
  Ne125    1.0000 0.73708  0.55763  0.96076  Biso   1.000  Ne
  He125    1.0000 0.74952  0.52877  0.96609  Biso   1.000  He
  He126    1.0000 0.77819  0.52254  0.94785  Biso   1.000  He
  Ne126    1.0000 0.79404  0.49542  0.95527  Biso   1.000  Ne
  Ne127    1.0000 0.95349  0.32841  0.99137  Biso   1.000  Ne
  He127    1.0000 0.94333  0.29552  0.99644  Biso   1.000  He
  He128    1.0000 0.94683  0.28433  0.02809  Biso   1.000  He
  Ne128    1.0000 0.93065  0.25733  0.03621  Biso   1.000  Ne
  Ne129    1.0000 0.71148  0.10784  0.82292  Biso   1.000  Ne
  He129    1.0000 0.71499  0.08464  0.84330  Biso   1.000  He
  He130    1.0000 0.68783  0.07993  0.86326  Biso   1.000  He
  Ne130    1.0000 0.68417  0.04753  0.87094  Biso   1.000  Ne
  Ne131    1.0000 0.46725  0.31977  0.71684  Biso   1.000  Ne
  He131    1.0000 0.45290  0.34979  0.70384  Biso   1.000  He
  He132    1.0000 0.45325  0.37910  0.72508  Biso   1.000  He
  Ne132    1.0000 0.43697  0.40417  0.71023  Biso   1.000  Ne
  Ne133    1.0000 0.25811  0.07418  0.91309  Biso   1.000  Ne
  He133    1.0000 0.22673  0.07423  0.92307  Biso   1.000  He
  He134    1.0000 0.21322  0.10350  0.92208  Biso   1.000  He
  Ne134    1.0000 0.18168  0.10364  0.93555  Biso   1.000  Ne
  Ne135    1.0000 0.66170  0.27651  0.26723  Biso   1.000  Ne
  He135    1.0000 0.66390  0.29756  0.24077  Biso   1.000  He
  He136    1.0000 0.63892  0.31723  0.23933  Biso   1.000  He
  Ne136    1.0000 0.63924  0.33782  0.21292  Biso   1.000  Ne
  Ne137    1.0000 0.86571  0.67261  0.12623  Biso   1.000  Ne
  He137    1.0000 0.86009  0.68132  0.15718  Biso   1.000  He
  He138    1.0000 0.88323  0.69582  0.17502  Biso   1.000  He
  Ne138    1.0000 0.87285  0.70352  0.20572  Biso   1.000  Ne
  Ne139    1.0000 0.75014  0.17823  0.09126  Biso   1.000  Ne
  He139    1.0000 0.72037  0.18877  0.09421  Biso   1.000  He
  He140    1.0000 0.69604  0.17240  0.07615  Biso   1.000  He
  Ne140    1.0000 0.66314  0.18081  0.08121  Biso   1.000  Ne
  Ne141    1.0000 0.54769  0.56281  0.72026  Biso   1.000  Ne
  He141    1.0000 0.55306  0.58554  0.74273  Biso   1.000  He
  He142    1.0000 0.54737  0.57451  0.77124  Biso   1.000  He
  Ne142    1.0000 0.55445  0.59775  0.79446  Biso   1.000  Ne
  Ne143    1.0000 0.66505  0.06322  0.33815  Biso   1.000  Ne
  He143    1.0000 0.63877  0.04338  0.33654  Biso   1.000  He
  He144    1.0000 0.61140  0.05680  0.34736  Biso   1.000  He
  Ne144    1.0000 0.58409  0.03955  0.34019  Biso   1.000  Ne
  Ne145    1.0000 0.09238  0.76614  0.57603  Biso   1.000  Ne
  He145    1.0000 0.07926  0.74820  0.59889  Biso   1.000  He
  He146    1.0000 0.08665  0.71647  0.59798  Biso   1.000  He
  Ne146    1.0000 0.06759  0.69636  0.61553  Biso   1.000  Ne
  Ne147    1.0000 0.03353  0.94573  0.06136  Biso   1.000  Ne
  He147    1.0000 0.02579  0.94964  0.09492  Biso   1.000  He
  He148    1.0000 0.00127  0.93170  0.10505  Biso   1.000  He
  Ne148    1.0000 0.97080  0.94736  0.10597  Biso   1.000  Ne
  Ne149    1.0000 0.09447  0.02998  0.66009  Biso   1.000  Ne
  He149    1.0000 0.11794  0.05407  0.66720  Biso   1.000  He
  He150    1.0000 0.11447  0.06859  0.69853  Biso   1.000  He
  Ne150    1.0000 0.13196  0.09591  0.70541  Biso   1.000  Ne
  Ne151    1.0000 0.89839  0.90385  0.16272  Biso   1.000  Ne
  He151    1.0000 0.91002  0.89681  0.13177  Biso   1.000  He
  He152    1.0000 0.88515  0.88762  0.10606  Biso   1.000  He
  Ne152    1.0000 0.87594  0.91155  0.08664  Biso   1.000  Ne
  Ne153    1.0000 0.80426  0.11515  0.94110  Biso   1.000  Ne
  He153    1.0000 0.80577  0.08431  0.94698  Biso   1.000  He
  He154    1.0000 0.78167  0.06478  0.93264  Biso   1.000  He
  Ne154    1.0000 0.75734  0.06224  0.95358  Biso   1.000  Ne
  Ne155    1.0000 0.08527  0.14065  0.92552  Biso   1.000  Ne
  He155    1.0000 0.08804  0.17393  0.91875  Biso   1.000  He
  He156    1.0000 0.11239  0.18805  0.93374  Biso   1.000  He
  Ne156    1.0000 0.11851  0.22037  0.92911  Biso   1.000  Ne
  Ne157    1.0000 0.04084  0.64280  0.28213  Biso   1.000  Ne
  He157    1.0000 0.03684  0.66880  0.26233  Biso   1.000  He
  He158    1.0000 0.02461  0.65943  0.23467  Biso   1.000  He
  Ne158    1.0000 0.02069  0.68500  0.21293  Biso   1.000  Ne
  Ne159    1.0000 0.37674  0.17370  0.42129  Biso   1.000  Ne
  He159    1.0000 0.35667  0.19787  0.41188  Biso   1.000  He
  He160    1.0000 0.33027  0.20517  0.43125  Biso   1.000  He
  Ne160    1.0000 0.31079  0.22913  0.41947  Biso   1.000  Ne
  Ne161    1.0000 0.82279  0.24270  0.94311  Biso   1.000  Ne
  He161    1.0000 0.79356  0.22328  0.94811  Biso   1.000  He
  He162    1.0000 0.77212  0.22701  0.92391  Biso   1.000  He
  Ne162    1.0000 0.74092  0.21783  0.93331  Biso   1.000  Ne
  Ne163    1.0000 0.05521  0.06333  0.24418  Biso   1.000  Ne
  He163    1.0000 0.06151  0.09690  0.24310  Biso   1.000  He
  He164    1.0000 0.06717  0.10907  0.27450  Biso   1.000  He
  Ne164    1.0000 0.06725  0.14113  0.27680  Biso   1.000  Ne
  Ne165    1.0000 0.62483  0.71598  0.88451  Biso   1.000  Ne
  He165    1.0000 0.64487  0.74255  0.88933  Biso   1.000  He
  He166    1.0000 0.65621  0.74581  0.91920  Biso   1.000  He
  Ne166    1.0000 0.67066  0.77735  0.92379  Biso   1.000  Ne
  Ne167    1.0000 0.65002  0.78088  0.04648  Biso   1.000  Ne
  He167    1.0000 0.66179  0.81036  0.04474  Biso   1.000  He
  He168    1.0000 0.66693  0.82178  0.01477  Biso   1.000  He
  Ne168    1.0000 0.67506  0.85313  0.01391  Biso   1.000  Ne
  Ne169    1.0000 0.73738  0.02159  0.69888  Biso   1.000  Ne
  He169    1.0000 0.74850  0.03862  0.72573  Biso   1.000  He
  He170    1.0000 0.73846  0.06791  0.72882  Biso   1.000  He
  Ne170    1.0000 0.75450  0.08242  0.75518  Biso   1.000  Ne
  Ne171    1.0000 0.81903  0.85372  0.20979  Biso   1.000  Ne
  He171    1.0000 0.80334  0.87105  0.18825  Biso   1.000  He
  He172    1.0000 0.82514  0.89060  0.17038  Biso   1.000  He
  Ne172    1.0000 0.81597  0.90176  0.13943  Biso   1.000  Ne
  Ne173    1.0000 0.81623  0.82813  0.09416  Biso   1.000  Ne
  He173    1.0000 0.84803  0.81619  0.09799  Biso   1.000  He
  He174    1.0000 0.85719  0.80853  0.12813  Biso   1.000  He
  Ne174    1.0000 0.88648  0.79290  0.13260  Biso   1.000  Ne
  Ne175    1.0000 0.73853  0.40286  0.95852  Biso   1.000  Ne
  He175    1.0000 0.74563  0.42279  0.98414  Biso   1.000  He
  He176    1.0000 0.77668  0.42433  0.99427  Biso   1.000  He
  Ne176    1.0000 0.77782  0.44254  0.02316  Biso   1.000  Ne
  Ne177    1.0000 0.33642  0.55932  0.85803  Biso   1.000  Ne
  He177    1.0000 0.30896  0.54730  0.87584  Biso   1.000  He
  He178    1.0000 0.28304  0.53748  0.85648  Biso   1.000  He
  Ne178    1.0000 0.25828  0.52564  0.87678  Biso   1.000  Ne
  Ne179    1.0000 0.91644  0.87452  0.88200  Biso   1.000  Ne
  He179    1.0000 0.93675  0.85308  0.89726  Biso   1.000  He
  He180    1.0000 0.92023  0.82428  0.90685  Biso   1.000  He
  Ne180    1.0000 0.94135  0.80396  0.91941  Biso   1.000  Ne
  Ne181    1.0000 0.16194  0.44336  0.86914  Biso   1.000  Ne
  He181    1.0000 0.16657  0.47035  0.88641  Biso   1.000  He
  He182    1.0000 0.14742  0.49685  0.87906  Biso   1.000  He
  Ne182    1.0000 0.15691  0.52109  0.90122  Biso   1.000  Ne
  Ne183    1.0000 0.37521  0.31173  0.09944  Biso   1.000  Ne
  He183    1.0000 0.36086  0.28357  0.09427  Biso   1.000  He
  He184    1.0000 0.37677  0.25798  0.10628  Biso   1.000  He
  Ne184    1.0000 0.36036  0.22929  0.09508  Biso   1.000  Ne
  Ne185    1.0000 0.31112  0.89860  0.68451  Biso   1.000  Ne
  He185    1.0000 0.34531  0.89973  0.68982  Biso   1.000  He
  He186    1.0000 0.35779  0.87268  0.69544  Biso   1.000  He
  Ne186    1.0000 0.38939  0.87465  0.70567  Biso   1.000  Ne
  Ne187    1.0000 0.60402  0.06495  0.66096  Biso   1.000  Ne
  He187    1.0000 0.58589  0.06482  0.68859  Biso   1.000  He
  He188    1.0000 0.60352  0.06132  0.71660  Biso   1.000  He
  Ne188    1.0000 0.58413  0.06140  0.74232  Biso   1.000  Ne
  Ne189    1.0000 0.24316  0.34649  0.32966  Biso   1.000  Ne
  He189    1.0000 0.22792  0.37457  0.31925  Biso   1.000  He
  He190    1.0000 0.20301  0.37034  0.29694  Biso   1.000  He
  Ne190    1.0000 0.18673  0.39868  0.29185  Biso   1.000  Ne
  Ne191    1.0000 0.46409  0.77721  0.06333  Biso   1.000  Ne
  He191    1.0000 0.45156  0.76199  0.08752  Biso   1.000  He
  He192    1.0000 0.45738  0.77660  0.11910  Biso   1.000  He
  Ne192    1.0000 0.43666  0.76347  0.14000  Biso   1.000  Ne
  Ne193    1.0000 0.59468  0.11142  0.02169  Biso   1.000  Ne
  He193    1.0000 0.61593  0.13733  0.02271  Biso   1.000  He
  He194    1.0000 0.63381  0.14307  0.99421  Biso   1.000  He
  Ne194    1.0000 0.65389  0.17052  0.99835  Biso   1.000  Ne
  Ne195    1.0000 0.53679  0.47362  0.12273  Biso   1.000  Ne
  He195    1.0000 0.53616  0.48529  0.09235  Biso   1.000  He
  He196    1.0000 0.56606  0.49444  0.07863  Biso   1.000  He
  Ne196    1.0000 0.56550  0.49885  0.04634  Biso   1.000  Ne
  Ne197    1.0000 0.56699  0.13875  0.64599  Biso   1.000  Ne
  He197    1.0000 0.55746  0.15295  0.61552  Biso   1.000  He
  He198    1.0000 0.57934  0.17560  0.60486  Biso   1.000  He
  Ne198    1.0000 0.57080  0.18799  0.57597  Biso   1.000  Ne
  Ne199    1.0000 0.16642  0.24679  0.58789  Biso   1.000  Ne
  He199    1.0000 0.18642  0.22123  0.59001  Biso   1.000  He
  He200    1.0000 0.21699  0.22405  0.60665  Biso   1.000  He
  Ne200    1.0000 0.23639  0.19907  0.60215  Biso   1.000  Ne
  Ne201    1.0000 0.80318  0.18763  0.83964  Biso   1.000  Ne
  He201    1.0000 0.80823  0.21880  0.83240  Biso   1.000  He
  He202    1.0000 0.81182  0.22396  0.79878  Biso   1.000  He
  Ne202    1.0000 0.81614  0.25735  0.79245  Biso   1.000  Ne
  Ne203    1.0000 0.81565  0.33019  0.60416  Biso   1.000  Ne
  He203    1.0000 0.81308  0.29722  0.60436  Biso   1.000  He
  He204    1.0000 0.83784  0.27995  0.61906  Biso   1.000  He
  Ne204    1.0000 0.83041  0.24795  0.62043  Biso   1.000  Ne
  Ne205    1.0000 0.90614  0.95498  0.00227  Biso   1.000  Ne
  He205    1.0000 0.90249  0.92135  0.00079  Biso   1.000  He
  He206    1.0000 0.92234  0.90600  0.97915  Biso   1.000  He
  Ne206    1.0000 0.95244  0.89460  0.98837  Biso   1.000  Ne
  Ne207    1.0000 0.19161  0.35435  0.05900  Biso   1.000  Ne
  He207    1.0000 0.17544  0.35225  0.02999  Biso   1.000  He
  He208    1.0000 0.17097  0.32217  0.01683  Biso   1.000  He
  Ne208    1.0000 0.16021  0.32193  0.98482  Biso   1.000  Ne
  Ne209    1.0000 0.20764  0.58642  0.82139  Biso   1.000  Ne
  He209    1.0000 0.22371  0.55951  0.80857  Biso   1.000  He
  He210    1.0000 0.24066  0.56011  0.78051  Biso   1.000  He
  Ne210    1.0000 0.26004  0.53310  0.77537  Biso   1.000  Ne
  Ne211    1.0000 0.39643  0.28380  0.86934  Biso   1.000  Ne
  He211    1.0000 0.39374  0.29239  0.90068  Biso   1.000  He
  He212    1.0000 0.40832  0.31878  0.90832  Biso   1.000  He
  Ne212    1.0000 0.40552  0.32793  0.93910  Biso   1.000  Ne
  Ne213    1.0000 0.94720  0.06611  0.97807  Biso   1.000  Ne
  He213    1.0000 0.93635  0.04549  0.95146  Biso   1.000  He
  He214    1.0000 0.93570  0.01317  0.95882  Biso   1.000  He
  Ne214    1.0000 0.92756  0.99359  0.93412  Biso   1.000  Ne
  Ne215    1.0000 0.16704  0.34890  0.68114  Biso   1.000  Ne
  He215    1.0000 0.16345  0.37380  0.66024  Biso   1.000  He
  He216    1.0000 0.16951  0.36560  0.63001  Biso   1.000  He
  Ne216    1.0000 0.17171  0.39260  0.61033  Biso   1.000  Ne
  Ne217    1.0000 0.83198  0.88649  0.91495  Biso   1.000  Ne
  He217    1.0000 0.80592  0.89266  0.89494  Biso   1.000  He
  He218    1.0000 0.80233  0.87058  0.87068  Biso   1.000  He
  Ne218    1.0000 0.78695  0.88317  0.84376  Biso   1.000  Ne
  Ne219    1.0000 0.61378  0.92336  0.10127  Biso   1.000  Ne
  He219    1.0000 0.64481  0.91790  0.08934  Biso   1.000  He
  He220    1.0000 0.65675  0.94142  0.06733  Biso   1.000  He
  Ne220    1.0000 0.68675  0.93552  0.05450  Biso   1.000  Ne
  Ne221    1.0000 0.22947  0.14649  0.76192  Biso   1.000  Ne
  He221    1.0000 0.23256  0.11711  0.77630  Biso   1.000  He
  He222    1.0000 0.25549  0.12159  0.79934  Biso   1.000  He
  Ne222    1.0000 0.25784  0.09650  0.82036  Biso   1.000  Ne
  Ne223    1.0000 0.11820  0.71070  0.88296  Biso   1.000  Ne
  He223    1.0000 0.13320  0.71000  0.85469  Biso   1.000  He
  He224    1.0000 0.11496  0.72049  0.82862  Biso   1.000  He
  Ne224    1.0000 0.12986  0.71528  0.79946  Biso   1.000  Ne
  Ne225    1.0000 0.64490  0.13250  0.59812  Biso   1.000  Ne
  He225    1.0000 0.63770  0.10216  0.59476  Biso   1.000  He
  He226    1.0000 0.66707  0.08316  0.59637  Biso   1.000  He
  Ne226    1.0000 0.66289  0.05613  0.61488  Biso   1.000  Ne
  Ne227    1.0000 0.91076  0.82764  0.30276  Biso   1.000  Ne
  He227    1.0000 0.91955  0.84002  0.27387  Biso   1.000  He
  He228    1.0000 0.89479  0.86190  0.26081  Biso   1.000  He
  Ne228    1.0000 0.90303  0.87933  0.23314  Biso   1.000  Ne
  Ne229    1.0000 0.72107  0.86614  0.09158  Biso   1.000  Ne
  He229    1.0000 0.71675  0.83358  0.10159  Biso   1.000  He
  He230    1.0000 0.73562  0.81331  0.08564  Biso   1.000  He
  Ne230    1.0000 0.73704  0.78346  0.09807  Biso   1.000  Ne
  Ne231    1.0000 0.27018  0.68723  0.26160  Biso   1.000  Ne
  He231    1.0000 0.29048  0.70081  0.23936  Biso   1.000  He
  He232    1.0000 0.30234  0.67988  0.21677  Biso   1.000  He
  Ne232    1.0000 0.32119  0.69434  0.19498  Biso   1.000  Ne
  Ne233    1.0000 0.71219  0.63493  0.95738  Biso   1.000  Ne
  He233    1.0000 0.72746  0.65514  0.93782  Biso   1.000  He
  He234    1.0000 0.72945  0.68568  0.95082  Biso   1.000  He
  Ne234    1.0000 0.74017  0.70913  0.92741  Biso   1.000  Ne
  Ne235    1.0000 0.06792  0.06087  0.85542  Biso   1.000  Ne
  He235    1.0000 0.06950  0.06843  0.88923  Biso   1.000  He
  He236    1.0000 0.09746  0.05781  0.90323  Biso   1.000  He
  Ne236    1.0000 0.10167  0.06138  0.93726  Biso   1.000  Ne
  Ne237    1.0000 0.07595  0.26521  0.18397  Biso   1.000  Ne
  He237    1.0000 0.07623  0.24390  0.15992  Biso   1.000  He
  He238    1.0000 0.06141  0.25660  0.13348  Biso   1.000  He
  Ne238    1.0000 0.06106  0.23608  0.10749  Biso   1.000  Ne
  Ne239    1.0000 0.37196  0.80836  0.35808  Biso   1.000  Ne
  He239    1.0000 0.37255  0.77930  0.34482  Biso   1.000  He
  He240    1.0000 0.38408  0.75621  0.36615  Biso   1.000  He
  Ne240    1.0000 0.38487  0.72289  0.35547  Biso   1.000  Ne
  Ne241    1.0000 0.40696  0.61321  0.85745  Biso   1.000  Ne
  He241    1.0000 0.37716  0.62329  0.86000  Biso   1.000  He
  He242    1.0000 0.36715  0.65040  0.84388  Biso   1.000  He
  Ne242    1.0000 0.33707  0.66237  0.85321  Biso   1.000  Ne
  Ne243    1.0000 0.91098  0.31070  0.63039  Biso   1.000  Ne
  He243    1.0000 0.89101  0.33692  0.63773  Biso   1.000  He
  He244    1.0000 0.90758  0.36732  0.63382  Biso   1.000  He
  Ne244    1.0000 0.88800  0.39616  0.63658  Biso   1.000  Ne
  Ne245    1.0000 0.65211  0.88222  0.45268  Biso   1.000  Ne
  He245    1.0000 0.67095  0.85534  0.43998  Biso   1.000  He
  He246    1.0000 0.70309  0.86000  0.43838  Biso   1.000  He
  Ne246    1.0000 0.71889  0.83553  0.42355  Biso   1.000  Ne
  Ne247    1.0000 0.34054  0.28242  0.54890  Biso   1.000  Ne
  He247    1.0000 0.32480  0.30780  0.56180  Biso   1.000  He
  He248    1.0000 0.30557  0.32366  0.54153  Biso   1.000  He
  Ne248    1.0000 0.28573  0.34723  0.55406  Biso   1.000  Ne
  Ne249    1.0000 0.00675  0.18107  0.36324  Biso   1.000  Ne
  He249    1.0000 0.02429  0.17720  0.39323  Biso   1.000  He
  He250    1.0000 0.01572  0.19681  0.41551  Biso   1.000  He
  Ne250    1.0000 0.03660  0.19828  0.44156  Biso   1.000  Ne
  Ne251    1.0000 0.66281  0.86164  0.88946  Biso   1.000  Ne
  He251    1.0000 0.69304  0.85854  0.90078  Biso   1.000  He
  He252    1.0000 0.69387  0.86965  0.93300  Biso   1.000  He
  Ne252    1.0000 0.72483  0.87195  0.94874  Biso   1.000  Ne
  Ne253    1.0000 0.14523  0.52572  0.78126  Biso   1.000  Ne
  He253    1.0000 0.12888  0.53286  0.75347  Biso   1.000  He
  He254    1.0000 0.14899  0.53750  0.72812  Biso   1.000  He
  Ne254    1.0000 0.13341  0.54191  0.69831  Biso   1.000  Ne
  Ne255    1.0000 0.20077  0.56453  0.20471  Biso   1.000  Ne
  He255    1.0000 0.23089  0.57359  0.21095  Biso   1.000  He
  He256    1.0000 0.25017  0.55617  0.18999  Biso   1.000  He
  Ne256    1.0000 0.28242  0.56256  0.18698  Biso   1.000  Ne
  Ne257    1.0000 0.91009  0.03424  0.08975  Biso   1.000  Ne
  He257    1.0000 0.93261  0.03350  0.06810  Biso   1.000  He
  He258    1.0000 0.96220  0.04505  0.07973  Biso   1.000  He
  Ne258    1.0000 0.98428  0.04793  0.05775  Biso   1.000  Ne
  Ne259    1.0000 0.93777  0.16953  0.71237  Biso   1.000  Ne
  He259    1.0000 0.92550  0.16523  0.74192  Biso   1.000  He
  He260    1.0000 0.94012  0.14135  0.75928  Biso   1.000  He
  Ne260    1.0000 0.92372  0.12977  0.78658  Biso   1.000  Ne
  Ne261    1.0000 0.08397  0.20460  0.66137  Biso   1.000  Ne
  He261    1.0000 0.08041  0.19049  0.63017  Biso   1.000  He
  He262    1.0000 0.06664  0.20785  0.60487  Biso   1.000  He
  Ne262    1.0000 0.08316  0.23105  0.59131  Biso   1.000  Ne
  Ne263    1.0000 0.35076  0.53369  0.76330  Biso   1.000  Ne
  He263    1.0000 0.37099  0.53359  0.78650  Biso   1.000  He
  He264    1.0000 0.39543  0.55560  0.78473  Biso   1.000  He
  Ne264    1.0000 0.41750  0.55399  0.80788  Biso   1.000  Ne
  Ne265    1.0000 0.78878  0.37041  0.07472  Biso   1.000  Ne
  He265    1.0000 0.81259  0.34572  0.07868  Biso   1.000  He
  He266    1.0000 0.81439  0.32517  0.05394  Biso   1.000  He
  Ne266    1.0000 0.83279  0.29966  0.06001  Biso   1.000  Ne
  Ne267    1.0000 0.40134  0.09475  0.70277  Biso   1.000  Ne
  He267    1.0000 0.40985  0.09551  0.67118  Biso   1.000  He
  He268    1.0000 0.39778  0.06915  0.65172  Biso   1.000  He
  Ne268    1.0000 0.40540  0.07390  0.62004  Biso   1.000  Ne
  Ne269    1.0000 0.20679  0.63247  0.69678  Biso   1.000  Ne
  He269    1.0000 0.19548  0.62177  0.72497  Biso   1.000  He
  He270    1.0000 0.16042  0.63038  0.72729  Biso   1.000  He
  Ne270    1.0000 0.14526  0.61757  0.75476  Biso   1.000  Ne
  Ne271    1.0000 0.90875  0.30174  0.19521  Biso   1.000  Ne
  He271    1.0000 0.91317  0.33086  0.21004  Biso   1.000  He
  He272    1.0000 0.92616  0.32848  0.23880  Biso   1.000  He
  Ne272    1.0000 0.93497  0.35730  0.25071  Biso   1.000  Ne
  Ne273    1.0000 0.00987  0.55864  0.51412  Biso   1.000  Ne
  He273    1.0000 0.02910  0.55519  0.48803  Biso   1.000  He
  He274    1.0000 0.03774  0.52417  0.48399  Biso   1.000  He
  Ne274    1.0000 0.05395  0.51844  0.45690  Biso   1.000  Ne
  Ne275    1.0000 0.24241  0.30430  0.91290  Biso   1.000  Ne
  He275    1.0000 0.21510  0.29371  0.89394  Biso   1.000  He
  He276    1.0000 0.18882  0.29090  0.91288  Biso   1.000  He
  Ne276    1.0000 0.16206  0.27898  0.89604  Biso   1.000  Ne
  Ne277    1.0000 0.92968  0.71341  0.80152  Biso   1.000  Ne
  He277    1.0000 0.93736  0.74585  0.79900  Biso   1.000  He
  He278    1.0000 0.91844  0.76388  0.81747  Biso   1.000  He
  Ne278    1.0000 0.92878  0.79519  0.81592  Biso   1.000  Ne
  Ne279    1.0000 0.90633  0.11981  0.14971  Biso   1.000  Ne
  He279    1.0000 0.90977  0.08972  0.15873  Biso   1.000  He
  He280    1.0000 0.90139  0.08258  0.19097  Biso   1.000  He
  Ne280    1.0000 0.90856  0.05286  0.19848  Biso   1.000  Ne
  Ne281    1.0000 0.06348  0.04431  0.12197  Biso   1.000  Ne
  He281    1.0000 0.06905  0.06914  0.10169  Biso   1.000  He
  He282    1.0000 0.06132  0.09987  0.11699  Biso   1.000  He
  Ne282    1.0000 0.06881  0.12604  0.09784  Biso   1.000  Ne
  Ne283    1.0000 0.58349  0.78851  0.62764  Biso   1.000  Ne
  He283    1.0000 0.60855  0.80848  0.61801  Biso   1.000  He
  He284    1.0000 0.63301  0.79463  0.60877  Biso   1.000  He
  Ne284    1.0000 0.65645  0.81249  0.60034  Biso   1.000  Ne
  Ne285    1.0000 0.32721  0.09040  0.75548  Biso   1.000  Ne
  He285    1.0000 0.34347  0.10500  0.78247  Biso   1.000  He
  He286    1.0000 0.35024  0.08393  0.80611  Biso   1.000  He
  Ne286    1.0000 0.36138  0.09895  0.83259  Biso   1.000  Ne
  Ne287    1.0000 0.71216  0.34044  0.90477  Biso   1.000  Ne
  He287    1.0000 0.68010  0.35542  0.90426  Biso   1.000  He
  He288    1.0000 0.68447  0.38441  0.89306  Biso   1.000  He
  Ne288    1.0000 0.65583  0.40408  0.88941  Biso   1.000  Ne
  Ne289    1.0000 0.23017  0.38518  0.97062  Biso   1.000  Ne
  He289    1.0000 0.21026  0.40943  0.97918  Biso   1.000  He
  He290    1.0000 0.20584  0.43349  0.95551  Biso   1.000  He
  Ne290    1.0000 0.18891  0.45880  0.96422  Biso   1.000  Ne
  Ne291    1.0000 0.93820  0.48626  0.59185  Biso   1.000  Ne
  He291    1.0000 0.93607  0.46023  0.57088  Biso   1.000  He
  He292    1.0000 0.90672  0.45601  0.55476  Biso   1.000  He
  Ne292    1.0000 0.90558  0.43088  0.53103  Biso   1.000  Ne
  Ne293    1.0000 0.28248  0.35583  0.82211  Biso   1.000  Ne
  He293    1.0000 0.30707  0.36756  0.80281  Biso   1.000  He
  He294    1.0000 0.31305  0.34502  0.78073  Biso   1.000  He
  Ne294    1.0000 0.33562  0.35548  0.75828  Biso   1.000  Ne
  Ne295    1.0000 0.07972  0.75812  0.12153  Biso   1.000  Ne
  He295    1.0000 0.06600  0.78045  0.14261  Biso   1.000  He
  He296    1.0000 0.07759  0.80799  0.14007  Biso   1.000  He
  Ne296    1.0000 0.06595  0.83175  0.15913  Biso   1.000  Ne
  Ne297    1.0000 0.80920  0.37485  0.69148  Biso   1.000  Ne
  He297    1.0000 0.81623  0.39592  0.66820  Biso   1.000  He
  He298    1.0000 0.79436  0.39688  0.64330  Biso   1.000  He
  Ne298    1.0000 0.80188  0.41493  0.61811  Biso   1.000  Ne
  Ne299    1.0000 0.06205  0.90901  0.94719  Biso   1.000  Ne
  He299    1.0000 0.04587  0.93666  0.95868  Biso   1.000  He
  He300    1.0000 0.01872  0.94649  0.94051  Biso   1.000  He
  Ne300    1.0000 0.00159  0.97223  0.95606  Biso   1.000  Ne
  Ne301    1.0000 0.09539  0.77302  0.46777  Biso   1.000  Ne
  He301    1.0000 0.11569  0.74782  0.46610  Biso   1.000  He
  He302    1.0000 0.10507  0.73021  0.43920  Biso   1.000  He
  Ne302    1.0000 0.12279  0.70053  0.43629  Biso   1.000  Ne
  Ne303    1.0000 0.24577  0.68633  0.41816  Biso   1.000  Ne
  He303    1.0000 0.26737  0.67385  0.43981  Biso   1.000  He
  He304    1.0000 0.25052  0.65829  0.46319  Biso   1.000  He
  Ne304    1.0000 0.26853  0.64381  0.48675  Biso   1.000  Ne
  Ne305    1.0000 0.66617  0.13064  0.43284  Biso   1.000  Ne
  He305    1.0000 0.64081  0.14091  0.41009  Biso   1.000  He
  He306    1.0000 0.61547  0.16041  0.42351  Biso   1.000  He
  Ne306    1.0000 0.58785  0.14359  0.43025  Biso   1.000  Ne
  Ne307    1.0000 0.37003  0.38317  0.85509  Biso   1.000  Ne
  He307    1.0000 0.38887  0.35952  0.84109  Biso   1.000  He
  He308    1.0000 0.40744  0.36940  0.81494  Biso   1.000  He
  Ne308    1.0000 0.42462  0.34536  0.79720  Biso   1.000  Ne
  Ne309    1.0000 0.16740  0.81346  0.44946  Biso   1.000  Ne
  He309    1.0000 0.15890  0.81070  0.48124  Biso   1.000  He
  He310    1.0000 0.17764  0.82660  0.50591  Biso   1.000  He
  Ne310    1.0000 0.16685  0.82417  0.53701  Biso   1.000  Ne
  Ne311    1.0000 0.38044  0.55980  0.17497  Biso   1.000  Ne
  He311    1.0000 0.39411  0.55881  0.20398  Biso   1.000  He
  He312    1.0000 0.37762  0.57254  0.23028  Biso   1.000  He
  Ne312    1.0000 0.39896  0.57163  0.25813  Biso   1.000  Ne
  Ne313    1.0000 0.56657  0.66463  0.32106  Biso   1.000  Ne
  He313    1.0000 0.55307  0.69384  0.32524  Biso   1.000  He
  He314    1.0000 0.57464  0.72067  0.32283  Biso   1.000  He
  Ne314    1.0000 0.56163  0.75200  0.32661  Biso   1.000  Ne
  Ne315    1.0000 0.35751  0.89437  0.45502  Biso   1.000  Ne
  He315    1.0000 0.37743  0.90677  0.43107  Biso   1.000  He
  He316    1.0000 0.37618  0.89041  0.40132  Biso   1.000  He
  Ne316    1.0000 0.38704  0.90499  0.37436  Biso   1.000  Ne
  Ne317    1.0000 0.78041  0.72304  0.20044  Biso   1.000  Ne
  He317    1.0000 0.80183  0.72786  0.22539  Biso   1.000  He
  He318    1.0000 0.80668  0.75950  0.23492  Biso   1.000  He
  Ne318    1.0000 0.82845  0.76096  0.25663  Biso   1.000  Ne
  Ne319    1.0000 0.62119  0.39893  0.11121  Biso   1.000  Ne
  He319    1.0000 0.62329  0.41149  0.14118  Biso   1.000  He
  He320    1.0000 0.60086  0.39716  0.16394  Biso   1.000  He
  Ne320    1.0000 0.59601  0.41312  0.19398  Biso   1.000  Ne
  Ne321    1.0000 0.06447  0.64198  0.40625  Biso   1.000  Ne
  He321    1.0000 0.07411  0.62589  0.37784  Biso   1.000  He
  He322    1.0000 0.05902  0.59618  0.37186  Biso   1.000  He
  Ne322    1.0000 0.06916  0.57944  0.34507  Biso   1.000  Ne
  Ne323    1.0000 0.79402  0.41319  0.21855  Biso   1.000  Ne
  He323    1.0000 0.75869  0.40491  0.21883  Biso   1.000  He
  He324    1.0000 0.73919  0.42760  0.20458  Biso   1.000  He
  Ne324    1.0000 0.70780  0.41737  0.20644  Biso   1.000  Ne
  Ne325    1.0000 0.03184  0.27332  0.98412  Biso   1.000  Ne
  He325    1.0000 0.02647  0.26410  0.95563  Biso   1.000  He
  He326    1.0000 0.04785  0.27478  0.93156  Biso   1.000  He
  Ne326    1.0000 0.03811  0.26335  0.90314  Biso   1.000  Ne
  Ne327    1.0000 0.45559  0.79736  0.85620  Biso   1.000  Ne
  He327    1.0000 0.44486  0.80022  0.82544  Biso   1.000  He
  He328    1.0000 0.41671  0.78399  0.81715  Biso   1.000  He
  Ne328    1.0000 0.40726  0.78725  0.78595  Biso   1.000  Ne
  Ne329    1.0000 0.15955  0.86240  0.94787  Biso   1.000  Ne
  He329    1.0000 0.14227  0.83494  0.93862  Biso   1.000  He
  He330    1.0000 0.16332  0.80944  0.92797  Biso   1.000  He
  Ne330    1.0000 0.14978  0.77957  0.91770  Biso   1.000  Ne
  Ne331    1.0000 0.56037  0.68449  0.12459  Biso   1.000  Ne
  He331    1.0000 0.56213  0.71238  0.14484  Biso   1.000  He
  He332    1.0000 0.54867  0.73714  0.13010  Biso   1.000  He
  Ne332    1.0000 0.55318  0.76629  0.14555  Biso   1.000  Ne
  Ne333    1.0000 0.77299  0.86012  0.33655  Biso   1.000  Ne
  He333    1.0000 0.79758  0.87197  0.31580  Biso   1.000  He
  He334    1.0000 0.82011  0.89414  0.32963  Biso   1.000  He
  Ne334    1.0000 0.84177  0.90508  0.30632  Biso   1.000  Ne
  Ne335    1.0000 0.62222  0.53567  0.74215  Biso   1.000  Ne
  He335    1.0000 0.64879  0.53841  0.72168  Biso   1.000  He
  He336    1.0000 0.66626  0.56797  0.72464  Biso   1.000  He
  Ne336    1.0000 0.69493  0.56638  0.70486  Biso   1.000  Ne
  Ne337    1.0000 0.54089  0.89070  0.37262  Biso   1.000  Ne
  He337    1.0000 0.54109  0.87895  0.40302  Biso   1.000  He
  He338    1.0000 0.56120  0.85569  0.40648  Biso   1.000  He
  Ne338    1.0000 0.56395  0.84858  0.44042  Biso   1.000  Ne
  Ne339    1.0000 0.28994  0.45694  0.68757  Biso   1.000  Ne
  He339    1.0000 0.27859  0.48713  0.67736  Biso   1.000  He
  He340    1.0000 0.25750  0.50028  0.69545  Biso   1.000  He
  Ne340    1.0000 0.24518  0.52980  0.68676  Biso   1.000  Ne
  Ne341    1.0000 0.38820  0.15220  0.59272  Biso   1.000  Ne
  He341    1.0000 0.38794  0.17899  0.61050  Biso   1.000  He
  He342    1.0000 0.37251  0.20674  0.59660  Biso   1.000  He
  Ne342    1.0000 0.36888  0.23599  0.61418  Biso   1.000  Ne
  Ne343    1.0000 0.87514  0.72358  0.71069  Biso   1.000  Ne
  He343    1.0000 0.89591  0.70136  0.69324  Biso   1.000  He
  He344    1.0000 0.90794  0.67628  0.71039  Biso   1.000  He
  Ne344    1.0000 0.92822  0.65665  0.69343  Biso   1.000  Ne
  Ne345    1.0000 0.67237  0.69307  0.12520  Biso   1.000  Ne
  He345    1.0000 0.64575  0.67308  0.13756  Biso   1.000  He
  He346    1.0000 0.64438  0.64144  0.12321  Biso   1.000  He
  Ne346    1.0000 0.61866  0.62665  0.13266  Biso   1.000  Ne
  Ne347    1.0000 0.55723  0.01124  0.82363  Biso   1.000  Ne
  He347    1.0000 0.58464  0.01387  0.84237  Biso   1.000  He
  He348    1.0000 0.61593  0.00850  0.82649  Biso   1.000  He
  Ne348    1.0000 0.63050  0.97787  0.82947  Biso   1.000  Ne
  Ne349    1.0000 0.02732  0.78591  0.69026  Biso   1.000  Ne
  He349    1.0000 0.99603  0.79541  0.70076  Biso   1.000  He
  He350    1.0000 0.99963  0.81573  0.72749  Biso   1.000  He
  Ne350    1.0000 0.97141  0.82799  0.73909  Biso   1.000  Ne
  Ne351    1.0000 0.53275  0.19446  0.01522  Biso   1.000  Ne
  He351    1.0000 0.53741  0.21669  0.04204  Biso   1.000  He
  He352    1.0000 0.55288  0.20358  0.06978  Biso   1.000  He
  Ne352    1.0000 0.55824  0.22366  0.09576  Biso   1.000  Ne
  Ne353    1.0000 0.85634  0.81701  0.80106  Biso   1.000  Ne
  He353    1.0000 0.86243  0.84341  0.78279  Biso   1.000  He
  He354    1.0000 0.87398  0.87144  0.79719  Biso   1.000  He
  Ne354    1.0000 0.88848  0.89255  0.77429  Biso   1.000  Ne
  Ne355    1.0000 0.56595  0.82394  0.80381  Biso   1.000  Ne
  He355    1.0000 0.56854  0.85755  0.80857  Biso   1.000  He
  He356    1.0000 0.55214  0.87834  0.78710  Biso   1.000  He
  Ne356    1.0000 0.55581  0.91055  0.79406  Biso   1.000  Ne
  Ne357    1.0000 0.60700  0.23477  0.92406  Biso   1.000  Ne
  He357    1.0000 0.61892  0.26528  0.93326  Biso   1.000  He
  He358    1.0000 0.59849  0.28958  0.93547  Biso   1.000  He
  Ne358    1.0000 0.61140  0.32071  0.94184  Biso   1.000  Ne
  Ne359    1.0000 0.15704  0.81467  0.11360  Biso   1.000  Ne
  He359    1.0000 0.15909  0.84535  0.10829  Biso   1.000  He
  He360    1.0000 0.13073  0.86509  0.11159  Biso   1.000  He
  Ne360    1.0000 0.13633  0.89636  0.11183  Biso   1.000  Ne
  Ne361    1.0000 0.22478  0.59651  0.10932  Biso   1.000  Ne
  He361    1.0000 0.25491  0.60227  0.12235  Biso   1.000  He
  He362    1.0000 0.27881  0.61009  0.09995  Biso   1.000  He
  Ne362    1.0000 0.29737  0.58738  0.08827  Biso   1.000  Ne
  Ne363    1.0000 0.32668  0.10660  0.61279  Biso   1.000  Ne
  He363    1.0000 0.31984  0.07711  0.61097  Biso   1.000  He
  He364    1.0000 0.28748  0.07252  0.60868  Biso   1.000  He
  Ne364    1.0000 0.27576  0.04140  0.61017  Biso   1.000  Ne
  Ne365    1.0000 0.47249  0.25984  0.49177  Biso   1.000  Ne
  He365    1.0000 0.44463  0.26179  0.47215  Biso   1.000  He
  He366    1.0000 0.44605  0.24311  0.44659  Biso   1.000  He
  Ne366    1.0000 0.41935  0.24751  0.42677  Biso   1.000  Ne
  Ne367    1.0000 0.69675  0.41927  0.54920  Biso   1.000  Ne
  He367    1.0000 0.68780  0.40229  0.57330  Biso   1.000  He
  He368    1.0000 0.67523  0.41977  0.60047  Biso   1.000  He
  Ne368    1.0000 0.66241  0.39842  0.62214  Biso   1.000  Ne
  Ne369    1.0000 0.82769  0.54944  0.78476  Biso   1.000  Ne
  He369    1.0000 0.79940  0.56299  0.78601  Biso   1.000  He
  He370    1.0000 0.79334  0.58062  0.81656  Biso   1.000  He
  Ne370    1.0000 0.76074  0.59000  0.81549  Biso   1.000  Ne
  Ne371    1.0000 0.17406  0.21658  0.76484  Biso   1.000  Ne
  He371    1.0000 0.16582  0.23671  0.74082  Biso   1.000  He
  He372    1.0000 0.13844  0.25240  0.74192  Biso   1.000  He
  Ne372    1.0000 0.13557  0.27752  0.71687  Biso   1.000  Ne
  Ne373    1.0000 0.48559  0.91504  0.24002  Biso   1.000  Ne
  He373    1.0000 0.51329  0.89432  0.24915  Biso   1.000  He
  He374    1.0000 0.54283  0.90901  0.25248  Biso   1.000  He
  Ne374    1.0000 0.56447  0.88763  0.26327  Biso   1.000  Ne
  Ne375    1.0000 0.17576  0.28208  0.09412  Biso   1.000  Ne
  He375    1.0000 0.18836  0.26071  0.11469  Biso   1.000  He
  He376    1.0000 0.21461  0.24293  0.10416  Biso   1.000  He
  Ne376    1.0000 0.23254  0.22767  0.12695  Biso   1.000  Ne
  Ne377    1.0000 0.08042  0.34983  0.63628  Biso   1.000  Ne
  He377    1.0000 0.06810  0.36795  0.66039  Biso   1.000  He
  He378    1.0000 0.08172  0.35923  0.69037  Biso   1.000  He
  Ne378    1.0000 0.06923  0.37683  0.71415  Biso   1.000  Ne
  Ne379    1.0000 0.13627  0.65762  0.06631  Biso   1.000  Ne
  He379    1.0000 0.15169  0.66016  0.03535  Biso   1.000  He
  He380    1.0000 0.17462  0.68355  0.03158  Biso   1.000  He
  Ne380    1.0000 0.19222  0.67800  0.00408  Biso   1.000  Ne
  Ne381    1.0000 0.44277  0.71123  0.61549  Biso   1.000  Ne
  He381    1.0000 0.43976  0.69856  0.58375  Biso   1.000  He
  He382    1.0000 0.40791  0.70300  0.57155  Biso   1.000  He
  Ne382    1.0000 0.38815  0.67463  0.57343  Biso   1.000  Ne
  Ne383    1.0000 0.07347  0.61712  0.67719  Biso   1.000  Ne
  He383    1.0000 0.07867  0.63121  0.70562  Biso   1.000  He
  He384    1.0000 0.07813  0.66645  0.70131  Biso   1.000  He
  Ne384    1.0000 0.08467  0.68462  0.72857  Biso   1.000  Ne
  Ne385    1.0000 0.18644  0.91389  0.19090  Biso   1.000  Ne
  He385    1.0000 0.19612  0.88225  0.18089  Biso   1.000  He
  He386    1.0000 0.18882  0.85940  0.20010  Biso   1.000  He
  Ne386    1.0000 0.20025  0.82965  0.19491  Biso   1.000  Ne
  Ne387    1.0000 0.80259  0.04123  0.29068  Biso   1.000  Ne
  He387    1.0000 0.80861  0.06061  0.26358  Biso   1.000  He
  He388    1.0000 0.77875  0.06980  0.24929  Biso   1.000  He
  Ne388    1.0000 0.78246  0.08331  0.22104  Biso   1.000  Ne
  Ne389    1.0000 0.54335  0.90795  0.49959  Biso   1.000  Ne
  He389    1.0000 0.51308  0.89834  0.49507  Biso   1.000  He
  He390    1.0000 0.49080  0.92276  0.49739  Biso   1.000  He
  Ne390    1.0000 0.45778  0.91426  0.50002  Biso   1.000  Ne
  Ne391    1.0000 0.14893  0.83125  0.80473  Biso   1.000  Ne
  He391    1.0000 0.12769  0.83513  0.82835  Biso   1.000  He
  He392    1.0000 0.12651  0.87115  0.83086  Biso   1.000  He
  Ne392    1.0000 0.10862  0.88376  0.85694  Biso   1.000  Ne
  Ne393    1.0000 0.92134  0.12168  0.91561  Biso   1.000  Ne
  He393    1.0000 0.90844  0.14812  0.90126  Biso   1.000  He
  He394    1.0000 0.91129  0.17660  0.92030  Biso   1.000  He
  Ne394    1.0000 0.91017  0.20390  0.89827  Biso   1.000  Ne
  Ne395    1.0000 0.17850  0.32622  0.42592  Biso   1.000  Ne
  He395    1.0000 0.21101  0.33597  0.42345  Biso   1.000  He
  He396    1.0000 0.23261  0.31172  0.42857  Biso   1.000  He
  Ne396    1.0000 0.26414  0.31932  0.42310  Biso   1.000  Ne
  Ne397    1.0000 0.63366  0.60356  0.81113  Biso   1.000  Ne
  He397    1.0000 0.65674  0.58907  0.83106  Biso   1.000  He
  He398    1.0000 0.65345  0.58877  0.86648  Biso   1.000  He
  Ne398    1.0000 0.67149  0.56831  0.88507  Biso   1.000  Ne
  Ne399    1.0000 0.11610  0.18357  0.84096  Biso   1.000  Ne
  He399    1.0000 0.10358  0.20696  0.82209  Biso   1.000  He
  He400    1.0000 0.09650  0.23589  0.83891  Biso   1.000  He
  Ne400    1.0000 0.08097  0.25523  0.81635  Biso   1.000  Ne
  Ne401    1.0000 0.50913  0.97182  0.91964  Biso   1.000  Ne
  He401    1.0000 0.52115  0.00170  0.92131  Biso   1.000  He
  He402    1.0000 0.49710  0.02308  0.93198  Biso   1.000  He
  Ne402    1.0000 0.49276  0.02613  0.96495  Biso   1.000  Ne
  Ne403    1.0000 0.44277  0.99907  0.43687  Biso   1.000  Ne
  He403    1.0000 0.45105  0.01980  0.46096  Biso   1.000  He
  He404    1.0000 0.47774  0.03589  0.45170  Biso   1.000  He
  Ne404    1.0000 0.49041  0.05570  0.47484  Biso   1.000  Ne
  Ne405    1.0000 0.41763  0.05174  0.53252  Biso   1.000  Ne
  He405    1.0000 0.43721  0.03933  0.55582  Biso   1.000  He
  He406    1.0000 0.43049  0.00398  0.56038  Biso   1.000  He
  Ne406    1.0000 0.45179  0.98851  0.58103  Biso   1.000  Ne
  Ne407    1.0000 0.56148  0.75691  0.45669  Biso   1.000  Ne
  He407    1.0000 0.58301  0.76962  0.43304  Biso   1.000  He
  He408    1.0000 0.61425  0.76808  0.44152  Biso   1.000  He
  Ne408    1.0000 0.63250  0.77464  0.41422  Biso   1.000  Ne
  Ne409    1.0000 0.91298  0.57498  0.66253  Biso   1.000  Ne
  He409    1.0000 0.92103  0.58278  0.62921  Biso   1.000  He
  He410    1.0000 0.92281  0.55711  0.60836  Biso   1.000  He
  Ne410    1.0000 0.93636  0.56399  0.57804  Biso   1.000  Ne
  Ne411    1.0000 0.23629  0.69049  0.90442  Biso   1.000  Ne
  He411    1.0000 0.26132  0.67090  0.89804  Biso   1.000  He
  He412    1.0000 0.28298  0.66540  0.92601  Biso   1.000  He
  Ne412    1.0000 0.30613  0.64257  0.92178  Biso   1.000  Ne
  Ne413    1.0000 0.40347  0.62149  0.08941  Biso   1.000  Ne
  He413    1.0000 0.39131  0.64475  0.11138  Biso   1.000  He
  He414    1.0000 0.39991  0.67405  0.10519  Biso   1.000  He
  Ne414    1.0000 0.39632  0.69613  0.12986  Biso   1.000  Ne
  Ne415    1.0000 0.33398  0.42323  0.35256  Biso   1.000  Ne
  He415    1.0000 0.31762  0.44882  0.36162  Biso   1.000  He
  He416    1.0000 0.29772  0.44486  0.39089  Biso   1.000  He
  Ne416    1.0000 0.27789  0.47146  0.39916  Biso   1.000  Ne
  Ne417    1.0000 0.66045  0.22675  0.58408  Biso   1.000  Ne
  He417    1.0000 0.68875  0.23539  0.60253  Biso   1.000  He
  He418    1.0000 0.68507  0.24980  0.63316  Biso   1.000  He
  Ne418    1.0000 0.71454  0.25602  0.64793  Biso   1.000  Ne
  Ne419    1.0000 0.77071  0.01771  0.57587  Biso   1.000  Ne
  He419    1.0000 0.77160  0.05133  0.57761  Biso   1.000  He
  He420    1.0000 0.74414  0.06526  0.58658  Biso   1.000  He
  Ne420    1.0000 0.74373  0.10020  0.58812  Biso   1.000  Ne
  Ne421    1.0000 0.68435  0.86391  0.35072  Biso   1.000  Ne
  He421    1.0000 0.65167  0.86609  0.34092  Biso   1.000  He
  He422    1.0000 0.63716  0.83667  0.33956  Biso   1.000  He
  Ne422    1.0000 0.60494  0.83510  0.33698  Biso   1.000  Ne
  Ne423    1.0000 0.73424  0.16960  0.67893  Biso   1.000  Ne
  He423    1.0000 0.70062  0.16336  0.67673  Biso   1.000  He
  He424    1.0000 0.68972  0.14296  0.70220  Biso   1.000  He
  Ne424    1.0000 0.66043  0.13249  0.70246  Biso   1.000  Ne
  Ne425    1.0000 0.13272  0.10850  0.82185  Biso   1.000  Ne
  He425    1.0000 0.14195  0.09120  0.79416  Biso   1.000  He
  He426    1.0000 0.14233  0.05737  0.79793  Biso   1.000  He
  Ne426    1.0000 0.15953  0.04191  0.77469  Biso   1.000  Ne
  Ne427    1.0000 0.07949  0.29512  0.40427  Biso   1.000  Ne
  He427    1.0000 0.05634  0.27280  0.38753  Biso   1.000  He
  He428    1.0000 0.06442  0.26609  0.35547  Biso   1.000  He
  Ne428    1.0000 0.04398  0.24441  0.34057  Biso   1.000  Ne
  Ne429    1.0000 0.06418  0.68291  0.03350  Biso   1.000  Ne
  He429    1.0000 0.07111  0.70847  0.01274  Biso   1.000  He
  He430    1.0000 0.08569  0.69977  0.98374  Biso   1.000  He
  Ne430    1.0000 0.09725  0.72464  0.96765  Biso   1.000  Ne
  Ne431    1.0000 0.66577  0.45318  0.71332  Biso   1.000  Ne
  He431    1.0000 0.69239  0.43768  0.69736  Biso   1.000  He
  He432    1.0000 0.72037  0.45216  0.70439  Biso   1.000  He
  Ne432    1.0000 0.75008  0.43738  0.69288  Biso   1.000  Ne
  Ne433    1.0000 0.37253  0.87524  0.29249  Biso   1.000  Ne
  He433    1.0000 0.34190  0.87825  0.30318  Biso   1.000  He
  He434    1.0000 0.32744  0.85142  0.31473  Biso   1.000  He
  Ne434    1.0000 0.29563  0.85353  0.32574  Biso   1.000  Ne
  Ne435    1.0000 0.23666  0.86532  0.46613  Biso   1.000  Ne
  He435    1.0000 0.25247  0.88257  0.44201  Biso   1.000  He
  He436    1.0000 0.23661  0.90675  0.42888  Biso   1.000  He
  Ne436    1.0000 0.25260  0.92367  0.40503  Biso   1.000  Ne
  Ne437    1.0000 0.59535  0.40275  0.78423  Biso   1.000  Ne
  He437    1.0000 0.58656  0.38954  0.81229  Biso   1.000  He
  He438    1.0000 0.59204  0.41381  0.83720  Biso   1.000  He
  Ne438    1.0000 0.58151  0.40476  0.86633  Biso   1.000  Ne
  Ne439    1.0000 0.40465  0.74538  0.28107  Biso   1.000  Ne
  He439    1.0000 0.38787  0.72875  0.25788  Biso   1.000  He
  He440    1.0000 0.40675  0.70522  0.24353  Biso   1.000  He
  Ne440    1.0000 0.38824  0.68896  0.22308  Biso   1.000  Ne
  Ne441    1.0000 0.41790  0.62411  0.94465  Biso   1.000  Ne
  He441    1.0000 0.43544  0.59716  0.93786  Biso   1.000  He
  He442    1.0000 0.41546  0.57181  0.92708  Biso   1.000  He
  Ne442    1.0000 0.43026  0.54260  0.92135  Biso   1.000  Ne
  Ne443    1.0000 0.13560  0.94760  0.73098  Biso   1.000  Ne
  He443    1.0000 0.11122  0.92694  0.72084  Biso   1.000  He
  He444    1.0000 0.08332  0.93607  0.72863  Biso   1.000  He
  Ne444    1.0000 0.06078  0.91185  0.71933  Biso   1.000  Ne
  Ne445    1.0000 0.66924  0.39218  0.80705  Biso   1.000  Ne
  He445    1.0000 0.70263  0.39365  0.81166  Biso   1.000  He
  He446    1.0000 0.72107  0.39497  0.78471  Biso   1.000  He
  Ne446    1.0000 0.73109  0.36613  0.77095  Biso   1.000  Ne
  Ne447    1.0000 0.55266  0.01827  0.51578  Biso   1.000  Ne
  He447    1.0000 0.53743  0.03876  0.53433  Biso   1.000  He
  He448    1.0000 0.55273  0.04284  0.56437  Biso   1.000  He
  Ne448    1.0000 0.53885  0.06640  0.58428  Biso   1.000  Ne
  Ne449    1.0000 0.56339  0.79745  0.89129  Biso   1.000  Ne
  He449    1.0000 0.56152  0.79260  0.92285  Biso   1.000  He
  He450    1.0000 0.56615  0.82001  0.94208  Biso   1.000  He
  Ne450    1.0000 0.59886  0.82318  0.95449  Biso   1.000  Ne
  Ne451    1.0000 0.41485  0.09962  0.23514  Biso   1.000  Ne
  He451    1.0000 0.42227  0.08648  0.26568  Biso   1.000  He
  He452    1.0000 0.42733  0.10816  0.28850  Biso   1.000  He
  Ne452    1.0000 0.44028  0.09679  0.31979  Biso   1.000  Ne
  Ne453    1.0000 0.71117  0.30758  0.47252  Biso   1.000  Ne
  He453    1.0000 0.73655  0.30074  0.45217  Biso   1.000  He
  He454    1.0000 0.75992  0.32572  0.45014  Biso   1.000  He
  Ne454    1.0000 0.78642  0.31573  0.43431  Biso   1.000  Ne
  Ne455    1.0000 0.71834  0.35590  0.15205  Biso   1.000  Ne
  He455    1.0000 0.73229  0.37605  0.13195  Biso   1.000  He
  He456    1.0000 0.71758  0.40560  0.12725  Biso   1.000  He
  Ne456    1.0000 0.73658  0.42854  0.10828  Biso   1.000  Ne
  Ne457    1.0000 0.42591  0.72819  0.88652  Biso   1.000  Ne
  He457    1.0000 0.39927  0.71228  0.89668  Biso   1.000  He
  He458    1.0000 0.39066  0.72363  0.92866  Biso   1.000  He
  Ne458    1.0000 0.36251  0.70935  0.94024  Biso   1.000  Ne
  Ne459    1.0000 0.58934  0.69546  0.76490  Biso   1.000  Ne
  He459    1.0000 0.58676  0.69819  0.73515  Biso   1.000  He
  He460    1.0000 0.57763  0.72884  0.72482  Biso   1.000  He
  Ne460    1.0000 0.57722  0.72939  0.69065  Biso   1.000  Ne
  Ne461    1.0000 0.66393  0.96724  0.98263  Biso   1.000  Ne
  He461    1.0000 0.65829  0.99955  0.97894  Biso   1.000  He
  He462    1.0000 0.68789  0.01706  0.98571  Biso   1.000  He
  Ne462    1.0000 0.68399  0.04999  0.98757  Biso   1.000  Ne
  Ne463    1.0000 0.57078  0.42216  0.00794  Biso   1.000  Ne
  He463    1.0000 0.55321  0.40174  0.02739  Biso   1.000  He
  He464    1.0000 0.54009  0.41673  0.05362  Biso   1.000  He
  Ne464    1.0000 0.52531  0.39809  0.07400  Biso   1.000  Ne
  Ne465    1.0000 0.64543  0.68471  0.55261  Biso   1.000  Ne
  He465    1.0000 0.67143  0.69207  0.57375  Biso   1.000  He
  He466    1.0000 0.67292  0.72251  0.58310  Biso   1.000  He
  Ne466    1.0000 0.70423  0.73072  0.60143  Biso   1.000  Ne
  Ne467    1.0000 0.66782  0.95985  0.16841  Biso   1.000  Ne
  He467    1.0000 0.65155  0.96045  0.19680  Biso   1.000  He
  He468    1.0000 0.66859  0.93771  0.21835  Biso   1.000  He
  Ne468    1.0000 0.65306  0.93198  0.24544  Biso   1.000  Ne
  Ne469    1.0000 0.57422  0.30928  0.85607  Biso   1.000  Ne
  He469    1.0000 0.60662  0.30641  0.84985  Biso   1.000  He
  He470    1.0000 0.61991  0.32055  0.82258  Biso   1.000  He
  Ne470    1.0000 0.65062  0.32139  0.82268  Biso   1.000  Ne
  Ne471    1.0000 0.16252  0.06998  0.13323  Biso   1.000  Ne
  He471    1.0000 0.18926  0.08482  0.12374  Biso   1.000  He
  He472    1.0000 0.21119  0.06633  0.10502  Biso   1.000  He
  Ne472    1.0000 0.23569  0.08649  0.09205  Biso   1.000  Ne
  Ne473    1.0000 0.85834  0.72743  0.33381  Biso   1.000  Ne
  He473    1.0000 0.87913  0.75277  0.34158  Biso   1.000  He
  He474    1.0000 0.90898  0.74299  0.34757  Biso   1.000  He
  Ne474    1.0000 0.92897  0.76735  0.36317  Biso   1.000  Ne
  Ne475    1.0000 0.27585  0.90890  0.79829  Biso   1.000  Ne
  He475    1.0000 0.24714  0.89380  0.78167  Biso   1.000  He
  He476    1.0000 0.25422  0.87851  0.75577  Biso   1.000  He
  Ne476    1.0000 0.22704  0.86463  0.74052  Biso   1.000  Ne
  Ne477    1.0000 0.61160  0.05773  0.45279  Biso   1.000  Ne
  He477    1.0000 0.64127  0.04440  0.44610  Biso   1.000  He
  He478    1.0000 0.65605  0.05424  0.41837  Biso   1.000  He
  Ne478    1.0000 0.68399  0.04064  0.41137  Biso   1.000  Ne
  Ne479    1.0000 0.53440  0.18082  0.78010  Biso   1.000  Ne
  He479    1.0000 0.56450  0.17082  0.76594  Biso   1.000  He
  He480    1.0000 0.55891  0.15776  0.73648  Biso   1.000  He
  Ne480    1.0000 0.58837  0.15072  0.72043  Biso   1.000  Ne
  Ne481    1.0000 0.15519  0.69124  0.18998  Biso   1.000  Ne
  He481    1.0000 0.12293  0.70059  0.19270  Biso   1.000  He
  He482    1.0000 0.11529  0.73102  0.20548  Biso   1.000  He
  Ne482    1.0000 0.08238  0.73347  0.21637  Biso   1.000  Ne
  Ne483    1.0000 0.82994  0.05526  0.80451  Biso   1.000  Ne
  He483    1.0000 0.85224  0.04712  0.82868  Biso   1.000  He
  He484    1.0000 0.85175  0.06395  0.85593  Biso   1.000  He
  Ne484    1.0000 0.87156  0.05430  0.88025  Biso   1.000  Ne
  Ne485    1.0000 0.07520  0.91417  0.26927  Biso   1.000  Ne
  He485    1.0000 0.06245  0.91812  0.24065  Biso   1.000  He
  He486    1.0000 0.08126  0.90363  0.21615  Biso   1.000  He
  Ne486    1.0000 0.07559  0.91205  0.18595  Biso   1.000  Ne
  Ne487    1.0000 0.42239  0.10838  0.40551  Biso   1.000  Ne
  He487    1.0000 0.40516  0.09418  0.42930  Biso   1.000  He
  He488    1.0000 0.37216  0.09174  0.42621  Biso   1.000  He
  Ne488    1.0000 0.35854  0.07428  0.45069  Biso   1.000  Ne
  Ne489    1.0000 0.19782  0.06638  0.66649  Biso   1.000  Ne
  He489    1.0000 0.22928  0.07925  0.66950  Biso   1.000  He
  He490    1.0000 0.24459  0.07489  0.69976  Biso   1.000  He
  Ne490    1.0000 0.27810  0.08518  0.70294  Biso   1.000  Ne
  Ne491    1.0000 0.19280  0.57903  0.62598  Biso   1.000  Ne
  He491    1.0000 0.16490  0.59400  0.63004  Biso   1.000  He
  He492    1.0000 0.16081  0.61520  0.60593  Biso   1.000  He
  Ne492    1.0000 0.13755  0.63824  0.61168  Biso   1.000  Ne
  Ne493    1.0000 0.89074  0.59870  0.32405  Biso   1.000  Ne
  He493    1.0000 0.89925  0.59505  0.35302  Biso   1.000  He
  He494    1.0000 0.89318  0.56497  0.36050  Biso   1.000  He
  Ne494    1.0000 0.89994  0.55665  0.39318  Biso   1.000  Ne
  Ne495    1.0000 0.07751  0.01110  0.03438  Biso   1.000  Ne
  He495    1.0000 0.06435  0.03763  0.02288  Biso   1.000  He
  He496    1.0000 0.03858  0.03193  0.00371  Biso   1.000  He
  Ne496    1.0000 0.02321  0.05889  0.99392  Biso   1.000  Ne
  Ne497    1.0000 0.10315  0.60285  0.83313  Biso   1.000  Ne
  He497    1.0000 0.13742  0.60779  0.83724  Biso   1.000  He
  He498    1.0000 0.14496  0.62808  0.86574  Biso   1.000  He
  Ne498    1.0000 0.17777  0.63600  0.87241  Biso   1.000  Ne
  Ne499    1.0000 0.92210  0.41962  0.39932  Biso   1.000  Ne
  He499    1.0000 0.89789  0.40711  0.38102  Biso   1.000  He
  He500    1.0000 0.90414  0.40797  0.34741  Biso   1.000  He
  Ne500    1.0000 0.88087  0.39990  0.32404  Biso   1.000  Ne
