data_image0
_cell_length_a       46.7588
_cell_length_b       46.6626
_cell_length_c       46.5691
_cell_angle_alpha    90
_cell_angle_beta     90
_cell_angle_gamma    90

_symmetry_space_group_name_H-M    "P 1"
_symmetry_int_tables_number       1

loop_
  _symmetry_equiv_pos_as_xyz
  'x, y, z'

loop_
  _atom_site_label
  _atom_site_occupancy
  _atom_site_fract_x
  _atom_site_fract_y
  _atom_site_fract_z
  _atom_site_thermal_displace_type
  _atom_site_B_iso_or_equiv
  _atom_site_type_symbol
  C1       1.0000 0.56669  0.98439  0.32669  Biso   1.000  C
  C2       1.0000 0.31728  0.54429  0.02646  Biso   1.000  C
  C3       1.0000 0.01267  0.31910  0.55632  Biso   1.000  C
  C4       1.0000 0.07054  0.99464  0.18075  Biso   1.000  C
  C5       1.0000 0.83215  0.56106  0.49787  Biso   1.000  C
  C6       1.0000 0.52248  0.32523  0.94372  Biso   1.000  C
  C7       1.0000 0.96249  0.50049  0.31856  Biso   1.000  C
  C8       1.0000 0.19050  0.05065  0.00250  Biso   1.000  C
  C9       1.0000 0.51627  0.81542  0.56907  Biso   1.000  C
  C10      1.0000 0.46400  0.49576  0.19065  Biso   1.000  C
  C11      1.0000 0.69240  0.06062  0.50401  Biso   1.000  C
  C12      1.0000 0.99930  0.82006  0.94956  Biso   1.000  C
  C13      1.0000 0.45091  0.00382  0.68488  Biso   1.000  C
  C14      1.0000 0.69169  0.45532  0.99546  Biso   1.000  C
  C15      1.0000 0.00821  0.67635  0.45353  Biso   1.000  C
  C16      1.0000 0.94718  0.00986  0.82402  Biso   1.000  C
  C17      1.0000 0.18440  0.44044  0.51464  Biso   1.000  C
  C18      1.0000 0.50002  0.68359  0.06394  Biso   1.000  C
  C19      1.0000 0.05373  0.49731  0.68828  Biso   1.000  C
  C20      1.0000 0.82229  0.94902  0.00263  Biso   1.000  C
  C21      1.0000 0.51211  0.17734  0.44368  Biso   1.000  C
  C22      1.0000 0.54977  0.50177  0.81735  Biso   1.000  C
  C23      1.0000 0.32997  0.94112  0.50162  Biso   1.000  C
  C24      1.0000 0.00034  0.17757  0.05960  Biso   1.000  C
  C25      1.0000 0.32529  0.04691  0.50436  Biso   1.000  C
  C26      1.0000 0.50952  0.32053  0.05314  Biso   1.000  C
  C27      1.0000 0.07126  0.49433  0.32751  Biso   1.000  C
  C28      1.0000 0.82502  0.05808  0.01653  Biso   1.000  C
  C29      1.0000 0.99609  0.31677  0.44963  Biso   1.000  C
  C30      1.0000 0.57100  0.49533  0.18075  Biso   1.000  C
  C31      1.0000 0.19316  0.54987  0.51264  Biso   1.000  C
  C32      1.0000 0.99857  0.81356  0.05727  Biso   1.000  C
  C33      1.0000 0.45956  0.99676  0.32265  Biso   1.000  C
  C34      1.0000 0.68022  0.56302  0.98140  Biso   1.000  C
  C35      1.0000 0.50972  0.81759  0.46176  Biso   1.000  C
  C36      1.0000 0.96196  0.98863  0.18475  Biso   1.000  C
  C37      1.0000 0.69347  0.95034  0.50680  Biso   1.000  C
  C38      1.0000 0.49105  0.68361  0.95538  Biso   1.000  C
  C39      1.0000 0.94586  0.49772  0.68227  Biso   1.000  C
  C40      1.0000 0.18660  0.94354  0.00307  Biso   1.000  C
  C41      1.0000 0.01587  0.67367  0.56079  Biso   1.000  C
  C42      1.0000 0.43951  0.50762  0.82690  Biso   1.000  C
  C43      1.0000 0.82764  0.45261  0.48796  Biso   1.000  C
  C44      1.0000 0.01581  0.17918  0.94970  Biso   1.000  C
  C45      1.0000 0.56234  0.01600  0.68697  Biso   1.000  C
  C46      1.0000 0.32771  0.43829  0.00890  Biso   1.000  C
  C47      1.0000 0.49945  0.18080  0.55099  Biso   1.000  C
  C48      1.0000 0.05486  0.00252  0.82106  Biso   1.000  C
  C49      1.0000 0.00445  0.05874  0.81685  Biso   1.000  C
  C50      1.0000 0.82667  0.99664  0.06643  Biso   1.000  C
  C51      1.0000 0.05758  0.81657  0.99952  Biso   1.000  C
  C52      1.0000 0.50180  0.06137  0.68360  Biso   1.000  C
  C53      1.0000 0.32660  0.00090  0.44684  Biso   1.000  C
  C54      1.0000 0.56634  0.82624  0.51462  Biso   1.000  C
  C55      1.0000 0.50072  0.56092  0.82516  Biso   1.000  C
  C56      1.0000 0.68962  0.51507  0.04432  Biso   1.000  C
  C57      1.0000 0.45842  0.31700  0.99026  Biso   1.000  C
  C58      1.0000 0.00154  0.55502  0.69197  Biso   1.000  C
  C59      1.0000 0.19647  0.49122  0.45944  Biso   1.000  C
  C60      1.0000 0.94864  0.32302  0.50867  Biso   1.000  C
  C61      1.0000 0.02040  0.93630  0.18450  Biso   1.000  C
  C62      1.0000 0.18586  0.00007  0.94738  Biso   1.000  C
  C63      1.0000 0.95297  0.17754  0.99677  Biso   1.000  C
  C64      1.0000 0.50672  0.93799  0.32943  Biso   1.000  C
  C65      1.0000 0.69100  0.00981  0.56156  Biso   1.000  C
  C66      1.0000 0.44912  0.17501  0.49224  Biso   1.000  C
  C67      1.0000 0.51865  0.44065  0.18750  Biso   1.000  C
  C68      1.0000 0.31865  0.50354  0.96361  Biso   1.000  C
  C69      1.0000 0.54675  0.68431  0.00333  Biso   1.000  C
  C70      1.0000 0.01769  0.44090  0.31935  Biso   1.000  C
  C71      1.0000 0.82822  0.49937  0.54902  Biso   1.000  C
  C72      1.0000 0.06748  0.67265  0.50427  Biso   1.000  C
  C73      1.0000 0.01992  0.54974  0.32167  Biso   1.000  C
  C74      1.0000 0.32109  0.98996  0.55860  Biso   1.000  C
  C75      1.0000 0.56729  0.32780  0.00756  Biso   1.000  C
  C76      1.0000 0.51801  0.54958  0.18406  Biso   1.000  C
  C77      1.0000 0.82174  0.00830  0.95634  Biso   1.000  C
  C78      1.0000 0.05803  0.31721  0.49469  Biso   1.000  C
  C79      1.0000 0.52584  0.04616  0.32178  Biso   1.000  C
  C80      1.0000 0.18286  0.49439  0.56987  Biso   1.000  C
  C81      1.0000 0.94637  0.81576  0.00595  Biso   1.000  C
  C82      1.0000 0.01429  0.04687  0.18604  Biso   1.000  C
  C83      1.0000 0.68615  0.50342  0.93770  Biso   1.000  C
  C84      1.0000 0.45968  0.81782  0.51926  Biso   1.000  C
  C85      1.0000 0.00217  0.44681  0.68363  Biso   1.000  C
  C86      1.0000 0.69167  0.00356  0.45225  Biso   1.000  C
  C87      1.0000 0.43853  0.67691  0.01817  Biso   1.000  C
  C88      1.0000 0.49334  0.45269  0.82335  Biso   1.000  C
  C89      1.0000 0.19585  0.99649  0.05871  Biso   1.000  C
  C90      1.0000 0.95764  0.68546  0.51481  Biso   1.000  C
  C91      1.0000 0.51611  0.95395  0.68545  Biso   1.000  C
  C92      1.0000 0.83092  0.51055  0.43941  Biso   1.000  C
  C93      1.0000 0.06404  0.17445  0.01074  Biso   1.000  C
  C94      1.0000 0.99720  0.94982  0.82403  Biso   1.000  C
  C95      1.0000 0.32751  0.48501  0.07294  Biso   1.000  C
  C96      1.0000 0.55841  0.18214  0.50628  Biso   1.000  C
  C97      1.0000 0.69102  0.09203  0.50381  Biso   1.000  C
  C98      1.0000 0.50064  0.68207  0.09616  Biso   1.000  C
  C99      1.0000 0.08520  0.49342  0.69175  Biso   1.000  C
  C100     1.0000 0.18967  0.08173  0.00181  Biso   1.000  C
  C101     1.0000 0.00959  0.67532  0.42140  Biso   1.000  C
  C102     1.0000 0.58160  0.49795  0.81677  Biso   1.000  C
  C103     1.0000 0.83160  0.59355  0.50134  Biso   1.000  C
  C104     1.0000 0.00104  0.17657  0.09146  Biso   1.000  C
  C105     1.0000 0.41929  0.00359  0.68389  Biso   1.000  C
  C106     1.0000 0.31625  0.57642  0.03085  Biso   1.000  C
  C107     1.0000 0.51752  0.17748  0.41226  Biso   1.000  C
  C108     1.0000 0.91540  0.01146  0.82633  Biso   1.000  C
  C109     1.0000 0.33211  0.90965  0.49596  Biso   1.000  C
  C110     1.0000 0.52660  0.32728  0.91174  Biso   1.000  C
  C111     1.0000 0.93089  0.50434  0.31788  Biso   1.000  C
  C112     1.0000 0.82318  0.91552  0.00118  Biso   1.000  C
  C113     1.0000 0.01282  0.31972  0.58791  Biso   1.000  C
  C114     1.0000 0.43323  0.48991  0.19318  Biso   1.000  C
  C115     1.0000 0.18411  0.40798  0.51456  Biso   1.000  C
  C116     1.0000 0.00122  0.82184  0.91734  Biso   1.000  C
  C117     1.0000 0.59872  0.98513  0.32607  Biso   1.000  C
  C118     1.0000 0.69394  0.42351  0.99906  Biso   1.000  C
  C119     1.0000 0.51291  0.81861  0.60056  Biso   1.000  C
  C120     1.0000 0.10226  0.98732  0.18084  Biso   1.000  C
  C121     1.0000 0.82857  0.99097  0.09828  Biso   1.000  C
  C122     1.0000 0.09000  0.81797  0.99653  Biso   1.000  C
  C123     1.0000 0.00490  0.09115  0.81696  Biso   1.000  C
  C124     1.0000 0.32779  0.00923  0.41550  Biso   1.000  C
  C125     1.0000 0.59860  0.82532  0.51843  Biso   1.000  C
  C126     1.0000 0.49781  0.09330  0.68224  Biso   1.000  C
  C127     1.0000 0.69183  0.51184  0.07644  Biso   1.000  C
  C128     1.0000 0.42679  0.31566  0.98725  Biso   1.000  C
  C129     1.0000 0.50432  0.59237  0.82682  Biso   1.000  C
  C130     1.0000 0.19722  0.48798  0.42778  Biso   1.000  C
  C131     1.0000 0.91662  0.32453  0.50880  Biso   1.000  C
  C132     1.0000 0.00147  0.58663  0.69215  Biso   1.000  C
  C133     1.0000 0.18423  0.00078  0.91612  Biso   1.000  C
  C134     1.0000 0.92192  0.18066  0.99096  Biso   1.000  C
  C135     1.0000 0.02007  0.90381  0.18518  Biso   1.000  C
  C136     1.0000 0.69200  0.01673  0.59298  Biso   1.000  C
  C137     1.0000 0.41691  0.17444  0.49614  Biso   1.000  C
  C138     1.0000 0.50865  0.90470  0.33022  Biso   1.000  C
  C139     1.0000 0.31910  0.50840  0.93293  Biso   1.000  C
  C140     1.0000 0.57797  0.68478  0.99887  Biso   1.000  C
  C141     1.0000 0.51531  0.40937  0.18539  Biso   1.000  C
  C142     1.0000 0.82573  0.49365  0.58001  Biso   1.000  C
  C143     1.0000 0.09990  0.67305  0.50684  Biso   1.000  C
  C144     1.0000 0.01395  0.40869  0.31869  Biso   1.000  C
  C145     1.0000 0.32987  0.48625  0.10481  Biso   1.000  C
  C146     1.0000 0.08963  0.31557  0.49962  Biso   1.000  C
  C147     1.0000 0.52730  0.07773  0.32109  Biso   1.000  C
  C148     1.0000 0.83319  0.50398  0.40835  Biso   1.000  C
  C149     1.0000 0.59980  0.32876  0.01340  Biso   1.000  C
  C150     1.0000 0.01296  0.07961  0.18502  Biso   1.000  C
  C151     1.0000 0.19807  0.99548  0.09019  Biso   1.000  C
  C152     1.0000 0.42751  0.81712  0.52158  Biso   1.000  C
  C153     1.0000 0.02342  0.58183  0.32346  Biso   1.000  C
  C154     1.0000 0.69285  0.00200  0.42047  Biso   1.000  C
  C155     1.0000 0.91546  0.81576  0.00310  Biso   1.000  C
  C156     1.0000 0.51402  0.58132  0.18513  Biso   1.000  C
  C157     1.0000 0.68455  0.50142  0.90586  Biso   1.000  C
  C158     1.0000 0.92612  0.68748  0.52149  Biso   1.000  C
  C159     1.0000 0.51674  0.92121  0.68809  Biso   1.000  C
  C160     1.0000 0.18326  0.49791  0.60207  Biso   1.000  C
  C161     1.0000 0.40712  0.67596  0.02397  Biso   1.000  C
  C162     1.0000 0.99600  0.91762  0.82271  Biso   1.000  C
  C163     1.0000 0.82246  0.01208  0.92400  Biso   1.000  C
  C164     1.0000 0.58944  0.18288  0.51294  Biso   1.000  C
  C165     1.0000 0.00458  0.41430  0.68255  Biso   1.000  C
  C166     1.0000 0.32280  0.98896  0.59242  Biso   1.000  C
  C167     1.0000 0.09634  0.17519  0.00750  Biso   1.000  C
  C168     1.0000 0.49501  0.42160  0.81951  Biso   1.000  C
  C169     1.0000 0.99428  0.81234  0.08929  Biso   1.000  C
  C170     1.0000 0.08670  0.00128  0.82242  Biso   1.000  C
  C171     1.0000 0.82517  0.09074  0.01064  Biso   1.000  C
  C172     1.0000 0.50680  0.81724  0.42863  Biso   1.000  C
  C173     1.0000 0.59537  0.01948  0.68757  Biso   1.000  C
  C174     1.0000 0.32432  0.07830  0.50687  Biso   1.000  C
  C175     1.0000 0.50952  0.31774  0.08522  Biso   1.000  C
  C176     1.0000 0.40737  0.50321  0.83032  Biso   1.000  C
  C177     1.0000 0.67760  0.59415  0.97633  Biso   1.000  C
  C178     1.0000 0.99579  0.31629  0.41553  Biso   1.000  C
  C179     1.0000 0.91448  0.49061  0.68062  Biso   1.000  C
  C180     1.0000 0.19528  0.57998  0.50712  Biso   1.000  C
  C181     1.0000 0.01174  0.17895  0.91764  Biso   1.000  C
  C182     1.0000 0.93031  0.98552  0.18704  Biso   1.000  C
  C183     1.0000 0.18654  0.91194  0.00280  Biso   1.000  C
  C184     1.0000 0.50147  0.18280  0.58269  Biso   1.000  C
  C185     1.0000 0.42735  0.99559  0.32381  Biso   1.000  C
  C186     1.0000 0.69492  0.91822  0.50613  Biso   1.000  C
  C187     1.0000 0.49245  0.68386  0.92412  Biso   1.000  C
  C188     1.0000 0.60203  0.49769  0.17858  Biso   1.000  C
  C189     1.0000 0.32841  0.40770  0.99869  Biso   1.000  C
  C190     1.0000 0.01446  0.67533  0.59282  Biso   1.000  C
  C191     1.0000 0.10464  0.48968  0.32708  Biso   1.000  C
  C192     1.0000 0.82574  0.42081  0.49160  Biso   1.000  C
  C193     1.0000 0.84961  0.01344  0.90956  Biso   1.000  C
  C194     1.0000 0.90040  0.84250  0.00091  Biso   1.000  C
  C195     1.0000 0.00083  0.90340  0.85153  Biso   1.000  C
  C196     1.0000 0.35065  0.99330  0.60768  Biso   1.000  C
  C197     1.0000 0.41126  0.84454  0.51932  Biso   1.000  C
  C198     1.0000 0.51758  0.90286  0.66294  Biso   1.000  C
  C199     1.0000 0.65598  0.50090  0.89190  Biso   1.000  C
  C200     1.0000 0.61421  0.35605  0.00850  Biso   1.000  C
  C201     1.0000 0.49845  0.40462  0.84708  Biso   1.000  C
  C202     1.0000 0.15548  0.49416  0.61711  Biso   1.000  C
  C203     1.0000 0.10663  0.34231  0.50371  Biso   1.000  C
  C204     1.0000 0.00846  0.39846  0.65491  Biso   1.000  C
  C205     1.0000 0.17074  0.99336  0.10518  Biso   1.000  C
  C206     1.0000 0.11215  0.14906  0.00440  Biso   1.000  C
  C207     1.0000 0.00951  0.09581  0.15838  Biso   1.000  C
  C208     1.0000 0.66646  0.99722  0.40412  Biso   1.000  C
  C209     1.0000 0.60679  0.15721  0.50755  Biso   1.000  C
  C210     1.0000 0.52733  0.09338  0.34808  Biso   1.000  C
  C211     1.0000 0.35916  0.48409  0.11721  Biso   1.000  C
  C212     1.0000 0.39320  0.64787  0.02572  Biso   1.000  C
  C213     1.0000 0.50843  0.59895  0.15926  Biso   1.000  C
  C214     1.0000 0.86099  0.50457  0.39419  Biso   1.000  C
  C215     1.0000 0.91116  0.65982  0.51697  Biso   1.000  C
  C216     1.0000 0.02120  0.59488  0.35266  Biso   1.000  C
  C217     1.0000 0.10452  0.00228  0.84894  Biso   1.000  C
  C218     1.0000 0.85308  0.10618  0.00533  Biso   1.000  C
  C219     1.0000 0.00239  0.83784  0.10544  Biso   1.000  C
  C220     1.0000 0.61021  0.01714  0.66031  Biso   1.000  C
  C221     1.0000 0.34915  0.09576  0.50064  Biso   1.000  C
  C222     1.0000 0.50841  0.84380  0.41237  Biso   1.000  C
  C223     1.0000 0.39565  0.50472  0.85923  Biso   1.000  C
  C224     1.0000 0.64918  0.60764  0.98116  Biso   1.000  C
  C225     1.0000 0.51412  0.34475  0.10225  Biso   1.000  C
  C226     1.0000 0.89950  0.48697  0.65294  Biso   1.000  C
  C227     1.0000 0.16927  0.59613  0.50505  Biso   1.000  C
  C228     1.0000 0.99713  0.34425  0.40051  Biso   1.000  C
  C229     1.0000 0.91183  0.98882  0.16063  Biso   1.000  C
  C230     1.0000 0.15875  0.89739  0.99893  Biso   1.000  C
  C231     1.0000 0.01398  0.15332  0.89965  Biso   1.000  C
  C232     1.0000 0.41132  0.00065  0.35095  Biso   1.000  C
  C233     1.0000 0.66834  0.90330  0.50783  Biso   1.000  C
  C234     1.0000 0.50411  0.15631  0.60016  Biso   1.000  C
  C235     1.0000 0.61682  0.50041  0.15101  Biso   1.000  C
  C236     1.0000 0.35588  0.39209  0.99485  Biso   1.000  C
  C237     1.0000 0.49473  0.65725  0.90717  Biso   1.000  C
  C238     1.0000 0.12082  0.48770  0.35580  Biso   1.000  C
  C239     1.0000 0.85139  0.40321  0.49256  Biso   1.000  C
  C240     1.0000 0.01362  0.64911  0.61004  Biso   1.000  C
  C241     1.0000 0.60077  0.49906  0.84314  Biso   1.000  C
  C242     1.0000 0.85845  0.60727  0.50817  Biso   1.000  C
  C243     1.0000 0.51400  0.84706  0.61397  Biso   1.000  C
  C244     1.0000 0.10332  0.49105  0.66608  Biso   1.000  C
  C245     1.0000 0.34296  0.59398  0.03256  Biso   1.000  C
  C246     1.0000 0.00517  0.84917  0.90362  Biso   1.000  C
  C247     1.0000 0.90191  0.01240  0.85519  Biso   1.000  C
  C248     1.0000 0.66235  0.10651  0.50399  Biso   1.000  C
  C249     1.0000 0.01066  0.34687  0.60504  Biso   1.000  C
  C250     1.0000 0.40139  0.00176  0.65907  Biso   1.000  C
  C251     1.0000 0.16415  0.09844  0.00508  Biso   1.000  C
  C252     1.0000 0.51703  0.35291  0.89780  Biso   1.000  C
  C253     1.0000 0.41761  0.48934  0.16660  Biso   1.000  C
  C254     1.0000 0.15629  0.39328  0.51203  Biso   1.000  C
  C255     1.0000 0.52006  0.14919  0.39720  Biso   1.000  C
  C256     1.0000 0.91346  0.50327  0.34418  Biso   1.000  C
  C257     1.0000 0.66753  0.40770  0.00063  Biso   1.000  C
  C258     1.0000 0.00382  0.14954  0.10671  Biso   1.000  C
  C259     1.0000 0.11775  0.98734  0.15370  Biso   1.000  C
  C260     1.0000 0.36008  0.89421  0.50348  Biso   1.000  C
  C261     1.0000 0.01511  0.64742  0.40580  Biso   1.000  C
  C262     1.0000 0.61555  0.98930  0.35197  Biso   1.000  C
  C263     1.0000 0.84821  0.89771  0.99861  Biso   1.000  C
  C264     1.0000 0.50585  0.65427  0.11006  Biso   1.000  C
  C265     1.0000 0.00983  0.10613  0.84426  Biso   1.000  C
  C266     1.0000 0.85727  0.98921  0.11176  Biso   1.000  C
  C267     1.0000 0.10499  0.84631  0.99622  Biso   1.000  C
  C268     1.0000 0.49761  0.10770  0.65435  Biso   1.000  C
  C269     1.0000 0.35586  0.00640  0.40073  Biso   1.000  C
  C270     1.0000 0.61501  0.85181  0.51305  Biso   1.000  C
  C271     1.0000 0.50005  0.60759  0.85403  Biso   1.000  C
  C272     1.0000 0.66547  0.50919  0.09510  Biso   1.000  C
  C273     1.0000 0.41121  0.34169  0.99104  Biso   1.000  C
  C274     1.0000 0.00688  0.60185  0.66421  Biso   1.000  C
  C275     1.0000 0.17090  0.48644  0.41050  Biso   1.000  C
  C276     1.0000 0.90094  0.35009  0.50087  Biso   1.000  C
  C277     1.0000 0.01728  0.88898  0.15832  Biso   1.000  C
  C278     1.0000 0.15838  0.00611  0.89949  Biso   1.000  C
  C279     1.0000 0.90592  0.15494  0.99325  Biso   1.000  C
  C280     1.0000 0.50774  0.89062  0.35863  Biso   1.000  C
  C281     1.0000 0.66476  0.01525  0.60855  Biso   1.000  C
  C282     1.0000 0.40000  0.14705  0.49790  Biso   1.000  C
  C283     1.0000 0.51426  0.39488  0.15665  Biso   1.000  C
  C284     1.0000 0.34579  0.50335  0.91385  Biso   1.000  C
  C285     1.0000 0.59431  0.65852  0.99320  Biso   1.000  C
  C286     1.0000 0.00836  0.39354  0.34565  Biso   1.000  C
  C287     1.0000 0.85208  0.49012  0.59844  Biso   1.000  C
  C288     1.0000 0.11870  0.64740  0.50462  Biso   1.000  C
  C289     1.0000 0.35856  0.86403  0.50789  Biso   1.000  C
  C290     1.0000 0.51262  0.35303  0.86671  Biso   1.000  C
  C291     1.0000 0.88249  0.50394  0.34169  Biso   1.000  C
  C292     1.0000 0.84623  0.86654  0.00004  Biso   1.000  C
  C293     1.0000 0.01258  0.34697  0.63553  Biso   1.000  C
  C294     1.0000 0.38511  0.48644  0.16588  Biso   1.000  C
  C295     1.0000 0.15781  0.36163  0.51182  Biso   1.000  C
  C296     1.0000 0.00272  0.84864  0.87199  Biso   1.000  C
  C297     1.0000 0.64646  0.98933  0.35178  Biso   1.000  C
  C298     1.0000 0.66802  0.37623  0.00047  Biso   1.000  C
  C299     1.0000 0.51637  0.84888  0.64606  Biso   1.000  C
  C300     1.0000 0.14907  0.98870  0.15724  Biso   1.000  C
  C301     1.0000 0.66072  0.13778  0.50767  Biso   1.000  C
  C302     1.0000 0.50247  0.65246  0.14018  Biso   1.000  C
  C303     1.0000 0.13379  0.49489  0.66950  Biso   1.000  C
  C304     1.0000 0.16645  0.12984  0.00291  Biso   1.000  C
  C305     1.0000 0.01364  0.64736  0.37373  Biso   1.000  C
  C306     1.0000 0.63192  0.49804  0.84057  Biso   1.000  C
  C307     1.0000 0.85913  0.63867  0.51030  Biso   1.000  C
  C308     1.0000 0.00646  0.14944  0.13820  Biso   1.000  C
  C309     1.0000 0.37022  0.99982  0.66033  Biso   1.000  C
  C310     1.0000 0.34153  0.62477  0.02694  Biso   1.000  C
  C311     1.0000 0.52122  0.14762  0.36559  Biso   1.000  C
  C312     1.0000 0.87063  0.01561  0.85574  Biso   1.000  C
  C313     1.0000 0.17199  0.48608  0.37929  Biso   1.000  C
  C314     1.0000 0.36852  0.14667  0.50333  Biso   1.000  C
  C315     1.0000 0.51119  0.36310  0.15659  Biso   1.000  C
  C316     1.0000 0.66866  0.50692  0.12670  Biso   1.000  C
  C317     1.0000 0.87429  0.15727  0.99489  Biso   1.000  C
  C318     1.0000 0.00331  0.36288  0.34634  Biso   1.000  C
  C319     1.0000 0.35686  0.00305  0.37068  Biso   1.000  C
  C320     1.0000 0.14980  0.64898  0.50525  Biso   1.000  C
  C321     1.0000 0.01006  0.85805  0.15940  Biso   1.000  C
  C322     1.0000 0.85828  0.98765  0.14290  Biso   1.000  C
  C323     1.0000 0.62505  0.65987  0.98928  Biso   1.000  C
  C324     1.0000 0.50685  0.85910  0.35884  Biso   1.000  C
  C325     1.0000 0.84719  0.48855  0.62978  Biso   1.000  C
  C326     1.0000 0.64603  0.85143  0.51144  Biso   1.000  C
  C327     1.0000 0.49803  0.63870  0.85331  Biso   1.000  C
  C328     1.0000 0.34359  0.50926  0.88226  Biso   1.000  C
  C329     1.0000 0.13634  0.84426  0.99969  Biso   1.000  C
  C330     1.0000 0.00610  0.63222  0.66385  Biso   1.000  C
  C331     1.0000 0.66366  0.01649  0.64016  Biso   1.000  C
  C332     1.0000 0.87027  0.35022  0.49754  Biso   1.000  C
  C333     1.0000 0.00963  0.13695  0.84578  Biso   1.000  C
  C334     1.0000 0.15827  0.00520  0.86884  Biso   1.000  C
  C335     1.0000 0.37906  0.33961  0.98899  Biso   1.000  C
  C336     1.0000 0.49960  0.13802  0.65375  Biso   1.000  C
  C337     1.0000 0.65464  0.49864  0.86064  Biso   1.000  C
  C338     1.0000 0.87987  0.65983  0.51435  Biso   1.000  C
  C339     1.0000 0.51735  0.87218  0.66628  Biso   1.000  C
  C340     1.0000 0.15559  0.49887  0.64885  Biso   1.000  C
  C341     1.0000 0.36204  0.64699  0.02429  Biso   1.000  C
  C342     1.0000 0.00069  0.87135  0.85141  Biso   1.000  C
  C343     1.0000 0.84966  0.01692  0.87745  Biso   1.000  C
  C344     1.0000 0.63773  0.15791  0.50811  Biso   1.000  C
  C345     1.0000 0.01145  0.36835  0.65797  Biso   1.000  C
  C346     1.0000 0.34911  0.99748  0.63896  Biso   1.000  C
  C347     1.0000 0.14439  0.15102  0.00445  Biso   1.000  C
  C348     1.0000 0.50407  0.37385  0.84440  Biso   1.000  C
  C349     1.0000 0.36080  0.48484  0.14763  Biso   1.000  C
  C350     1.0000 0.13736  0.33951  0.50776  Biso   1.000  C
  C351     1.0000 0.52371  0.12565  0.34511  Biso   1.000  C
  C352     1.0000 0.86035  0.50532  0.36254  Biso   1.000  C
  C353     1.0000 0.64574  0.35603  0.00392  Biso   1.000  C
  C354     1.0000 0.00892  0.12766  0.15894  Biso   1.000  C
  C355     1.0000 0.17032  0.99175  0.13615  Biso   1.000  C
  C356     1.0000 0.37996  0.84343  0.51445  Biso   1.000  C
  C357     1.0000 0.01623  0.62563  0.35263  Biso   1.000  C
  C358     1.0000 0.66841  0.99484  0.37309  Biso   1.000  C
  C359     1.0000 0.86791  0.84376  0.00018  Biso   1.000  C
  C360     1.0000 0.50454  0.63063  0.16126  Biso   1.000  C
  C361     1.0000 0.01194  0.15747  0.86815  Biso   1.000  C
  C362     1.0000 0.88074  0.98792  0.16353  Biso   1.000  C
  C363     1.0000 0.15814  0.86443  0.00068  Biso   1.000  C
  C364     1.0000 0.50284  0.15876  0.63162  Biso   1.000  C
  C365     1.0000 0.37863  0.00112  0.34996  Biso   1.000  C
  C366     1.0000 0.66899  0.87328  0.50856  Biso   1.000  C
  C367     1.0000 0.49569  0.65956  0.87578  Biso   1.000  C
  C368     1.0000 0.64822  0.50321  0.15086  Biso   1.000  C
  C369     1.0000 0.35711  0.36072  0.99111  Biso   1.000  C
  C370     1.0000 0.00760  0.65194  0.64103  Biso   1.000  C
  C371     1.0000 0.15138  0.48789  0.35593  Biso   1.000  C
  C372     1.0000 0.84847  0.37266  0.49475  Biso   1.000  C
  C373     1.0000 0.00357  0.83770  0.13768  Biso   1.000  C
  C374     1.0000 0.13551  0.00568  0.84806  Biso   1.000  C
  C375     1.0000 0.85149  0.13747  0.00049  Biso   1.000  C
  C376     1.0000 0.50587  0.83929  0.38203  Biso   1.000  C
  C377     1.0000 0.64225  0.01778  0.66109  Biso   1.000  C
  C378     1.0000 0.34738  0.12601  0.50583  Biso   1.000  C
  C379     1.0000 0.51257  0.34322  0.13345  Biso   1.000  C
  C380     1.0000 0.36413  0.50797  0.85956  Biso   1.000  C
  C381     1.0000 0.64734  0.63919  0.98394  Biso   1.000  C
  C382     1.0000 0.99869  0.34346  0.36957  Biso   1.000  C
  C383     1.0000 0.86810  0.48710  0.65291  Biso   1.000  C
  C384     1.0000 0.17121  0.62831  0.50615  Biso   1.000  C
  C385     1.0000 0.19261  0.14548  0.00204  Biso   1.000  C
  C386     1.0000 0.00160  0.17524  0.15499  Biso   1.000  C
  C387     1.0000 0.16338  0.99028  0.18507  Biso   1.000  C
  C388     1.0000 0.68675  0.15397  0.51236  Biso   1.000  C
  C389     1.0000 0.52125  0.17534  0.34911  Biso   1.000  C
  C390     1.0000 0.66298  0.98878  0.32542  Biso   1.000  C
  C391     1.0000 0.31535  0.63967  0.02329  Biso   1.000  C
  C392     1.0000 0.49489  0.67815  0.15788  Biso   1.000  C
  C393     1.0000 0.37199  0.48740  0.19467  Biso   1.000  C
  C394     1.0000 0.83225  0.65487  0.50993  Biso   1.000  C
  C395     1.0000 0.00828  0.67428  0.35724  Biso   1.000  C
  C396     1.0000 0.86657  0.50431  0.31444  Biso   1.000  C
  C397     1.0000 0.81918  0.85228  0.00168  Biso   1.000  C
  C398     1.0000 0.00135  0.82212  0.85466  Biso   1.000  C
  C399     1.0000 0.85447  0.01894  0.82850  Biso   1.000  C
  C400     1.0000 0.33256  0.84748  0.50217  Biso   1.000  C
  C401     1.0000 0.51367  0.82368  0.66342  Biso   1.000  C
  C402     1.0000 0.35520  0.00207  0.68657  Biso   1.000  C
  C403     1.0000 0.69518  0.36124  0.00033  Biso   1.000  C
  C404     1.0000 0.51772  0.32683  0.84824  Biso   1.000  C
  C405     1.0000 0.64572  0.49551  0.81265  Biso   1.000  C
  C406     1.0000 0.18626  0.34644  0.51456  Biso   1.000  C
  C407     1.0000 0.01573  0.32006  0.65077  Biso   1.000  C
  C408     1.0000 0.14751  0.50120  0.69715  Biso   1.000  C
  C409     1.0000 0.14915  0.00674  0.82115  Biso   1.000  C
  C410     1.0000 0.82612  0.15427  0.00105  Biso   1.000  C
  C411     1.0000 0.99737  0.81206  0.15272  Biso   1.000  C
  C412     1.0000 0.65816  0.01876  0.68822  Biso   1.000  C
  C413     1.0000 0.32192  0.14088  0.51427  Biso   1.000  C
  C414     1.0000 0.50265  0.81175  0.36751  Biso   1.000  C
  C415     1.0000 0.34722  0.51201  0.83262  Biso   1.000  C
  C416     1.0000 0.67274  0.65673  0.98076  Biso   1.000  C
  C417     1.0000 0.51223  0.31518  0.14761  Biso   1.000  C
  C418     1.0000 0.85158  0.48906  0.67823  Biso   1.000  C
  C419     1.0000 0.19705  0.64297  0.50543  Biso   1.000  C
  C420     1.0000 0.99339  0.31668  0.35435  Biso   1.000  C
  C421     1.0000 0.86766  0.98331  0.19154  Biso   1.000  C
  C422     1.0000 0.18413  0.84849  0.00643  Biso   1.000  C
  C423     1.0000 0.01114  0.18549  0.85460  Biso   1.000  C
  C424     1.0000 0.36390  0.99587  0.32236  Biso   1.000  C
  C425     1.0000 0.69460  0.85611  0.51085  Biso   1.000  C
  C426     1.0000 0.50302  0.18692  0.64558  Biso   1.000  C
  C427     1.0000 0.66464  0.50392  0.17725  Biso   1.000  C
  C428     1.0000 0.33074  0.34490  0.98784  Biso   1.000  C
  C429     1.0000 0.49318  0.68731  0.86086  Biso   1.000  C
  C430     1.0000 0.16781  0.48923  0.32983  Biso   1.000  C
  C431     1.0000 0.82164  0.35771  0.49689  Biso   1.000  C
  C432     1.0000 0.00584  0.67835  0.65565  Biso   1.000  C
  C433     1.0000 0.00752  0.15422  0.82025  Biso   1.000  C
  C434     1.0000 0.83275  0.98890  0.16030  Biso   1.000  C
  C435     1.0000 0.15116  0.81760  0.00225  Biso   1.000  C
  C436     1.0000 0.49749  0.15521  0.68088  Biso   1.000  C
  C437     1.0000 0.33070  0.00138  0.35474  Biso   1.000  C
  C438     1.0000 0.66204  0.82394  0.51381  Biso   1.000  C
  C439     1.0000 0.49934  0.65519  0.82794  Biso   1.000  C
  C440     1.0000 0.69631  0.50912  0.14146  Biso   1.000  C
  C441     1.0000 0.36381  0.31316  0.98297  Biso   1.000  C
  C442     1.0000 0.00299  0.64823  0.69035  Biso   1.000  C
  C443     1.0000 0.19984  0.48660  0.36388  Biso   1.000  C
  C444     1.0000 0.85337  0.32461  0.50223  Biso   1.000  C
  C445     1.0000 0.00718  0.84278  0.18595  Biso   1.000  C
  C446     1.0000 0.18407  0.00418  0.85364  Biso   1.000  C
  C447     1.0000 0.86116  0.18564  0.99222  Biso   1.000  C
  C448     1.0000 0.50710  0.84222  0.33197  Biso   1.000  C
  C449     1.0000 0.69051  0.01987  0.65643  Biso   1.000  C
  C450     1.0000 0.35321  0.17400  0.50919  Biso   1.000  C
  C451     1.0000 0.51176  0.34580  0.18247  Biso   1.000  C
  C452     1.0000 0.31636  0.51758  0.86896  Biso   1.000  C
  C453     1.0000 0.64058  0.68731  0.98979  Biso   1.000  C
  C454     1.0000 0.00107  0.34700  0.31997  Biso   1.000  C
  C455     1.0000 0.81925  0.48989  0.64414  Biso   1.000  C
  C456     1.0000 0.16483  0.67637  0.50565  Biso   1.000  C
  C457     1.0000 0.01386  0.64259  0.32430  Biso   1.000  C
  C458     1.0000 0.32151  0.99616  0.65431  Biso   1.000  C
  C459     1.0000 0.66075  0.32936  0.00283  Biso   1.000  C
  C460     1.0000 0.50321  0.64388  0.18825  Biso   1.000  C
  C461     1.0000 0.82371  0.02391  0.86225  Biso   1.000  C
  C462     1.0000 0.15383  0.31292  0.50814  Biso   1.000  C
  C463     1.0000 0.52406  0.14045  0.31690  Biso   1.000  C
  C464     1.0000 0.18112  0.50535  0.66579  Biso   1.000  C
  C465     1.0000 0.85042  0.81799  0.00311  Biso   1.000  C
  C466     1.0000 0.00772  0.14264  0.18571  Biso   1.000  C
  C467     1.0000 0.68093  0.49797  0.84304  Biso   1.000  C
  C468     1.0000 0.36407  0.81627  0.51586  Biso   1.000  C
  C469     1.0000 0.01185  0.35135  0.68379  Biso   1.000  C
  C470     1.0000 0.69668  0.99627  0.35778  Biso   1.000  C
  C471     1.0000 0.34552  0.67433  0.02304  Biso   1.000  C
  C472     1.0000 0.50351  0.35883  0.81666  Biso   1.000  C
  C473     1.0000 0.19679  0.99234  0.15225  Biso   1.000  C
  C474     1.0000 0.86348  0.68644  0.51587  Biso   1.000  C
  C475     1.0000 0.51767  0.85864  0.69456  Biso   1.000  C
  C476     1.0000 0.83390  0.50539  0.34614  Biso   1.000  C
  C477     1.0000 0.15920  0.17805  0.00482  Biso   1.000  C
  C478     1.0000 0.99784  0.85442  0.82452  Biso   1.000  C
  C479     1.0000 0.33579  0.48591  0.16608  Biso   1.000  C
  C480     1.0000 0.65273  0.18441  0.51431  Biso   1.000  C
  C481     1.0000 0.38017  0.78874  0.52119  Biso   1.000  C
  C482     1.0000 0.49639  0.37447  0.78929  Biso   1.000  C
  C483     1.0000 0.80560  0.50327  0.36002  Biso   1.000  C
  C484     1.0000 0.86382  0.79016  0.00480  Biso   1.000  C
  C485     1.0000 0.00608  0.36709  0.71084  Biso   1.000  C
  C486     1.0000 0.30710  0.48689  0.15368  Biso   1.000  C
  C487     1.0000 0.13732  0.28582  0.50515  Biso   1.000  C
  C488     1.0000 0.99533  0.86949  0.79725  Biso   1.000  C
  C489     1.0000 0.72194  0.00268  0.37568  Biso   1.000  C
  C490     1.0000 0.64671  0.30082  0.00665  Biso   1.000  C
  C491     1.0000 0.51617  0.87777  0.72077  Biso   1.000  C
  C492     1.0000 0.22598  0.99476  0.13918  Biso   1.000  C
  C493     1.0000 0.63529  0.21014  0.52273  Biso   1.000  C
  C494     1.0000 0.50892  0.62697  0.21434  Biso   1.000  C
  C495     1.0000 0.20850  0.50755  0.65175  Biso   1.000  C
  C496     1.0000 0.14243  0.20426  0.00673  Biso   1.000  C
  C497     1.0000 0.01485  0.62757  0.29623  Biso   1.000  C
  C498     1.0000 0.70956  0.49864  0.85665  Biso   1.000  C
  C499     1.0000 0.87868  0.71414  0.52089  Biso   1.000  C
  C500     1.0000 0.01084  0.12702  0.21235  Biso   1.000  C
  C501     1.0000 0.29499  0.99022  0.63809  Biso   1.000  C
  C502     1.0000 0.36041  0.70218  0.02640  Biso   1.000  C
  C503     1.0000 0.52573  0.12316  0.29052  Biso   1.000  C
  C504     1.0000 0.79672  0.02837  0.87831  Biso   1.000  C
  C505     1.0000 0.62725  0.49416  0.78634  Biso   1.000  C
  C506     1.0000 0.80502  0.64022  0.50329  Biso   1.000  C
  C507     1.0000 0.51132  0.79575  0.65000  Biso   1.000  C
  C508     1.0000 0.12956  0.49814  0.72375  Biso   1.000  C
  C509     1.0000 0.28839  0.62341  0.02346  Biso   1.000  C
  C510     1.0000 0.00016  0.79482  0.87037  Biso   1.000  C
  C511     1.0000 0.86943  0.01865  0.80054  Biso   1.000  C
  C512     1.0000 0.71522  0.13958  0.50998  Biso   1.000  C
  C513     1.0000 0.02227  0.29308  0.63536  Biso   1.000  C
  C514     1.0000 0.37359  0.00585  0.71273  Biso   1.000  C
  C515     1.0000 0.21917  0.12724  0.99885  Biso   1.000  C
  C516     1.0000 0.52861  0.30139  0.86306  Biso   1.000  C
  C517     1.0000 0.38879  0.48769  0.22108  Biso   1.000  C
  C518     1.0000 0.21364  0.36168  0.51795  Biso   1.000  C
  C519     1.0000 0.52074  0.20286  0.36461  Biso   1.000  C
  C520     1.0000 0.88343  0.50724  0.28766  Biso   1.000  C
  C521     1.0000 0.72292  0.37739  0.99863  Biso   1.000  C
  C522     1.0000 0.99871  0.20308  0.14006  Biso   1.000  C
  C523     1.0000 0.14869  0.98928  0.21270  Biso   1.000  C
  C524     1.0000 0.30474  0.86193  0.49458  Biso   1.000  C
  C525     1.0000 0.00152  0.70198  0.37290  Biso   1.000  C
  C526     1.0000 0.64758  0.98290  0.29874  Biso   1.000  C
  C527     1.0000 0.79312  0.86973  0.00739  Biso   1.000  C
  C528     1.0000 0.48924  0.70534  0.14429  Biso   1.000  C
  C529     1.0000 0.79750  0.14071  0.00667  Biso   1.000  C
  C530     1.0000 0.98894  0.78586  0.13642  Biso   1.000  C
  C531     1.0000 0.13315  0.01058  0.79495  Biso   1.000  C
  C532     1.0000 0.29599  0.12433  0.52131  Biso   1.000  C
  C533     1.0000 0.49941  0.78522  0.38610  Biso   1.000  C
  C534     1.0000 0.64243  0.01779  0.71526  Biso   1.000  C
  C535     1.0000 0.70039  0.64411  0.97142  Biso   1.000  C
  C536     1.0000 0.51035  0.28861  0.13024  Biso   1.000  C
  C537     1.0000 0.36008  0.50805  0.80398  Biso   1.000  C
  C538     1.0000 0.22434  0.62572  0.50630  Biso   1.000  C
  C539     1.0000 0.98946  0.28912  0.36998  Biso   1.000  C
  C540     1.0000 0.86655  0.48859  0.70657  Biso   1.000  C
  C541     1.0000 0.21238  0.86347  0.01178  Biso   1.000  C
  C542     1.0000 0.01146  0.21163  0.87241  Biso   1.000  C
  C543     1.0000 0.88492  0.97852  0.21722  Biso   1.000  C
  C544     1.0000 0.72323  0.87031  0.50785  Biso   1.000  C
  C545     1.0000 0.50386  0.21309  0.62842  Biso   1.000  C
  C546     1.0000 0.38066  0.98872  0.29694  Biso   1.000  C
  C547     1.0000 0.30245  0.36032  0.99063  Biso   1.000  C
  C548     1.0000 0.48746  0.71406  0.87720  Biso   1.000  C
  C549     1.0000 0.64926  0.50403  0.20584  Biso   1.000  C
  C550     1.0000 0.79506  0.37519  0.49402  Biso   1.000  C
  C551     1.0000 0.01260  0.70495  0.63853  Biso   1.000  C
  C552     1.0000 0.15238  0.49015  0.30160  Biso   1.000  C
  C553     1.0000 0.00197  0.13933  0.79287  Biso   1.000  C
  C554     1.0000 0.80400  0.99218  0.14713  Biso   1.000  C
  C555     1.0000 0.13665  0.79099  0.99970  Biso   1.000  C
  C556     1.0000 0.49741  0.14059  0.70864  Biso   1.000  C
  C557     1.0000 0.30252  0.00939  0.36916  Biso   1.000  C
  C558     1.0000 0.64597  0.79773  0.52039  Biso   1.000  C
  C559     1.0000 0.50263  0.64135  0.79916  Biso   1.000  C
  C560     1.0000 0.72238  0.51032  0.12404  Biso   1.000  C
  C561     1.0000 0.38151  0.28751  0.97588  Biso   1.000  C
  C562     1.0000 0.99717  0.63411  0.71799  Biso   1.000  C
  C563     1.0000 0.22631  0.48766  0.38102  Biso   1.000  C
  C564     1.0000 0.86863  0.29783  0.51101  Biso   1.000  C
  C565     1.0000 0.01294  0.85836  0.21372  Biso   1.000  C
  C566     1.0000 0.21162  0.99675  0.86925  Biso   1.000  C
  C567     1.0000 0.87795  0.21197  0.98632  Biso   1.000  C
  C568     1.0000 0.51036  0.85636  0.30398  Biso   1.000  C
  C569     1.0000 0.71730  0.01995  0.64154  Biso   1.000  C
  C570     1.0000 0.37069  0.20105  0.50752  Biso   1.000  C
  C571     1.0000 0.51616  0.35949  0.21007  Biso   1.000  C
  C572     1.0000 0.29206  0.52458  0.88766  Biso   1.000  C
  C573     1.0000 0.62736  0.71451  0.99682  Biso   1.000  C
  C574     1.0000 0.00495  0.36210  0.29229  Biso   1.000  C
  C575     1.0000 0.79280  0.49107  0.62521  Biso   1.000  C
  C576     1.0000 0.14777  0.70257  0.50799  Biso   1.000  C
  C577     1.0000 0.30446  0.48822  0.12302  Biso   1.000  C
  C578     1.0000 0.10567  0.28890  0.50070  Biso   1.000  C
  C579     1.0000 0.52690  0.09191  0.29356  Biso   1.000  C
  C580     1.0000 0.80505  0.50168  0.39265  Biso   1.000  C
  C581     1.0000 0.61639  0.30128  0.01370  Biso   1.000  C
  C582     1.0000 0.01327  0.09602  0.21341  Biso   1.000  C
  C583     1.0000 0.22500  0.99730  0.10756  Biso   1.000  C
  C584     1.0000 0.41198  0.78928  0.52618  Biso   1.000  C
  C585     1.0000 0.02202  0.59758  0.29640  Biso   1.000  C
  C586     1.0000 0.72128  0.00542  0.40674  Biso   1.000  C
  C587     1.0000 0.89638  0.79012  0.00731  Biso   1.000  C
  C588     1.0000 0.51335  0.59547  0.21293  Biso   1.000  C
  C589     1.0000 0.71167  0.50035  0.88771  Biso   1.000  C
  C590     1.0000 0.90951  0.71488  0.52526  Biso   1.000  C
  C591     1.0000 0.51524  0.90882  0.71644  Biso   1.000  C
  C592     1.0000 0.20941  0.50610  0.62029  Biso   1.000  C
  C593     1.0000 0.39153  0.70331  0.02564  Biso   1.000  C
  C594     1.0000 0.99108  0.90020  0.79740  Biso   1.000  C
  C595     1.0000 0.79550  0.01995  0.90850  Biso   1.000  C
  C596     1.0000 0.60426  0.20935  0.52245  Biso   1.000  C
  C597     1.0000 0.00201  0.39840  0.71049  Biso   1.000  C
  C598     1.0000 0.29540  0.98845  0.60712  Biso   1.000  C
  C599     1.0000 0.11109  0.20331  0.00868  Biso   1.000  C
  C600     1.0000 0.49188  0.40630  0.79045  Biso   1.000  C
  C601     1.0000 0.21188  0.99450  0.90089  Biso   1.000  C
  C602     1.0000 0.90982  0.20990  0.98807  Biso   1.000  C
  C603     1.0000 0.01998  0.88849  0.21353  Biso   1.000  C
  C604     1.0000 0.71840  0.02007  0.61034  Biso   1.000  C
  C605     1.0000 0.40113  0.20083  0.49957  Biso   1.000  C
  C606     1.0000 0.51012  0.88750  0.30346  Biso   1.000  C
  C607     1.0000 0.29259  0.51984  0.91782  Biso   1.000  C
  C608     1.0000 0.59491  0.71286  0.00163  Biso   1.000  C
  C609     1.0000 0.51535  0.39166  0.21184  Biso   1.000  C
  C610     1.0000 0.79659  0.49142  0.59427  Biso   1.000  C
  C611     1.0000 0.11554  0.70044  0.50827  Biso   1.000  C
  C612     1.0000 0.01267  0.39353  0.29187  Biso   1.000  C
  C613     1.0000 0.80263  0.99337  0.11574  Biso   1.000  C
  C614     1.0000 0.10561  0.79067  0.99522  Biso   1.000  C
  C615     1.0000 0.99985  0.10809  0.79141  Biso   1.000  C
  C616     1.0000 0.30087  0.01208  0.40000  Biso   1.000  C
  C617     1.0000 0.61451  0.79859  0.52321  Biso   1.000  C
  C618     1.0000 0.49668  0.10966  0.70848  Biso   1.000  C
  C619     1.0000 0.72090  0.51211  0.09148  Biso   1.000  C
  C620     1.0000 0.41329  0.28929  0.97694  Biso   1.000  C
  C621     1.0000 0.50486  0.60922  0.80029  Biso   1.000  C
  C622     1.0000 0.22479  0.48712  0.41377  Biso   1.000  C
  C623     1.0000 0.90045  0.29847  0.51385  Biso   1.000  C
  C624     1.0000 0.99467  0.60385  0.71768  Biso   1.000  C
  C625     1.0000 0.01089  0.20739  0.90368  Biso   1.000  C
  C626     1.0000 0.91572  0.98111  0.21433  Biso   1.000  C
  C627     1.0000 0.21273  0.89444  0.00815  Biso   1.000  C
  C628     1.0000 0.50205  0.21036  0.59673  Biso   1.000  C
  C629     1.0000 0.41168  0.99007  0.29617  Biso   1.000  C
  C630     1.0000 0.72162  0.90245  0.50485  Biso   1.000  C
  C631     1.0000 0.48957  0.71279  0.90867  Biso   1.000  C
  C632     1.0000 0.61818  0.49911  0.20697  Biso   1.000  C
  C633     1.0000 0.30144  0.39122  0.99779  Biso   1.000  C
  C634     1.0000 0.01482  0.70212  0.60797  Biso   1.000  C
  C635     1.0000 0.12182  0.48936  0.30045  Biso   1.000  C
  C636     1.0000 0.79747  0.40656  0.49175  Biso   1.000  C
  C637     1.0000 0.98690  0.78745  0.10512  Biso   1.000  C
  C638     1.0000 0.10132  0.00637  0.79452  Biso   1.000  C
  C639     1.0000 0.79862  0.10905  0.01339  Biso   1.000  C
  C640     1.0000 0.49964  0.78898  0.41705  Biso   1.000  C
  C641     1.0000 0.61107  0.01993  0.71499  Biso   1.000  C
  C642     1.0000 0.29691  0.09194  0.51740  Biso   1.000  C
  C643     1.0000 0.50775  0.29057  0.09906  Biso   1.000  C
  C644     1.0000 0.39034  0.50225  0.80276  Biso   1.000  C
  C645     1.0000 0.70264  0.61251  0.97029  Biso   1.000  C
  C646     1.0000 0.99230  0.28977  0.40082  Biso   1.000  C
  C647     1.0000 0.89812  0.49000  0.70780  Biso   1.000  C
  C648     1.0000 0.22320  0.59470  0.50746  Biso   1.000  C
  C649     1.0000 0.00439  0.70244  0.40445  Biso   1.000  C
  C650     1.0000 0.40558  0.00525  0.71183  Biso   1.000  C
  C651     1.0000 0.72151  0.40854  0.00189  Biso   1.000  C
  C652     1.0000 0.49335  0.70745  0.11286  Biso   1.000  C
  C653     1.0000 0.89980  0.01486  0.79910  Biso   1.000  C
  C654     1.0000 0.21178  0.39312  0.51544  Biso   1.000  C
  C655     1.0000 0.51715  0.20383  0.39583  Biso   1.000  C
  C656     1.0000 0.09826  0.49429  0.72024  Biso   1.000  C
  C657     1.0000 0.79609  0.90049  0.00710  Biso   1.000  C
  C658     1.0000 0.99866  0.20241  0.10840  Biso   1.000  C
  C659     1.0000 0.59557  0.49752  0.78752  Biso   1.000  C
  C660     1.0000 0.30350  0.89292  0.49078  Biso   1.000  C
  C661     1.0000 0.02013  0.29268  0.60360  Biso   1.000  C
  C662     1.0000 0.61522  0.98187  0.29907  Biso   1.000  C
  C663     1.0000 0.28780  0.59131  0.02791  Biso   1.000  C
  C664     1.0000 0.53337  0.30088  0.89387  Biso   1.000  C
  C665     1.0000 0.11699  0.98517  0.20901  Biso   1.000  C
  C666     1.0000 0.80495  0.60920  0.49935  Biso   1.000  C
  C667     1.0000 0.50989  0.79296  0.61939  Biso   1.000  C
  C668     1.0000 0.91529  0.50746  0.28919  Biso   1.000  C
  C669     1.0000 0.21636  0.09639  0.99729  Biso   1.000  C
  C670     1.0000 0.99950  0.79527  0.90091  Biso   1.000  C
  C671     1.0000 0.42072  0.48860  0.22151  Biso   1.000  C
  C672     1.0000 0.71721  0.10850  0.50584  Biso   1.000  C
  C673     1.0000 0.19789  0.00592  0.80741  Biso   1.000  C
  C674     1.0000 0.81537  0.20213  0.99415  Biso   1.000  C
  C675     1.0000 0.99627  0.79561  0.19964  Biso   1.000  C
  C676     1.0000 0.70531  0.02169  0.70309  Biso   1.000  C
  C677     1.0000 0.30770  0.18892  0.51955  Biso   1.000  C
  C678     1.0000 0.49807  0.79510  0.32184  Biso   1.000  C
  C679     1.0000 0.29911  0.52198  0.82234  Biso   1.000  C
  C680     1.0000 0.68747  0.70291  0.98511  Biso   1.000  C
  C681     1.0000 0.51251  0.29848  0.19385  Biso   1.000  C
  C682     1.0000 0.80311  0.48884  0.69012  Biso   1.000  C
  C683     1.0000 0.21212  0.68993  0.50195  Biso   1.000  C
  C684     1.0000 0.99810  0.29917  0.30938  Biso   1.000  C
  C685     1.0000 0.82122  0.98558  0.20773  Biso   1.000  C
  C686     1.0000 0.19821  0.80246  0.01026  Biso   1.000  C
  C687     1.0000 0.01161  0.20019  0.80654  Biso   1.000  C
  C688     1.0000 0.31747  0.99620  0.30797  Biso   1.000  C
  C689     1.0000 0.70830  0.80811  0.51602  Biso   1.000  C
  C690     1.0000 0.50423  0.20181  0.69053  Biso   1.000  C
  C691     1.0000 0.71289  0.50841  0.18794  Biso   1.000  C
  C692     1.0000 0.32050  0.29555  0.98319  Biso   1.000  C
  C693     1.0000 0.49525  0.70347  0.81526  Biso   1.000  C
  C694     1.0000 0.21420  0.48577  0.31784  Biso   1.000  C
  C695     1.0000 0.80520  0.31150  0.50599  Biso   1.000  C
  C696     1.0000 0.00326  0.69477  0.70162  Biso   1.000  C
  C697     1.0000 0.71166  0.99303  0.31154  Biso   1.000  C
  C698     1.0000 0.29714  0.68324  0.01790  Biso   1.000  C
  C699     1.0000 0.01798  0.30535  0.69754  Biso   1.000  C
  C700     1.0000 0.20885  0.99306  0.19931  Biso   1.000  C
  C701     1.0000 0.81524  0.70136  0.51271  Biso   1.000  C
  C702     1.0000 0.51192  0.31411  0.80048  Biso   1.000  C
  C703     1.0000 0.82003  0.50706  0.29845  Biso   1.000  C
  C704     1.0000 0.20696  0.19098  0.99903  Biso   1.000  C
  C705     1.0000 0.51296  0.81189  0.71215  Biso   1.000  C
  C706     1.0000 0.32517  0.48214  0.21240  Biso   1.000  C
  C707     1.0000 0.69651  0.20233  0.51736  Biso   1.000  C
  C708     1.0000 0.99736  0.80618  0.80924  Biso   1.000  C
  C709     1.0000 0.30810  0.00256  0.70112  Biso   1.000  C
  C710     1.0000 0.70595  0.31316  0.99577  Biso   1.000  C
  C711     1.0000 0.00533  0.68892  0.30945  Biso   1.000  C
  C712     1.0000 0.80910  0.02570  0.81544  Biso   1.000  C
  C713     1.0000 0.20001  0.30083  0.51671  Biso   1.000  C
  C714     1.0000 0.49794  0.68945  0.20568  Biso   1.000  C
  C715     1.0000 0.19259  0.50899  0.71287  Biso   1.000  C
  C716     1.0000 0.80234  0.80611  0.99961  Biso   1.000  C
  C717     1.0000 0.52138  0.18664  0.30302  Biso   1.000  C
  C718     1.0000 0.69229  0.49411  0.79667  Biso   1.000  C
  C719     1.0000 0.31818  0.80250  0.50323  Biso   1.000  C
  C720     1.0000 0.99997  0.18790  0.20178  Biso   1.000  C
  C721     1.0000 0.48324  0.79800  0.29323  Biso   1.000  C
  C722     1.0000 0.30367  0.53489  0.79497  Biso   1.000  C
  C723     1.0000 0.77668  0.31791  0.51921  Biso   1.000  C
  C724     1.0000 0.00871  0.76669  0.19528  Biso   1.000  C
  C725     1.0000 0.77567  0.50601  0.68497  Biso   1.000  C
  C726     1.0000 0.29241  0.29973  0.97162  Biso   1.000  C
  C727     1.0000 0.97519  0.27834  0.30608  Biso   1.000  C
  C728     1.0000 0.22652  0.02028  0.81462  Biso   1.000  C
  C729     1.0000 0.73547  0.81360  0.53095  Biso   1.000  C
  C730     1.0000 0.49995  0.30173  0.22302  Biso   1.000  C
  C731     1.0000 0.73123  0.00500  0.70136  Biso   1.000  C
  C732     1.0000 0.22680  0.79993  0.99427  Biso   1.000  C
  C733     1.0000 0.48388  0.20505  0.71491  Biso   1.000  C
  C734     1.0000 0.71469  0.49062  0.21440  Biso   1.000  C
  C735     1.0000 0.20677  0.71736  0.48803  Biso   1.000  C
  C736     1.0000 0.99956  0.22938  0.80985  Biso   1.000  C
  C737     1.0000 0.23723  0.46442  0.32009  Biso   1.000  C
  C738     1.0000 0.71561  0.69528  0.99845  Biso   1.000  C
  C739     1.0000 0.01891  0.69073  0.72913  Biso   1.000  C
  C740     1.0000 0.79204  0.97262  0.20254  Biso   1.000  C
  C741     1.0000 0.27984  0.18525  0.50462  Biso   1.000  C
  C742     1.0000 0.48115  0.70049  0.78750  Biso   1.000  C
  C743     1.0000 0.28850  0.98535  0.31444  Biso   1.000  C
  C744     1.0000 0.82143  0.22997  0.00792  Biso   1.000  C
  C745     1.0000 0.01772  0.71773  0.31527  Biso   1.000  C
  C746     1.0000 0.27985  0.01621  0.69803  Biso   1.000  C
  C747     1.0000 0.73582  0.31719  0.00833  Biso   1.000  C
  C748     1.0000 0.51134  0.71708  0.20261  Biso   1.000  C
  C749     1.0000 0.78561  0.00515  0.81507  Biso   1.000  C
  C750     1.0000 0.22397  0.30419  0.53744  Biso   1.000  C
  C751     1.0000 0.54125  0.18621  0.27793  Biso   1.000  C
  C752     1.0000 0.22271  0.49849  0.71261  Biso   1.000  C
  C753     1.0000 0.78047  0.80796  0.97697  Biso   1.000  C
  C754     1.0000 0.01890  0.21316  0.19971  Biso   1.000  C
  C755     1.0000 0.68968  0.47331  0.77143  Biso   1.000  C
  C756     1.0000 0.31287  0.78277  0.52789  Biso   1.000  C
  C757     1.0000 0.00101  0.27942  0.69255  Biso   1.000  C
  C758     1.0000 0.70517  0.00343  0.28319  Biso   1.000  C
  C759     1.0000 0.27212  0.68343  0.03990  Biso   1.000  C
  C760     1.0000 0.52410  0.32021  0.77147  Biso   1.000  C
  C761     1.0000 0.23463  0.97430  0.19746  Biso   1.000  C
  C762     1.0000 0.81708  0.72942  0.49864  Biso   1.000  C
  C763     1.0000 0.49001  0.79057  0.70890  Biso   1.000  C
  C764     1.0000 0.79353  0.52356  0.30012  Biso   1.000  C
  C765     1.0000 0.23559  0.18491  0.01046  Biso   1.000  C
  C766     1.0000 0.98006  0.80578  0.78266  Biso   1.000  C
  C767     1.0000 0.32732  0.49978  0.23937  Biso   1.000  C
  C768     1.0000 0.69167  0.22853  0.50223  Biso   1.000  C
  C769     1.0000 0.51173  0.72882  0.82302  Biso   1.000  C
  C770     1.0000 0.80443  0.47294  0.71699  Biso   1.000  C
  C771     1.0000 0.70217  0.77989  0.50581  Biso   1.000  C
  C772     1.0000 0.98646  0.72114  0.69784  Biso   1.000  C
  C773     1.0000 0.26965  0.51131  0.82677  Biso   1.000  C
  C774     1.0000 0.19049  0.77685  0.02653  Biso   1.000  C
  C775     1.0000 0.02669  0.19436  0.77869  Biso   1.000  C
  C776     1.0000 0.70035  0.04022  0.73115  Biso   1.000  C
  C777     1.0000 0.80787  0.28034  0.49693  Biso   1.000  C
  C778     1.0000 0.52857  0.22312  0.68945  Biso   1.000  C
  C779     1.0000 0.19387  0.99310  0.77706  Biso   1.000  C
  C780     1.0000 0.32506  0.26712  0.99721  Biso   1.000  C
  C781     1.0000 0.52742  0.27050  0.18907  Biso   1.000  C
  C782     1.0000 0.21519  0.50302  0.29177  Biso   1.000  C
  C783     1.0000 0.31376  0.21610  0.53538  Biso   1.000  C
  C784     1.0000 0.02113  0.29818  0.28795  Biso   1.000  C
  C785     1.0000 0.73684  0.52877  0.18201  Biso   1.000  C
  C786     1.0000 0.78713  0.19888  0.97947  Biso   1.000  C
  C787     1.0000 0.98267  0.80153  0.22837  Biso   1.000  C
  C788     1.0000 0.32199  0.00759  0.27796  Biso   1.000  C
  C789     1.0000 0.24236  0.68561  0.51494  Biso   1.000  C
  C790     1.0000 0.51186  0.76616  0.32710  Biso   1.000  C
  C791     1.0000 0.82576  0.99773  0.23612  Biso   1.000  C
  C792     1.0000 0.68489  0.73250  0.97356  Biso   1.000  C
  C793     1.0000 0.50142  0.21118  0.30624  Biso   1.000  C
  C794     1.0000 0.30063  0.46241  0.21117  Biso   1.000  C
  C795     1.0000 0.20061  0.27497  0.49689  Biso   1.000  C
  C796     1.0000 0.98437  0.18533  0.22969  Biso   1.000  C
  C797     1.0000 0.82681  0.49442  0.26962  Biso   1.000  C
  C798     1.0000 0.70152  0.28558  0.98102  Biso   1.000  C
  C799     1.0000 0.98964  0.68455  0.28223  Biso   1.000  C
  C800     1.0000 0.20608  0.01443  0.22376  Biso   1.000  C
  C801     1.0000 0.30001  0.79810  0.47791  Biso   1.000  C
  C802     1.0000 0.48473  0.68314  0.23427  Biso   1.000  C
  C803     1.0000 0.74133  0.98084  0.31775  Biso   1.000  C
  C804     1.0000 0.79889  0.78187  0.01913  Biso   1.000  C
  C805     1.0000 0.53254  0.80985  0.73640  Biso   1.000  C
  C806     1.0000 0.71512  0.51543  0.79554  Biso   1.000  C
  C807     1.0000 0.79025  0.69732  0.53270  Biso   1.000  C
  C808     1.0000 0.01772  0.78007  0.81375  Biso   1.000  C
  C809     1.0000 0.18706  0.52891  0.73842  Biso   1.000  C
  C810     1.0000 0.29788  0.70536  0.99576  Biso   1.000  C
  C811     1.0000 0.03343  0.30986  0.72453  Biso   1.000  C
  C812     1.0000 0.81224  0.04687  0.79255  Biso   1.000  C
  C813     1.0000 0.72516  0.19882  0.53071  Biso   1.000  C
  C814     1.0000 0.50076  0.28460  0.80468  Biso   1.000  C
  C815     1.0000 0.31278  0.99085  0.72999  Biso   1.000  C
  C816     1.0000 0.20225  0.21876  0.98516  Biso   1.000  C
  C817     1.0000 0.00315  0.24991  0.78885  Biso   1.000  C
  C818     1.0000 0.77110  0.97293  0.22305  Biso   1.000  C
  C819     1.0000 0.24745  0.77793  0.99975  Biso   1.000  C
  C820     1.0000 0.48785  0.22616  0.73464  Biso   1.000  C
  C821     1.0000 0.26723  0.98249  0.29315  Biso   1.000  C
  C822     1.0000 0.75689  0.79276  0.53193  Biso   1.000  C
  C823     1.0000 0.48242  0.72378  0.76963  Biso   1.000  C
  C824     1.0000 0.73792  0.49278  0.23351  Biso   1.000  C
  C825     1.0000 0.27127  0.27991  0.97517  Biso   1.000  C
  C826     1.0000 0.01811  0.71313  0.74930  Biso   1.000  C
  C827     1.0000 0.26085  0.46422  0.30149  Biso   1.000  C
  C828     1.0000 0.75519  0.29739  0.52263  Biso   1.000  C
  C829     1.0000 0.01090  0.74748  0.21877  Biso   1.000  C
  C830     1.0000 0.24820  0.01902  0.79519  Biso   1.000  C
  C831     1.0000 0.80099  0.25124  0.00865  Biso   1.000  C
  C832     1.0000 0.48259  0.77654  0.27157  Biso   1.000  C
  C833     1.0000 0.75241  0.00603  0.72420  Biso   1.000  C
  C834     1.0000 0.26034  0.20731  0.50655  Biso   1.000  C
  C835     1.0000 0.50273  0.28109  0.24374  Biso   1.000  C
  C836     1.0000 0.28206  0.53831  0.77461  Biso   1.000  C
  C837     1.0000 0.73819  0.71495  0.00013  Biso   1.000  C
  C838     1.0000 0.97770  0.25663  0.28631  Biso   1.000  C
  C839     1.0000 0.75562  0.50713  0.70647  Biso   1.000  C
  C840     1.0000 0.22911  0.73712  0.48564  Biso   1.000  C
  C841     1.0000 0.21756  0.99434  0.75778  Biso   1.000  C
  C842     1.0000 0.76735  0.22018  0.97923  Biso   1.000  C
  C843     1.0000 0.98552  0.78177  0.25039  Biso   1.000  C
  C844     1.0000 0.72234  0.04035  0.75218  Biso   1.000  C
  C845     1.0000 0.29243  0.23697  0.53525  Biso   1.000  C
  C846     1.0000 0.51091  0.74629  0.30419  Biso   1.000  C
  C847     1.0000 0.24674  0.51505  0.80648  Biso   1.000  C
  C848     1.0000 0.70746  0.75131  0.97590  Biso   1.000  C
  C849     1.0000 0.52665  0.24991  0.21067  Biso   1.000  C
  C850     1.0000 0.78301  0.47463  0.73737  Biso   1.000  C
  C851     1.0000 0.26370  0.70522  0.51123  Biso   1.000  C
  C852     1.0000 0.02240  0.27571  0.26850  Biso   1.000  C
  C853     1.0000 0.80370  0.99863  0.25549  Biso   1.000  C
  C854     1.0000 0.21022  0.75253  0.02846  Biso   1.000  C
  C855     1.0000 0.02762  0.21539  0.75601  Biso   1.000  C
  C856     1.0000 0.29958  0.00713  0.25759  Biso   1.000  C
  C857     1.0000 0.72425  0.75960  0.50500  Biso   1.000  C
  C858     1.0000 0.52988  0.24473  0.70981  Biso   1.000  C
  C859     1.0000 0.75994  0.52958  0.20175  Biso   1.000  C
  C860     1.0000 0.30322  0.24699  0.99967  Biso   1.000  C
  C861     1.0000 0.51401  0.75104  0.80272  Biso   1.000  C
  C862     1.0000 0.23689  0.49980  0.27197  Biso   1.000  C
  C863     1.0000 0.78743  0.26025  0.50346  Biso   1.000  C
  C864     1.0000 0.98773  0.74306  0.71863  Biso   1.000  C
  C865     1.0000 0.71094  0.47284  0.75098  Biso   1.000  C
  C866     1.0000 0.79626  0.75062  0.50196  Biso   1.000  C
  C867     1.0000 0.48571  0.77152  0.73061  Biso   1.000  C
  C868     1.0000 0.24282  0.50526  0.73483  Biso   1.000  C
  C869     1.0000 0.25207  0.70598  0.03673  Biso   1.000  C
  C870     1.0000 0.97826  0.78208  0.76455  Biso   1.000  C
  C871     1.0000 0.76520  0.00447  0.79285  Biso   1.000  C
  C872     1.0000 0.71159  0.25103  0.50193  Biso   1.000  C
  C873     1.0000 0.00214  0.25825  0.71402  Biso   1.000  C
  C874     1.0000 0.25991  0.01889  0.72036  Biso   1.000  C
  C875     1.0000 0.25663  0.20596  0.00808  Biso   1.000  C
  C876     1.0000 0.52413  0.29796  0.75074  Biso   1.000  C
  C877     1.0000 0.30748  0.49806  0.26122  Biso   1.000  C
  C878     1.0000 0.24514  0.28254  0.53874  Biso   1.000  C
  C879     1.0000 0.53818  0.20829  0.25872  Biso   1.000  C
  C880     1.0000 0.77539  0.52839  0.27598  Biso   1.000  C
  C881     1.0000 0.75700  0.29616  0.00592  Biso   1.000  C
  C882     1.0000 0.01858  0.23453  0.22050  Biso   1.000  C
  C883     1.0000 0.25494  0.97507  0.21941  Biso   1.000  C
  C884     1.0000 0.29242  0.76080  0.52440  Biso   1.000  C
  C885     1.0000 0.01356  0.73984  0.29448  Biso   1.000  C
  C886     1.0000 0.72700  0.00026  0.26412  Biso   1.000  C
  C887     1.0000 0.75858  0.78755  0.97360  Biso   1.000  C
  C888     1.0000 0.51231  0.73571  0.22620  Biso   1.000  C
  C889     1.0000 0.76166  0.97995  0.29751  Biso   1.000  C
  C890     1.0000 0.27671  0.72683  0.99604  Biso   1.000  C
  C891     1.0000 0.03420  0.28803  0.74529  Biso   1.000  C
  C892     1.0000 0.22870  0.01450  0.24522  Biso   1.000  C
  C893     1.0000 0.77064  0.72026  0.53571  Biso   1.000  C
  C894     1.0000 0.49988  0.26364  0.78304  Biso   1.000  C
  C895     1.0000 0.80643  0.49751  0.24739  Biso   1.000  C
  C896     1.0000 0.22519  0.23847  0.98243  Biso   1.000  C
  C897     1.0000 0.53018  0.78761  0.75682  Biso   1.000  C
  C898     1.0000 0.27917  0.46047  0.23301  Biso   1.000  C
  C899     1.0000 0.74512  0.22038  0.52946  Biso   1.000  C
  C900     1.0000 0.01747  0.75863  0.79310  Biso   1.000  C
  C901     1.0000 0.29385  0.99428  0.75312  Biso   1.000  C
  C902     1.0000 0.72306  0.26437  0.98252  Biso   1.000  C
  C903     1.0000 0.98674  0.70631  0.26260  Biso   1.000  C
  C904     1.0000 0.79168  0.04336  0.76968  Biso   1.000  C
  C905     1.0000 0.22389  0.25735  0.49820  Biso   1.000  C
  C906     1.0000 0.48397  0.70347  0.25627  Biso   1.000  C
  C907     1.0000 0.20690  0.53448  0.75987  Biso   1.000  C
  C908     1.0000 0.77681  0.76065  0.01573  Biso   1.000  C
  C909     1.0000 0.50038  0.23220  0.28529  Biso   1.000  C
  C910     1.0000 0.73517  0.51291  0.77392  Biso   1.000  C
  C911     1.0000 0.28034  0.77500  0.47515  Biso   1.000  C
  C912     1.0000 0.98493  0.20679  0.25047  Biso   1.000  C
  C913     1.0000 0.75820  0.49118  0.73226  Biso   1.000  C
  C914     1.0000 0.75049  0.76615  0.51934  Biso   1.000  C
  C915     1.0000 0.50086  0.74758  0.77581  Biso   1.000  C
  C916     1.0000 0.25444  0.52818  0.78058  Biso   1.000  C
  C917     1.0000 0.23781  0.75243  0.01512  Biso   1.000  C
  C918     1.0000 0.00324  0.73912  0.74467  Biso   1.000  C
  C919     1.0000 0.74668  0.02316  0.74839  Biso   1.000  C
  C920     1.0000 0.76024  0.26876  0.51425  Biso   1.000  C
  C921     1.0000 0.01688  0.24235  0.76237  Biso   1.000  C
  C922     1.0000 0.24365  0.00592  0.76757  Biso   1.000  C
  C923     1.0000 0.27603  0.25407  0.98991  Biso   1.000  C
  C924     1.0000 0.51022  0.24685  0.73328  Biso   1.000  C
  C925     1.0000 0.25938  0.48101  0.27712  Biso   1.000  C
  C926     1.0000 0.26593  0.23416  0.52179  Biso   1.000  C
  C927     1.0000 0.51625  0.25357  0.23904  Biso   1.000  C
  C928     1.0000 0.75938  0.51313  0.22737  Biso   1.000  C
  C929     1.0000 0.77491  0.24703  0.99337  Biso   1.000  C
  C930     1.0000 0.00027  0.25518  0.26696  Biso   1.000  C
  C931     1.0000 0.27325  0.99398  0.26601  Biso   1.000  C
  C932     1.0000 0.25613  0.73120  0.49690  Biso   1.000  C
  C933     1.0000 0.99830  0.75477  0.24499  Biso   1.000  C
  C934     1.0000 0.77641  0.98766  0.24815  Biso   1.000  C
  C935     1.0000 0.73313  0.74289  0.98951  Biso   1.000  C
  C936     1.0000 0.49910  0.75118  0.27654  Biso   1.000  C
  C937     1.0000 0.75048  0.27054  0.99475  Biso   1.000  C
  C938     1.0000 0.99830  0.73324  0.26842  Biso   1.000  C
  C939     1.0000 0.26743  0.00700  0.74701  Biso   1.000  C
  C940     1.0000 0.24505  0.25895  0.51919  Biso   1.000  C
  C941     1.0000 0.49908  0.72996  0.25252  Biso   1.000  C
  C942     1.0000 0.76807  0.02491  0.77158  Biso   1.000  C
  C943     1.0000 0.75614  0.76557  0.99383  Biso   1.000  C
  C944     1.0000 0.51884  0.23095  0.26212  Biso   1.000  C
  C945     1.0000 0.23461  0.52436  0.75644  Biso   1.000  C
  C946     1.0000 0.27719  0.75572  0.49798  Biso   1.000  C
  C947     1.0000 0.00151  0.23111  0.24646  Biso   1.000  C
  C948     1.0000 0.73408  0.49246  0.75264  Biso   1.000  C
  C949     1.0000 0.25606  0.72741  0.01734  Biso   1.000  C
  C950     1.0000 0.01872  0.26327  0.73915  Biso   1.000  C
  C951     1.0000 0.75393  0.98954  0.27016  Biso   1.000  C
  C952     1.0000 0.77369  0.74524  0.52056  Biso   1.000  C
  C953     1.0000 0.51054  0.27078  0.75575  Biso   1.000  C
  C954     1.0000 0.25006  0.99301  0.24340  Biso   1.000  C
  C955     1.0000 0.25313  0.23125  0.99122  Biso   1.000  C
  C956     1.0000 0.50624  0.76874  0.75349  Biso   1.000  C
  C957     1.0000 0.78270  0.51549  0.24980  Biso   1.000  C
  C958     1.0000 0.73857  0.24579  0.51543  Biso   1.000  C
  C959     1.0000 0.99772  0.75940  0.76918  Biso   1.000  C
  C960     1.0000 0.28446  0.47918  0.25686  Biso   1.000  C
  Cu1      1.0000 0.00146  0.50134  0.65860  Biso   1.000  Cu
  Cu2      1.0000 0.66367  0.00565  0.50623  Biso   1.000  Cu
  Cu3      1.0000 0.49493  0.65416  0.00869  Biso   1.000  Cu
  Cu4      1.0000 0.49869  0.50664  0.84969  Biso   1.000  Cu
  Cu5      1.0000 0.16184  0.99820  0.00440  Biso   1.000  Cu
  Cu6      1.0000 0.00860  0.65170  0.50820  Biso   1.000  Cu
  Cu7      1.0000 0.50757  0.00553  0.65713  Biso   1.000  Cu
  Cu8      1.0000 0.85672  0.50633  0.49626  Biso   1.000  Cu
  Cu9      1.0000 0.00683  0.15077  0.00516  Biso   1.000  Cu
  Cu10     1.0000 0.00198  0.00321  0.85040  Biso   1.000  Cu
  Cu11     1.0000 0.34840  0.49283  0.01723  Biso   1.000  Cu
  Cu12     1.0000 0.50503  0.15346  0.49750  Biso   1.000  Cu
  Cu13     1.0000 0.01569  0.49514  0.34910  Biso   1.000  Cu
  Cu14     1.0000 0.35218  0.99468  0.50485  Biso   1.000  Cu
  Cu15     1.0000 0.51220  0.35074  0.99833  Biso   1.000  Cu
  Cu16     1.0000 0.51506  0.49548  0.15630  Biso   1.000  Cu
  Cu17     1.0000 0.85023  0.00292  0.01142  Biso   1.000  Cu
  Cu18     1.0000 0.00498  0.34698  0.50380  Biso   1.000  Cu
  Cu19     1.0000 0.51339  0.99443  0.35442  Biso   1.000  Cu
  Cu20     1.0000 0.16264  0.49491  0.51291  Biso   1.000  Cu
  Cu21     1.0000 0.00046  0.84055  0.00667  Biso   1.000  Cu
  Cu22     1.0000 0.01453  0.99300  0.15596  Biso   1.000  Cu
  Cu23     1.0000 0.66129  0.50862  0.99281  Biso   1.000  Cu
  Cu24     1.0000 0.51270  0.84652  0.51402  Biso   1.000  Cu
  Cu25     1.0000 0.21545  0.99588  0.00161  Biso   1.000  Cu
  Cu26     1.0000 0.00779  0.20563  0.00411  Biso   1.000  Cu
  Cu27     1.0000 0.01825  0.99020  0.21095  Biso   1.000  Cu
  Cu28     1.0000 0.71891  0.00706  0.50688  Biso   1.000  Cu
  Cu29     1.0000 0.50424  0.20682  0.49582  Biso   1.000  Cu
  Cu30     1.0000 0.51272  0.99044  0.29878  Biso   1.000  Cu
  Cu31     1.0000 0.29414  0.48927  0.01951  Biso   1.000  Cu
  Cu32     1.0000 0.49242  0.70742  0.00966  Biso   1.000  Cu
  Cu33     1.0000 0.52141  0.49583  0.21186  Biso   1.000  Cu
  Cu34     1.0000 0.80257  0.50906  0.49323  Biso   1.000  Cu
  Cu35     1.0000 0.01555  0.70416  0.50641  Biso   1.000  Cu
  Cu36     1.0000 0.01963  0.49575  0.29441  Biso   1.000  Cu
  Cu37     1.0000 0.79674  0.00215  0.01123  Biso   1.000  Cu
  Cu38     1.0000 0.00358  0.78854  0.00293  Biso   1.000  Cu
  Cu39     1.0000 0.99993  0.00470  0.79440  Biso   1.000  Cu
  Cu40     1.0000 0.29822  0.99327  0.50105  Biso   1.000  Cu
  Cu41     1.0000 0.51376  0.79403  0.51581  Biso   1.000  Cu
  Cu42     1.0000 0.50746  0.00933  0.71150  Biso   1.000  Cu
  Cu43     1.0000 0.71560  0.51261  0.99040  Biso   1.000  Cu
  Cu44     1.0000 0.51584  0.29791  0.99617  Biso   1.000  Cu
  Cu45     1.0000 0.49332  0.50915  0.79548  Biso   1.000  Cu
  Cu46     1.0000 0.21620  0.49348  0.51830  Biso   1.000  Cu
  Cu47     1.0000 0.00193  0.29292  0.50307  Biso   1.000  Cu
  Cu48     1.0000 0.99749  0.50076  0.71237  Biso   1.000  Cu
  H1       1.0000 0.28789  0.74716  0.54210  Biso   1.000  H
  H2       1.0000 0.53326  0.30164  0.72928  Biso   1.000  H
  H3       1.0000 0.75640  0.54152  0.27884  Biso   1.000  H
  H4       1.0000 0.74450  0.78661  0.95487  Biso   1.000  H
  H5       1.0000 0.99009  0.23814  0.70912  Biso   1.000  H
  H6       1.0000 0.31024  0.51206  0.28068  Biso   1.000  H
  H7       1.0000 0.26101  0.28190  0.55578  Biso   1.000  H
  H8       1.0000 0.96398  0.78143  0.74680  Biso   1.000  H
  H9       1.0000 0.72539  0.01000  0.24223  Biso   1.000  H
  H10      1.0000 0.77678  0.30124  0.01496  Biso   1.000  H
  H11      1.0000 0.46646  0.75665  0.72905  Biso   1.000  H
  H12      1.0000 0.27400  0.96137  0.21442  Biso   1.000  H
  H13      1.0000 0.70716  0.26970  0.49055  Biso   1.000  H
  H14      1.0000 0.52483  0.75523  0.22292  Biso   1.000  H
  H15      1.0000 0.26465  0.49733  0.73326  Biso   1.000  H
  H16      1.0000 0.27826  0.19762  0.01500  Biso   1.000  H
  H17      1.0000 0.02334  0.76084  0.29577  Biso   1.000  H
  H18      1.0000 0.71199  0.45588  0.73348  Biso   1.000  H
  H19      1.0000 0.79837  0.77158  0.49164  Biso   1.000  H
  H20      1.0000 0.03096  0.25368  0.21794  Biso   1.000  H
  H21      1.0000 0.23937  0.02985  0.71774  Biso   1.000  H
  H22      1.0000 0.23212  0.70632  0.04982  Biso   1.000  H
  H23      1.0000 0.55047  0.20616  0.23822  Biso   1.000  H
  H24      1.0000 0.74627  0.98935  0.79352  Biso   1.000  H
  H25      1.0000 0.26901  0.02973  0.79885  Biso   1.000  H
  H26      1.0000 0.80758  0.27171  0.02194  Biso   1.000  H
  H27      1.0000 0.02093  0.72712  0.21504  Biso   1.000  H
  H28      1.0000 0.77246  0.99241  0.72191  Biso   1.000  H
  H29      1.0000 0.23985  0.20234  0.49468  Biso   1.000  H
  H30      1.0000 0.47220  0.77975  0.25084  Biso   1.000  H
  H31      1.0000 0.28388  0.55175  0.75546  Biso   1.000  H
  H32      1.0000 0.75907  0.70912  0.00970  Biso   1.000  H
  H33      1.0000 0.49174  0.28650  0.26350  Biso   1.000  H
  H34      1.0000 0.73488  0.51998  0.70297  Biso   1.000  H
  H35      1.0000 0.22477  0.75456  0.47252  Biso   1.000  H
  H36      1.0000 0.96016  0.24115  0.28671  Biso   1.000  H
  H37      1.0000 0.75087  0.96187  0.21721  Biso   1.000  H
  H38      1.0000 0.26933  0.78021  0.99213  Biso   1.000  H
  H39      1.0000 0.99451  0.27162  0.79231  Biso   1.000  H
  H40      1.0000 0.24719  0.97118  0.29733  Biso   1.000  H
  H41      1.0000 0.77807  0.79719  0.54191  Biso   1.000  H
  H42      1.0000 0.47214  0.22607  0.75155  Biso   1.000  H
  H43      1.0000 0.73892  0.47783  0.25135  Biso   1.000  H
  H44      1.0000 0.24909  0.28641  0.96840  Biso   1.000  H
  H45      1.0000 0.47027  0.72131  0.74844  Biso   1.000  H
  H46      1.0000 0.27831  0.44944  0.30492  Biso   1.000  H
  H47      1.0000 0.73451  0.30383  0.52853  Biso   1.000  H
  H48      1.0000 0.03170  0.70734  0.76896  Biso   1.000  H
  H49      1.0000 0.23736  0.51417  0.25399  Biso   1.000  H
  H50      1.0000 0.29657  0.25753  0.54558  Biso   1.000  H
  H51      1.0000 0.53355  0.22731  0.20441  Biso   1.000  H
  H52      1.0000 0.77815  0.54390  0.19861  Biso   1.000  H
  H53      1.0000 0.74582  0.21714  0.96892  Biso   1.000  H
  H54      1.0000 0.03982  0.27364  0.25309  Biso   1.000  H
  H55      1.0000 0.30245  0.01425  0.23493  Biso   1.000  H
  H56      1.0000 0.28643  0.69967  0.51586  Biso   1.000  H
  H57      1.0000 0.97743  0.78608  0.27297  Biso   1.000  H
  H58      1.0000 0.80646  0.00900  0.27733  Biso   1.000  H
  H59      1.0000 0.70365  0.77232  0.96758  Biso   1.000  H
  H60      1.0000 0.52153  0.72623  0.31011  Biso   1.000  H
  H61      1.0000 0.78293  0.46212  0.75746  Biso   1.000  H
  H62      1.0000 0.72099  0.73856  0.49513  Biso   1.000  H
  H63      1.0000 0.52362  0.77157  0.80962  Biso   1.000  H
  H64      1.0000 0.22474  0.50631  0.81092  Biso   1.000  H
  H65      1.0000 0.20333  0.73229  0.03731  Biso   1.000  H
  H66      1.0000 0.97662  0.76241  0.71125  Biso   1.000  H
  H67      1.0000 0.72094  0.05514  0.76978  Biso   1.000  H
  H68      1.0000 0.79130  0.23761  0.49612  Biso   1.000  H
  H69      1.0000 0.03831  0.21237  0.73566  Biso   1.000  H
  H70      1.0000 0.21528  0.98572  0.73595  Biso   1.000  H
  H71      1.0000 0.30888  0.22717  0.01130  Biso   1.000  H
  H72      1.0000 0.54424  0.26305  0.71122  Biso   1.000  H
  H73      1.0000 0.75379  0.52805  0.77236  Biso   1.000  H
  H74      1.0000 0.75404  0.71750  0.55274  Biso   1.000  H
  H75      1.0000 0.54502  0.78857  0.77629  Biso   1.000  H
  H76      1.0000 0.20112  0.54979  0.77628  Biso   1.000  H
  H77      1.0000 0.27983  0.74447  0.98084  Biso   1.000  H
  H78      1.0000 0.03095  0.74038  0.79758  Biso   1.000  H
  H79      1.0000 0.79318  0.05857  0.75062  Biso   1.000  H
  H80      1.0000 0.76547  0.21902  0.54119  Biso   1.000  H
  H81      1.0000 0.04553  0.28922  0.76510  Biso   1.000  H
  H82      1.0000 0.30049  0.98760  0.77572  Biso   1.000  H
  H83      1.0000 0.21955  0.25830  0.97084  Biso   1.000  H
  H84      1.0000 0.48915  0.24264  0.78813  Biso   1.000  H
  H85      1.0000 0.26368  0.44500  0.23339  Biso   1.000  H
  H86      1.0000 0.22662  0.24032  0.48100  Biso   1.000  H
  H87      1.0000 0.48452  0.25006  0.28875  Biso   1.000  H
  H88      1.0000 0.80679  0.48520  0.22749  Biso   1.000  H
  H89      1.0000 0.71601  0.24198  0.97758  Biso   1.000  H
  H90      1.0000 0.97145  0.20467  0.26879  Biso   1.000  H
  H91      1.0000 0.22974  0.03108  0.26221  Biso   1.000  H
  H92      1.0000 0.26700  0.77138  0.45528  Biso   1.000  H
  H93      1.0000 0.97670  0.70299  0.24181  Biso   1.000  H
  H94      1.0000 0.78334  0.97054  0.30215  Biso   1.000  H
  H95      1.0000 0.77775  0.74298  0.03015  Biso   1.000  H
  H96      1.0000 0.47123  0.69925  0.27553  Biso   1.000  H
  H97      1.0000 0.86941  0.00857  0.92006  Biso   1.000  H
  H98      1.0000 0.91049  0.86318  0.99895  Biso   1.000  H
  H99      1.0000 0.00421  0.91598  0.87099  Biso   1.000  H
  H100     1.0000 0.37074  0.99442  0.59576  Biso   1.000  H
  H101     1.0000 0.42600  0.86307  0.51984  Biso   1.000  H
  H102     1.0000 0.51782  0.91189  0.64160  Biso   1.000  H
  H103     1.0000 0.63635  0.50401  0.90407  Biso   1.000  H
  H104     1.0000 0.60205  0.37679  0.01047  Biso   1.000  H
  H105     1.0000 0.49953  0.41548  0.86679  Biso   1.000  H
  H106     1.0000 0.13354  0.49149  0.60614  Biso   1.000  H
  H107     1.0000 0.09514  0.36243  0.50233  Biso   1.000  H
  H108     1.0000 0.01010  0.40533  0.63246  Biso   1.000  H
  H109     1.0000 0.14876  0.99529  0.09520  Biso   1.000  H
  H110     1.0000 0.09911  0.12875  0.00338  Biso   1.000  H
  H111     1.0000 0.00590  0.08502  0.13754  Biso   1.000  H
  H112     1.0000 0.64518  0.99456  0.41436  Biso   1.000  H
  H113     1.0000 0.59759  0.13666  0.50231  Biso   1.000  H
  H114     1.0000 0.53199  0.08312  0.36823  Biso   1.000  H
  H115     1.0000 0.37965  0.48407  0.10278  Biso   1.000  H
  H116     1.0000 0.40627  0.62724  0.02811  Biso   1.000  H
  H117     1.0000 0.51253  0.58870  0.13894  Biso   1.000  H
  H118     1.0000 0.88226  0.50593  0.40674  Biso   1.000  H
  H119     1.0000 0.92547  0.63906  0.51496  Biso   1.000  H
  H120     1.0000 0.02143  0.58292  0.37400  Biso   1.000  H
  H121     1.0000 0.09412  0.00122  0.87086  Biso   1.000  H
  H122     1.0000 0.87403  0.09517  0.00626  Biso   1.000  H
  H123     1.0000 0.01082  0.85560  0.09319  Biso   1.000  H
  H124     1.0000 0.59838  0.01576  0.63868  Biso   1.000  H
  H125     1.0000 0.36802  0.08416  0.49113  Biso   1.000  H
  H126     1.0000 0.51252  0.86565  0.42221  Biso   1.000  H
  H127     1.0000 0.40860  0.50409  0.87939  Biso   1.000  H
  H128     1.0000 0.62984  0.59597  0.98369  Biso   1.000  H
  H129     1.0000 0.51560  0.36825  0.09329  Biso   1.000  H
  H130     1.0000 0.91024  0.48948  0.63187  Biso   1.000  H
  H131     1.0000 0.14815  0.58626  0.50492  Biso   1.000  H
  H132     1.0000 0.00014  0.36409  0.41215  Biso   1.000  H
  H133     1.0000 0.92185  0.99318  0.14073  Biso   1.000  H
  H134     1.0000 0.13793  0.90851  0.99326  Biso   1.000  H
  H135     1.0000 0.01487  0.13215  0.90903  Biso   1.000  H
  H136     1.0000 0.42306  0.00359  0.37172  Biso   1.000  H
  H137     1.0000 0.64732  0.91520  0.50841  Biso   1.000  H
  H138     1.0000 0.50367  0.13548  0.58940  Biso   1.000  H
  H139     1.0000 0.60378  0.50071  0.13107  Biso   1.000  H
  H140     1.0000 0.37630  0.40515  0.99615  Biso   1.000  H
  H141     1.0000 0.49553  0.63601  0.91566  Biso   1.000  H
  H142     1.0000 0.10994  0.48809  0.37669  Biso   1.000  H
  H143     1.0000 0.87283  0.41549  0.49299  Biso   1.000  H
  H144     1.0000 0.01684  0.62791  0.60109  Biso   1.000  H
  H145     1.0000 0.59289  0.49598  0.86562  Biso   1.000  H
  H146     1.0000 0.87895  0.59615  0.50478  Biso   1.000  H
  H147     1.0000 0.51501  0.86657  0.60188  Biso   1.000  H
  H148     1.0000 0.09409  0.49114  0.64555  Biso   1.000  H
  H149     1.0000 0.36252  0.58374  0.03807  Biso   1.000  H
  H150     1.0000 0.00448  0.86983  0.91524  Biso   1.000  H
  H151     1.0000 0.91452  0.01090  0.87461  Biso   1.000  H
  H152     1.0000 0.64291  0.09456  0.50322  Biso   1.000  H
  H153     1.0000 0.00587  0.36830  0.59705  Biso   1.000  H
  H154     1.0000 0.41091  0.00936  0.63891  Biso   1.000  H
  H155     1.0000 0.14321  0.08853  0.00997  Biso   1.000  H
  H156     1.0000 0.51412  0.37261  0.91088  Biso   1.000  H
  H157     1.0000 0.42801  0.48984  0.14611  Biso   1.000  H
  H158     1.0000 0.13483  0.40526  0.51436  Biso   1.000  H
  H159     1.0000 0.51926  0.12911  0.41055  Biso   1.000  H
  H160     1.0000 0.92475  0.50291  0.36480  Biso   1.000  H
  H161     1.0000 0.64616  0.41839  0.00035  Biso   1.000  H
  H162     1.0000 0.00216  0.12926  0.09403  Biso   1.000  H
  H163     1.0000 0.10691  0.98927  0.13287  Biso   1.000  H
  H164     1.0000 0.38041  0.90540  0.50695  Biso   1.000  H
  H165     1.0000 0.02109  0.62964  0.41961  Biso   1.000  H
  H166     1.0000 0.60514  0.99442  0.37225  Biso   1.000  H
  H167     1.0000 0.86917  0.90729  0.99967  Biso   1.000  H
  H168     1.0000 0.50992  0.63318  0.09839  Biso   1.000  H
  H169     1.0000 0.01257  0.09450  0.86506  Biso   1.000  H
  H170     1.0000 0.87447  0.99090  0.09755  Biso   1.000  H
  H171     1.0000 0.09199  0.86605  0.99285  Biso   1.000  H
  H172     1.0000 0.49543  0.09679  0.63375  Biso   1.000  H
  H173     1.0000 0.37554  0.00916  0.41518  Biso   1.000  H
  H174     1.0000 0.60337  0.87372  0.50939  Biso   1.000  H
  H175     1.0000 0.50306  0.59486  0.87353  Biso   1.000  H
  H176     1.0000 0.64330  0.50610  0.08604  Biso   1.000  H
  H177     1.0000 0.42013  0.36246  0.99784  Biso   1.000  H
  H178     1.0000 0.01023  0.59073  0.64524  Biso   1.000  H
  H179     1.0000 0.15004  0.48791  0.42069  Biso   1.000  H
  H180     1.0000 0.91780  0.36541  0.49567  Biso   1.000  H
  H181     1.0000 0.01881  0.90073  0.13817  Biso   1.000  H
  H182     1.0000 0.13659  0.00716  0.90922  Biso   1.000  H
  H183     1.0000 0.91653  0.13497  0.99458  Biso   1.000  H
  H184     1.0000 0.50688  0.90530  0.37877  Biso   1.000  H
  H185     1.0000 0.64423  0.01655  0.59582  Biso   1.000  H
  H186     1.0000 0.40755  0.12588  0.49063  Biso   1.000  H
  H187     1.0000 0.51549  0.40800  0.13638  Biso   1.000  H
  H188     1.0000 0.36667  0.49824  0.92363  Biso   1.000  H
  H189     1.0000 0.58245  0.63834  0.99021  Biso   1.000  H
  H190     1.0000 0.00698  0.40531  0.36628  Biso   1.000  H
  H191     1.0000 0.87529  0.48957  0.59235  Biso   1.000  H
  H192     1.0000 0.10687  0.62600  0.50449  Biso   1.000  H
  H193     1.0000 0.28490  0.84974  0.49087  Biso   1.000  H
  H194     1.0000 0.53481  0.28119  0.85030  Biso   1.000  H
  H195     1.0000 0.87504  0.51034  0.26481  Biso   1.000  H
  H196     1.0000 0.77164  0.86079  0.01302  Biso   1.000  H
  H197     1.0000 0.03099  0.27310  0.64440  Biso   1.000  H
  H198     1.0000 0.37901  0.48616  0.24239  Biso   1.000  H
  H199     1.0000 0.23473  0.34887  0.51873  Biso   1.000  H
  H200     1.0000 0.00051  0.77349  0.85974  Biso   1.000  H
  H201     1.0000 0.65906  0.97993  0.27839  Biso   1.000  H
  H202     1.0000 0.74459  0.36805  0.99231  Biso   1.000  H
  H203     1.0000 0.51019  0.77563  0.66216  Biso   1.000  H
  H204     1.0000 0.15962  0.99025  0.23362  Biso   1.000  H
  H205     1.0000 0.73563  0.15112  0.51058  Biso   1.000  H
  H206     1.0000 0.48175  0.72414  0.15775  Biso   1.000  H
  H207     1.0000 0.13962  0.49636  0.74450  Biso   1.000  H
  H208     1.0000 0.24123  0.13419  0.00109  Biso   1.000  H
  H209     1.0000 0.99707  0.72151  0.36178  Biso   1.000  H
  H210     1.0000 0.63763  0.49170  0.76509  Biso   1.000  H
  H211     1.0000 0.78507  0.65124  0.50428  Biso   1.000  H
  H212     1.0000 0.99600  0.22371  0.15276  Biso   1.000  H
  H213     1.0000 0.36310  0.00796  0.73296  Biso   1.000  H
  H214     1.0000 0.26742  0.63497  0.02043  Biso   1.000  H
  H215     1.0000 0.52403  0.22263  0.35178  Biso   1.000  H
  H216     1.0000 0.86044  0.02039  0.77875  Biso   1.000  H
  H217     1.0000 0.24676  0.48705  0.37044  Biso   1.000  H
  H218     1.0000 0.36153  0.22183  0.51409  Biso   1.000  H
  H219     1.0000 0.52261  0.34633  0.22779  Biso   1.000  H
  H220     1.0000 0.74428  0.50780  0.13409  Biso   1.000  H
  H221     1.0000 0.86663  0.23191  0.98234  Biso   1.000  H
  H222     1.0000 0.00641  0.35029  0.27173  Biso   1.000  H
  H223     1.0000 0.28153  0.01229  0.35832  Biso   1.000  H
  H224     1.0000 0.15641  0.72344  0.51067  Biso   1.000  H
  H225     1.0000 0.01329  0.84440  0.23239  Biso   1.000  H
  H226     1.0000 0.78354  0.99329  0.15892  Biso   1.000  H
  H227     1.0000 0.63974  0.73417  0.99832  Biso   1.000  H
  H228     1.0000 0.50972  0.84412  0.28399  Biso   1.000  H
  H229     1.0000 0.77059  0.48922  0.63333  Biso   1.000  H
  H230     1.0000 0.65576  0.77596  0.52494  Biso   1.000  H
  H231     1.0000 0.50219  0.65312  0.77848  Biso   1.000  H
  H232     1.0000 0.27108  0.53256  0.87905  Biso   1.000  H
  H233     1.0000 0.14791  0.77057  0.00083  Biso   1.000  H
  H234     1.0000 0.99294  0.64388  0.73927  Biso   1.000  H
  H235     1.0000 0.73645  0.02272  0.65586  Biso   1.000  H
  H236     1.0000 0.85797  0.27847  0.51749  Biso   1.000  H
  H237     1.0000 0.99810  0.15199  0.77378  Biso   1.000  H
  H238     1.0000 0.23168  0.99077  0.85822  Biso   1.000  H
  H239     1.0000 0.37428  0.26603  0.97088  Biso   1.000  H
  H240     1.0000 0.49538  0.15240  0.72858  Biso   1.000  H
  H241     1.0000 0.72842  0.49757  0.84328  Biso   1.000  H
  H242     1.0000 0.86634  0.73355  0.52361  Biso   1.000  H
  H243     1.0000 0.51601  0.87003  0.74205  Biso   1.000  H
  H244     1.0000 0.22976  0.51120  0.66050  Biso   1.000  H
  H245     1.0000 0.34756  0.72177  0.03106  Biso   1.000  H
  H246     1.0000 0.99120  0.85762  0.77710  Biso   1.000  H
  H247     1.0000 0.77613  0.03754  0.86885  Biso   1.000  H
  H248     1.0000 0.64567  0.22912  0.53241  Biso   1.000  H
  H249     1.0000 0.00610  0.35669  0.73241  Biso   1.000  H
  H250     1.0000 0.27501  0.98642  0.65139  Biso   1.000  H
  H251     1.0000 0.15509  0.22437  0.00952  Biso   1.000  H
  H252     1.0000 0.49427  0.36330  0.76826  Biso   1.000  H
  H253     1.0000 0.28753  0.48849  0.16653  Biso   1.000  H
  H254     1.0000 0.14634  0.26512  0.50875  Biso   1.000  H
  H255     1.0000 0.52550  0.13302  0.26806  Biso   1.000  H
  H256     1.0000 0.78389  0.50387  0.34962  Biso   1.000  H
  H257     1.0000 0.65683  0.27976  0.00887  Biso   1.000  H
  H258     1.0000 0.01368  0.14110  0.23103  Biso   1.000  H
  H259     1.0000 0.24799  0.99595  0.15105  Biso   1.000  H
  H260     1.0000 0.36626  0.76941  0.52273  Biso   1.000  H
  H261     1.0000 0.01279  0.63810  0.27532  Biso   1.000  H
  H262     1.0000 0.74275  0.00811  0.36612  Biso   1.000  H
  H263     1.0000 0.85046  0.77175  0.00549  Biso   1.000  H
  H264     1.0000 0.50805  0.63573  0.23553  Biso   1.000  H
  H265     1.0000 0.01149  0.23370  0.86294  Biso   1.000  H
  H266     1.0000 0.87392  0.97442  0.23725  Biso   1.000  H
  H267     1.0000 0.23102  0.84998  0.01455  Biso   1.000  H
  H268     1.0000 0.50187  0.23414  0.63974  Biso   1.000  H
  H269     1.0000 0.36798  0.98259  0.27864  Biso   1.000  H
  H270     1.0000 0.74294  0.85837  0.50848  Biso   1.000  H
  H271     1.0000 0.48409  0.73570  0.86987  Biso   1.000  H
  H272     1.0000 0.65939  0.50410  0.22704  Biso   1.000  H
  H273     1.0000 0.28203  0.34919  0.99380  Biso   1.000  H
  H274     1.0000 0.01463  0.72854  0.64712  Biso   1.000  H
  H275     1.0000 0.16432  0.48687  0.28139  Biso   1.000  H
  H276     1.0000 0.77335  0.36705  0.49080  Biso   1.000  H
  H277     1.0000 0.98298  0.76520  0.14667  Biso   1.000  H
  H278     1.0000 0.14328  0.01566  0.77420  Biso   1.000  H
  H279     1.0000 0.77916  0.15477  0.00642  Biso   1.000  H
  H280     1.0000 0.49356  0.76489  0.37604  Biso   1.000  H
  H281     1.0000 0.65424  0.01866  0.73726  Biso   1.000  H
  H282     1.0000 0.27713  0.13363  0.53166  Biso   1.000  H
  H283     1.0000 0.50746  0.26761  0.14042  Biso   1.000  H
  H284     1.0000 0.34729  0.50671  0.78516  Biso   1.000  H
  H285     1.0000 0.72030  0.65474  0.96784  Biso   1.000  H
  H286     1.0000 0.98671  0.26804  0.36081  Biso   1.000  H
  H287     1.0000 0.85471  0.48571  0.72720  Biso   1.000  H
  H288     1.0000 0.24594  0.63484  0.50358  Biso   1.000  H
  H289     1.0000 0.10139  0.22477  0.01113  Biso   1.000  H
  H290     1.0000 0.01729  0.08355  0.23407  Biso   1.000  H
  H291     1.0000 0.24433  0.99970  0.09450  Biso   1.000  H
  H292     1.0000 0.59062  0.22814  0.53044  Biso   1.000  H
  H293     1.0000 0.52851  0.08035  0.27362  Biso   1.000  H
  H294     1.0000 0.73949  0.01309  0.41992  Biso   1.000  H
  H295     1.0000 0.40220  0.72391  0.02247  Biso   1.000  H
  H296     1.0000 0.51705  0.58437  0.23429  Biso   1.000  H
  H297     1.0000 0.28396  0.49284  0.11200  Biso   1.000  H
  H298     1.0000 0.92032  0.73576  0.53060  Biso   1.000  H
  H299     1.0000 0.02848  0.58648  0.27684  Biso   1.000  H
  H300     1.0000 0.78497  0.50350  0.40405  Biso   1.000  H
  H301     1.0000 0.90642  0.77036  0.01306  Biso   1.000  H
  H302     1.0000 0.98693  0.91047  0.77658  Biso   1.000  H
  H303     1.0000 0.77484  0.02453  0.91903  Biso   1.000  H
  H304     1.0000 0.42298  0.76816  0.52818  Biso   1.000  H
  H305     1.0000 0.51657  0.92326  0.73421  Biso   1.000  H
  H306     1.0000 0.27455  0.98384  0.59610  Biso   1.000  H
  H307     1.0000 0.60635  0.28146  0.01631  Biso   1.000  H
  H308     1.0000 0.48700  0.41772  0.77031  Biso   1.000  H
  H309     1.0000 0.73203  0.50158  0.89737  Biso   1.000  H
  H310     1.0000 0.09362  0.26830  0.49974  Biso   1.000  H
  H311     1.0000 0.99751  0.41112  0.73081  Biso   1.000  H
  H312     1.0000 0.22935  0.51183  0.60834  Biso   1.000  H
  H313     1.0000 0.23046  0.98519  0.91248  Biso   1.000  H
  H314     1.0000 0.92055  0.23096  0.98605  Biso   1.000  H
  H315     1.0000 0.02277  0.90242  0.23380  Biso   1.000  H
  H316     1.0000 0.73740  0.02121  0.59608  Biso   1.000  H
  H317     1.0000 0.41114  0.22051  0.49561  Biso   1.000  H
  H318     1.0000 0.51221  0.90026  0.28336  Biso   1.000  H
  H319     1.0000 0.27416  0.52726  0.93073  Biso   1.000  H
  H320     1.0000 0.58481  0.73313  0.00830  Biso   1.000  H
  H321     1.0000 0.51480  0.40013  0.23370  Biso   1.000  H
  H322     1.0000 0.77709  0.48960  0.58018  Biso   1.000  H
  H323     1.0000 0.10315  0.72048  0.50997  Biso   1.000  H
  H324     1.0000 0.01421  0.40406  0.27145  Biso   1.000  H
  H325     1.0000 0.78221  0.99850  0.10350  Biso   1.000  H
  H326     1.0000 0.09318  0.76953  0.99607  Biso   1.000  H
  H327     1.0000 0.99590  0.09855  0.76912  Biso   1.000  H
  H328     1.0000 0.27951  0.01460  0.41109  Biso   1.000  H
  H329     1.0000 0.60127  0.77919  0.52925  Biso   1.000  H
  H330     1.0000 0.49868  0.09836  0.72973  Biso   1.000  H
  H331     1.0000 0.74063  0.51447  0.07949  Biso   1.000  H
  H332     1.0000 0.42425  0.26931  0.97060  Biso   1.000  H
  H333     1.0000 0.50326  0.59769  0.78044  Biso   1.000  H
  H334     1.0000 0.24537  0.48737  0.42660  Biso   1.000  H
  H335     1.0000 0.91266  0.27876  0.51773  Biso   1.000  H
  H336     1.0000 0.98952  0.59557  0.73916  Biso   1.000  H
  H337     1.0000 0.01096  0.22544  0.91908  Biso   1.000  H
  H338     1.0000 0.93072  0.97808  0.23273  Biso   1.000  H
  H339     1.0000 0.23417  0.90457  0.00848  Biso   1.000  H
  H340     1.0000 0.50238  0.23094  0.58585  Biso   1.000  H
  H341     1.0000 0.42159  0.98335  0.27559  Biso   1.000  H
  H342     1.0000 0.74133  0.91525  0.50527  Biso   1.000  H
  H343     1.0000 0.48943  0.73318  0.91938  Biso   1.000  H
  H344     1.0000 0.60788  0.49859  0.22839  Biso   1.000  H
  H345     1.0000 0.28054  0.40104  0.00206  Biso   1.000  H
  H346     1.0000 0.01677  0.72163  0.59488  Biso   1.000  H
  H347     1.0000 0.11011  0.49025  0.28091  Biso   1.000  H
  H348     1.0000 0.77717  0.41863  0.49052  Biso   1.000  H
  H349     1.0000 0.97877  0.76968  0.09218  Biso   1.000  H
  H350     1.0000 0.09010  0.00266  0.77479  Biso   1.000  H
  H351     1.0000 0.77824  0.09912  0.01898  Biso   1.000  H
  H352     1.0000 0.49576  0.77118  0.43119  Biso   1.000  H
  H353     1.0000 0.59814  0.01762  0.73536  Biso   1.000  H
  H354     1.0000 0.27861  0.07919  0.51946  Biso   1.000  H
  H355     1.0000 0.50071  0.27130  0.08765  Biso   1.000  H
  H356     1.0000 0.40105  0.50224  0.78185  Biso   1.000  H
  H357     1.0000 0.72391  0.60183  0.96647  Biso   1.000  H
  H358     1.0000 0.99030  0.27000  0.41496  Biso   1.000  H
  H359     1.0000 0.91064  0.48919  0.72705  Biso   1.000  H
  H360     1.0000 0.24518  0.58596  0.51007  Biso   1.000  H
  H361     1.0000 0.99929  0.72309  0.41648  Biso   1.000  H
  H362     1.0000 0.41629  0.00581  0.73246  Biso   1.000  H
  H363     1.0000 0.74212  0.41881  0.00651  Biso   1.000  H
  H364     1.0000 0.48506  0.72772  0.10308  Biso   1.000  H
  H365     1.0000 0.90986  0.01658  0.77745  Biso   1.000  H
  H366     1.0000 0.23215  0.40528  0.51673  Biso   1.000  H
  H367     1.0000 0.51582  0.22539  0.40542  Biso   1.000  H
  H368     1.0000 0.08549  0.48901  0.74047  Biso   1.000  H
  H369     1.0000 0.77530  0.91084  0.00848  Biso   1.000  H
  H370     1.0000 0.99646  0.22390  0.09921  Biso   1.000  H
  H371     1.0000 0.58152  0.49724  0.76791  Biso   1.000  H
  H372     1.0000 0.28318  0.90097  0.48572  Biso   1.000  H
  H373     1.0000 0.02368  0.27266  0.59115  Biso   1.000  H
  H374     1.0000 0.60444  0.97634  0.27912  Biso   1.000  H
  H375     1.0000 0.26848  0.57910  0.02698  Biso   1.000  H
  H376     1.0000 0.54009  0.28006  0.90408  Biso   1.000  H
  H377     1.0000 0.10548  0.97861  0.22762  Biso   1.000  H
  H378     1.0000 0.78590  0.59852  0.49172  Biso   1.000  H
  H379     1.0000 0.51142  0.77119  0.60778  Biso   1.000  H
  H380     1.0000 0.93042  0.51197  0.27170  Biso   1.000  H
  H381     1.0000 0.23668  0.08361  0.99406  Biso   1.000  H
  H382     1.0000 0.99636  0.77553  0.91220  Biso   1.000  H
  H383     1.0000 0.43197  0.49005  0.24214  Biso   1.000  H
  H384     1.0000 0.73807  0.09835  0.50140  Biso   1.000  H
  H385     1.0000 0.23682  0.44969  0.33770  Biso   1.000  H
  H386     1.0000 0.27358  0.16584  0.49241  Biso   1.000  H
  H387     1.0000 0.48702  0.32199  0.22834  Biso   1.000  H
  H388     1.0000 0.69584  0.47736  0.21999  Biso   1.000  H
  H389     1.0000 0.84212  0.23223  0.02084  Biso   1.000  H
  H390     1.0000 0.95898  0.27865  0.32175  Biso   1.000  H
  H391     1.0000 0.28517  0.97659  0.33665  Biso   1.000  H
  H392     1.0000 0.18776  0.72220  0.47723  Biso   1.000  H
  H393     1.0000 0.01912  0.76044  0.17528  Biso   1.000  H
  H394     1.0000 0.78681  0.96068  0.18255  Biso   1.000  H
  H395     1.0000 0.71806  0.67444  0.00704  Biso   1.000  H
  H396     1.0000 0.47235  0.81845  0.28831  Biso   1.000  H
  H397     1.0000 0.77324  0.51974  0.66758  Biso   1.000  H
  H398     1.0000 0.74057  0.83442  0.54047  Biso   1.000  H
  H399     1.0000 0.46660  0.68194  0.78201  Biso   1.000  H
  H400     1.0000 0.32453  0.54407  0.79174  Biso   1.000  H
  H401     1.0000 0.23223  0.81666  0.97889  Biso   1.000  H
  H402     1.0000 0.03282  0.67153  0.73393  Biso   1.000  H
  H403     1.0000 0.73574  0.99182  0.68216  Biso   1.000  H
  H404     1.0000 0.77392  0.33910  0.52646  Biso   1.000  H
  H405     1.0000 0.98745  0.23322  0.82969  Biso   1.000  H
  H406     1.0000 0.23165  0.03165  0.83399  Biso   1.000  H
  H407     1.0000 0.28629  0.31820  0.96033  Biso   1.000  H
  H408     1.0000 0.46594  0.19067  0.71937  Biso   1.000  H
  H409     1.0000 0.29949  0.44742  0.19287  Biso   1.000  H
  H410     1.0000 0.18466  0.26980  0.48103  Biso   1.000  H
  H411     1.0000 0.48649  0.21254  0.32396  Biso   1.000  H
  H412     1.0000 0.84452  0.47958  0.26619  Biso   1.000  H
  H413     1.0000 0.68211  0.27734  0.97020  Biso   1.000  H
  H414     1.0000 0.97135  0.16577  0.23687  Biso   1.000  H
  H415     1.0000 0.18786  0.02789  0.22585  Biso   1.000  H
  H416     1.0000 0.30295  0.81604  0.46221  Biso   1.000  H
  H417     1.0000 0.98077  0.66317  0.27675  Biso   1.000  H
  H418     1.0000 0.74603  0.97084  0.33803  Biso   1.000  H
  H419     1.0000 0.81369  0.78037  0.03815  Biso   1.000  H
  H420     1.0000 0.47474  0.66132  0.23909  Biso   1.000  H
  H421     1.0000 0.71501  0.53311  0.81190  Biso   1.000  H
  H422     1.0000 0.78676  0.67663  0.54507  Biso   1.000  H
  H423     1.0000 0.55098  0.82415  0.73939  Biso   1.000  H
  H424     1.0000 0.16599  0.53961  0.73880  Biso   1.000  H
  H425     1.0000 0.31385  0.70618  0.97826  Biso   1.000  H
  H426     1.0000 0.03283  0.77985  0.83252  Biso   1.000  H
  H427     1.0000 0.82932  0.06366  0.79431  Biso   1.000  H
  H428     1.0000 0.73223  0.18025  0.54607  Biso   1.000  H
  H429     1.0000 0.04420  0.33026  0.73088  Biso   1.000  H
  H430     1.0000 0.33152  0.97849  0.73546  Biso   1.000  H
  H431     1.0000 0.18259  0.22338  0.97496  Biso   1.000  H
  H432     1.0000 0.49208  0.27760  0.82584  Biso   1.000  H
  H433     1.0000 0.27363  0.02654  0.67745  Biso   1.000  H
  H434     1.0000 0.74297  0.33537  0.02100  Biso   1.000  H
  H435     1.0000 0.03097  0.72313  0.33400  Biso   1.000  H
  H436     1.0000 0.78448  0.98954  0.83268  Biso   1.000  H
  H437     1.0000 0.22161  0.32187  0.55305  Biso   1.000  H
  H438     1.0000 0.52449  0.71907  0.18381  Biso   1.000  H
  H439     1.0000 0.22727  0.48202  0.69658  Biso   1.000  H
  H440     1.0000 0.78005  0.82568  0.96156  Biso   1.000  H
  H441     1.0000 0.55711  0.16858  0.27534  Biso   1.000  H
  H442     1.0000 0.67474  0.45421  0.77220  Biso   1.000  H
  H443     1.0000 0.32718  0.78240  0.54778  Biso   1.000  H
  H444     1.0000 0.03254  0.21503  0.18069  Biso   1.000  H
  H445     1.0000 0.68650  0.01358  0.27586  Biso   1.000  H
  H446     1.0000 0.27100  0.66601  0.05476  Biso   1.000  H
  H447     1.0000 0.98827  0.27678  0.67215  Biso   1.000  H
  H448     1.0000 0.23576  0.95970  0.17904  Biso   1.000  H
  H449     1.0000 0.83636  0.73311  0.48263  Biso   1.000  H
  H450     1.0000 0.53276  0.34154  0.76653  Biso   1.000  H
  H451     1.0000 0.78830  0.53243  0.32233  Biso   1.000  H
  H452     1.0000 0.23622  0.16610  0.02494  Biso   1.000  H
  H453     1.0000 0.47433  0.79223  0.69206  Biso   1.000  H
  H454     1.0000 0.34334  0.51662  0.24284  Biso   1.000  H
  H455     1.0000 0.67026  0.23287  0.49159  Biso   1.000  H
  H456     1.0000 0.96581  0.82339  0.77638  Biso   1.000  H
  H457     1.0000 0.68297  0.77665  0.49261  Biso   1.000  H
  H458     1.0000 0.52353  0.72995  0.84371  Biso   1.000  H
  H459     1.0000 0.82321  0.46011  0.72390  Biso   1.000  H
  H460     1.0000 0.17028  0.77749  0.03779  Biso   1.000  H
  H461     1.0000 0.97396  0.72412  0.67826  Biso   1.000  H
  H462     1.0000 0.26531  0.49709  0.84497  Biso   1.000  H
  H463     1.0000 0.82702  0.27205  0.48404  Biso   1.000  H
  H464     1.0000 0.03728  0.17303  0.77555  Biso   1.000  H
  H465     1.0000 0.67983  0.05179  0.73073  Biso   1.000  H
  H466     1.0000 0.34542  0.26384  0.00817  Biso   1.000  H
  H467     1.0000 0.54511  0.22341  0.67267  Biso   1.000  H
  H468     1.0000 0.17191  0.98784  0.76897  Biso   1.000  H
  H469     1.0000 0.33457  0.21718  0.54786  Biso   1.000  H
  H470     1.0000 0.53724  0.26749  0.16735  Biso   1.000  H
  H471     1.0000 0.20028  0.52093  0.28944  Biso   1.000  H
  H472     1.0000 0.78209  0.17858  0.96997  Biso   1.000  H
  H473     1.0000 0.04126  0.31342  0.28894  Biso   1.000  H
  H474     1.0000 0.73639  0.54130  0.16394  Biso   1.000  H
  H475     1.0000 0.24722  0.66654  0.52905  Biso   1.000  H
  H476     1.0000 0.97160  0.82168  0.23032  Biso   1.000  H
  H477     1.0000 0.34333  0.01625  0.27464  Biso   1.000  H
  H478     1.0000 0.66570  0.73927  0.96136  Biso   1.000  H
  H479     1.0000 0.52336  0.76267  0.34677  Biso   1.000  H
  H480     1.0000 0.84676  0.00891  0.24467  Biso   1.000  H
  N1       1.0000 0.68017  0.18044  0.51463  Biso   1.000  N
  N2       1.0000 0.49834  0.67100  0.18498  Biso   1.000  N
  N3       1.0000 0.17446  0.50573  0.69331  Biso   1.000  N
  N4       1.0000 0.18698  0.17245  0.00329  Biso   1.000  N
  N5       1.0000 0.00883  0.66948  0.32902  Biso   1.000  N
  N6       1.0000 0.67323  0.49681  0.81631  Biso   1.000  N
  N7       1.0000 0.83634  0.68255  0.51242  Biso   1.000  N
  N8       1.0000 0.00233  0.16979  0.18185  Biso   1.000  N
  N9       1.0000 0.32771  0.00176  0.68171  Biso   1.000  N
  N10      1.0000 0.31923  0.66600  0.02162  Biso   1.000  N
  N11      1.0000 0.52277  0.16809  0.32225  Biso   1.000  N
  N12      1.0000 0.82810  0.02398  0.83539  Biso   1.000  N
  N13      1.0000 0.33755  0.82122  0.50712  Biso   1.000  N
  N14      1.0000 0.51222  0.33220  0.82115  Biso   1.000  N
  N15      1.0000 0.83846  0.50568  0.31873  Biso   1.000  N
  N16      1.0000 0.82323  0.82488  0.00113  Biso   1.000  N
  N17      1.0000 0.01577  0.32455  0.67840  Biso   1.000  N
  N18      1.0000 0.34475  0.48451  0.19301  Biso   1.000  N
  N19      1.0000 0.18060  0.32007  0.51390  Biso   1.000  N
  N20      1.0000 0.99834  0.82700  0.82744  Biso   1.000  N
  N21      1.0000 0.69115  0.99302  0.33023  Biso   1.000  N
  N22      1.0000 0.68845  0.33396  0.99983  Biso   1.000  N
  N23      1.0000 0.51481  0.83100  0.69198  Biso   1.000  N
  N24      1.0000 0.18976  0.99135  0.17919  Biso   1.000  N
  N25      1.0000 0.82458  0.49044  0.67131  Biso   1.000  N
  N26      1.0000 0.68884  0.82850  0.51334  Biso   1.000  N
  N27      1.0000 0.49585  0.68248  0.83368  Biso   1.000  N
  N28      1.0000 0.32008  0.51732  0.84048  Biso   1.000  N
  N29      1.0000 0.17840  0.82168  0.00721  Biso   1.000  N
  N30      1.0000 0.00320  0.67463  0.68308  Biso   1.000  N
  N31      1.0000 0.68570  0.01949  0.68414  Biso   1.000  N
  N32      1.0000 0.82568  0.33007  0.50088  Biso   1.000  N
  N33      1.0000 0.00858  0.18100  0.82606  Biso   1.000  N
  N34      1.0000 0.17730  0.00597  0.82629  Biso   1.000  N
  N35      1.0000 0.33662  0.31745  0.98454  Biso   1.000  N
  N36      1.0000 0.50087  0.18152  0.67238  Biso   1.000  N
  N37      1.0000 0.19447  0.48700  0.33606  Biso   1.000  N
  N38      1.0000 0.32746  0.16879  0.51601  Biso   1.000  N
  N39      1.0000 0.51254  0.31911  0.17487  Biso   1.000  N
  N40      1.0000 0.69250  0.50698  0.16952  Biso   1.000  N
  N41      1.0000 0.83322  0.18092  0.99595  Biso   1.000  N
  N42      1.0000 0.99691  0.32029  0.32717  Biso   1.000  N
  N43      1.0000 0.33700  0.99766  0.32747  Biso   1.000  N
  N44      1.0000 0.19217  0.67075  0.50288  Biso   1.000  N
  N45      1.0000 0.99897  0.81578  0.17998  Biso   1.000  N
  N46      1.0000 0.83920  0.98633  0.18692  Biso   1.000  N
  N47      1.0000 0.66792  0.68316  0.98561  Biso   1.000  N
  N48      1.0000 0.50248  0.81587  0.33970  Biso   1.000  N
  O1       1.0000 0.34136  0.53248  0.02479  Biso   1.000  O
  O2       1.0000 0.01163  0.34465  0.54469  Biso   1.000  O
  O3       1.0000 0.55525  0.98901  0.35108  Biso   1.000  O
  O4       1.0000 0.85677  0.54844  0.49888  Biso   1.000  O
  O5       1.0000 0.52171  0.34876  0.95793  Biso   1.000  O
  O6       1.0000 0.05742  0.99467  0.15673  Biso   1.000  O
  O7       1.0000 0.16678  0.03856  0.00564  Biso   1.000  O
  O8       1.0000 0.51160  0.83882  0.55620  Biso   1.000  O
  O9       1.0000 0.97320  0.50057  0.34347  Biso   1.000  O
  O10      1.0000 0.66811  0.04648  0.50605  Biso   1.000  O
  O11      1.0000 0.99941  0.84368  0.96383  Biso   1.000  O
  O12      1.0000 0.47355  0.49963  0.16570  Biso   1.000  O
  O13      1.0000 0.66624  0.46700  0.99614  Biso   1.000  O
  O14      1.0000 0.00599  0.65277  0.46608  Biso   1.000  O
  O15      1.0000 0.46232  0.00160  0.65950  Biso   1.000  O
  O16      1.0000 0.15992  0.45217  0.51427  Biso   1.000  O
  O17      1.0000 0.49933  0.65943  0.05146  Biso   1.000  O
  O18      1.0000 0.96130  0.01377  0.84708  Biso   1.000  O
  O19      1.0000 0.84639  0.96261  0.00448  Biso   1.000  O
  O20      1.0000 0.51012  0.15306  0.45663  Biso   1.000  O
  O21      1.0000 0.04208  0.50195  0.66296  Biso   1.000  O
  O22      1.0000 0.35433  0.95327  0.50753  Biso   1.000  O
  O23      1.0000 0.00291  0.15369  0.04641  Biso   1.000  O
  O24      1.0000 0.54048  0.50034  0.84243  Biso   1.000  O
  O25      1.0000 0.97306  0.99253  0.16037  Biso   1.000  O
  O26      1.0000 0.16322  0.95560  0.00608  Biso   1.000  O
  O27      1.0000 0.01451  0.15510  0.96235  Biso   1.000  O
  O28      1.0000 0.47070  0.00059  0.34753  Biso   1.000  O
  O29      1.0000 0.66852  0.96259  0.50727  Biso   1.000  O
  O30      1.0000 0.50010  0.15506  0.53936  Biso   1.000  O
  O31      1.0000 0.55788  0.49560  0.15715  Biso   1.000  O
  O32      1.0000 0.35142  0.45133  0.00929  Biso   1.000  O
  O33      1.0000 0.48917  0.65915  0.96666  Biso   1.000  O
  O34      1.0000 0.05808  0.49450  0.35103  Biso   1.000  O
  O35      1.0000 0.85296  0.46428  0.48713  Biso   1.000  O
  O36      1.0000 0.01302  0.64927  0.54959  Biso   1.000  O
  O37      1.0000 0.04321  0.99800  0.84528  Biso   1.000  O
  O38      1.0000 0.84886  0.04515  0.01591  Biso   1.000  O
  O39      1.0000 0.00056  0.83875  0.04641  Biso   1.000  O
  O40      1.0000 0.54980  0.00883  0.66321  Biso   1.000  O
  O41      1.0000 0.35064  0.03499  0.50078  Biso   1.000  O
  O42      1.0000 0.51075  0.84288  0.47385  Biso   1.000  O
  O43      1.0000 0.45467  0.50863  0.85011  Biso   1.000  O
  O44      1.0000 0.65788  0.54974  0.98230  Biso   1.000  O
  O45      1.0000 0.50617  0.34496  0.04169  Biso   1.000  O
  O46      1.0000 0.95918  0.50191  0.65963  Biso   1.000  O
  O47      1.0000 0.16851  0.53793  0.51364  Biso   1.000  O
  O48      1.0000 0.99916  0.34124  0.46136  Biso   1.000  O
  O49      1.0000 0.01881  0.94821  0.16022  Biso   1.000  O
  O50      1.0000 0.16095  0.99805  0.96147  Biso   1.000  O
  O51      1.0000 0.96509  0.15378  0.00029  Biso   1.000  O
  O52      1.0000 0.50619  0.95227  0.35300  Biso   1.000  O
  O53      1.0000 0.66696  0.00506  0.54877  Biso   1.000  O
  O54      1.0000 0.46296  0.15132  0.49301  Biso   1.000  O
  O55      1.0000 0.51450  0.45370  0.16379  Biso   1.000  O
  O56      1.0000 0.34334  0.50251  0.97584  Biso   1.000  O
  O57      1.0000 0.53506  0.65987  0.00235  Biso   1.000  O
  O58      1.0000 0.01733  0.45171  0.34447  Biso   1.000  O
  O59      1.0000 0.85301  0.50219  0.53775  Biso   1.000  O
  O60      1.0000 0.05126  0.65039  0.50445  Biso   1.000  O
  O61      1.0000 0.00958  0.04621  0.84047  Biso   1.000  O
  O62      1.0000 0.84999  0.99845  0.05404  Biso   1.000  O
  O63      1.0000 0.04313  0.83998  0.00136  Biso   1.000  O
  O64      1.0000 0.50473  0.04758  0.65944  Biso   1.000  O
  O65      1.0000 0.35001  0.99496  0.46122  Biso   1.000  O
  O66      1.0000 0.55472  0.85044  0.51532  Biso   1.000  O
  O67      1.0000 0.50444  0.54590  0.84791  Biso   1.000  O
  O68      1.0000 0.66482  0.51424  0.03300  Biso   1.000  O
  O69      1.0000 0.47014  0.34188  0.98739  Biso   1.000  O
  O70      1.0000 0.00228  0.54218  0.66663  Biso   1.000  O
  O71      1.0000 0.17161  0.49189  0.47112  Biso   1.000  O
  O72      1.0000 0.96311  0.34633  0.50471  Biso   1.000  O
  O73      1.0000 0.00002  0.46000  0.65908  Biso   1.000  O
  O74      1.0000 0.66580  0.00124  0.46145  Biso   1.000  O
  O75      1.0000 0.45341  0.65351  0.01530  Biso   1.000  O
  O76      1.0000 0.49313  0.46335  0.84870  Biso   1.000  O
  O77      1.0000 0.17141  0.99945  0.04730  Biso   1.000  O
  O78      1.0000 0.96745  0.65990  0.51129  Biso   1.000  O
  O79      1.0000 0.51467  0.96329  0.65880  Biso   1.000  O
  O80      1.0000 0.85530  0.51118  0.45379  Biso   1.000  O
  O81      1.0000 0.05146  0.15074  0.01189  Biso   1.000  O
  O82      1.0000 0.99559  0.96258  0.84770  Biso   1.000  O
  O83      1.0000 0.34962  0.48702  0.05867  Biso   1.000  O
  O84      1.0000 0.54665  0.15785  0.50459  Biso   1.000  O
  O85      1.0000 0.01551  0.53717  0.34598  Biso   1.000  O
  O86      1.0000 0.34542  0.99258  0.54625  Biso   1.000  O
  O87      1.0000 0.55338  0.35109  0.00547  Biso   1.000  O
  O88      1.0000 0.51509  0.53758  0.15956  Biso   1.000  O
  O89      1.0000 0.84655  0.00679  0.97012  Biso   1.000  O
  O90      1.0000 0.04724  0.34218  0.49635  Biso   1.000  O
  O91      1.0000 0.52118  0.03498  0.34697  Biso   1.000  O
  O92      1.0000 0.15909  0.49275  0.55660  Biso   1.000  O
  O93      1.0000 0.95883  0.83926  0.00842  Biso   1.000  O
  O94      1.0000 0.01831  0.03582  0.16194  Biso   1.000  O
  O95      1.0000 0.66155  0.50328  0.94968  Biso   1.000  O
  O96      1.0000 0.47043  0.84240  0.51489  Biso   1.000  O
  O97      1.0000 0.46055  0.19967  0.49131  Biso   1.000  O
  O98      1.0000 0.52441  0.45195  0.21129  Biso   1.000  O
  O99      1.0000 0.22035  0.49215  0.47391  Biso   1.000  O
  O100     1.0000 0.96678  0.20192  0.99563  Biso   1.000  O
  O101     1.0000 0.02039  0.45278  0.29491  Biso   1.000  O
  O102     1.0000 0.71382  0.51750  0.03053  Biso   1.000  O
  O103     1.0000 0.05838  0.69804  0.50340  Biso   1.000  O
  O104     1.0000 0.02419  0.94912  0.20821  Biso   1.000  O
  O105     1.0000 0.30082  0.99965  0.45777  Biso   1.000  O
  O106     1.0000 0.53376  0.70774  0.00678  Biso   1.000  O
  O107     1.0000 0.50815  0.95029  0.30504  Biso   1.000  O
  O108     1.0000 0.80435  0.99588  0.05403  Biso   1.000  O
  O109     1.0000 0.55544  0.80113  0.51196  Biso   1.000  O
  O110     1.0000 0.49523  0.55086  0.80033  Biso   1.000  O
  O111     1.0000 0.80321  0.50148  0.53659  Biso   1.000  O
  O112     1.0000 0.04680  0.79110  0.00065  Biso   1.000  O
  O113     1.0000 0.99969  0.54170  0.71635  Biso   1.000  O
  O114     1.0000 0.29460  0.49855  0.97471  Biso   1.000  O
  O115     1.0000 0.96070  0.29842  0.51015  Biso   1.000  O
  O116     1.0000 0.99677  0.04610  0.79350  Biso   1.000  O
  O117     1.0000 0.71517  0.00923  0.54902  Biso   1.000  O
  O118     1.0000 0.47417  0.29356  0.99280  Biso   1.000  O
  O119     1.0000 0.50199  0.04998  0.70865  Biso   1.000  O
  O120     1.0000 0.21010  0.99934  0.95904  Biso   1.000  O
  O121     1.0000 0.03938  0.49671  0.71167  Biso   1.000  O
  O122     1.0000 0.71765  0.04995  0.50304  Biso   1.000  O
  O123     1.0000 0.49779  0.70791  0.05119  Biso   1.000  O
  O124     1.0000 0.53452  0.50534  0.79463  Biso   1.000  O
  O125     1.0000 0.21618  0.03903  0.99960  Biso   1.000  O
  O126     1.0000 0.00841  0.70027  0.46610  Biso   1.000  O
  O127     1.0000 0.46353  0.00423  0.70868  Biso   1.000  O
  O128     1.0000 0.80783  0.54953  0.49567  Biso   1.000  O
  O129     1.0000 0.99807  0.20117  0.04590  Biso   1.000  O
  O130     1.0000 0.95805  0.00570  0.79989  Biso   1.000  O
  O131     1.0000 0.29379  0.53058  0.02427  Biso   1.000  O
  O132     1.0000 0.50981  0.20227  0.45512  Biso   1.000  O
  O133     1.0000 0.97774  0.49724  0.29603  Biso   1.000  O
  O134     1.0000 0.30552  0.95334  0.49964  Biso   1.000  O
  O135     1.0000 0.52083  0.30076  0.95534  Biso   1.000  O
  O136     1.0000 0.47957  0.49367  0.21278  Biso   1.000  O
  O137     1.0000 0.79743  0.96037  0.00373  Biso   1.000  O
  O138     1.0000 0.01228  0.29554  0.54320  Biso   1.000  O
  O139     1.0000 0.55375  0.98408  0.30110  Biso   1.000  O
  O140     1.0000 0.21014  0.45212  0.51681  Biso   1.000  O
  O141     1.0000 0.99675  0.79518  0.96098  Biso   1.000  O
  O142     1.0000 0.05955  0.99615  0.20545  Biso   1.000  O
  O143     1.0000 0.71519  0.46901  0.99522  Biso   1.000  O
  O144     1.0000 0.51820  0.78974  0.55847  Biso   1.000  O
  O145     1.0000 0.56118  0.49360  0.20721  Biso   1.000  O
  O146     1.0000 0.21663  0.53469  0.51463  Biso   1.000  O
  O147     1.0000 0.50020  0.20479  0.53740  Biso   1.000  O
  O148     1.0000 0.05877  0.49498  0.30327  Biso   1.000  O
  O149     1.0000 0.70583  0.55510  0.98491  Biso   1.000  O
  O150     1.0000 0.01749  0.20362  0.96303  Biso   1.000  O
  O151     1.0000 0.97576  0.98656  0.20827  Biso   1.000  O
  O152     1.0000 0.30090  0.03381  0.50788  Biso   1.000  O
  O153     1.0000 0.01884  0.69708  0.54656  Biso   1.000  O
  O154     1.0000 0.47358  0.99565  0.29972  Biso   1.000  O
  O155     1.0000 0.79999  0.04474  0.01895  Biso   1.000  O
  O156     1.0000 0.49102  0.70772  0.96743  Biso   1.000  O
  O157     1.0000 0.45087  0.50950  0.80241  Biso   1.000  O
  O158     1.0000 0.80351  0.46533  0.48962  Biso   1.000  O
  O159     1.0000 0.50951  0.79348  0.47304  Biso   1.000  O
  O160     1.0000 0.95685  0.49965  0.70737  Biso   1.000  O
  O161     1.0000 0.30334  0.44987  0.00942  Biso   1.000  O
  O162     1.0000 0.00207  0.78982  0.04509  Biso   1.000  O
  O163     1.0000 0.04173  0.00429  0.79634  Biso   1.000  O
  O164     1.0000 0.71662  0.96541  0.50654  Biso   1.000  O
  O165     1.0000 0.99334  0.29268  0.46148  Biso   1.000  O
  O166     1.0000 0.55049  0.01779  0.71122  Biso   1.000  O
  O167     1.0000 0.21127  0.95480  0.99975  Biso   1.000  O
  O168     1.0000 0.51298  0.29652  0.03995  Biso   1.000  O
  O169     1.0000 0.01368  0.03417  0.20991  Biso   1.000  O
  O170     1.0000 0.21830  0.99289  0.04437  Biso   1.000  O
  O171     1.0000 0.05155  0.20008  0.00993  Biso   1.000  O
  O172     1.0000 0.52435  0.03109  0.29763  Biso   1.000  O
  O173     1.0000 0.71687  0.00626  0.46540  Biso   1.000  O
  O174     1.0000 0.54646  0.20610  0.50260  Biso   1.000  O
  O175     1.0000 0.52325  0.53719  0.20675  Biso   1.000  O
  O176     1.0000 0.30233  0.47861  0.06107  Biso   1.000  O
  O177     1.0000 0.45012  0.70170  0.01470  Biso   1.000  O
  O178     1.0000 0.01937  0.53856  0.29673  Biso   1.000  O
  O179     1.0000 0.80612  0.51127  0.44993  Biso   1.000  O
  O180     1.0000 0.97379  0.70834  0.51407  Biso   1.000  O
  O181     1.0000 0.99851  0.96208  0.79912  Biso   1.000  O
  O182     1.0000 0.79753  0.00807  0.96808  Biso   1.000  O
  O183     1.0000 0.95824  0.79084  0.00727  Biso   1.000  O
  O184     1.0000 0.51443  0.96837  0.70790  Biso   1.000  O
  O185     1.0000 0.29648  0.98868  0.54522  Biso   1.000  O
  O186     1.0000 0.47200  0.79382  0.52348  Biso   1.000  O
  O187     1.0000 0.49114  0.46713  0.80044  Biso   1.000  O
  O188     1.0000 0.71117  0.50429  0.94988  Biso   1.000  O
  O189     1.0000 0.55649  0.30271  0.00287  Biso   1.000  O
  O190     1.0000 0.00305  0.45877  0.70843  Biso   1.000  O
  O191     1.0000 0.20862  0.49543  0.55984  Biso   1.000  O
  O192     1.0000 0.04358  0.29360  0.49600  Biso   1.000  O
