data_image0
_cell_length_a       46.6894
_cell_length_b       46.6487
_cell_length_c       46.5383
_cell_angle_alpha    90
_cell_angle_beta     90
_cell_angle_gamma    90

_symmetry_space_group_name_H-M    "P 1"
_symmetry_int_tables_number       1

loop_
  _symmetry_equiv_pos_as_xyz
  'x, y, z'

loop_
  _atom_site_label
  _atom_site_occupancy
  _atom_site_fract_x
  _atom_site_fract_y
  _atom_site_fract_z
  _atom_site_thermal_displace_type
  _atom_site_B_iso_or_equiv
  _atom_site_type_symbol
  C1       1.0000 0.58829  0.98906  0.32563  Biso   1.000  C
  C2       1.0000 0.34567  0.53913  0.03218  Biso   1.000  C
  C3       1.0000 0.03327  0.30630  0.56076  Biso   1.000  C
  C4       1.0000 0.08953  0.98792  0.20021  Biso   1.000  C
  C5       1.0000 0.84078  0.53500  0.48118  Biso   1.000  C
  C6       1.0000 0.53323  0.30247  0.96270  Biso   1.000  C
  C7       1.0000 0.99266  0.49789  0.32584  Biso   1.000  C
  C8       1.0000 0.21119  0.03738  0.01147  Biso   1.000  C
  C9       1.0000 0.51972  0.80592  0.55961  Biso   1.000  C
  C10      1.0000 0.49080  0.49647  0.20939  Biso   1.000  C
  C11      1.0000 0.70593  0.03374  0.52474  Biso   1.000  C
  C12      1.0000 0.01450  0.80607  0.97435  Biso   1.000  C
  C13      1.0000 0.46220  0.99061  0.69410  Biso   1.000  C
  C14      1.0000 0.70884  0.43996  0.99101  Biso   1.000  C
  C15      1.0000 0.01918  0.66219  0.47389  Biso   1.000  C
  C16      1.0000 0.96257  0.98536  0.83770  Biso   1.000  C
  C17      1.0000 0.21227  0.43388  0.53534  Biso   1.000  C
  C18      1.0000 0.51343  0.66913  0.06549  Biso   1.000  C
  C19      1.0000 0.06682  0.47578  0.70547  Biso   1.000  C
  C20      1.0000 0.83679  0.94214  0.02618  Biso   1.000  C
  C21      1.0000 0.53211  0.17105  0.46099  Biso   1.000  C
  C22      1.0000 0.56896  0.47370  0.82821  Biso   1.000  C
  C23      1.0000 0.34298  0.93050  0.50271  Biso   1.000  C
  C24      1.0000 0.03031  0.16497  0.06589  Biso   1.000  C
  C25      1.0000 0.34557  0.03851  0.51319  Biso   1.000  C
  C26      1.0000 0.53249  0.31111  0.07338  Biso   1.000  C
  C27      1.0000 0.09863  0.48458  0.33999  Biso   1.000  C
  C28      1.0000 0.83974  0.04884  0.01517  Biso   1.000  C
  C29      1.0000 0.02546  0.30791  0.45254  Biso   1.000  C
  C30      1.0000 0.60096  0.49970  0.18831  Biso   1.000  C
  C31      1.0000 0.20269  0.54138  0.53431  Biso   1.000  C
  C32      1.0000 0.02252  0.80980  0.08295  Biso   1.000  C
  C33      1.0000 0.47935  0.99754  0.32859  Biso   1.000  C
  C34      1.0000 0.71156  0.54887  0.00036  Biso   1.000  C
  C35      1.0000 0.50606  0.80867  0.45036  Biso   1.000  C
  C36      1.0000 0.97975  0.99118  0.20026  Biso   1.000  C
  C37      1.0000 0.70142  0.92679  0.50283  Biso   1.000  C
  C38      1.0000 0.51946  0.66760  0.95640  Biso   1.000  C
  C39      1.0000 0.95785  0.48458  0.68846  Biso   1.000  C
  C40      1.0000 0.20715  0.92796  0.00763  Biso   1.000  C
  C41      1.0000 0.00538  0.66185  0.58345  Biso   1.000  C
  C42      1.0000 0.45977  0.48696  0.84286  Biso   1.000  C
  C43      1.0000 0.84927  0.42746  0.50548  Biso   1.000  C
  C44      1.0000 0.02382  0.16440  0.95282  Biso   1.000  C
  C45      1.0000 0.56832  0.97263  0.69381  Biso   1.000  C
  C46      1.0000 0.35435  0.43185  0.03958  Biso   1.000  C
  C47      1.0000 0.52784  0.16632  0.57078  Biso   1.000  C
  C48      1.0000 0.07059  0.97518  0.83572  Biso   1.000  C
  C49      1.0000 0.01724  0.03536  0.83380  Biso   1.000  C
  C50      1.0000 0.84400  0.00108  0.07396  Biso   1.000  C
  C51      1.0000 0.07106  0.80390  0.02315  Biso   1.000  C
  C52      1.0000 0.52826  0.03230  0.69191  Biso   1.000  C
  C53      1.0000 0.34728  0.99459  0.45405  Biso   1.000  C
  C54      1.0000 0.56958  0.80533  0.49659  Biso   1.000  C
  C55      1.0000 0.51773  0.53415  0.83354  Biso   1.000  C
  C56      1.0000 0.71743  0.49278  0.04930  Biso   1.000  C
  C57      1.0000 0.47693  0.30466  0.01583  Biso   1.000  C
  C58      1.0000 0.01567  0.53144  0.70571  Biso   1.000  C
  C59      1.0000 0.20924  0.48764  0.48120  Biso   1.000  C
  C60      1.0000 0.97792  0.30519  0.51450  Biso   1.000  C
  C61      1.0000 0.03034  0.93643  0.20623  Biso   1.000  C
  C62      1.0000 0.20377  0.98161  0.95382  Biso   1.000  C
  C63      1.0000 0.97417  0.16930  0.01442  Biso   1.000  C
  C64      1.0000 0.52879  0.94099  0.33145  Biso   1.000  C
  C65      1.0000 0.70234  0.97133  0.56798  Biso   1.000  C
  C66      1.0000 0.47370  0.16740  0.51511  Biso   1.000  C
  C67      1.0000 0.54348  0.44499  0.19947  Biso   1.000  C
  C68      1.0000 0.34233  0.48230  0.98309  Biso   1.000  C
  C69      1.0000 0.57550  0.66508  0.01337  Biso   1.000  C
  C70      1.0000 0.03638  0.43591  0.32708  Biso   1.000  C
  C71      1.0000 0.84004  0.48808  0.54615  Biso   1.000  C
  C72      1.0000 0.06743  0.66107  0.53368  Biso   1.000  C
  C73      1.0000 0.05002  0.54107  0.33818  Biso   1.000  C
  C74      1.0000 0.34153  0.98200  0.55909  Biso   1.000  C
  C75      1.0000 0.58329  0.31275  0.01824  Biso   1.000  C
  C76      1.0000 0.54282  0.55165  0.19632  Biso   1.000  C
  C77      1.0000 0.83398  0.99109  0.96550  Biso   1.000  C
  C78      1.0000 0.08500  0.31078  0.50329  Biso   1.000  C
  C79      1.0000 0.53590  0.04779  0.32556  Biso   1.000  C
  C80      1.0000 0.20082  0.48863  0.59009  Biso   1.000  C
  C81      1.0000 0.96238  0.81402  0.03466  Biso   1.000  C
  C82      1.0000 0.03434  0.04487  0.19548  Biso   1.000  C
  C83      1.0000 0.70267  0.49394  0.94212  Biso   1.000  C
  C84      1.0000 0.46307  0.80499  0.51375  Biso   1.000  C
  C85      1.0000 0.01131  0.42511  0.69273  Biso   1.000  C
  C86      1.0000 0.70496  0.99476  0.46167  Biso   1.000  C
  C87      1.0000 0.46378  0.67009  0.00890  Biso   1.000  C
  C88      1.0000 0.50361  0.42671  0.83500  Biso   1.000  C
  C89      1.0000 0.20840  0.98256  0.06413  Biso   1.000  C
  C90      1.0000 0.95748  0.66363  0.52220  Biso   1.000  C
  C91      1.0000 0.50722  0.92758  0.69376  Biso   1.000  C
  C92      1.0000 0.85477  0.47151  0.43789  Biso   1.000  C
  C93      1.0000 0.08447  0.16152  0.00839  Biso   1.000  C
  C94      1.0000 0.01550  0.92427  0.83995  Biso   1.000  C
  C95      1.0000 0.35348  0.49200  0.09076  Biso   1.000  C
  C96      1.0000 0.58548  0.16966  0.51734  Biso   1.000  C
  C97      1.0000 0.70688  0.06533  0.52732  Biso   1.000  C
  C98      1.0000 0.50935  0.66812  0.09670  Biso   1.000  C
  C99      1.0000 0.09910  0.47267  0.71020  Biso   1.000  C
  C100     1.0000 0.21189  0.06940  0.01296  Biso   1.000  C
  C101     1.0000 0.02021  0.66292  0.44122  Biso   1.000  C
  C102     1.0000 0.60064  0.47575  0.82304  Biso   1.000  C
  C103     1.0000 0.84052  0.56667  0.47581  Biso   1.000  C
  C104     1.0000 0.03187  0.16682  0.09810  Biso   1.000  C
  C105     1.0000 0.42973  0.98746  0.69324  Biso   1.000  C
  C106     1.0000 0.34039  0.57053  0.03063  Biso   1.000  C
  C107     1.0000 0.53416  0.17199  0.42793  Biso   1.000  C
  C108     1.0000 0.93091  0.98405  0.83881  Biso   1.000  C
  C109     1.0000 0.33943  0.89936  0.50123  Biso   1.000  C
  C110     1.0000 0.53282  0.30327  0.93084  Biso   1.000  C
  C111     1.0000 0.96011  0.50120  0.32344  Biso   1.000  C
  C112     1.0000 0.83448  0.91028  0.02991  Biso   1.000  C
  C113     1.0000 0.03370  0.30506  0.59325  Biso   1.000  C
  C114     1.0000 0.45854  0.49093  0.21393  Biso   1.000  C
  C115     1.0000 0.21313  0.40300  0.53242  Biso   1.000  C
  C116     1.0000 0.01919  0.80517  0.94222  Biso   1.000  C
  C117     1.0000 0.62090  0.99053  0.32809  Biso   1.000  C
  C118     1.0000 0.70686  0.40790  0.98545  Biso   1.000  C
  C119     1.0000 0.51489  0.80420  0.59305  Biso   1.000  C
  C120     1.0000 0.12167  0.98737  0.19803  Biso   1.000  C
  C121     1.0000 0.84630  0.00407  0.10641  Biso   1.000  C
  C122     1.0000 0.10404  0.80561  0.02119  Biso   1.000  C
  C123     1.0000 0.02009  0.06736  0.83083  Biso   1.000  C
  C124     1.0000 0.34860  0.00179  0.42218  Biso   1.000  C
  C125     1.0000 0.60115  0.80475  0.49032  Biso   1.000  C
  C126     1.0000 0.53180  0.06430  0.69429  Biso   1.000  C
  C127     1.0000 0.72175  0.49660  0.08015  Biso   1.000  C
  C128     1.0000 0.44382  0.30508  0.01174  Biso   1.000  C
  C129     1.0000 0.51405  0.56697  0.83137  Biso   1.000  C
  C130     1.0000 0.21289  0.48751  0.44882  Biso   1.000  C
  C131     1.0000 0.94620  0.30455  0.52202  Biso   1.000  C
  C132     1.0000 0.01439  0.56381  0.70788  Biso   1.000  C
  C133     1.0000 0.20266  0.98206  0.92140  Biso   1.000  C
  C134     1.0000 0.94189  0.17012  0.01842  Biso   1.000  C
  C135     1.0000 0.02634  0.90423  0.20749  Biso   1.000  C
  C136     1.0000 0.70118  0.97228  0.60091  Biso   1.000  C
  C137     1.0000 0.44148  0.16789  0.51534  Biso   1.000  C
  C138     1.0000 0.52077  0.90989  0.33130  Biso   1.000  C
  C139     1.0000 0.33837  0.48257  0.95130  Biso   1.000  C
  C140     1.0000 0.60780  0.66594  0.01612  Biso   1.000  C
  C141     1.0000 0.54275  0.41352  0.19927  Biso   1.000  C
  C142     1.0000 0.83644  0.48797  0.57899  Biso   1.000  C
  C143     1.0000 0.10101  0.66264  0.53110  Biso   1.000  C
  C144     1.0000 0.03302  0.40468  0.32639  Biso   1.000  C
  C145     1.0000 0.35586  0.49031  0.12264  Biso   1.000  C
  C146     1.0000 0.11660  0.30990  0.50514  Biso   1.000  C
  C147     1.0000 0.53254  0.07933  0.32625  Biso   1.000  C
  C148     1.0000 0.85916  0.46680  0.40688  Biso   1.000  C
  C149     1.0000 0.61746  0.31274  0.01828  Biso   1.000  C
  C150     1.0000 0.03208  0.07656  0.19434  Biso   1.000  C
  C151     1.0000 0.21129  0.99191  0.09503  Biso   1.000  C
  C152     1.0000 0.43028  0.80575  0.51273  Biso   1.000  C
  C153     1.0000 0.05124  0.57364  0.34156  Biso   1.000  C
  C154     1.0000 0.70772  0.00012  0.43015  Biso   1.000  C
  C155     1.0000 0.93091  0.81508  0.03643  Biso   1.000  C
  C156     1.0000 0.54076  0.58256  0.19337  Biso   1.000  C
  C157     1.0000 0.69909  0.49374  0.91072  Biso   1.000  C
  C158     1.0000 0.92551  0.66366  0.51539  Biso   1.000  C
  C159     1.0000 0.50267  0.89509  0.69315  Biso   1.000  C
  C160     1.0000 0.20034  0.48529  0.62126  Biso   1.000  C
  C161     1.0000 0.43152  0.67049  0.00720  Biso   1.000  C
  C162     1.0000 0.01825  0.89301  0.84072  Biso   1.000  C
  C163     1.0000 0.83403  0.99420  0.93269  Biso   1.000  C
  C164     1.0000 0.61827  0.16762  0.51968  Biso   1.000  C
  C165     1.0000 0.00568  0.39354  0.69097  Biso   1.000  C
  C166     1.0000 0.34006  0.98037  0.59063  Biso   1.000  C
  C167     1.0000 0.11657  0.16272  0.01370  Biso   1.000  C
  C168     1.0000 0.50114  0.39466  0.83622  Biso   1.000  C
  C169     1.0000 0.03106  0.80947  0.11428  Biso   1.000  C
  C170     1.0000 0.10237  0.97363  0.83361  Biso   1.000  C
  C171     1.0000 0.83940  0.08190  0.01582  Biso   1.000  C
  C172     1.0000 0.49948  0.81026  0.41914  Biso   1.000  C
  C173     1.0000 0.60127  0.97321  0.69415  Biso   1.000  C
  C174     1.0000 0.34619  0.07009  0.51573  Biso   1.000  C
  C175     1.0000 0.52814  0.31366  0.10607  Biso   1.000  C
  C176     1.0000 0.42826  0.48674  0.84798  Biso   1.000  C
  C177     1.0000 0.70988  0.58035  0.00378  Biso   1.000  C
  C178     1.0000 0.02343  0.30811  0.41931  Biso   1.000  C
  C179     1.0000 0.92517  0.48537  0.68413  Biso   1.000  C
  C180     1.0000 0.20122  0.57358  0.53278  Biso   1.000  C
  C181     1.0000 0.01984  0.16390  0.92066  Biso   1.000  C
  C182     1.0000 0.94669  0.99218  0.19942  Biso   1.000  C
  C183     1.0000 0.20436  0.89561  0.01341  Biso   1.000  C
  C184     1.0000 0.52623  0.16425  0.60299  Biso   1.000  C
  C185     1.0000 0.44709  0.00219  0.33040  Biso   1.000  C
  C186     1.0000 0.70084  0.89505  0.50227  Biso   1.000  C
  C187     1.0000 0.51464  0.66576  0.92396  Biso   1.000  C
  C188     1.0000 0.63178  0.50037  0.18527  Biso   1.000  C
  C189     1.0000 0.35442  0.39904  0.04026  Biso   1.000  C
  C190     1.0000 0.99913  0.66100  0.61618  Biso   1.000  C
  C191     1.0000 0.12953  0.49007  0.34457  Biso   1.000  C
  C192     1.0000 0.85020  0.39692  0.51556  Biso   1.000  C
  C193     1.0000 0.86087  0.98744  0.91692  Biso   1.000  C
  C194     1.0000 0.91581  0.84198  0.03534  Biso   1.000  C
  C195     1.0000 0.01492  0.87857  0.86825  Biso   1.000  C
  C196     1.0000 0.36679  0.98410  0.60747  Biso   1.000  C
  C197     1.0000 0.41433  0.83180  0.51000  Biso   1.000  C
  C198     1.0000 0.50716  0.87968  0.66671  Biso   1.000  C
  C199     1.0000 0.67117  0.48995  0.89563  Biso   1.000  C
  C200     1.0000 0.63030  0.34022  0.00952  Biso   1.000  C
  C201     1.0000 0.51103  0.37960  0.86316  Biso   1.000  C
  C202     1.0000 0.17115  0.48255  0.63650  Biso   1.000  C
  C203     1.0000 0.13350  0.33638  0.50991  Biso   1.000  C
  C204     1.0000 0.01113  0.37823  0.66408  Biso   1.000  C
  C205     1.0000 0.18412  0.99085  0.11310  Biso   1.000  C
  C206     1.0000 0.13334  0.13595  0.01241  Biso   1.000  C
  C207     1.0000 0.03161  0.09197  0.16629  Biso   1.000  C
  C208     1.0000 0.68164  0.99259  0.41214  Biso   1.000  C
  C209     1.0000 0.63234  0.13862  0.51805  Biso   1.000  C
  C210     1.0000 0.53074  0.09225  0.35417  Biso   1.000  C
  C211     1.0000 0.38386  0.49060  0.13830  Biso   1.000  C
  C212     1.0000 0.41613  0.64300  0.01199  Biso   1.000  C
  C213     1.0000 0.53318  0.59583  0.16642  Biso   1.000  C
  C214     1.0000 0.88855  0.47291  0.39450  Biso   1.000  C
  C215     1.0000 0.91223  0.63681  0.50364  Biso   1.000  C
  C216     1.0000 0.04324  0.58731  0.37002  Biso   1.000  C
  C217     1.0000 0.12088  0.97724  0.85883  Biso   1.000  C
  C218     1.0000 0.86893  0.09727  0.01749  Biso   1.000  C
  C219     1.0000 0.03363  0.83688  0.13145  Biso   1.000  C
  C220     1.0000 0.61808  0.97293  0.66743  Biso   1.000  C
  C221     1.0000 0.37349  0.08667  0.51150  Biso   1.000  C
  C222     1.0000 0.50133  0.83771  0.40481  Biso   1.000  C
  C223     1.0000 0.41324  0.48934  0.87501  Biso   1.000  C
  C224     1.0000 0.68107  0.59416  0.00912  Biso   1.000  C
  C225     1.0000 0.53047  0.34234  0.12287  Biso   1.000  C
  C226     1.0000 0.91196  0.48709  0.65515  Biso   1.000  C
  C227     1.0000 0.17280  0.58723  0.53473  Biso   1.000  C
  C228     1.0000 0.02036  0.33549  0.40297  Biso   1.000  C
  C229     1.0000 0.92993  0.99260  0.17202  Biso   1.000  C
  C230     1.0000 0.17713  0.88255  0.01892  Biso   1.000  C
  C231     1.0000 0.01764  0.13658  0.90532  Biso   1.000  C
  C232     1.0000 0.43129  0.00243  0.35871  Biso   1.000  C
  C233     1.0000 0.67441  0.87953  0.49707  Biso   1.000  C
  C234     1.0000 0.52314  0.13484  0.61723  Biso   1.000  C
  C235     1.0000 0.64455  0.50055  0.15658  Biso   1.000  C
  C236     1.0000 0.37879  0.38424  0.03128  Biso   1.000  C
  C237     1.0000 0.51535  0.63810  0.90777  Biso   1.000  C
  C238     1.0000 0.14146  0.49351  0.37381  Biso   1.000  C
  C239     1.0000 0.87686  0.37916  0.51366  Biso   1.000  C
  C240     1.0000 0.00258  0.63305  0.63115  Biso   1.000  C
  C241     1.0000 0.61815  0.48577  0.84700  Biso   1.000  C
  C242     1.0000 0.86625  0.58528  0.48170  Biso   1.000  C
  C243     1.0000 0.51283  0.83053  0.61207  Biso   1.000  C
  C244     1.0000 0.11780  0.47531  0.68411  Biso   1.000  C
  C245     1.0000 0.36546  0.58851  0.02635  Biso   1.000  C
  C246     1.0000 0.01950  0.83117  0.92433  Biso   1.000  C
  C247     1.0000 0.91470  0.98542  0.86655  Biso   1.000  C
  C248     1.0000 0.68157  0.08266  0.52433  Biso   1.000  C
  C249     1.0000 0.02564  0.32953  0.61095  Biso   1.000  C
  C250     1.0000 0.41740  0.98499  0.66396  Biso   1.000  C
  C251     1.0000 0.18460  0.08543  0.01277  Biso   1.000  C
  C252     1.0000 0.52517  0.32939  0.91555  Biso   1.000  C
  C253     1.0000 0.44080  0.49243  0.18586  Biso   1.000  C
  C254     1.0000 0.18621  0.38673  0.52348  Biso   1.000  C
  C255     1.0000 0.53171  0.14439  0.40986  Biso   1.000  C
  C256     1.0000 0.94097  0.49216  0.34820  Biso   1.000  C
  C257     1.0000 0.68014  0.39176  0.99274  Biso   1.000  C
  C258     1.0000 0.02964  0.14030  0.11370  Biso   1.000  C
  C259     1.0000 0.13564  0.98727  0.16973  Biso   1.000  C
  C260     1.0000 0.36612  0.88229  0.50391  Biso   1.000  C
  C261     1.0000 0.02573  0.63641  0.42460  Biso   1.000  C
  C262     1.0000 0.63527  0.98832  0.35555  Biso   1.000  C
  C263     1.0000 0.86243  0.89595  0.03160  Biso   1.000  C
  C264     1.0000 0.51909  0.64235  0.11351  Biso   1.000  C
  C265     1.0000 0.01918  0.08411  0.85652  Biso   1.000  C
  C266     1.0000 0.87528  0.99888  0.11984  Biso   1.000  C
  C267     1.0000 0.11995  0.83304  0.01942  Biso   1.000  C
  C268     1.0000 0.52688  0.08137  0.66825  Biso   1.000  C
  C269     1.0000 0.37655  0.00365  0.40801  Biso   1.000  C
  C270     1.0000 0.61882  0.83100  0.48841  Biso   1.000  C
  C271     1.0000 0.51668  0.58499  0.85666  Biso   1.000  C
  C272     1.0000 0.69445  0.49612  0.09922  Biso   1.000  C
  C273     1.0000 0.42938  0.33232  0.01614  Biso   1.000  C
  C274     1.0000 0.01032  0.58186  0.68161  Biso   1.000  C
  C275     1.0000 0.18706  0.48865  0.43019  Biso   1.000  C
  C276     1.0000 0.92975  0.33134  0.52131  Biso   1.000  C
  C277     1.0000 0.03001  0.88672  0.18130  Biso   1.000  C
  C278     1.0000 0.17455  0.98412  0.90642  Biso   1.000  C
  C279     1.0000 0.92292  0.14456  0.02002  Biso   1.000  C
  C280     1.0000 0.51711  0.89217  0.35799  Biso   1.000  C
  C281     1.0000 0.67344  0.97289  0.61497  Biso   1.000  C
  C282     1.0000 0.42451  0.14094  0.51356  Biso   1.000  C
  C283     1.0000 0.53587  0.39813  0.17199  Biso   1.000  C
  C284     1.0000 0.36373  0.48350  0.93320  Biso   1.000  C
  C285     1.0000 0.62513  0.64032  0.01338  Biso   1.000  C
  C286     1.0000 0.02655  0.38944  0.35304  Biso   1.000  C
  C287     1.0000 0.86226  0.49261  0.59793  Biso   1.000  C
  C288     1.0000 0.11673  0.63605  0.53564  Biso   1.000  C
  C289     1.0000 0.36258  0.85196  0.50263  Biso   1.000  C
  C290     1.0000 0.52307  0.32800  0.88423  Biso   1.000  C
  C291     1.0000 0.91091  0.49152  0.34434  Biso   1.000  C
  C292     1.0000 0.86282  0.86432  0.03108  Biso   1.000  C
  C293     1.0000 0.02184  0.32747  0.64259  Biso   1.000  C
  C294     1.0000 0.41038  0.49105  0.18778  Biso   1.000  C
  C295     1.0000 0.18570  0.35649  0.52187  Biso   1.000  C
  C296     1.0000 0.01930  0.82835  0.89254  Biso   1.000  C
  C297     1.0000 0.66417  0.99689  0.35812  Biso   1.000  C
  C298     1.0000 0.68246  0.36202  0.99661  Biso   1.000  C
  C299     1.0000 0.50908  0.82754  0.64269  Biso   1.000  C
  C300     1.0000 0.16745  0.98815  0.16755  Biso   1.000  C
  C301     1.0000 0.68300  0.11468  0.52084  Biso   1.000  C
  C302     1.0000 0.52152  0.64706  0.14407  Biso   1.000  C
  C303     1.0000 0.14867  0.47797  0.68717  Biso   1.000  C
  C304     1.0000 0.18615  0.11653  0.01379  Biso   1.000  C
  C305     1.0000 0.03214  0.63996  0.39370  Biso   1.000  C
  C306     1.0000 0.64978  0.48366  0.84381  Biso   1.000  C
  C307     1.0000 0.86282  0.61589  0.48737  Biso   1.000  C
  C308     1.0000 0.03250  0.14309  0.14434  Biso   1.000  C
  C309     1.0000 0.38507  0.98009  0.66224  Biso   1.000  C
  C310     1.0000 0.36426  0.61963  0.02064  Biso   1.000  C
  C311     1.0000 0.53138  0.14574  0.37837  Biso   1.000  C
  C312     1.0000 0.88291  0.98720  0.86579  Biso   1.000  C
  C313     1.0000 0.19140  0.48972  0.39903  Biso   1.000  C
  C314     1.0000 0.39281  0.14126  0.51648  Biso   1.000  C
  C315     1.0000 0.53824  0.36598  0.17342  Biso   1.000  C
  C316     1.0000 0.69840  0.49754  0.13052  Biso   1.000  C
  C317     1.0000 0.89147  0.14902  0.01894  Biso   1.000  C
  C318     1.0000 0.02488  0.35711  0.35072  Biso   1.000  C
  C319     1.0000 0.37483  0.00659  0.37555  Biso   1.000  C
  C320     1.0000 0.14852  0.63800  0.53024  Biso   1.000  C
  C321     1.0000 0.02777  0.85618  0.18463  Biso   1.000  C
  C322     1.0000 0.87665  0.99909  0.15186  Biso   1.000  C
  C323     1.0000 0.65725  0.64420  0.01447  Biso   1.000  C
  C324     1.0000 0.50985  0.86235  0.35420  Biso   1.000  C
  C325     1.0000 0.85826  0.48939  0.62947  Biso   1.000  C
  C326     1.0000 0.64995  0.82852  0.48990  Biso   1.000  C
  C327     1.0000 0.51318  0.61635  0.85548  Biso   1.000  C
  C328     1.0000 0.36147  0.48424  0.90239  Biso   1.000  C
  C329     1.0000 0.15280  0.83119  0.01710  Biso   1.000  C
  C330     1.0000 0.00578  0.61160  0.68425  Biso   1.000  C
  C331     1.0000 0.67173  0.97428  0.64727  Biso   1.000  C
  C332     1.0000 0.89872  0.32893  0.52630  Biso   1.000  C
  C333     1.0000 0.02003  0.11531  0.85446  Biso   1.000  C
  C334     1.0000 0.17380  0.97850  0.87577  Biso   1.000  C
  C335     1.0000 0.39787  0.33208  0.01916  Biso   1.000  C
  C336     1.0000 0.52443  0.11380  0.66946  Biso   1.000  C
  C337     1.0000 0.67276  0.48513  0.86441  Biso   1.000  C
  C338     1.0000 0.88224  0.63817  0.49518  Biso   1.000  C
  C339     1.0000 0.50529  0.84709  0.66565  Biso   1.000  C
  C340     1.0000 0.17154  0.48040  0.66714  Biso   1.000  C
  C341     1.0000 0.38396  0.64219  0.01448  Biso   1.000  C
  C342     1.0000 0.01836  0.84736  0.86908  Biso   1.000  C
  C343     1.0000 0.86006  0.98911  0.88594  Biso   1.000  C
  C344     1.0000 0.66401  0.13872  0.51847  Biso   1.000  C
  C345     1.0000 0.01519  0.34676  0.66457  Biso   1.000  C
  C346     1.0000 0.36432  0.98085  0.63883  Biso   1.000  C
  C347     1.0000 0.16462  0.13777  0.01423  Biso   1.000  C
  C348     1.0000 0.51755  0.34972  0.86240  Biso   1.000  C
  C349     1.0000 0.38639  0.48807  0.16881  Biso   1.000  C
  C350     1.0000 0.16504  0.33544  0.51622  Biso   1.000  C
  C351     1.0000 0.53175  0.12481  0.35606  Biso   1.000  C
  C352     1.0000 0.88842  0.48362  0.36340  Biso   1.000  C
  C353     1.0000 0.66147  0.34046  0.00291  Biso   1.000  C
  C354     1.0000 0.03338  0.12264  0.16767  Biso   1.000  C
  C355     1.0000 0.18721  0.98866  0.14502  Biso   1.000  C
  C356     1.0000 0.38352  0.83103  0.50481  Biso   1.000  C
  C357     1.0000 0.03930  0.61927  0.37137  Biso   1.000  C
  C358     1.0000 0.68334  0.99800  0.38126  Biso   1.000  C
  C359     1.0000 0.88406  0.84255  0.03457  Biso   1.000  C
  C360     1.0000 0.52667  0.62688  0.16566  Biso   1.000  C
  C361     1.0000 0.02011  0.13649  0.87500  Biso   1.000  C
  C362     1.0000 0.89876  0.99676  0.17357  Biso   1.000  C
  C363     1.0000 0.17697  0.85154  0.01717  Biso   1.000  C
  C364     1.0000 0.52241  0.13580  0.64843  Biso   1.000  C
  C365     1.0000 0.39861  0.00534  0.35615  Biso   1.000  C
  C366     1.0000 0.67360  0.84852  0.49473  Biso   1.000  C
  C367     1.0000 0.51293  0.63833  0.87639  Biso   1.000  C
  C368     1.0000 0.67682  0.50141  0.15346  Biso   1.000  C
  C369     1.0000 0.37656  0.35333  0.02528  Biso   1.000  C
  C370     1.0000 0.00128  0.63308  0.66341  Biso   1.000  C
  C371     1.0000 0.17238  0.49217  0.37573  Biso   1.000  C
  C372     1.0000 0.87632  0.35018  0.52352  Biso   1.000  C
  C373     1.0000 0.02949  0.83482  0.16364  Biso   1.000  C
  C374     1.0000 0.15184  0.97596  0.85537  Biso   1.000  C
  C375     1.0000 0.86869  0.12862  0.01621  Biso   1.000  C
  C376     1.0000 0.50384  0.83913  0.37338  Biso   1.000  C
  C377     1.0000 0.64956  0.97388  0.66861  Biso   1.000  C
  C378     1.0000 0.37131  0.11867  0.51554  Biso   1.000  C
  C379     1.0000 0.53565  0.34353  0.15390  Biso   1.000  C
  C380     1.0000 0.38109  0.48582  0.87824  Biso   1.000  C
  C381     1.0000 0.68013  0.62492  0.00992  Biso   1.000  C
  C382     1.0000 0.02368  0.33468  0.37162  Biso   1.000  C
  C383     1.0000 0.87890  0.48871  0.65278  Biso   1.000  C
  C384     1.0000 0.17133  0.61812  0.53007  Biso   1.000  C
  C385     1.0000 0.21305  0.13159  0.01641  Biso   1.000  C
  C386     1.0000 0.03646  0.17034  0.15881  Biso   1.000  C
  C387     1.0000 0.18651  0.98689  0.19342  Biso   1.000  C
  C388     1.0000 0.71065  0.12864  0.52565  Biso   1.000  C
  C389     1.0000 0.53260  0.17302  0.36437  Biso   1.000  C
  C390     1.0000 0.68128  0.00448  0.33290  Biso   1.000  C
  C391     1.0000 0.33613  0.63248  0.01639  Biso   1.000  C
  C392     1.0000 0.51651  0.67418  0.15739  Biso   1.000  C
  C393     1.0000 0.39781  0.48662  0.21568  Biso   1.000  C
  C394     1.0000 0.83531  0.63112  0.48570  Biso   1.000  C
  C395     1.0000 0.02974  0.66710  0.37818  Biso   1.000  C
  C396     1.0000 0.89627  0.50000  0.31723  Biso   1.000  C
  C397     1.0000 0.83535  0.84860  0.02814  Biso   1.000  C
  C398     1.0000 0.02365  0.80038  0.87873  Biso   1.000  C
  C399     1.0000 0.86685  0.98733  0.83862  Biso   1.000  C
  C400     1.0000 0.33492  0.83713  0.49850  Biso   1.000  C
  C401     1.0000 0.50618  0.79957  0.65587  Biso   1.000  C
  C402     1.0000 0.36742  0.97798  0.68694  Biso   1.000  C
  C403     1.0000 0.70905  0.34707  0.99160  Biso   1.000  C
  C404     1.0000 0.52785  0.30231  0.86773  Biso   1.000  C
  C405     1.0000 0.66401  0.47597  0.81692  Biso   1.000  C
  C406     1.0000 0.21241  0.34092  0.52831  Biso   1.000  C
  C407     1.0000 0.02474  0.30033  0.65808  Biso   1.000  C
  C408     1.0000 0.16270  0.47898  0.71556  Biso   1.000  C
  C409     1.0000 0.16477  0.97076  0.82809  Biso   1.000  C
  C410     1.0000 0.84379  0.14541  0.00989  Biso   1.000  C
  C411     1.0000 0.02527  0.80791  0.17697  Biso   1.000  C
  C412     1.0000 0.66390  0.97800  0.69550  Biso   1.000  C
  C413     1.0000 0.34426  0.13394  0.52006  Biso   1.000  C
  C414     1.0000 0.49907  0.81420  0.35538  Biso   1.000  C
  C415     1.0000 0.36403  0.48575  0.85221  Biso   1.000  C
  C416     1.0000 0.70576  0.64325  0.00969  Biso   1.000  C
  C417     1.0000 0.53851  0.31748  0.17036  Biso   1.000  C
  C418     1.0000 0.86025  0.48728  0.67846  Biso   1.000  C
  C419     1.0000 0.19674  0.63465  0.52043  Biso   1.000  C
  C420     1.0000 0.02793  0.30803  0.35649  Biso   1.000  C
  C421     1.0000 0.88272  0.00060  0.20023  Biso   1.000  C
  C422     1.0000 0.20241  0.83535  0.00939  Biso   1.000  C
  C423     1.0000 0.01994  0.16316  0.85887  Biso   1.000  C
  C424     1.0000 0.38453  0.00885  0.32893  Biso   1.000  C
  C425     1.0000 0.70087  0.83314  0.49243  Biso   1.000  C
  C426     1.0000 0.52529  0.16215  0.66596  Biso   1.000  C
  C427     1.0000 0.69444  0.50314  0.17930  Biso   1.000  C
  C428     1.0000 0.34963  0.33810  0.02769  Biso   1.000  C
  C429     1.0000 0.51030  0.66453  0.86018  Biso   1.000  C
  C430     1.0000 0.19097  0.48827  0.35116  Biso   1.000  C
  C431     1.0000 0.85004  0.33559  0.53134  Biso   1.000  C
  C432     1.0000 0.99863  0.65955  0.68006  Biso   1.000  C
  C433     1.0000 0.02068  0.13016  0.82657  Biso   1.000  C
  C434     1.0000 0.85001  0.00439  0.16847  Biso   1.000  C
  C435     1.0000 0.16682  0.80344  0.01227  Biso   1.000  C
  C436     1.0000 0.52573  0.12793  0.69654  Biso   1.000  C
  C437     1.0000 0.34867  0.00772  0.35828  Biso   1.000  C
  C438     1.0000 0.66502  0.80140  0.48602  Biso   1.000  C
  C439     1.0000 0.51010  0.63095  0.82895  Biso   1.000  C
  C440     1.0000 0.72678  0.50069  0.14429  Biso   1.000  C
  C441     1.0000 0.38174  0.30585  0.01853  Biso   1.000  C
  C442     1.0000 0.00551  0.62631  0.71103  Biso   1.000  C
  C443     1.0000 0.21933  0.48737  0.38575  Biso   1.000  C
  C444     1.0000 0.88308  0.30272  0.53131  Biso   1.000  C
  C445     1.0000 0.02559  0.84017  0.21139  Biso   1.000  C
  C446     1.0000 0.20068  0.97463  0.85970  Biso   1.000  C
  C447     1.0000 0.87791  0.17684  0.01721  Biso   1.000  C
  C448     1.0000 0.50636  0.84803  0.32608  Biso   1.000  C
  C449     1.0000 0.69812  0.97697  0.66363  Biso   1.000  C
  C450     1.0000 0.37663  0.16634  0.52089  Biso   1.000  C
  C451     1.0000 0.54371  0.35209  0.20116  Biso   1.000  C
  C452     1.0000 0.33385  0.48462  0.88841  Biso   1.000  C
  C453     1.0000 0.67127  0.67223  0.01658  Biso   1.000  C
  C454     1.0000 0.03028  0.34181  0.32412  Biso   1.000  C
  C455     1.0000 0.83037  0.48826  0.64299  Biso   1.000  C
  C456     1.0000 0.16195  0.66513  0.52209  Biso   1.000  C
  C457     1.0000 0.04263  0.63699  0.34681  Biso   1.000  C
  C458     1.0000 0.33597  0.97682  0.65305  Biso   1.000  C
  C459     1.0000 0.67893  0.31476  0.00491  Biso   1.000  C
  C460     1.0000 0.52610  0.64368  0.19188  Biso   1.000  C
  C461     1.0000 0.83356  0.99325  0.86980  Biso   1.000  C
  C462     1.0000 0.17926  0.30824  0.51897  Biso   1.000  C
  C463     1.0000 0.53350  0.14213  0.33037  Biso   1.000  C
  C464     1.0000 0.19725  0.48208  0.68482  Biso   1.000  C
  C465     1.0000 0.86710  0.81496  0.03578  Biso   1.000  C
  C466     1.0000 0.03822  0.13883  0.19368  Biso   1.000  C
  C467     1.0000 0.69839  0.48224  0.84722  Biso   1.000  C
  C468     1.0000 0.36786  0.80359  0.50188  Biso   1.000  C
  C469     1.0000 0.01382  0.33062  0.69031  Biso   1.000  C
  C470     1.0000 0.71144  0.00507  0.36863  Biso   1.000  C
  C471     1.0000 0.36661  0.66698  0.00879  Biso   1.000  C
  C472     1.0000 0.51802  0.33375  0.83445  Biso   1.000  C
  C473     1.0000 0.21585  0.98795  0.15747  Biso   1.000  C
  C474     1.0000 0.86528  0.66416  0.49653  Biso   1.000  C
  C475     1.0000 0.49988  0.83051  0.69143  Biso   1.000  C
  C476     1.0000 0.86243  0.48631  0.34635  Biso   1.000  C
  C477     1.0000 0.17952  0.16375  0.01832  Biso   1.000  C
  C478     1.0000 0.02119  0.83066  0.84332  Biso   1.000  C
  C479     1.0000 0.36007  0.48587  0.18643  Biso   1.000  C
  C480     1.0000 0.68183  0.16380  0.51821  Biso   1.000  C
  C481     1.0000 0.38294  0.77672  0.50533  Biso   1.000  C
  C482     1.0000 0.51017  0.34804  0.80756  Biso   1.000  C
  C483     1.0000 0.83388  0.47950  0.36009  Biso   1.000  C
  C484     1.0000 0.88266  0.78722  0.03532  Biso   1.000  C
  C485     1.0000 0.00344  0.34423  0.71826  Biso   1.000  C
  C486     1.0000 0.33133  0.48577  0.17145  Biso   1.000  C
  C487     1.0000 0.16168  0.28179  0.51836  Biso   1.000  C
  C488     1.0000 0.02283  0.84542  0.81519  Biso   1.000  C
  C489     1.0000 0.73643  0.01322  0.38603  Biso   1.000  C
  C490     1.0000 0.66538  0.28853  0.01697  Biso   1.000  C
  C491     1.0000 0.49409  0.84672  0.71986  Biso   1.000  C
  C492     1.0000 0.24125  0.98967  0.14000  Biso   1.000  C
  C493     1.0000 0.66855  0.19290  0.51977  Biso   1.000  C
  C494     1.0000 0.53367  0.63173  0.21928  Biso   1.000  C
  C495     1.0000 0.22527  0.48760  0.67016  Biso   1.000  C
  C496     1.0000 0.16276  0.19151  0.01965  Biso   1.000  C
  C497     1.0000 0.05233  0.62493  0.32020  Biso   1.000  C
  C498     1.0000 0.72786  0.48523  0.86149  Biso   1.000  C
  C499     1.0000 0.87857  0.69132  0.50670  Biso   1.000  C
  C500     1.0000 0.03588  0.12470  0.22119  Biso   1.000  C
  C501     1.0000 0.30950  0.97442  0.63618  Biso   1.000  C
  C502     1.0000 0.38222  0.69451  0.00379  Biso   1.000  C
  C503     1.0000 0.53360  0.12723  0.30147  Biso   1.000  C
  C504     1.0000 0.80568  0.99690  0.88543  Biso   1.000  C
  C505     1.0000 0.64577  0.46787  0.79163  Biso   1.000  C
  C506     1.0000 0.80976  0.61237  0.47903  Biso   1.000  C
  C507     1.0000 0.50750  0.77330  0.63748  Biso   1.000  C
  C508     1.0000 0.14433  0.47168  0.74052  Biso   1.000  C
  C509     1.0000 0.30988  0.61542  0.01841  Biso   1.000  C
  C510     1.0000 0.02562  0.77458  0.89672  Biso   1.000  C
  C511     1.0000 0.88313  0.99054  0.81015  Biso   1.000  C
  C512     1.0000 0.73669  0.11115  0.53004  Biso   1.000  C
  C513     1.0000 0.03345  0.27596  0.63992  Biso   1.000  C
  C514     1.0000 0.38045  0.98156  0.71591  Biso   1.000  C
  C515     1.0000 0.24036  0.11681  0.01660  Biso   1.000  C
  C516     1.0000 0.53701  0.27495  0.88318  Biso   1.000  C
  C517     1.0000 0.41395  0.48312  0.24103  Biso   1.000  C
  C518     1.0000 0.24066  0.35690  0.53251  Biso   1.000  C
  C519     1.0000 0.53495  0.19938  0.38148  Biso   1.000  C
  C520     1.0000 0.91506  0.50964  0.29239  Biso   1.000  C
  C521     1.0000 0.73578  0.36302  0.98391  Biso   1.000  C
  C522     1.0000 0.03918  0.19812  0.14219  Biso   1.000  C
  C523     1.0000 0.17197  0.98645  0.22200  Biso   1.000  C
  C524     1.0000 0.30984  0.85543  0.49276  Biso   1.000  C
  C525     1.0000 0.01967  0.69276  0.39336  Biso   1.000  C
  C526     1.0000 0.66893  0.00259  0.30439  Biso   1.000  C
  C527     1.0000 0.80677  0.86262  0.02534  Biso   1.000  C
  C528     1.0000 0.50750  0.69940  0.14201  Biso   1.000  C
  C529     1.0000 0.81492  0.13137  0.00914  Biso   1.000  C
  C530     1.0000 0.02748  0.78125  0.16169  Biso   1.000  C
  C531     1.0000 0.14772  0.96930  0.80164  Biso   1.000  C
  C532     1.0000 0.31773  0.11699  0.52449  Biso   1.000  C
  C533     1.0000 0.49287  0.78677  0.36933  Biso   1.000  C
  C534     1.0000 0.64773  0.97686  0.72288  Biso   1.000  C
  C535     1.0000 0.73376  0.62933  0.00703  Biso   1.000  C
  C536     1.0000 0.53414  0.28988  0.15470  Biso   1.000  C
  C537     1.0000 0.37899  0.48418  0.82396  Biso   1.000  C
  C538     1.0000 0.22468  0.62129  0.51623  Biso   1.000  C
  C539     1.0000 0.02887  0.28048  0.37250  Biso   1.000  C
  C540     1.0000 0.87336  0.48653  0.70727  Biso   1.000  C
  C541     1.0000 0.23053  0.84850  0.00677  Biso   1.000  C
  C542     1.0000 0.02089  0.19101  0.87380  Biso   1.000  C
  C543     1.0000 0.89869  0.99834  0.22737  Biso   1.000  C
  C544     1.0000 0.72873  0.84800  0.49352  Biso   1.000  C
  C545     1.0000 0.52461  0.18943  0.65150  Biso   1.000  C
  C546     1.0000 0.40097  0.00909  0.30120  Biso   1.000  C
  C547     1.0000 0.32361  0.35325  0.03653  Biso   1.000  C
  C548     1.0000 0.50838  0.69243  0.87523  Biso   1.000  C
  C549     1.0000 0.68087  0.50625  0.20755  Biso   1.000  C
  C550     1.0000 0.82217  0.35210  0.53189  Biso   1.000  C
  C551     1.0000 0.99398  0.68603  0.66454  Biso   1.000  C
  C552     1.0000 0.17933  0.48287  0.32318  Biso   1.000  C
  C553     1.0000 0.02147  0.11213  0.80019  Biso   1.000  C
  C554     1.0000 0.82144  0.00773  0.15488  Biso   1.000  C
  C555     1.0000 0.14912  0.77699  0.01217  Biso   1.000  C
  C556     1.0000 0.52927  0.11099  0.72367  Biso   1.000  C
  C557     1.0000 0.32077  0.00781  0.37421  Biso   1.000  C
  C558     1.0000 0.64835  0.77439  0.48298  Biso   1.000  C
  C559     1.0000 0.50983  0.61325  0.80262  Biso   1.000  C
  C560     1.0000 0.75337  0.50081  0.12483  Biso   1.000  C
  C561     1.0000 0.39672  0.27905  0.00996  Biso   1.000  C
  C562     1.0000 0.00897  0.61170  0.73786  Biso   1.000  C
  C563     1.0000 0.24455  0.48371  0.40351  Biso   1.000  C
  C564     1.0000 0.89942  0.27539  0.53229  Biso   1.000  C
  C565     1.0000 0.02657  0.85666  0.23834  Biso   1.000  C
  C566     1.0000 0.22963  0.97420  0.87563  Biso   1.000  C
  C567     1.0000 0.89654  0.20328  0.01816  Biso   1.000  C
  C568     1.0000 0.50966  0.86562  0.30060  Biso   1.000  C
  C569     1.0000 0.72737  0.97798  0.65004  Biso   1.000  C
  C570     1.0000 0.39274  0.19322  0.52018  Biso   1.000  C
  C571     1.0000 0.54823  0.36751  0.22670  Biso   1.000  C
  C572     1.0000 0.30609  0.48558  0.90727  Biso   1.000  C
  C573     1.0000 0.65308  0.69763  0.02081  Biso   1.000  C
  C574     1.0000 0.03250  0.35806  0.29748  Biso   1.000  C
  C575     1.0000 0.80540  0.48829  0.62454  Biso   1.000  C
  C576     1.0000 0.14480  0.69104  0.52190  Biso   1.000  C
  C577     1.0000 0.32949  0.48827  0.13951  Biso   1.000  C
  C578     1.0000 0.13063  0.28229  0.51090  Biso   1.000  C
  C579     1.0000 0.53446  0.09555  0.29963  Biso   1.000  C
  C580     1.0000 0.83274  0.46716  0.39001  Biso   1.000  C
  C581     1.0000 0.63458  0.28735  0.02250  Biso   1.000  C
  C582     1.0000 0.03266  0.09340  0.22190  Biso   1.000  C
  C583     1.0000 0.24004  0.99274  0.10911  Biso   1.000  C
  C584     1.0000 0.41394  0.77885  0.51095  Biso   1.000  C
  C585     1.0000 0.05673  0.59262  0.31718  Biso   1.000  C
  C586     1.0000 0.73349  0.00786  0.41690  Biso   1.000  C
  C587     1.0000 0.91503  0.78799  0.03659  Biso   1.000  C
  C588     1.0000 0.54336  0.60098  0.21938  Biso   1.000  C
  C589     1.0000 0.72633  0.49070  0.89340  Biso   1.000  C
  C590     1.0000 0.90877  0.69037  0.51582  Biso   1.000  C
  C591     1.0000 0.49672  0.87908  0.72064  Biso   1.000  C
  C592     1.0000 0.22827  0.48660  0.63925  Biso   1.000  C
  C593     1.0000 0.41407  0.69629  0.00507  Biso   1.000  C
  C594     1.0000 0.02197  0.87608  0.81497  Biso   1.000  C
  C595     1.0000 0.80646  0.99751  0.91717  Biso   1.000  C
  C596     1.0000 0.63717  0.19411  0.52074  Biso   1.000  C
  C597     1.0000 0.99968  0.37641  0.71647  Biso   1.000  C
  C598     1.0000 0.31264  0.97406  0.60509  Biso   1.000  C
  C599     1.0000 0.13233  0.19024  0.01577  Biso   1.000  C
  C600     1.0000 0.50007  0.37764  0.80832  Biso   1.000  C
  C601     1.0000 0.23066  0.97946  0.90625  Biso   1.000  C
  C602     1.0000 0.92768  0.19877  0.01944  Biso   1.000  C
  C603     1.0000 0.02737  0.88905  0.23599  Biso   1.000  C
  C604     1.0000 0.72789  0.97358  0.61878  Biso   1.000  C
  C605     1.0000 0.42480  0.19473  0.51930  Biso   1.000  C
  C606     1.0000 0.51814  0.89579  0.30411  Biso   1.000  C
  C607     1.0000 0.30866  0.48350  0.93854  Biso   1.000  C
  C608     1.0000 0.62164  0.69448  0.01934  Biso   1.000  C
  C609     1.0000 0.54859  0.39912  0.22624  Biso   1.000  C
  C610     1.0000 0.80921  0.48473  0.59405  Biso   1.000  C
  C611     1.0000 0.11393  0.69028  0.52626  Biso   1.000  C
  C612     1.0000 0.03772  0.38882  0.29876  Biso   1.000  C
  C613     1.0000 0.82012  0.00758  0.12386  Biso   1.000  C
  C614     1.0000 0.11791  0.77852  0.01896  Biso   1.000  C
  C615     1.0000 0.02053  0.08093  0.80168  Biso   1.000  C
  C616     1.0000 0.32077  0.00583  0.40647  Biso   1.000  C
  C617     1.0000 0.61520  0.77628  0.48640  Biso   1.000  C
  C618     1.0000 0.53041  0.07943  0.72276  Biso   1.000  C
  C619     1.0000 0.75061  0.50145  0.09359  Biso   1.000  C
  C620     1.0000 0.42730  0.27828  0.00642  Biso   1.000  C
  C621     1.0000 0.51212  0.58198  0.80344  Biso   1.000  C
  C622     1.0000 0.24241  0.48448  0.43449  Biso   1.000  C
  C623     1.0000 0.93133  0.27740  0.52823  Biso   1.000  C
  C624     1.0000 0.01367  0.57913  0.73606  Biso   1.000  C
  C625     1.0000 0.02138  0.19015  0.90521  Biso   1.000  C
  C626     1.0000 0.93003  0.99460  0.22783  Biso   1.000  C
  C627     1.0000 0.23218  0.87976  0.01093  Biso   1.000  C
  C628     1.0000 0.52504  0.19007  0.61980  Biso   1.000  C
  C629     1.0000 0.43122  0.00636  0.30291  Biso   1.000  C
  C630     1.0000 0.72901  0.87891  0.49966  Biso   1.000  C
  C631     1.0000 0.50981  0.69156  0.90676  Biso   1.000  C
  C632     1.0000 0.64925  0.50349  0.21094  Biso   1.000  C
  C633     1.0000 0.32559  0.38319  0.04415  Biso   1.000  C
  C634     1.0000 0.99346  0.68649  0.63277  Biso   1.000  C
  C635     1.0000 0.14784  0.48595  0.31910  Biso   1.000  C
  C636     1.0000 0.82306  0.38235  0.52529  Biso   1.000  C
  C637     1.0000 0.03086  0.78180  0.12871  Biso   1.000  C
  C638     1.0000 0.11598  0.97083  0.80526  Biso   1.000  C
  C639     1.0000 0.81266  0.09903  0.01255  Biso   1.000  C
  C640     1.0000 0.49513  0.78507  0.40092  Biso   1.000  C
  C641     1.0000 0.61617  0.97618  0.72132  Biso   1.000  C
  C642     1.0000 0.31902  0.08507  0.52268  Biso   1.000  C
  C643     1.0000 0.53051  0.28823  0.12361  Biso   1.000  C
  C644     1.0000 0.41102  0.48385  0.82175  Biso   1.000  C
  C645     1.0000 0.73762  0.59829  0.00404  Biso   1.000  C
  C646     1.0000 0.02723  0.28058  0.40343  Biso   1.000  C
  C647     1.0000 0.90563  0.48520  0.71016  Biso   1.000  C
  C648     1.0000 0.22803  0.59105  0.52395  Biso   1.000  C
  C649     1.0000 0.01633  0.69065  0.42619  Biso   1.000  C
  C650     1.0000 0.41151  0.98525  0.71873  Biso   1.000  C
  C651     1.0000 0.73464  0.39326  0.97941  Biso   1.000  C
  C652     1.0000 0.50396  0.69555  0.11012  Biso   1.000  C
  C653     1.0000 0.91456  0.98517  0.81187  Biso   1.000  C
  C654     1.0000 0.24017  0.38755  0.53594  Biso   1.000  C
  C655     1.0000 0.53566  0.19892  0.41300  Biso   1.000  C
  C656     1.0000 0.11231  0.46872  0.73745  Biso   1.000  C
  C657     1.0000 0.80770  0.89425  0.02781  Biso   1.000  C
  C658     1.0000 0.03712  0.19562  0.11140  Biso   1.000  C
  C659     1.0000 0.61376  0.46708  0.79598  Biso   1.000  C
  C660     1.0000 0.31158  0.88596  0.49717  Biso   1.000  C
  C661     1.0000 0.03829  0.27732  0.60860  Biso   1.000  C
  C662     1.0000 0.63797  0.99664  0.30206  Biso   1.000  C
  C663     1.0000 0.31172  0.58525  0.02863  Biso   1.000  C
  C664     1.0000 0.53977  0.27628  0.91496  Biso   1.000  C
  C665     1.0000 0.14040  0.98618  0.22328  Biso   1.000  C
  C666     1.0000 0.81132  0.58178  0.47478  Biso   1.000  C
  C667     1.0000 0.51215  0.77610  0.60545  Biso   1.000  C
  C668     1.0000 0.94731  0.50993  0.29645  Biso   1.000  C
  C669     1.0000 0.24004  0.08543  0.01581  Biso   1.000  C
  C670     1.0000 0.02352  0.77707  0.92786  Biso   1.000  C
  C671     1.0000 0.44562  0.48526  0.24139  Biso   1.000  C
  C672     1.0000 0.73515  0.08059  0.53348  Biso   1.000  C
  C673     1.0000 0.21155  0.96666  0.81187  Biso   1.000  C
  C674     1.0000 0.83230  0.19248  0.00661  Biso   1.000  C
  C675     1.0000 0.02660  0.79383  0.22293  Biso   1.000  C
  C676     1.0000 0.71118  0.98169  0.71199  Biso   1.000  C
  C677     1.0000 0.32942  0.17947  0.52417  Biso   1.000  C
  C678     1.0000 0.50011  0.80225  0.30856  Biso   1.000  C
  C679     1.0000 0.31749  0.48635  0.84126  Biso   1.000  C
  C680     1.0000 0.71734  0.69116  0.01595  Biso   1.000  C
  C681     1.0000 0.54338  0.30556  0.21730  Biso   1.000  C
  C682     1.0000 0.81192  0.48743  0.68860  Biso   1.000  C
  C683     1.0000 0.20912  0.68137  0.51262  Biso   1.000  C
  C684     1.0000 0.03318  0.29460  0.31103  Biso   1.000  C
  C685     1.0000 0.83768  0.00651  0.21688  Biso   1.000  C
  C686     1.0000 0.21273  0.78766  0.00404  Biso   1.000  C
  C687     1.0000 0.02052  0.17648  0.81251  Biso   1.000  C
  C688     1.0000 0.33867  0.00970  0.31080  Biso   1.000  C
  C689     1.0000 0.71029  0.78622  0.48624  Biso   1.000  C
  C690     1.0000 0.52788  0.17464  0.71317  Biso   1.000  C
  C691     1.0000 0.74121  0.50054  0.19018  Biso   1.000  C
  C692     1.0000 0.33335  0.29254  0.02088  Biso   1.000  C
  C693     1.0000 0.50813  0.67615  0.81234  Biso   1.000  C
  C694     1.0000 0.23898  0.48560  0.34016  Biso   1.000  C
  C695     1.0000 0.83547  0.28912  0.53511  Biso   1.000  C
  C696     1.0000 0.00375  0.67225  0.72603  Biso   1.000  C
  C697     1.0000 0.72896  0.01429  0.32317  Biso   1.000  C
  C698     1.0000 0.31968  0.67668  0.00295  Biso   1.000  C
  C699     1.0000 0.02161  0.28418  0.70452  Biso   1.000  C
  C700     1.0000 0.23314  0.98906  0.20463  Biso   1.000  C
  C701     1.0000 0.81775  0.67663  0.48955  Biso   1.000  C
  C702     1.0000 0.52219  0.28604  0.82204  Biso   1.000  C
  C703     1.0000 0.84912  0.49964  0.30171  Biso   1.000  C
  C704     1.0000 0.22593  0.17902  0.01713  Biso   1.000  C
  C705     1.0000 0.50334  0.78387  0.70228  Biso   1.000  C
  C706     1.0000 0.35343  0.48270  0.23603  Biso   1.000  C
  C707     1.0000 0.72861  0.17629  0.52550  Biso   1.000  C
  C708     1.0000 0.01961  0.78217  0.83326  Biso   1.000  C
  C709     1.0000 0.31992  0.97081  0.70017  Biso   1.000  C
  C710     1.0000 0.72557  0.30155  0.99823  Biso   1.000  C
  C711     1.0000 0.03137  0.68398  0.33270  Biso   1.000  C
  C712     1.0000 0.81981  0.99044  0.82204  Biso   1.000  C
  C713     1.0000 0.22626  0.29399  0.52727  Biso   1.000  C
  C714     1.0000 0.51458  0.68978  0.20336  Biso   1.000  C
  C715     1.0000 0.20978  0.47928  0.73128  Biso   1.000  C
  C716     1.0000 0.81984  0.80352  0.02994  Biso   1.000  C
  C717     1.0000 0.53369  0.18985  0.31906  Biso   1.000  C
  C718     1.0000 0.70745  0.47527  0.79807  Biso   1.000  C
  C719     1.0000 0.31986  0.79058  0.49683  Biso   1.000  C
  C720     1.0000 0.03910  0.18583  0.20565  Biso   1.000  C
  C721     1.0000 0.52340  0.80344  0.28576  Biso   1.000  C
  C722     1.0000 0.31922  0.50460  0.81552  Biso   1.000  C
  C723     1.0000 0.80936  0.29229  0.55284  Biso   1.000  C
  C724     1.0000 0.01170  0.76562  0.21876  Biso   1.000  C
  C725     1.0000 0.78558  0.50534  0.68561  Biso   1.000  C
  C726     1.0000 0.30384  0.29703  0.00930  Biso   1.000  C
  C727     1.0000 0.01645  0.26810  0.31325  Biso   1.000  C
  C728     1.0000 0.23954  0.98208  0.81327  Biso   1.000  C
  C729     1.0000 0.73702  0.78558  0.50376  Biso   1.000  C
  C730     1.0000 0.52974  0.30807  0.24561  Biso   1.000  C
  C731     1.0000 0.73835  0.96604  0.70940  Biso   1.000  C
  C732     1.0000 0.23517  0.78759  0.98074  Biso   1.000  C
  C733     1.0000 0.50867  0.17135  0.73837  Biso   1.000  C
  C734     1.0000 0.73749  0.48599  0.21777  Biso   1.000  C
  C735     1.0000 0.20199  0.70622  0.49423  Biso   1.000  C
  C736     1.0000 0.00215  0.20151  0.81519  Biso   1.000  C
  C737     1.0000 0.26223  0.46447  0.34621  Biso   1.000  C
  C738     1.0000 0.74556  0.68817  0.03033  Biso   1.000  C
  C739     1.0000 0.02583  0.67090  0.74767  Biso   1.000  C
  C740     1.0000 0.80891  0.99190  0.21581  Biso   1.000  C
  C741     1.0000 0.29977  0.17535  0.51311  Biso   1.000  C
  C742     1.0000 0.52273  0.67276  0.78441  Biso   1.000  C
  C743     1.0000 0.31420  0.98971  0.31484  Biso   1.000  C
  C744     1.0000 0.83297  0.21860  0.02479  Biso   1.000  C
  C745     1.0000 0.04447  0.71191  0.33794  Biso   1.000  C
  C746     1.0000 0.29160  0.98476  0.69654  Biso   1.000  C
  C747     1.0000 0.75465  0.30874  0.00782  Biso   1.000  C
  C748     1.0000 0.52892  0.71827  0.20072  Biso   1.000  C
  C749     1.0000 0.82417  0.97166  0.79631  Biso   1.000  C
  C750     1.0000 0.25077  0.29469  0.54660  Biso   1.000  C
  C751     1.0000 0.55473  0.18765  0.29536  Biso   1.000  C
  C752     1.0000 0.23779  0.46290  0.72643  Biso   1.000  C
  C753     1.0000 0.80180  0.80308  0.00451  Biso   1.000  C
  C754     1.0000 0.05591  0.18347  0.23171  Biso   1.000  C
  C755     1.0000 0.70369  0.45522  0.77410  Biso   1.000  C
  C756     1.0000 0.28872  0.79692  0.51015  Biso   1.000  C
  C757     1.0000 0.01139  0.25494  0.69842  Biso   1.000  C
  C758     1.0000 0.72527  0.03294  0.29747  Biso   1.000  C
  C759     1.0000 0.29307  0.67626  0.01968  Biso   1.000  C
  C760     1.0000 0.53551  0.29174  0.79379  Biso   1.000  C
  C761     1.0000 0.25449  0.01271  0.20034  Biso   1.000  C
  C762     1.0000 0.82403  0.70551  0.47904  Biso   1.000  C
  C763     1.0000 0.48118  0.78235  0.72579  Biso   1.000  C
  C764     1.0000 0.81934  0.51061  0.30750  Biso   1.000  C
  C765     1.0000 0.25180  0.17782  0.03557  Biso   1.000  C
  C766     1.0000 0.99810  0.78478  0.80936  Biso   1.000  C
  C767     1.0000 0.35665  0.50118  0.26162  Biso   1.000  C
  C768     1.0000 0.72940  0.20276  0.50744  Biso   1.000  C
  C769     1.0000 0.49122  0.70204  0.81573  Biso   1.000  C
  C770     1.0000 0.81196  0.46504  0.71075  Biso   1.000  C
  C771     1.0000 0.70854  0.76153  0.46504  Biso   1.000  C
  C772     1.0000 0.98416  0.69605  0.72685  Biso   1.000  C
  C773     1.0000 0.29186  0.46942  0.84610  Biso   1.000  C
  C774     1.0000 0.21430  0.76494  0.02563  Biso   1.000  C
  C775     1.0000 0.03617  0.17211  0.78462  Biso   1.000  C
  C776     1.0000 0.70818  0.00048  0.73668  Biso   1.000  C
  C777     1.0000 0.84024  0.25961  0.52086  Biso   1.000  C
  C778     1.0000 0.54897  0.20008  0.71392  Biso   1.000  C
  C779     1.0000 0.20632  0.94969  0.78521  Biso   1.000  C
  C780     1.0000 0.33968  0.26288  0.03037  Biso   1.000  C
  C781     1.0000 0.56164  0.27908  0.21232  Biso   1.000  C
  C782     1.0000 0.24084  0.50333  0.31398  Biso   1.000  C
  C783     1.0000 0.33605  0.20545  0.54061  Biso   1.000  C
  C784     1.0000 0.05152  0.29887  0.28646  Biso   1.000  C
  C785     1.0000 0.76968  0.51446  0.18532  Biso   1.000  C
  C786     1.0000 0.80782  0.19063  0.98554  Biso   1.000  C
  C787     1.0000 0.04445  0.79775  0.24924  Biso   1.000  C
  C788     1.0000 0.33953  0.02894  0.28473  Biso   1.000  C
  C789     1.0000 0.23787  0.68127  0.52588  Biso   1.000  C
  C790     1.0000 0.47705  0.78001  0.30757  Biso   1.000  C
  C791     1.0000 0.84512  0.02589  0.24095  Biso   1.000  C
  C792     1.0000 0.70790  0.71925  0.00329  Biso   1.000  C
  C793     1.0000 0.51492  0.21389  0.31962  Biso   1.000  C
  C794     1.0000 0.32904  0.46325  0.23680  Biso   1.000  C
  C795     1.0000 0.22407  0.27062  0.50577  Biso   1.000  C
  C796     1.0000 0.02176  0.21110  0.20401  Biso   1.000  C
  C797     1.0000 0.85522  0.49161  0.27177  Biso   1.000  C
  C798     1.0000 0.71878  0.27179  0.98776  Biso   1.000  C
  C799     1.0000 0.01775  0.67937  0.30406  Biso   1.000  C
  C800     1.0000 0.23736  0.96722  0.22628  Biso   1.000  C
  C801     1.0000 0.32168  0.76243  0.48249  Biso   1.000  C
  C802     1.0000 0.49332  0.68566  0.22602  Biso   1.000  C
  C803     1.0000 0.75772  0.00249  0.32971  Biso   1.000  C
  C804     1.0000 0.81247  0.78524  0.05445  Biso   1.000  C
  C805     1.0000 0.52547  0.76061  0.70102  Biso   1.000  C
  C806     1.0000 0.73072  0.49541  0.79578  Biso   1.000  C
  C807     1.0000 0.78744  0.67042  0.49784  Biso   1.000  C
  C808     1.0000 0.03514  0.75493  0.83560  Biso   1.000  C
  C809     1.0000 0.20617  0.49328  0.76064  Biso   1.000  C
  C810     1.0000 0.32252  0.69987  0.98210  Biso   1.000  C
  C811     1.0000 0.03272  0.28893  0.73410  Biso   1.000  C
  C812     1.0000 0.79282  0.00667  0.82390  Biso   1.000  C
  C813     1.0000 0.75295  0.17292  0.54540  Biso   1.000  C
  C814     1.0000 0.51525  0.25604  0.82949  Biso   1.000  C
  C815     1.0000 0.32362  0.95266  0.72606  Biso   1.000  C
  C816     1.0000 0.22213  0.20651  0.00029  Biso   1.000  C
  C817     1.0000 0.00255  0.22162  0.79291  Biso   1.000  C
  C818     1.0000 0.78749  0.99789  0.23714  Biso   1.000  C
  C819     1.0000 0.25593  0.76760  0.98064  Biso   1.000  C
  C820     1.0000 0.50657  0.19426  0.75872  Biso   1.000  C
  C821     1.0000 0.29447  0.98572  0.29188  Biso   1.000  C
  C822     1.0000 0.75668  0.76110  0.50283  Biso   1.000  C
  C823     1.0000 0.51984  0.69386  0.76282  Biso   1.000  C
  C824     1.0000 0.75922  0.48752  0.23891  Biso   1.000  C
  C825     1.0000 0.28361  0.27518  0.00940  Biso   1.000  C
  C826     1.0000 0.02932  0.69181  0.76817  Biso   1.000  C
  C827     1.0000 0.28650  0.46445  0.32755  Biso   1.000  C
  C828     1.0000 0.78922  0.26974  0.55282  Biso   1.000  C
  C829     1.0000 0.01408  0.74388  0.23899  Biso   1.000  C
  C830     1.0000 0.25991  0.98070  0.79088  Biso   1.000  C
  C831     1.0000 0.81253  0.23986  0.02143  Biso   1.000  C
  C832     1.0000 0.52327  0.78161  0.26408  Biso   1.000  C
  C833     1.0000 0.76131  0.96860  0.72915  Biso   1.000  C
  C834     1.0000 0.27863  0.19676  0.51743  Biso   1.000  C
  C835     1.0000 0.53073  0.28556  0.26421  Biso   1.000  C
  C836     1.0000 0.29968  0.50005  0.79351  Biso   1.000  C
  C837     1.0000 0.76283  0.71312  0.03353  Biso   1.000  C
  C838     1.0000 0.02220  0.24650  0.29229  Biso   1.000  C
  C839     1.0000 0.76295  0.50223  0.70482  Biso   1.000  C
  C840     1.0000 0.22185  0.72909  0.48871  Biso   1.000  C
  C841     1.0000 0.22721  0.94968  0.76307  Biso   1.000  C
  C842     1.0000 0.78813  0.21195  0.98236  Biso   1.000  C
  C843     1.0000 0.04336  0.77514  0.26960  Biso   1.000  C
  C844     1.0000 0.72952  0.00066  0.75912  Biso   1.000  C
  C845     1.0000 0.31483  0.22790  0.54064  Biso   1.000  C
  C846     1.0000 0.47982  0.75911  0.28539  Biso   1.000  C
  C847     1.0000 0.27284  0.46427  0.82299  Biso   1.000  C
  C848     1.0000 0.72592  0.74283  0.00778  Biso   1.000  C
  C849     1.0000 0.56151  0.25812  0.23354  Biso   1.000  C
  C850     1.0000 0.78898  0.46284  0.72958  Biso   1.000  C
  C851     1.0000 0.25807  0.70203  0.51635  Biso   1.000  C
  C852     1.0000 0.05872  0.27651  0.26838  Biso   1.000  C
  C853     1.0000 0.82365  0.02860  0.26299  Biso   1.000  C
  C854     1.0000 0.23326  0.74367  0.02218  Biso   1.000  C
  C855     1.0000 0.03422  0.19145  0.76345  Biso   1.000  C
  C856     1.0000 0.31908  0.02337  0.26281  Biso   1.000  C
  C857     1.0000 0.72892  0.73921  0.46473  Biso   1.000  C
  C858     1.0000 0.54619  0.22131  0.73546  Biso   1.000  C
  C859     1.0000 0.79014  0.51555  0.20683  Biso   1.000  C
  C860     1.0000 0.31867  0.24155  0.02829  Biso   1.000  C
  C861     1.0000 0.48987  0.72373  0.79462  Biso   1.000  C
  C862     1.0000 0.26550  0.50146  0.29503  Biso   1.000  C
  C863     1.0000 0.81751  0.23910  0.52248  Biso   1.000  C
  C864     1.0000 0.98601  0.71554  0.74977  Biso   1.000  C
  C865     1.0000 0.72201  0.45678  0.75012  Biso   1.000  C
  C866     1.0000 0.80233  0.72545  0.47506  Biso   1.000  C
  C867     1.0000 0.48253  0.76052  0.74570  Biso   1.000  C
  C868     1.0000 0.25796  0.46354  0.74840  Biso   1.000  C
  C869     1.0000 0.27362  0.69927  0.01919  Biso   1.000  C
  C870     1.0000 0.99310  0.76192  0.79047  Biso   1.000  C
  C871     1.0000 0.80218  0.97267  0.77519  Biso   1.000  C
  C872     1.0000 0.74839  0.22585  0.51368  Biso   1.000  C
  C873     1.0000 0.01175  0.23367  0.71923  Biso   1.000  C
  C874     1.0000 0.27007  0.98253  0.71762  Biso   1.000  C
  C875     1.0000 0.27301  0.19940  0.03600  Biso   1.000  C
  C876     1.0000 0.53582  0.26947  0.77170  Biso   1.000  C
  C877     1.0000 0.33579  0.50077  0.28416  Biso   1.000  C
  C878     1.0000 0.26888  0.27018  0.54852  Biso   1.000  C
  C879     1.0000 0.55916  0.21075  0.27575  Biso   1.000  C
  C880     1.0000 0.79973  0.51205  0.28527  Biso   1.000  C
  C881     1.0000 0.77513  0.28664  0.00992  Biso   1.000  C
  C882     1.0000 0.05763  0.20465  0.25227  Biso   1.000  C
  C883     1.0000 0.27750  0.01596  0.21992  Biso   1.000  C
  C884     1.0000 0.26568  0.77504  0.50857  Biso   1.000  C
  C885     1.0000 0.04351  0.73234  0.31530  Biso   1.000  C
  C886     1.0000 0.74849  0.03450  0.27780  Biso   1.000  C
  C887     1.0000 0.77836  0.78361  0.00166  Biso   1.000  C
  C888     1.0000 0.52394  0.73902  0.22160  Biso   1.000  C
  C889     1.0000 0.78027  0.00486  0.30853  Biso   1.000  C
  C890     1.0000 0.30212  0.72172  0.98041  Biso   1.000  C
  C891     1.0000 0.03218  0.26725  0.75504  Biso   1.000  C
  C892     1.0000 0.25989  0.97129  0.24585  Biso   1.000  C
  C893     1.0000 0.76677  0.69216  0.49535  Biso   1.000  C
  C894     1.0000 0.51707  0.23524  0.80762  Biso   1.000  C
  C895     1.0000 0.83399  0.49553  0.25007  Biso   1.000  C
  C896     1.0000 0.24420  0.22669  0.00095  Biso   1.000  C
  C897     1.0000 0.52533  0.74115  0.72403  Biso   1.000  C
  C898     1.0000 0.30924  0.46380  0.26006  Biso   1.000  C
  C899     1.0000 0.77321  0.19553  0.54957  Biso   1.000  C
  C900     1.0000 0.02919  0.73225  0.81531  Biso   1.000  C
  C901     1.0000 0.30150  0.95118  0.74584  Biso   1.000  C
  C902     1.0000 0.74149  0.25323  0.98665  Biso   1.000  C
  C903     1.0000 0.01883  0.70032  0.28254  Biso   1.000  C
  C904     1.0000 0.77101  0.00424  0.80288  Biso   1.000  C
  C905     1.0000 0.24347  0.24784  0.50805  Biso   1.000  C
  C906     1.0000 0.48919  0.70788  0.24628  Biso   1.000  C
  C907     1.0000 0.22793  0.49298  0.78092  Biso   1.000  C
  C908     1.0000 0.78808  0.76743  0.05117  Biso   1.000  C
  C909     1.0000 0.51988  0.23647  0.30068  Biso   1.000  C
  C910     1.0000 0.74709  0.49866  0.77116  Biso   1.000  C
  C911     1.0000 0.29911  0.74242  0.48356  Biso   1.000  C
  C912     1.0000 0.02445  0.23295  0.22481  Biso   1.000  C
  C913     1.0000 0.76459  0.48018  0.72573  Biso   1.000  C
  C914     1.0000 0.75118  0.73815  0.48465  Biso   1.000  C
  C915     1.0000 0.50391  0.71893  0.76816  Biso   1.000  C
  C916     1.0000 0.27666  0.48122  0.79874  Biso   1.000  C
  C917     1.0000 0.25527  0.74559  0.00117  Biso   1.000  C
  C918     1.0000 0.00730  0.71287  0.77092  Biso   1.000  C
  C919     1.0000 0.75556  0.98613  0.75390  Biso   1.000  C
  C920     1.0000 0.79278  0.24363  0.53963  Biso   1.000  C
  C921     1.0000 0.01759  0.21639  0.76789  Biso   1.000  C
  C922     1.0000 0.25425  0.96499  0.76567  Biso   1.000  C
  C923     1.0000 0.29109  0.24784  0.01788  Biso   1.000  C
  C924     1.0000 0.52593  0.21867  0.75821  Biso   1.000  C
  C925     1.0000 0.28755  0.48222  0.30268  Biso   1.000  C
  C926     1.0000 0.28769  0.22265  0.53035  Biso   1.000  C
  C927     1.0000 0.54433  0.26015  0.25898  Biso   1.000  C
  C928     1.0000 0.78487  0.50237  0.23378  Biso   1.000  C
  C929     1.0000 0.78940  0.23580  0.00101  Biso   1.000  C
  C930     1.0000 0.04311  0.25162  0.27018  Biso   1.000  C
  C931     1.0000 0.29771  0.00253  0.26701  Biso   1.000  C
  C932     1.0000 0.24983  0.72605  0.49909  Biso   1.000  C
  C933     1.0000 0.03082  0.74936  0.26436  Biso   1.000  C
  C934     1.0000 0.79496  0.01665  0.25960  Biso   1.000  C
  C935     1.0000 0.75348  0.73890  0.02204  Biso   1.000  C
  C936     1.0000 0.50344  0.75859  0.26530  Biso   1.000  C
  C937     1.0000 0.76792  0.25966  0.99868  Biso   1.000  C
  C938     1.0000 0.03188  0.72719  0.28770  Biso   1.000  C
  C939     1.0000 0.27528  0.96637  0.74274  Biso   1.000  C
  C940     1.0000 0.26657  0.24846  0.52807  Biso   1.000  C
  C941     1.0000 0.50354  0.73436  0.24343  Biso   1.000  C
  C942     1.0000 0.77563  0.98657  0.77882  Biso   1.000  C
  C943     1.0000 0.77242  0.76587  0.02490  Biso   1.000  C
  C944     1.0000 0.54267  0.23558  0.27919  Biso   1.000  C
  C945     1.0000 0.25289  0.47808  0.77549  Biso   1.000  C
  C946     1.0000 0.27147  0.74846  0.49612  Biso   1.000  C
  C947     1.0000 0.04286  0.23048  0.24809  Biso   1.000  C
  C948     1.0000 0.74303  0.47816  0.74856  Biso   1.000  C
  C949     1.0000 0.27705  0.72103  0.99903  Biso   1.000  C
  C950     1.0000 0.01925  0.24089  0.74734  Biso   1.000  C
  C951     1.0000 0.77481  0.02048  0.28433  Biso   1.000  C
  C952     1.0000 0.77467  0.71807  0.48512  Biso   1.000  C
  C953     1.0000 0.52639  0.24129  0.77916  Biso   1.000  C
  C954     1.0000 0.27775  0.99704  0.24362  Biso   1.000  C
  C955     1.0000 0.26925  0.22381  0.01794  Biso   1.000  C
  C956     1.0000 0.50417  0.74062  0.74533  Biso   1.000  C
  C957     1.0000 0.80628  0.50465  0.25708  Biso   1.000  C
  C958     1.0000 0.76911  0.22268  0.53580  Biso   1.000  C
  C959     1.0000 0.00974  0.73658  0.79216  Biso   1.000  C
  C960     1.0000 0.31204  0.48153  0.28283  Biso   1.000  C
  Cu1      1.0000 0.01581  0.48401  0.67202  Biso   1.000  Cu
  Cu2      1.0000 0.67506  0.98012  0.51281  Biso   1.000  Cu
  Cu3      1.0000 0.51780  0.63996  0.01212  Biso   1.000  Cu
  Cu4      1.0000 0.51572  0.47924  0.86144  Biso   1.000  Cu
  Cu5      1.0000 0.18135  0.98221  0.01084  Biso   1.000  Cu
  Cu6      1.0000 0.01255  0.63693  0.52835  Biso   1.000  Cu
  Cu7      1.0000 0.51580  0.98038  0.66544  Biso   1.000  Cu
  Cu8      1.0000 0.87418  0.48365  0.49406  Biso   1.000  Cu
  Cu9      1.0000 0.02766  0.13764  0.01063  Biso   1.000  Cu
  Cu10     1.0000 0.01514  0.98118  0.86420  Biso   1.000  Cu
  Cu11     1.0000 0.37657  0.48809  0.03415  Biso   1.000  Cu
  Cu12     1.0000 0.52931  0.13980  0.51339  Biso   1.000  Cu
  Cu13     1.0000 0.03995  0.48545  0.35921  Biso   1.000  Cu
  Cu14     1.0000 0.37150  0.98466  0.50803  Biso   1.000  Cu
  Cu15     1.0000 0.53105  0.33472  0.01734  Biso   1.000  Cu
  Cu16     1.0000 0.53975  0.49712  0.17250  Biso   1.000  Cu
  Cu17     1.0000 0.86519  0.99485  0.01660  Biso   1.000  Cu
  Cu18     1.0000 0.03028  0.33400  0.50773  Biso   1.000  Cu
  Cu19     1.0000 0.53462  0.99553  0.35525  Biso   1.000  Cu
  Cu20     1.0000 0.17756  0.48486  0.53369  Biso   1.000  Cu
  Cu21     1.0000 0.01822  0.83658  0.02669  Biso   1.000  Cu
  Cu22     1.0000 0.03395  0.98823  0.17435  Biso   1.000  Cu
  Cu23     1.0000 0.68369  0.49316  0.99902  Biso   1.000  Cu
  Cu24     1.0000 0.51508  0.83358  0.50678  Biso   1.000  Cu
  Cu25     1.0000 0.23616  0.98007  0.00721  Biso   1.000  Cu
  Cu26     1.0000 0.03069  0.19079  0.00847  Biso   1.000  Cu
  Cu27     1.0000 0.03595  0.99277  0.22688  Biso   1.000  Cu
  Cu28     1.0000 0.72955  0.97932  0.51501  Biso   1.000  Cu
  Cu29     1.0000 0.52887  0.19357  0.51746  Biso   1.000  Cu
  Cu30     1.0000 0.53347  0.99193  0.29965  Biso   1.000  Cu
  Cu31     1.0000 0.32293  0.48438  0.03734  Biso   1.000  Cu
  Cu32     1.0000 0.51882  0.69447  0.00918  Biso   1.000  Cu
  Cu33     1.0000 0.55103  0.49931  0.22692  Biso   1.000  Cu
  Cu34     1.0000 0.82069  0.47888  0.48778  Biso   1.000  Cu
  Cu35     1.0000 0.01232  0.68927  0.53170  Biso   1.000  Cu
  Cu36     1.0000 0.05027  0.49017  0.30550  Biso   1.000  Cu
  Cu37     1.0000 0.81255  0.99579  0.02211  Biso   1.000  Cu
  Cu38     1.0000 0.01658  0.78169  0.03225  Biso   1.000  Cu
  Cu39     1.0000 0.01476  0.97677  0.81044  Biso   1.000  Cu
  Cu40     1.0000 0.31665  0.98471  0.50288  Biso   1.000  Cu
  Cu41     1.0000 0.51764  0.77962  0.50617  Biso   1.000  Cu
  Cu42     1.0000 0.51614  0.98078  0.71957  Biso   1.000  Cu
  Cu43     1.0000 0.73900  0.49325  0.99136  Biso   1.000  Cu
  Cu44     1.0000 0.53133  0.27913  0.02036  Biso   1.000  Cu
  Cu45     1.0000 0.50943  0.47809  0.80632  Biso   1.000  Cu
  Cu46     1.0000 0.23353  0.48855  0.53821  Biso   1.000  Cu
  Cu47     1.0000 0.03259  0.28018  0.50594  Biso   1.000  Cu
  Cu48     1.0000 0.00768  0.47624  0.72397  Biso   1.000  Cu
  H1       1.0000 0.24544  0.78034  0.51830  Biso   1.000  H
  H2       1.0000 0.54549  0.27618  0.75110  Biso   1.000  H
  H3       1.0000 0.77831  0.52115  0.28845  Biso   1.000  H
  H4       1.0000 0.76293  0.78350  0.98326  Biso   1.000  H
  H5       1.0000 0.00398  0.21259  0.71045  Biso   1.000  H
  H6       1.0000 0.33632  0.51552  0.30134  Biso   1.000  H
  H7       1.0000 0.28759  0.27284  0.56401  Biso   1.000  H
  H8       1.0000 0.97917  0.76203  0.77219  Biso   1.000  H
  H9       1.0000 0.74717  0.04301  0.25593  Biso   1.000  H
  H10      1.0000 0.79584  0.29045  0.01943  Biso   1.000  H
  H11      1.0000 0.46307  0.75945  0.76019  Biso   1.000  H
  H12      1.0000 0.29361  0.03216  0.21539  Biso   1.000  H
  H13      1.0000 0.74814  0.24732  0.50426  Biso   1.000  H
  H14      1.0000 0.53473  0.75801  0.21771  Biso   1.000  H
  H15      1.0000 0.27797  0.45075  0.74705  Biso   1.000  H
  H16      1.0000 0.29062  0.19606  0.05040  Biso   1.000  H
  H17      1.0000 0.05012  0.75369  0.32039  Biso   1.000  H
  H18      1.0000 0.71679  0.44106  0.73262  Biso   1.000  H
  H19      1.0000 0.80622  0.74627  0.46556  Biso   1.000  H
  H20      1.0000 0.07476  0.20346  0.26775  Biso   1.000  H
  H21      1.0000 0.24828  0.99335  0.71464  Biso   1.000  H
  H22      1.0000 0.25752  0.69889  0.03520  Biso   1.000  H
  H23      1.0000 0.57270  0.21080  0.25720  Biso   1.000  H
  H24      1.0000 0.80790  0.95804  0.75752  Biso   1.000  H
  H25      1.0000 0.28212  0.99115  0.79431  Biso   1.000  H
  H26      1.0000 0.81470  0.25861  0.03585  Biso   1.000  H
  H27      1.0000 0.00351  0.72375  0.23242  Biso   1.000  H
  H28      1.0000 0.78160  0.95881  0.72504  Biso   1.000  H
  H29      1.0000 0.25603  0.19073  0.50847  Biso   1.000  H
  H30      1.0000 0.54005  0.78376  0.24696  Biso   1.000  H
  H31      1.0000 0.30374  0.51079  0.77211  Biso   1.000  H
  H32      1.0000 0.78332  0.71291  0.04384  Biso   1.000  H
  H33      1.0000 0.51718  0.28818  0.28260  Biso   1.000  H
  H34      1.0000 0.74340  0.51489  0.70253  Biso   1.000  H
  H35      1.0000 0.21781  0.74800  0.47631  Biso   1.000  H
  H36      1.0000 0.01047  0.22518  0.29402  Biso   1.000  H
  H37      1.0000 0.76553  0.98812  0.23514  Biso   1.000  H
  H38      1.0000 0.27050  0.76754  0.96260  Biso   1.000  H
  H39      1.0000 0.99041  0.24205  0.79768  Biso   1.000  H
  H40      1.0000 0.27731  0.97086  0.29273  Biso   1.000  H
  H41      1.0000 0.77552  0.75958  0.51737  Biso   1.000  H
  H42      1.0000 0.48980  0.19501  0.77513  Biso   1.000  H
  H43      1.0000 0.75712  0.47535  0.25826  Biso   1.000  H
  H44      1.0000 0.26126  0.28092  0.00442  Biso   1.000  H
  H45      1.0000 0.52670  0.68999  0.74020  Biso   1.000  H
  H46      1.0000 0.30619  0.45210  0.33367  Biso   1.000  H
  H47      1.0000 0.76609  0.27520  0.56314  Biso   1.000  H
  H48      1.0000 0.04701  0.68841  0.78389  Biso   1.000  H
  H49      1.0000 0.26547  0.51347  0.27390  Biso   1.000  H
  H50      1.0000 0.32027  0.24851  0.54911  Biso   1.000  H
  H51      1.0000 0.57538  0.23950  0.22638  Biso   1.000  H
  H52      1.0000 0.80917  0.53105  0.20518  Biso   1.000  H
  H53      1.0000 0.77128  0.21235  0.96725  Biso   1.000  H
  H54      1.0000 0.07462  0.28048  0.24964  Biso   1.000  H
  H55      1.0000 0.32129  0.03615  0.24364  Biso   1.000  H
  H56      1.0000 0.27797  0.70425  0.52843  Biso   1.000  H
  H57      1.0000 0.05318  0.77890  0.29039  Biso   1.000  H
  H58      1.0000 0.82701  0.04233  0.28240  Biso   1.000  H
  H59      1.0000 0.72141  0.76288  0.99865  Biso   1.000  H
  H60      1.0000 0.46143  0.74470  0.28518  Biso   1.000  H
  H61      1.0000 0.78955  0.44278  0.74382  Biso   1.000  H
  H62      1.0000 0.72549  0.72213  0.44865  Biso   1.000  H
  H63      1.0000 0.47448  0.74206  0.79596  Biso   1.000  H
  H64      1.0000 0.25515  0.44925  0.82441  Biso   1.000  H
  H65      1.0000 0.23116  0.72763  0.03994  Biso   1.000  H
  H66      1.0000 0.96929  0.73232  0.75217  Biso   1.000  H
  H67      1.0000 0.72606  0.01380  0.77896  Biso   1.000  H
  H68      1.0000 0.81904  0.21980  0.50931  Biso   1.000  H
  H69      1.0000 0.04851  0.18739  0.74425  Biso   1.000  H
  H70      1.0000 0.22430  0.93551  0.74359  Biso   1.000  H
  H71      1.0000 0.32454  0.22044  0.03674  Biso   1.000  H
  H72      1.0000 0.56168  0.23964  0.73463  Biso   1.000  H
  H73      1.0000 0.76276  0.51594  0.76904  Biso   1.000  H
  H74      1.0000 0.74358  0.68927  0.49779  Biso   1.000  H
  H75      1.0000 0.54253  0.72476  0.72149  Biso   1.000  H
  H76      1.0000 0.22698  0.50311  0.80115  Biso   1.000  H
  H77      1.0000 0.30599  0.73992  0.96532  Biso   1.000  H
  H78      1.0000 0.04159  0.71050  0.81737  Biso   1.000  H
  H79      1.0000 0.75065  0.01695  0.80958  Biso   1.000  H
  H80      1.0000 0.79263  0.19359  0.56356  Biso   1.000  H
  H81      1.0000 0.04304  0.27353  0.77603  Biso   1.000  H
  H82      1.0000 0.30368  0.93995  0.76579  Biso   1.000  H
  H83      1.0000 0.24257  0.24585  0.98672  Biso   1.000  H
  H84      1.0000 0.51546  0.21237  0.81318  Biso   1.000  H
  H85      1.0000 0.29063  0.44882  0.25976  Biso   1.000  H
  H86      1.0000 0.23799  0.22848  0.49589  Biso   1.000  H
  H87      1.0000 0.50711  0.25568  0.30555  Biso   1.000  H
  H88      1.0000 0.83827  0.48717  0.22912  Biso   1.000  H
  H89      1.0000 0.73807  0.23324  0.97658  Biso   1.000  H
  H90      1.0000 0.01208  0.25158  0.21813  Biso   1.000  H
  H91      1.0000 0.26163  0.95363  0.26187  Biso   1.000  H
  H92      1.0000 0.30300  0.72188  0.47402  Biso   1.000  H
  H93      1.0000 0.00831  0.69311  0.26220  Biso   1.000  H
  H94      1.0000 0.80227  0.99821  0.31074  Biso   1.000  H
  H95      1.0000 0.77957  0.75421  0.06989  Biso   1.000  H
  H96      1.0000 0.47121  0.70385  0.26538  Biso   1.000  H
  H97      1.0000 0.88179  0.98303  0.92629  Biso   1.000  H
  H98      1.0000 0.92776  0.86273  0.03574  Biso   1.000  H
  H99      1.0000 0.01215  0.89194  0.88658  Biso   1.000  H
  H100     1.0000 0.38859  0.98940  0.59851  Biso   1.000  H
  H101     1.0000 0.42444  0.85329  0.51011  Biso   1.000  H
  H102     1.0000 0.51286  0.89132  0.64564  Biso   1.000  H
  H103     1.0000 0.65160  0.48886  0.90775  Biso   1.000  H
  H104     1.0000 0.61802  0.35955  0.00835  Biso   1.000  H
  H105     1.0000 0.51273  0.39021  0.88286  Biso   1.000  H
  H106     1.0000 0.15159  0.47813  0.62262  Biso   1.000  H
  H107     1.0000 0.12144  0.35663  0.50952  Biso   1.000  H
  H108     1.0000 0.01189  0.39078  0.64378  Biso   1.000  H
  H109     1.0000 0.16364  0.99491  0.10329  Biso   1.000  H
  H110     1.0000 0.12351  0.11529  0.01377  Biso   1.000  H
  H111     1.0000 0.03138  0.07832  0.14645  Biso   1.000  H
  H112     1.0000 0.66138  0.98345  0.41944  Biso   1.000  H
  H113     1.0000 0.61896  0.11892  0.51784  Biso   1.000  H
  H114     1.0000 0.53196  0.08052  0.37612  Biso   1.000  H
  H115     1.0000 0.40389  0.49566  0.12702  Biso   1.000  H
  H116     1.0000 0.42885  0.62393  0.01789  Biso   1.000  H
  H117     1.0000 0.53676  0.58438  0.14615  Biso   1.000  H
  H118     1.0000 0.90760  0.46612  0.40538  Biso   1.000  H
  H119     1.0000 0.92226  0.61706  0.50098  Biso   1.000  H
  H120     1.0000 0.03978  0.57321  0.38922  Biso   1.000  H
  H121     1.0000 0.11069  0.98150  0.88053  Biso   1.000  H
  H122     1.0000 0.89022  0.08761  0.01905  Biso   1.000  H
  H123     1.0000 0.03725  0.85605  0.11912  Biso   1.000  H
  H124     1.0000 0.60691  0.97169  0.64565  Biso   1.000  H
  H125     1.0000 0.39531  0.07699  0.50804  Biso   1.000  H
  H126     1.0000 0.50184  0.85972  0.41633  Biso   1.000  H
  H127     1.0000 0.42663  0.48989  0.89324  Biso   1.000  H
  H128     1.0000 0.66030  0.58164  0.00917  Biso   1.000  H
  H129     1.0000 0.52831  0.36188  0.10951  Biso   1.000  H
  H130     1.0000 0.92842  0.48974  0.63780  Biso   1.000  H
  H131     1.0000 0.15474  0.57500  0.54327  Biso   1.000  H
  H132     1.0000 0.01674  0.35597  0.41357  Biso   1.000  H
  H133     1.0000 0.93893  0.99194  0.14919  Biso   1.000  H
  H134     1.0000 0.15781  0.89487  0.02504  Biso   1.000  H
  H135     1.0000 0.01885  0.11723  0.91793  Biso   1.000  H
  H136     1.0000 0.43822  0.99857  0.38001  Biso   1.000  H
  H137     1.0000 0.65447  0.89260  0.49614  Biso   1.000  H
  H138     1.0000 0.52676  0.11376  0.60801  Biso   1.000  H
  H139     1.0000 0.63018  0.49804  0.13638  Biso   1.000  H
  H140     1.0000 0.40070  0.39478  0.02921  Biso   1.000  H
  H141     1.0000 0.51471  0.61699  0.91916  Biso   1.000  H
  H142     1.0000 0.12784  0.49395  0.39272  Biso   1.000  H
  H143     1.0000 0.89737  0.38787  0.50502  Biso   1.000  H
  H144     1.0000 0.00162  0.61398  0.62008  Biso   1.000  H
  H145     1.0000 0.60679  0.49406  0.86631  Biso   1.000  H
  H146     1.0000 0.88738  0.57489  0.47856  Biso   1.000  H
  H147     1.0000 0.51246  0.85273  0.60327  Biso   1.000  H
  H148     1.0000 0.10746  0.47631  0.66295  Biso   1.000  H
  H149     1.0000 0.38595  0.57892  0.02922  Biso   1.000  H
  H150     1.0000 0.01998  0.85302  0.93309  Biso   1.000  H
  H151     1.0000 0.92682  0.98082  0.88635  Biso   1.000  H
  H152     1.0000 0.66012  0.07144  0.52371  Biso   1.000  H
  H153     1.0000 0.02582  0.35196  0.59988  Biso   1.000  H
  H154     1.0000 0.43017  0.98661  0.64419  Biso   1.000  H
  H155     1.0000 0.16454  0.07234  0.00969  Biso   1.000  H
  H156     1.0000 0.52149  0.34964  0.92813  Biso   1.000  H
  H157     1.0000 0.44924  0.49344  0.16297  Biso   1.000  H
  H158     1.0000 0.16641  0.39932  0.51977  Biso   1.000  H
  H159     1.0000 0.53141  0.12443  0.42136  Biso   1.000  H
  H160     1.0000 0.95072  0.48358  0.36854  Biso   1.000  H
  H161     1.0000 0.66048  0.40323  0.99931  Biso   1.000  H
  H162     1.0000 0.02905  0.11840  0.10417  Biso   1.000  H
  H163     1.0000 0.12383  0.98776  0.14974  Biso   1.000  H
  H164     1.0000 0.38616  0.89369  0.50611  Biso   1.000  H
  H165     1.0000 0.02844  0.61584  0.43475  Biso   1.000  H
  H166     1.0000 0.62174  0.98303  0.37532  Biso   1.000  H
  H167     1.0000 0.88255  0.90851  0.03381  Biso   1.000  H
  H168     1.0000 0.52282  0.62046  0.10702  Biso   1.000  H
  H169     1.0000 0.01828  0.07354  0.87736  Biso   1.000  H
  H170     1.0000 0.89604  0.99896  0.10667  Biso   1.000  H
  H171     1.0000 0.11037  0.85345  0.01710  Biso   1.000  H
  H172     1.0000 0.52651  0.07023  0.64853  Biso   1.000  H
  H173     1.0000 0.39878  0.00198  0.41865  Biso   1.000  H
  H174     1.0000 0.60771  0.85168  0.49262  Biso   1.000  H
  H175     1.0000 0.51692  0.57533  0.87938  Biso   1.000  H
  H176     1.0000 0.67317  0.49541  0.08863  Biso   1.000  H
  H177     1.0000 0.44079  0.35333  0.01845  Biso   1.000  H
  H178     1.0000 0.01240  0.57128  0.66136  Biso   1.000  H
  H179     1.0000 0.16480  0.48785  0.43963  Biso   1.000  H
  H180     1.0000 0.93900  0.35253  0.51705  Biso   1.000  H
  H181     1.0000 0.03570  0.89468  0.15942  Biso   1.000  H
  H182     1.0000 0.15540  0.98920  0.92099  Biso   1.000  H
  H183     1.0000 0.92907  0.12299  0.01975  Biso   1.000  H
  H184     1.0000 0.51850  0.89888  0.38006  Biso   1.000  H
  H185     1.0000 0.65356  0.97241  0.60154  Biso   1.000  H
  H186     1.0000 0.43474  0.12098  0.50956  Biso   1.000  H
  H187     1.0000 0.53192  0.40890  0.15179  Biso   1.000  H
  H188     1.0000 0.38458  0.48103  0.94391  Biso   1.000  H
  H189     1.0000 0.61448  0.61912  0.00632  Biso   1.000  H
  H190     1.0000 0.02518  0.40041  0.37531  Biso   1.000  H
  H191     1.0000 0.88409  0.49640  0.58941  Biso   1.000  H
  H192     1.0000 0.10346  0.61732  0.54205  Biso   1.000  H
  H193     1.0000 0.28857  0.84662  0.48889  Biso   1.000  H
  H194     1.0000 0.54270  0.25397  0.87300  Biso   1.000  H
  H195     1.0000 0.90568  0.51914  0.27228  Biso   1.000  H
  H196     1.0000 0.78600  0.85163  0.02193  Biso   1.000  H
  H197     1.0000 0.04159  0.25673  0.65128  Biso   1.000  H
  H198     1.0000 0.40359  0.47873  0.26196  Biso   1.000  H
  H199     1.0000 0.26100  0.34603  0.53481  Biso   1.000  H
  H200     1.0000 0.02975  0.75410  0.88683  Biso   1.000  H
  H201     1.0000 0.68315  0.00430  0.28529  Biso   1.000  H
  H202     1.0000 0.75698  0.35223  0.97948  Biso   1.000  H
  H203     1.0000 0.50616  0.75137  0.64570  Biso   1.000  H
  H204     1.0000 0.18480  0.98745  0.24118  Biso   1.000  H
  H205     1.0000 0.75973  0.12069  0.52945  Biso   1.000  H
  H206     1.0000 0.50214  0.72019  0.15193  Biso   1.000  H
  H207     1.0000 0.15542  0.46954  0.76121  Biso   1.000  H
  H208     1.0000 0.26061  0.12986  0.01658  Biso   1.000  H
  H209     1.0000 0.01533  0.71343  0.38420  Biso   1.000  H
  H210     1.0000 0.65589  0.46304  0.77227  Biso   1.000  H
  H211     1.0000 0.78809  0.62013  0.47932  Biso   1.000  H
  H212     1.0000 0.04386  0.22001  0.15092  Biso   1.000  H
  H213     1.0000 0.36794  0.98166  0.73639  Biso   1.000  H
  H214     1.0000 0.28782  0.62432  0.01315  Biso   1.000  H
  H215     1.0000 0.53847  0.21991  0.36981  Biso   1.000  H
  H216     1.0000 0.87381  0.99491  0.78902  Biso   1.000  H
  H217     1.0000 0.26420  0.48255  0.39295  Biso   1.000  H
  H218     1.0000 0.38164  0.21466  0.51993  Biso   1.000  H
  H219     1.0000 0.55367  0.35582  0.24784  Biso   1.000  H
  H220     1.0000 0.77452  0.50082  0.13470  Biso   1.000  H
  H221     1.0000 0.88853  0.22536  0.01651  Biso   1.000  H
  H222     1.0000 0.03562  0.34696  0.27559  Biso   1.000  H
  H223     1.0000 0.30051  0.01575  0.36220  Biso   1.000  H
  H224     1.0000 0.15524  0.71091  0.51815  Biso   1.000  H
  H225     1.0000 0.02600  0.84602  0.25968  Biso   1.000  H
  H226     1.0000 0.80229  0.01256  0.16823  Biso   1.000  H
  H227     1.0000 0.66107  0.71942  0.02394  Biso   1.000  H
  H228     1.0000 0.50833  0.85955  0.27746  Biso   1.000  H
  H229     1.0000 0.78341  0.48832  0.63312  Biso   1.000  H
  H230     1.0000 0.65976  0.75353  0.48160  Biso   1.000  H
  H231     1.0000 0.50513  0.62238  0.78165  Biso   1.000  H
  H232     1.0000 0.28563  0.48412  0.89805  Biso   1.000  H
  H233     1.0000 0.15844  0.75684  0.00529  Biso   1.000  H
  H234     1.0000 0.00993  0.62475  0.75792  Biso   1.000  H
  H235     1.0000 0.74773  0.98231  0.66264  Biso   1.000  H
  H236     1.0000 0.88790  0.25529  0.53728  Biso   1.000  H
  H237     1.0000 0.01843  0.12318  0.77896  Biso   1.000  H
  H238     1.0000 0.24991  0.96915  0.86508  Biso   1.000  H
  H239     1.0000 0.38394  0.25944  0.00775  Biso   1.000  H
  H240     1.0000 0.52853  0.12229  0.74385  Biso   1.000  H
  H241     1.0000 0.74742  0.48242  0.84890  Biso   1.000  H
  H242     1.0000 0.86644  0.71120  0.50753  Biso   1.000  H
  H243     1.0000 0.48986  0.83594  0.73984  Biso   1.000  H
  H244     1.0000 0.24354  0.49098  0.68262  Biso   1.000  H
  H245     1.0000 0.37287  0.71513  0.99817  Biso   1.000  H
  H246     1.0000 0.02846  0.83277  0.79548  Biso   1.000  H
  H247     1.0000 0.78449  0.99854  0.87597  Biso   1.000  H
  H248     1.0000 0.68159  0.21416  0.51951  Biso   1.000  H
  H249     1.0000 0.00035  0.33204  0.73608  Biso   1.000  H
  H250     1.0000 0.28874  0.96903  0.64584  Biso   1.000  H
  H251     1.0000 0.17473  0.21216  0.02361  Biso   1.000  H
  H252     1.0000 0.50867  0.33773  0.78639  Biso   1.000  H
  H253     1.0000 0.31155  0.48316  0.18511  Biso   1.000  H
  H254     1.0000 0.17052  0.26146  0.52646  Biso   1.000  H
  H255     1.0000 0.53661  0.14105  0.28184  Biso   1.000  H
  H256     1.0000 0.81470  0.48225  0.34958  Biso   1.000  H
  H257     1.0000 0.67632  0.26899  0.01934  Biso   1.000  H
  H258     1.0000 0.03414  0.13670  0.24189  Biso   1.000  H
  H259     1.0000 0.26162  0.98692  0.15017  Biso   1.000  H
  H260     1.0000 0.37382  0.75522  0.50405  Biso   1.000  H
  H261     1.0000 0.05291  0.63693  0.30025  Biso   1.000  H
  H262     1.0000 0.75412  0.02613  0.37594  Biso   1.000  H
  H263     1.0000 0.87007  0.76780  0.03394  Biso   1.000  H
  H264     1.0000 0.53212  0.64242  0.23957  Biso   1.000  H
  H265     1.0000 0.02530  0.21001  0.86189  Biso   1.000  H
  H266     1.0000 0.88924  0.99640  0.24830  Biso   1.000  H
  H267     1.0000 0.24997  0.83506  0.00431  Biso   1.000  H
  H268     1.0000 0.52340  0.21008  0.66226  Biso   1.000  H
  H269     1.0000 0.38981  0.01237  0.28050  Biso   1.000  H
  H270     1.0000 0.74799  0.83556  0.48715  Biso   1.000  H
  H271     1.0000 0.50658  0.71300  0.86485  Biso   1.000  H
  H272     1.0000 0.69144  0.50793  0.22756  Biso   1.000  H
  H273     1.0000 0.30341  0.34215  0.04113  Biso   1.000  H
  H274     1.0000 0.99179  0.70614  0.67868  Biso   1.000  H
  H275     1.0000 0.19281  0.48196  0.30438  Biso   1.000  H
  H276     1.0000 0.80159  0.34134  0.53337  Biso   1.000  H
  H277     1.0000 0.02969  0.76059  0.17087  Biso   1.000  H
  H278     1.0000 0.15599  0.96916  0.77871  Biso   1.000  H
  H279     1.0000 0.79447  0.14316  0.00690  Biso   1.000  H
  H280     1.0000 0.48750  0.76687  0.35931  Biso   1.000  H
  H281     1.0000 0.65601  0.97914  0.74404  Biso   1.000  H
  H282     1.0000 0.29729  0.12775  0.52880  Biso   1.000  H
  H283     1.0000 0.53404  0.27088  0.16726  Biso   1.000  H
  H284     1.0000 0.36636  0.48250  0.80384  Biso   1.000  H
  H285     1.0000 0.75377  0.64390  0.00288  Biso   1.000  H
  H286     1.0000 0.03285  0.25981  0.36228  Biso   1.000  H
  H287     1.0000 0.85842  0.48469  0.72576  Biso   1.000  H
  H288     1.0000 0.24291  0.63406  0.50844  Biso   1.000  H
  H289     1.0000 0.12155  0.21172  0.01564  Biso   1.000  H
  H290     1.0000 0.02831  0.07978  0.24087  Biso   1.000  H
  H291     1.0000 0.25868  0.99801  0.09621  Biso   1.000  H
  H292     1.0000 0.62629  0.21445  0.51928  Biso   1.000  H
  H293     1.0000 0.53515  0.08730  0.27761  Biso   1.000  H
  H294     1.0000 0.74801  0.01461  0.43265  Biso   1.000  H
  H295     1.0000 0.42619  0.71536  0.00157  Biso   1.000  H
  H296     1.0000 0.55331  0.59247  0.23950  Biso   1.000  H
  H297     1.0000 0.30837  0.48995  0.12871  Biso   1.000  H
  H298     1.0000 0.91885  0.71051  0.52350  Biso   1.000  H
  H299     1.0000 0.06303  0.58303  0.29539  Biso   1.000  H
  H300     1.0000 0.81250  0.46286  0.40019  Biso   1.000  H
  H301     1.0000 0.92619  0.76638  0.03635  Biso   1.000  H
  H302     1.0000 0.02457  0.88740  0.79454  Biso   1.000  H
  H303     1.0000 0.78659  0.99832  0.93124  Biso   1.000  H
  H304     1.0000 0.42846  0.75798  0.51116  Biso   1.000  H
  H305     1.0000 0.49339  0.89018  0.74129  Biso   1.000  H
  H306     1.0000 0.29458  0.96736  0.59066  Biso   1.000  H
  H307     1.0000 0.62281  0.26844  0.03054  Biso   1.000  H
  H308     1.0000 0.49460  0.38888  0.78830  Biso   1.000  H
  H309     1.0000 0.74740  0.49391  0.90485  Biso   1.000  H
  H310     1.0000 0.11825  0.26253  0.50744  Biso   1.000  H
  H311     1.0000 0.99128  0.38682  0.73600  Biso   1.000  H
  H312     1.0000 0.24906  0.48894  0.62975  Biso   1.000  H
  H313     1.0000 0.25192  0.98014  0.91745  Biso   1.000  H
  H314     1.0000 0.93791  0.21887  0.01900  Biso   1.000  H
  H315     1.0000 0.02808  0.90289  0.25496  Biso   1.000  H
  H316     1.0000 0.74824  0.97407  0.60793  Biso   1.000  H
  H317     1.0000 0.43435  0.21665  0.52114  Biso   1.000  H
  H318     1.0000 0.52567  0.90717  0.28486  Biso   1.000  H
  H319     1.0000 0.29036  0.48277  0.95363  Biso   1.000  H
  H320     1.0000 0.61046  0.71401  0.01949  Biso   1.000  H
  H321     1.0000 0.55107  0.41147  0.24523  Biso   1.000  H
  H322     1.0000 0.78879  0.48101  0.58137  Biso   1.000  H
  H323     1.0000 0.10270  0.70941  0.52380  Biso   1.000  H
  H324     1.0000 0.04459  0.40111  0.28133  Biso   1.000  H
  H325     1.0000 0.79923  0.01071  0.11301  Biso   1.000  H
  H326     1.0000 0.10436  0.75934  0.01620  Biso   1.000  H
  H327     1.0000 0.02112  0.06830  0.78218  Biso   1.000  H
  H328     1.0000 0.30046  0.00654  0.41800  Biso   1.000  H
  H329     1.0000 0.60040  0.75672  0.48872  Biso   1.000  H
  H330     1.0000 0.53394  0.06821  0.74331  Biso   1.000  H
  H331     1.0000 0.76899  0.50462  0.07966  Biso   1.000  H
  H332     1.0000 0.43714  0.25744  0.99869  Biso   1.000  H
  H333     1.0000 0.51085  0.56817  0.78453  Biso   1.000  H
  H334     1.0000 0.26166  0.48219  0.44857  Biso   1.000  H
  H335     1.0000 0.94338  0.25856  0.52875  Biso   1.000  H
  H336     1.0000 0.01396  0.56538  0.75469  Biso   1.000  H
  H337     1.0000 0.02714  0.21065  0.91535  Biso   1.000  H
  H338     1.0000 0.94174  0.99128  0.24843  Biso   1.000  H
  H339     1.0000 0.25321  0.89224  0.01154  Biso   1.000  H
  H340     1.0000 0.52581  0.20982  0.60828  Biso   1.000  H
  H341     1.0000 0.44143  0.00494  0.28060  Biso   1.000  H
  H342     1.0000 0.74790  0.89215  0.49878  Biso   1.000  H
  H343     1.0000 0.50917  0.71223  0.91926  Biso   1.000  H
  H344     1.0000 0.64107  0.50093  0.23254  Biso   1.000  H
  H345     1.0000 0.30698  0.39486  0.05033  Biso   1.000  H
  H346     1.0000 0.98909  0.70588  0.62133  Biso   1.000  H
  H347     1.0000 0.13844  0.48366  0.29706  Biso   1.000  H
  H348     1.0000 0.80173  0.39099  0.52616  Biso   1.000  H
  H349     1.0000 0.03172  0.76032  0.11613  Biso   1.000  H
  H350     1.0000 0.10212  0.96821  0.78566  Biso   1.000  H
  H351     1.0000 0.79175  0.08943  0.01031  Biso   1.000  H
  H352     1.0000 0.49330  0.76336  0.40907  Biso   1.000  H
  H353     1.0000 0.60404  0.97899  0.74159  Biso   1.000  H
  H354     1.0000 0.29925  0.07249  0.52755  Biso   1.000  H
  H355     1.0000 0.52891  0.26777  0.11252  Biso   1.000  H
  H356     1.0000 0.41993  0.48098  0.80065  Biso   1.000  H
  H357     1.0000 0.75926  0.58807  0.00200  Biso   1.000  H
  H358     1.0000 0.03166  0.26067  0.41622  Biso   1.000  H
  H359     1.0000 0.91338  0.48314  0.73156  Biso   1.000  H
  H360     1.0000 0.24987  0.58200  0.52706  Biso   1.000  H
  H361     1.0000 0.00911  0.70861  0.43917  Biso   1.000  H
  H362     1.0000 0.42444  0.98678  0.73809  Biso   1.000  H
  H363     1.0000 0.75419  0.40446  0.96983  Biso   1.000  H
  H364     1.0000 0.49739  0.71514  0.09662  Biso   1.000  H
  H365     1.0000 0.92621  0.98855  0.79072  Biso   1.000  H
  H366     1.0000 0.26119  0.39843  0.54051  Biso   1.000  H
  H367     1.0000 0.53568  0.21843  0.42568  Biso   1.000  H
  H368     1.0000 0.10018  0.46510  0.75734  Biso   1.000  H
  H369     1.0000 0.78661  0.90401  0.02811  Biso   1.000  H
  H370     1.0000 0.04048  0.21590  0.09950  Biso   1.000  H
  H371     1.0000 0.60028  0.46011  0.77736  Biso   1.000  H
  H372     1.0000 0.29221  0.89865  0.49627  Biso   1.000  H
  H373     1.0000 0.04528  0.25666  0.59880  Biso   1.000  H
  H374     1.0000 0.62799  0.99636  0.28141  Biso   1.000  H
  H375     1.0000 0.29112  0.57543  0.03530  Biso   1.000  H
  H376     1.0000 0.55096  0.25880  0.92697  Biso   1.000  H
  H377     1.0000 0.13038  0.98350  0.24445  Biso   1.000  H
  H378     1.0000 0.79200  0.56881  0.46971  Biso   1.000  H
  H379     1.0000 0.51215  0.75723  0.59165  Biso   1.000  H
  H380     1.0000 0.95851  0.52166  0.27920  Biso   1.000  H
  H381     1.0000 0.25892  0.07254  0.01458  Biso   1.000  H
  H382     1.0000 0.02741  0.75630  0.93884  Biso   1.000  H
  H383     1.0000 0.45824  0.48526  0.26141  Biso   1.000  H
  H384     1.0000 0.75421  0.06804  0.53704  Biso   1.000  H
  H385     1.0000 0.25958  0.44933  0.36410  Biso   1.000  H
  H386     1.0000 0.29272  0.15794  0.49937  Biso   1.000  H
  H387     1.0000 0.51496  0.32560  0.24783  Biso   1.000  H
  H388     1.0000 0.71906  0.47488  0.22316  Biso   1.000  H
  H389     1.0000 0.85150  0.22218  0.04034  Biso   1.000  H
  H390     1.0000 0.99807  0.26588  0.33084  Biso   1.000  H
  H391     1.0000 0.30809  0.97550  0.33364  Biso   1.000  H
  H392     1.0000 0.18039  0.70661  0.48347  Biso   1.000  H
  H393     1.0000 0.99840  0.76490  0.20070  Biso   1.000  H
  H394     1.0000 0.80368  0.97555  0.20007  Biso   1.000  H
  H395     1.0000 0.75280  0.67029  0.04400  Biso   1.000  H
  H396     1.0000 0.53963  0.82046  0.28776  Biso   1.000  H
  H397     1.0000 0.78494  0.51948  0.66673  Biso   1.000  H
  H398     1.0000 0.74177  0.80146  0.52059  Biso   1.000  H
  H399     1.0000 0.53724  0.65346  0.78036  Biso   1.000  H
  H400     1.0000 0.33689  0.52080  0.81256  Biso   1.000  H
  H401     1.0000 0.23699  0.80511  0.96503  Biso   1.000  H
  H402     1.0000 0.04105  0.65219  0.75016  Biso   1.000  H
  H403     1.0000 0.74143  0.95110  0.69134  Biso   1.000  H
  H404     1.0000 0.80394  0.31086  0.56747  Biso   1.000  H
  H405     1.0000 0.98781  0.20309  0.83254  Biso   1.000  H
  H406     1.0000 0.24452  0.99687  0.83105  Biso   1.000  H
  H407     1.0000 0.29762  0.31873  0.00162  Biso   1.000  H
  H408     1.0000 0.49151  0.15602  0.73849  Biso   1.000  H
  H409     1.0000 0.32507  0.44908  0.21967  Biso   1.000  H
  H410     1.0000 0.20654  0.26901  0.48953  Biso   1.000  H
  H411     1.0000 0.49695  0.21507  0.33537  Biso   1.000  H
  H412     1.0000 0.87598  0.48218  0.26765  Biso   1.000  H
  H413     1.0000 0.69708  0.26465  0.97919  Biso   1.000  H
  H414     1.0000 0.00494  0.21341  0.18914  Biso   1.000  H
  H415     1.0000 0.22122  0.94965  0.22750  Biso   1.000  H
  H416     1.0000 0.34333  0.75698  0.47428  Biso   1.000  H
  H417     1.0000 0.00761  0.65906  0.29760  Biso   1.000  H
  H418     1.0000 0.76322  0.98857  0.34859  Biso   1.000  H
  H419     1.0000 0.82604  0.78993  0.07220  Biso   1.000  H
  H420     1.0000 0.47794  0.66737  0.22683  Biso   1.000  H
  H421     1.0000 0.73509  0.51085  0.81309  Biso   1.000  H
  H422     1.0000 0.77781  0.65013  0.50582  Biso   1.000  H
  H423     1.0000 0.54148  0.75899  0.68332  Biso   1.000  H
  H424     1.0000 0.18605  0.50576  0.76721  Biso   1.000  H
  H425     1.0000 0.33998  0.69979  0.96553  Biso   1.000  H
  H426     1.0000 0.05106  0.75205  0.85148  Biso   1.000  H
  H427     1.0000 0.78833  0.01769  0.84397  Biso   1.000  H
  H428     1.0000 0.75640  0.15354  0.55749  Biso   1.000  H
  H429     1.0000 0.04412  0.31036  0.73962  Biso   1.000  H
  H430     1.0000 0.34352  0.94026  0.73048  Biso   1.000  H
  H431     1.0000 0.20073  0.20964  0.98844  Biso   1.000  H
  H432     1.0000 0.50845  0.24743  0.85087  Biso   1.000  H
  H433     1.0000 0.28785  0.00199  0.68003  Biso   1.000  H
  H434     1.0000 0.76101  0.33002  0.01550  Biso   1.000  H
  H435     1.0000 0.05338  0.71847  0.35842  Biso   1.000  H
  H436     1.0000 0.84258  0.95749  0.79521  Biso   1.000  H
  H437     1.0000 0.24931  0.31282  0.56194  Biso   1.000  H
  H438     1.0000 0.54478  0.72274  0.18289  Biso   1.000  H
  H439     1.0000 0.24063  0.45006  0.70707  Biso   1.000  H
  H440     1.0000 0.80418  0.81734  0.98573  Biso   1.000  H
  H441     1.0000 0.57017  0.16883  0.29100  Biso   1.000  H
  H442     1.0000 0.68812  0.43526  0.77203  Biso   1.000  H
  H443     1.0000 0.28469  0.81819  0.52013  Biso   1.000  H
  H444     1.0000 0.07116  0.16515  0.23425  Biso   1.000  H
  H445     1.0000 0.70373  0.04340  0.29316  Biso   1.000  H
  H446     1.0000 0.29151  0.66183  0.03862  Biso   1.000  H
  H447     1.0000 0.00541  0.24838  0.67594  Biso   1.000  H
  H448     1.0000 0.25152  0.03005  0.18438  Biso   1.000  H
  H449     1.0000 0.84501  0.71138  0.47124  Biso   1.000  H
  H450     1.0000 0.54822  0.31159  0.78831  Biso   1.000  H
  H451     1.0000 0.81208  0.51889  0.32894  Biso   1.000  H
  H452     1.0000 0.25283  0.16027  0.05159  Biso   1.000  H
  H453     1.0000 0.46243  0.79651  0.72687  Biso   1.000  H
  H454     1.0000 0.37549  0.51551  0.26330  Biso   1.000  H
  H455     1.0000 0.71388  0.20465  0.48840  Biso   1.000  H
  H456     1.0000 0.98695  0.80476  0.80500  Biso   1.000  H
  H457     1.0000 0.68998  0.75906  0.44939  Biso   1.000  H
  H458     1.0000 0.47690  0.70298  0.83371  Biso   1.000  H
  H459     1.0000 0.83000  0.45147  0.71066  Biso   1.000  H
  H460     1.0000 0.19973  0.76251  0.04519  Biso   1.000  H
  H461     1.0000 0.96573  0.69845  0.71228  Biso   1.000  H
  H462     1.0000 0.29040  0.45570  0.86649  Biso   1.000  H
  H463     1.0000 0.85797  0.25266  0.50674  Biso   1.000  H
  H464     1.0000 0.05185  0.15543  0.78009  Biso   1.000  H
  H465     1.0000 0.68884  0.01442  0.73729  Biso   1.000  H
  H466     1.0000 0.35912  0.25608  0.03983  Biso   1.000  H
  H467     1.0000 0.56583  0.20155  0.69736  Biso   1.000  H
  H468     1.0000 0.18643  0.93769  0.78232  Biso   1.000  H
  H469     1.0000 0.35649  0.21076  0.55058  Biso   1.000  H
  H470     1.0000 0.57840  0.27804  0.19455  Biso   1.000  H
  H471     1.0000 0.22348  0.51667  0.30796  Biso   1.000  H
  H472     1.0000 0.80821  0.17498  0.96803  Biso   1.000  H
  H473     1.0000 0.06480  0.31788  0.28715  Biso   1.000  H
  H474     1.0000 0.77565  0.52505  0.16496  Biso   1.000  H
  H475     1.0000 0.24199  0.66622  0.54274  Biso   1.000  H
  H476     1.0000 0.05858  0.81766  0.25505  Biso   1.000  H
  H477     1.0000 0.35537  0.04662  0.28347  Biso   1.000  H
  H478     1.0000 0.68687  0.72137  0.99300  Biso   1.000  H
  H479     1.0000 0.45982  0.77873  0.32376  Biso   1.000  H
  H480     1.0000 0.86438  0.03852  0.24155  Biso   1.000  H
  N1       1.0000 0.70886  0.15623  0.52285  Biso   1.000  N
  N2       1.0000 0.51829  0.66924  0.18511  Biso   1.000  N
  N3       1.0000 0.19079  0.48148  0.71242  Biso   1.000  N
  N4       1.0000 0.20708  0.15901  0.01738  Biso   1.000  N
  N5       1.0000 0.03468  0.66331  0.35160  Biso   1.000  N
  N6       1.0000 0.69167  0.47734  0.82030  Biso   1.000  N
  N7       1.0000 0.83863  0.65797  0.49058  Biso   1.000  N
  N8       1.0000 0.03889  0.16604  0.18672  Biso   1.000  N
  N9       1.0000 0.34091  0.97410  0.68075  Biso   1.000  N
  N10      1.0000 0.34025  0.65894  0.00870  Biso   1.000  N
  N11      1.0000 0.53274  0.16906  0.33707  Biso   1.000  N
  N12      1.0000 0.83901  0.99014  0.84248  Biso   1.000  N
  N13      1.0000 0.33967  0.80923  0.49963  Biso   1.000  N
  N14      1.0000 0.52297  0.30664  0.84049  Biso   1.000  N
  N15      1.0000 0.86818  0.49516  0.32109  Biso   1.000  N
  N16      1.0000 0.84047  0.82163  0.03094  Biso   1.000  N
  N17      1.0000 0.02002  0.30408  0.68534  Biso   1.000  N
  N18      1.0000 0.36977  0.48385  0.21298  Biso   1.000  N
  N19      1.0000 0.20695  0.31350  0.52540  Biso   1.000  N
  N20      1.0000 0.02182  0.80388  0.85073  Biso   1.000  N
  N21      1.0000 0.70791  0.00727  0.34156  Biso   1.000  N
  N22      1.0000 0.70567  0.31970  0.99815  Biso   1.000  N
  N23      1.0000 0.50214  0.80348  0.68327  Biso   1.000  N
  N24      1.0000 0.21306  0.98725  0.18562  Biso   1.000  N
  N25      1.0000 0.83349  0.48771  0.67075  Biso   1.000  N
  N26      1.0000 0.69273  0.80689  0.48888  Biso   1.000  N
  N27      1.0000 0.50965  0.65823  0.83289  Biso   1.000  N
  N28      1.0000 0.33722  0.48560  0.86082  Biso   1.000  N
  N29      1.0000 0.19382  0.80775  0.00785  Biso   1.000  N
  N30      1.0000 0.00173  0.65322  0.70685  Biso   1.000  N
  N31      1.0000 0.69182  0.97867  0.69115  Biso   1.000  N
  N32      1.0000 0.85540  0.30811  0.53360  Biso   1.000  N
  N33      1.0000 0.02041  0.15768  0.83149  Biso   1.000  N
  N34      1.0000 0.19315  0.97046  0.83215  Biso   1.000  N
  N35      1.0000 0.35425  0.31062  0.02226  Biso   1.000  N
  N36      1.0000 0.52564  0.15593  0.69322  Biso   1.000  N
  N37      1.0000 0.21755  0.48792  0.35813  Biso   1.000  N
  N38      1.0000 0.34919  0.16078  0.52253  Biso   1.000  N
  N39      1.0000 0.54235  0.32430  0.19740  Biso   1.000  N
  N40      1.0000 0.72232  0.50222  0.17133  Biso   1.000  N
  N41      1.0000 0.85011  0.17287  0.01137  Biso   1.000  N
  N42      1.0000 0.03079  0.31466  0.32982  Biso   1.000  N
  N43      1.0000 0.35659  0.01002  0.33144  Biso   1.000  N
  N44      1.0000 0.18980  0.66183  0.51848  Biso   1.000  N
  N45      1.0000 0.02527  0.81353  0.20510  Biso   1.000  N
  N46      1.0000 0.85562  0.00436  0.19567  Biso   1.000  N
  N47      1.0000 0.69959  0.67029  0.01373  Biso   1.000  N
  N48      1.0000 0.50019  0.82089  0.32861  Biso   1.000  N
  O1       1.0000 0.37053  0.52973  0.03127  Biso   1.000  O
  O2       1.0000 0.02986  0.33073  0.54903  Biso   1.000  O
  O3       1.0000 0.57552  0.98910  0.35003  Biso   1.000  O
  O4       1.0000 0.86654  0.52415  0.48426  Biso   1.000  O
  O5       1.0000 0.53372  0.32603  0.97613  Biso   1.000  O
  O6       1.0000 0.07566  0.98628  0.17735  Biso   1.000  O
  O7       1.0000 0.18754  0.02411  0.01176  Biso   1.000  O
  O8       1.0000 0.51756  0.83028  0.54838  Biso   1.000  O
  O9       1.0000 0.00214  0.49357  0.35118  Biso   1.000  O
  O10      1.0000 0.68089  0.02265  0.52507  Biso   1.000  O
  O11      1.0000 0.01668  0.83086  0.98587  Biso   1.000  O
  O12      1.0000 0.49874  0.49878  0.18333  Biso   1.000  O
  O13      1.0000 0.68454  0.45209  0.99565  Biso   1.000  O
  O14      1.0000 0.02003  0.63790  0.48599  Biso   1.000  O
  O15      1.0000 0.47525  0.99160  0.66980  Biso   1.000  O
  O16      1.0000 0.18770  0.44466  0.53182  Biso   1.000  O
  O17      1.0000 0.51342  0.64511  0.05344  Biso   1.000  O
  O18      1.0000 0.97448  0.98893  0.86194  Biso   1.000  O
  O19      1.0000 0.86137  0.95399  0.02146  Biso   1.000  O
  O20      1.0000 0.53025  0.14543  0.47147  Biso   1.000  O
  O21      1.0000 0.05903  0.48116  0.67980  Biso   1.000  O
  O22      1.0000 0.36846  0.94172  0.50541  Biso   1.000  O
  O23      1.0000 0.02721  0.13984  0.05389  Biso   1.000  O
  O24      1.0000 0.55669  0.47377  0.85249  Biso   1.000  O
  O25      1.0000 0.99227  0.99049  0.17561  Biso   1.000  O
  O26      1.0000 0.18379  0.94176  0.00838  Biso   1.000  O
  O27      1.0000 0.02525  0.14023  0.96596  Biso   1.000  O
  O28      1.0000 0.49331  0.99709  0.35179  Biso   1.000  O
  O29      1.0000 0.67710  0.93868  0.50047  Biso   1.000  O
  O30      1.0000 0.52675  0.14260  0.55825  Biso   1.000  O
  O31      1.0000 0.58423  0.49427  0.16724  Biso   1.000  O
  O32      1.0000 0.37759  0.44582  0.03625  Biso   1.000  O
  O33      1.0000 0.51838  0.64358  0.96927  Biso   1.000  O
  O34      1.0000 0.08213  0.48454  0.36190  Biso   1.000  O
  O35      1.0000 0.87260  0.44206  0.50133  Biso   1.000  O
  O36      1.0000 0.00753  0.63710  0.57020  Biso   1.000  O
  O37      1.0000 0.05940  0.97248  0.86021  Biso   1.000  O
  O38      1.0000 0.86368  0.03720  0.01401  Biso   1.000  O
  O39      1.0000 0.02235  0.83366  0.07078  Biso   1.000  O
  O40      1.0000 0.55639  0.97422  0.66904  Biso   1.000  O
  O41      1.0000 0.37082  0.02672  0.51342  Biso   1.000  O
  O42      1.0000 0.50858  0.83345  0.46385  Biso   1.000  O
  O43      1.0000 0.47420  0.48811  0.86583  Biso   1.000  O
  O44      1.0000 0.68759  0.53512  0.00277  Biso   1.000  O
  O45      1.0000 0.53483  0.33373  0.05888  Biso   1.000  O
  O46      1.0000 0.97500  0.48685  0.66611  Biso   1.000  O
  O47      1.0000 0.18011  0.52599  0.53739  Biso   1.000  O
  O48      1.0000 0.02666  0.33202  0.46557  Biso   1.000  O
  O49      1.0000 0.03088  0.94625  0.17990  Biso   1.000  O
  O50      1.0000 0.17963  0.98542  0.96784  Biso   1.000  O
  O51      1.0000 0.98520  0.14524  0.01372  Biso   1.000  O
  O52      1.0000 0.52878  0.95335  0.35562  Biso   1.000  O
  O53      1.0000 0.67849  0.96829  0.55374  Biso   1.000  O
  O54      1.0000 0.48451  0.14258  0.51303  Biso   1.000  O
  O55      1.0000 0.54053  0.45625  0.17453  Biso   1.000  O
  O56      1.0000 0.36861  0.48439  0.99207  Biso   1.000  O
  O57      1.0000 0.56159  0.64254  0.01046  Biso   1.000  O
  O58      1.0000 0.03535  0.44568  0.35297  Biso   1.000  O
  O59      1.0000 0.86632  0.48991  0.53440  Biso   1.000  O
  O60      1.0000 0.05408  0.63636  0.53402  Biso   1.000  O
  O61      1.0000 0.02127  0.02374  0.85892  Biso   1.000  O
  O62      1.0000 0.86704  0.00259  0.05841  Biso   1.000  O
  O63      1.0000 0.05984  0.82805  0.02297  Biso   1.000  O
  O64      1.0000 0.52574  0.02162  0.66702  Biso   1.000  O
  O65      1.0000 0.37145  0.99194  0.46670  Biso   1.000  O
  O66      1.0000 0.55703  0.82930  0.49996  Biso   1.000  O
  O67      1.0000 0.51862  0.52346  0.85820  Biso   1.000  O
  O68      1.0000 0.69177  0.49047  0.04023  Biso   1.000  O
  O69      1.0000 0.48967  0.32955  0.01651  Biso   1.000  O
  O70      1.0000 0.01945  0.52091  0.68073  Biso   1.000  O
  O71      1.0000 0.18323  0.48942  0.49174  Biso   1.000  O
  O72      1.0000 0.98832  0.33006  0.51008  Biso   1.000  O
  O73      1.0000 0.01443  0.44028  0.66962  Biso   1.000  O
  O74      1.0000 0.67925  0.99159  0.47241  Biso   1.000  O
  O75      1.0000 0.47589  0.64672  0.01165  Biso   1.000  O
  O76      1.0000 0.50824  0.43945  0.85833  Biso   1.000  O
  O77      1.0000 0.18409  0.97904  0.05334  Biso   1.000  O
  O78      1.0000 0.97117  0.64045  0.51818  Biso   1.000  O
  O79      1.0000 0.50390  0.94079  0.67085  Biso   1.000  O
  O80      1.0000 0.87732  0.47425  0.45340  Biso   1.000  O
  O81      1.0000 0.07068  0.13818  0.01145  Biso   1.000  O
  O82      1.0000 0.01334  0.93907  0.86362  Biso   1.000  O
  O83      1.0000 0.37681  0.49342  0.07671  Biso   1.000  O
  O84      1.0000 0.57414  0.14562  0.51404  Biso   1.000  O
  O85      1.0000 0.04193  0.52659  0.35939  Biso   1.000  O
  O86      1.0000 0.36647  0.98271  0.54869  Biso   1.000  O
  O87      1.0000 0.57215  0.33660  0.01586  Biso   1.000  O
  O88      1.0000 0.53908  0.53761  0.17370  Biso   1.000  O
  O89      1.0000 0.85801  0.98971  0.97599  Biso   1.000  O
  O90      1.0000 0.07216  0.33440  0.50605  Biso   1.000  O
  O91      1.0000 0.53690  0.03503  0.35025  Biso   1.000  O
  O92      1.0000 0.17789  0.48340  0.57687  Biso   1.000  O
  O93      1.0000 0.97691  0.83675  0.02961  Biso   1.000  O
  O94      1.0000 0.03598  0.03008  0.17167  Biso   1.000  O
  O95      1.0000 0.68196  0.50014  0.95871  Biso   1.000  O
  O96      1.0000 0.47508  0.82976  0.51218  Biso   1.000  O
  O97      1.0000 0.48573  0.19121  0.51558  Biso   1.000  O
  O98      1.0000 0.54771  0.45755  0.22411  Biso   1.000  O
  O99      1.0000 0.23247  0.48680  0.49617  Biso   1.000  O
  O100     1.0000 0.98729  0.19337  0.01234  Biso   1.000  O
  O101     1.0000 0.04014  0.45008  0.30404  Biso   1.000  O
  O102     1.0000 0.73965  0.49496  0.03298  Biso   1.000  O
  O103     1.0000 0.05635  0.68653  0.53342  Biso   1.000  O
  O104     1.0000 0.03406  0.95050  0.22943  Biso   1.000  O
  O105     1.0000 0.32152  0.99287  0.46278  Biso   1.000  O
  O106     1.0000 0.56304  0.68942  0.01494  Biso   1.000  O
  O107     1.0000 0.53493  0.95125  0.30699  Biso   1.000  O
  O108     1.0000 0.81803  0.99942  0.06387  Biso   1.000  O
  O109     1.0000 0.55815  0.78071  0.49938  Biso   1.000  O
  O110     1.0000 0.51538  0.51978  0.81025  Biso   1.000  O
  O111     1.0000 0.81802  0.48691  0.53077  Biso   1.000  O
  O112     1.0000 0.05785  0.77981  0.02734  Biso   1.000  O
  O113     1.0000 0.00967  0.51757  0.72891  Biso   1.000  O
  O114     1.0000 0.31871  0.48171  0.99714  Biso   1.000  O
  O115     1.0000 0.99199  0.28125  0.51288  Biso   1.000  O
  O116     1.0000 0.01232  0.02087  0.81025  Biso   1.000  O
  O117     1.0000 0.72613  0.97403  0.55732  Biso   1.000  O
  O118     1.0000 0.49019  0.28096  0.01752  Biso   1.000  O
  O119     1.0000 0.52521  0.01963  0.71611  Biso   1.000  O
  O120     1.0000 0.22831  0.98036  0.96494  Biso   1.000  O
  O121     1.0000 0.05032  0.47242  0.72772  Biso   1.000  O
  O122     1.0000 0.72866  0.02014  0.52325  Biso   1.000  O
  O123     1.0000 0.51608  0.69258  0.05125  Biso   1.000  O
  O124     1.0000 0.55296  0.47097  0.80468  Biso   1.000  O
  O125     1.0000 0.23530  0.02477  0.00819  Biso   1.000  O
  O126     1.0000 0.01419  0.68548  0.48762  Biso   1.000  O
  O127     1.0000 0.47451  0.99044  0.71829  Biso   1.000  O
  O128     1.0000 0.81676  0.52140  0.47880  Biso   1.000  O
  O129     1.0000 0.03146  0.18842  0.05290  Biso   1.000  O
  O130     1.0000 0.97278  0.97851  0.81329  Biso   1.000  O
  O131     1.0000 0.32166  0.52441  0.03524  Biso   1.000  O
  O132     1.0000 0.53156  0.19389  0.47582  Biso   1.000  O
  O133     1.0000 0.00819  0.49771  0.30354  Biso   1.000  O
  O134     1.0000 0.31869  0.94373  0.49792  Biso   1.000  O
  O135     1.0000 0.53256  0.27821  0.97518  Biso   1.000  O
  O136     1.0000 0.50780  0.49663  0.23152  Biso   1.000  O
  O137     1.0000 0.81227  0.95419  0.02758  Biso   1.000  O
  O138     1.0000 0.03642  0.28231  0.54811  Biso   1.000  O
  O139     1.0000 0.57671  0.98893  0.30163  Biso   1.000  O
  O140     1.0000 0.23637  0.44596  0.53944  Biso   1.000  O
  O141     1.0000 0.00997  0.78426  0.98939  Biso   1.000  O
  O142     1.0000 0.07825  0.98975  0.22593  Biso   1.000  O
  O143     1.0000 0.73466  0.45121  0.99093  Biso   1.000  O
  O144     1.0000 0.52445  0.78242  0.54746  Biso   1.000  O
  O145     1.0000 0.59244  0.50360  0.21424  Biso   1.000  O
  O146     1.0000 0.22836  0.53045  0.53497  Biso   1.000  O
  O147     1.0000 0.52778  0.19093  0.55844  Biso   1.000  O
  O148     1.0000 0.09079  0.48155  0.31441  Biso   1.000  O
  O149     1.0000 0.73620  0.53753  0.99455  Biso   1.000  O
  O150     1.0000 0.02423  0.18851  0.96508  Biso   1.000  O
  O151     1.0000 0.99292  0.99434  0.22398  Biso   1.000  O
  O152     1.0000 0.32211  0.02490  0.51190  Biso   1.000  O
  O153     1.0000 0.00824  0.68619  0.57260  Biso   1.000  O
  O154     1.0000 0.48971  0.99394  0.30350  Biso   1.000  O
  O155     1.0000 0.81482  0.03738  0.01818  Biso   1.000  O
  O156     1.0000 0.52345  0.69125  0.96864  Biso   1.000  O
  O157     1.0000 0.46810  0.48354  0.81697  Biso   1.000  O
  O158     1.0000 0.82362  0.43711  0.50221  Biso   1.000  O
  O159     1.0000 0.50883  0.78403  0.46181  Biso   1.000  O
  O160     1.0000 0.96684  0.48209  0.71389  Biso   1.000  O
  O161     1.0000 0.32964  0.44392  0.04031  Biso   1.000  O
  O162     1.0000 0.01933  0.78537  0.07073  Biso   1.000  O
  O163     1.0000 0.05713  0.97884  0.81200  Biso   1.000  O
  O164     1.0000 0.72495  0.93808  0.50875  Biso   1.000  O
  O165     1.0000 0.02567  0.28455  0.46523  Biso   1.000  O
  O166     1.0000 0.55663  0.97285  0.71874  Biso   1.000  O
  O167     1.0000 0.23303  0.93830  0.00431  Biso   1.000  O
  O168     1.0000 0.53016  0.28588  0.06226  Biso   1.000  O
  O169     1.0000 0.03473  0.03485  0.21996  Biso   1.000  O
  O170     1.0000 0.23272  0.97900  0.05017  Biso   1.000  O
  O171     1.0000 0.07226  0.18603  0.00259  Biso   1.000  O
  O172     1.0000 0.53791  0.03498  0.30111  Biso   1.000  O
  O173     1.0000 0.72846  0.99297  0.47590  Biso   1.000  O
  O174     1.0000 0.57288  0.19287  0.51701  Biso   1.000  O
  O175     1.0000 0.54939  0.54098  0.22108  Biso   1.000  O
  O176     1.0000 0.32845  0.48814  0.08049  Biso   1.000  O
  O177     1.0000 0.47560  0.69501  0.00672  Biso   1.000  O
  O178     1.0000 0.05771  0.53141  0.31283  Biso   1.000  O
  O179     1.0000 0.82861  0.47430  0.44688  Biso   1.000  O
  O180     1.0000 0.96873  0.68654  0.53015  Biso   1.000  O
  O181     1.0000 0.01591  0.93451  0.81511  Biso   1.000  O
  O182     1.0000 0.81004  0.99232  0.97895  Biso   1.000  O
  O183     1.0000 0.97255  0.78907  0.03716  Biso   1.000  O
  O184     1.0000 0.51139  0.93874  0.71861  Biso   1.000  O
  O185     1.0000 0.31739  0.98260  0.54661  Biso   1.000  O
  O186     1.0000 0.47643  0.78190  0.51236  Biso   1.000  O
  O187     1.0000 0.50127  0.43795  0.81036  Biso   1.000  O
  O188     1.0000 0.72731  0.49058  0.95240  Biso   1.000  O
  O189     1.0000 0.57145  0.28828  0.02028  Biso   1.000  O
  O190     1.0000 0.00927  0.43506  0.71920  Biso   1.000  O
  O191     1.0000 0.22578  0.49268  0.57947  Biso   1.000  O
  O192     1.0000 0.07430  0.28594  0.50038  Biso   1.000  O
