data_image0
_cell_length_a       47.1646
_cell_length_b       46.6493
_cell_length_c       46.5643
_cell_angle_alpha    90
_cell_angle_beta     90
_cell_angle_gamma    90

_symmetry_space_group_name_H-M    "P 1"
_symmetry_int_tables_number       1

loop_
  _symmetry_equiv_pos_as_xyz
  'x, y, z'

loop_
  _atom_site_label
  _atom_site_occupancy
  _atom_site_fract_x
  _atom_site_fract_y
  _atom_site_fract_z
  _atom_site_thermal_displace_type
  _atom_site_B_iso_or_equiv
  _atom_site_type_symbol
  C1       1.0000 0.56659  0.95237  0.35165  Biso   1.000  C
  C2       1.0000 0.32951  0.50635  0.01180  Biso   1.000  C
  C3       1.0000 0.00357  0.27966  0.58120  Biso   1.000  C
  C4       1.0000 0.07166  0.96058  0.20728  Biso   1.000  C
  C5       1.0000 0.83323  0.51311  0.51942  Biso   1.000  C
  C6       1.0000 0.52200  0.27036  0.98641  Biso   1.000  C
  C7       1.0000 0.95424  0.46557  0.34181  Biso   1.000  C
  C8       1.0000 0.20048  0.00624  0.02308  Biso   1.000  C
  C9       1.0000 0.52051  0.77364  0.57509  Biso   1.000  C
  C10      1.0000 0.45348  0.44545  0.20218  Biso   1.000  C
  C11      1.0000 0.69056  0.01484  0.53576  Biso   1.000  C
  C12      1.0000 0.00167  0.78137  0.97231  Biso   1.000  C
  C13      1.0000 0.45444  0.95394  0.71014  Biso   1.000  C
  C14      1.0000 0.68850  0.41239  0.03296  Biso   1.000  C
  C15      1.0000 0.02588  0.64002  0.47139  Biso   1.000  C
  C16      1.0000 0.95765  0.96762  0.84638  Biso   1.000  C
  C17      1.0000 0.19117  0.39987  0.52709  Biso   1.000  C
  C18      1.0000 0.50188  0.63593  0.07428  Biso   1.000  C
  C19      1.0000 0.06877  0.46499  0.70789  Biso   1.000  C
  C20      1.0000 0.82830  0.91303  0.03645  Biso   1.000  C
  C21      1.0000 0.49830  0.13865  0.48908  Biso   1.000  C
  C22      1.0000 0.57042  0.45283  0.84467  Biso   1.000  C
  C23      1.0000 0.33737  0.89908  0.52276  Biso   1.000  C
  C24      1.0000 0.01577  0.13752  0.07881  Biso   1.000  C
  C25      1.0000 0.32472  0.00600  0.52473  Biso   1.000  C
  C26      1.0000 0.50523  0.27365  0.09385  Biso   1.000  C
  C27      1.0000 0.06380  0.45855  0.34521  Biso   1.000  C
  C28      1.0000 0.83497  0.02311  0.02701  Biso   1.000  C
  C29      1.0000 0.00572  0.27634  0.47140  Biso   1.000  C
  C30      1.0000 0.56128  0.46377  0.20708  Biso   1.000  C
  C31      1.0000 0.20043  0.50635  0.51557  Biso   1.000  C
  C32      1.0000 0.01904  0.78554  0.07820  Biso   1.000  C
  C33      1.0000 0.45685  0.96621  0.34471  Biso   1.000  C
  C34      1.0000 0.69796  0.51863  0.02099  Biso   1.000  C
  C35      1.0000 0.52109  0.77022  0.46365  Biso   1.000  C
  C36      1.0000 0.96251  0.96877  0.21292  Biso   1.000  C
  C37      1.0000 0.69880  0.90545  0.53032  Biso   1.000  C
  C38      1.0000 0.51714  0.63414  0.96346  Biso   1.000  C
  C39      1.0000 0.95780  0.46448  0.71096  Biso   1.000  C
  C40      1.0000 0.19487  0.89680  0.01538  Biso   1.000  C
  C41      1.0000 0.02377  0.64435  0.58064  Biso   1.000  C
  C42      1.0000 0.46125  0.44100  0.84306  Biso   1.000  C
  C43      1.0000 0.82505  0.40583  0.53091  Biso   1.000  C
  C44      1.0000 0.02556  0.14402  0.96978  Biso   1.000  C
  C45      1.0000 0.56487  0.95350  0.71254  Biso   1.000  C
  C46      1.0000 0.32889  0.39780  0.02990  Biso   1.000  C
  C47      1.0000 0.50436  0.13987  0.59819  Biso   1.000  C
  C48      1.0000 0.06678  0.96381  0.84418  Biso   1.000  C
  C49      1.0000 0.01504  0.01765  0.84426  Biso   1.000  C
  C50      1.0000 0.83344  0.97272  0.08658  Biso   1.000  C
  C51      1.0000 0.06335  0.77580  0.02151  Biso   1.000  C
  C52      1.0000 0.51041  0.00461  0.71537  Biso   1.000  C
  C53      1.0000 0.33099  0.95224  0.46843  Biso   1.000  C
  C54      1.0000 0.57629  0.77326  0.52193  Biso   1.000  C
  C55      1.0000 0.50739  0.50124  0.84234  Biso   1.000  C
  C56      1.0000 0.69205  0.46817  0.08336  Biso   1.000  C
  C57      1.0000 0.45822  0.27148  0.03299  Biso   1.000  C
  C58      1.0000 0.01228  0.51994  0.71288  Biso   1.000  C
  C59      1.0000 0.19322  0.44855  0.46865  Biso   1.000  C
  C60      1.0000 0.94907  0.27849  0.52673  Biso   1.000  C
  C61      1.0000 0.01366  0.91098  0.20920  Biso   1.000  C
  C62      1.0000 0.19416  0.95320  0.96572  Biso   1.000  C
  C63      1.0000 0.96527  0.14255  0.02388  Biso   1.000  C
  C64      1.0000 0.51032  0.90525  0.34290  Biso   1.000  C
  C65      1.0000 0.69697  0.96181  0.58791  Biso   1.000  C
  C66      1.0000 0.44274  0.13999  0.54933  Biso   1.000  C
  C67      1.0000 0.51763  0.40161  0.21169  Biso   1.000  C
  C68      1.0000 0.32566  0.44372  0.96715  Biso   1.000  C
  C69      1.0000 0.56451  0.63941  0.01923  Biso   1.000  C
  C70      1.0000 0.00908  0.40957  0.34734  Biso   1.000  C
  C71      1.0000 0.83005  0.46266  0.57999  Biso   1.000  C
  C72      1.0000 0.07778  0.63808  0.52280  Biso   1.000  C
  C73      1.0000 0.01033  0.51718  0.34116  Biso   1.000  C
  C74      1.0000 0.33143  0.95333  0.57993  Biso   1.000  C
  C75      1.0000 0.56785  0.27724  0.04529  Biso   1.000  C
  C76      1.0000 0.50038  0.50828  0.20325  Biso   1.000  C
  C77      1.0000 0.83125  0.96371  0.97733  Biso   1.000  C
  C78      1.0000 0.05768  0.27573  0.52777  Biso   1.000  C
  C79      1.0000 0.51501  0.01372  0.35578  Biso   1.000  C
  C80      1.0000 0.19575  0.46208  0.57709  Biso   1.000  C
  C81      1.0000 0.95401  0.78711  0.03418  Biso   1.000  C
  C82      1.0000 0.02261  0.02045  0.20962  Biso   1.000  C
  C83      1.0000 0.69617  0.45938  0.97510  Biso   1.000  C
  C84      1.0000 0.46843  0.77218  0.51712  Biso   1.000  C
  C85      1.0000 0.01326  0.41042  0.70634  Biso   1.000  C
  C86      1.0000 0.69654  0.96278  0.48045  Biso   1.000  C
  C87      1.0000 0.45760  0.63245  0.01442  Biso   1.000  C
  C88      1.0000 0.52141  0.39541  0.84934  Biso   1.000  C
  C89      1.0000 0.19605  0.94695  0.07384  Biso   1.000  C
  C90      1.0000 0.96803  0.63873  0.52382  Biso   1.000  C
  C91      1.0000 0.51288  0.89848  0.70808  Biso   1.000  C
  C92      1.0000 0.83297  0.45190  0.47144  Biso   1.000  C
  C93      1.0000 0.07370  0.13600  0.02408  Biso   1.000  C
  C94      1.0000 0.00966  0.90944  0.84494  Biso   1.000  C
  C95      1.0000 0.32785  0.45751  0.07381  Biso   1.000  C
  C96      1.0000 0.55473  0.13575  0.54267  Biso   1.000  C
  C97      1.0000 0.69034  0.04625  0.54113  Biso   1.000  C
  C98      1.0000 0.50113  0.63682  0.10515  Biso   1.000  C
  C99      1.0000 0.10138  0.46093  0.70694  Biso   1.000  C
  C100     1.0000 0.19929  0.03781  0.01592  Biso   1.000  C
  C101     1.0000 0.02534  0.64166  0.43846  Biso   1.000  C
  C102     1.0000 0.60198  0.45412  0.84468  Biso   1.000  C
  C103     1.0000 0.83750  0.54494  0.51709  Biso   1.000  C
  C104     1.0000 0.01077  0.13927  0.11146  Biso   1.000  C
  C105     1.0000 0.42434  0.96059  0.70819  Biso   1.000  C
  C106     1.0000 0.32873  0.53700  0.00672  Biso   1.000  C
  C107     1.0000 0.50182  0.13867  0.45715  Biso   1.000  C
  C108     1.0000 0.92596  0.97064  0.84830  Biso   1.000  C
  C109     1.0000 0.33839  0.86841  0.51799  Biso   1.000  C
  C110     1.0000 0.52405  0.27180  0.95393  Biso   1.000  C
  C111     1.0000 0.92266  0.46557  0.34051  Biso   1.000  C
  C112     1.0000 0.82634  0.88186  0.04252  Biso   1.000  C
  C113     1.0000 0.00375  0.28008  0.61309  Biso   1.000  C
  C114     1.0000 0.42142  0.45011  0.20118  Biso   1.000  C
  C115     1.0000 0.18984  0.36812  0.52413  Biso   1.000  C
  C116     1.0000 0.99578  0.78365  0.94071  Biso   1.000  C
  C117     1.0000 0.59910  0.95097  0.35233  Biso   1.000  C
  C118     1.0000 0.68968  0.38028  0.03626  Biso   1.000  C
  C119     1.0000 0.52045  0.77466  0.60761  Biso   1.000  C
  C120     1.0000 0.10448  0.95634  0.20564  Biso   1.000  C
  C121     1.0000 0.83445  0.97108  0.11916  Biso   1.000  C
  C122     1.0000 0.09581  0.77327  0.01932  Biso   1.000  C
  C123     1.0000 0.01393  0.04999  0.84437  Biso   1.000  C
  C124     1.0000 0.32969  0.96274  0.43861  Biso   1.000  C
  C125     1.0000 0.60904  0.77346  0.52590  Biso   1.000  C
  C126     1.0000 0.51433  0.03529  0.71979  Biso   1.000  C
  C127     1.0000 0.69182  0.47068  0.11537  Biso   1.000  C
  C128     1.0000 0.42604  0.27085  0.03304  Biso   1.000  C
  C129     1.0000 0.50348  0.53344  0.83951  Biso   1.000  C
  C130     1.0000 0.19221  0.44843  0.43678  Biso   1.000  C
  C131     1.0000 0.91671  0.27532  0.52408  Biso   1.000  C
  C132     1.0000 0.01061  0.55236  0.71281  Biso   1.000  C
  C133     1.0000 0.19498  0.96027  0.93388  Biso   1.000  C
  C134     1.0000 0.93257  0.14425  0.02200  Biso   1.000  C
  C135     1.0000 0.01657  0.87990  0.20958  Biso   1.000  C
  C136     1.0000 0.69607  0.96115  0.61913  Biso   1.000  C
  C137     1.0000 0.41030  0.13857  0.55285  Biso   1.000  C
  C138     1.0000 0.50982  0.87307  0.34130  Biso   1.000  C
  C139     1.0000 0.32848  0.43958  0.93444  Biso   1.000  C
  C140     1.0000 0.59694  0.64135  0.01780  Biso   1.000  C
  C141     1.0000 0.52684  0.37085  0.21410  Biso   1.000  C
  C142     1.0000 0.83216  0.46055  0.61195  Biso   1.000  C
  C143     1.0000 0.10900  0.63691  0.51601  Biso   1.000  C
  C144     1.0000 0.01233  0.37771  0.34680  Biso   1.000  C
  C145     1.0000 0.32717  0.45705  0.10525  Biso   1.000  C
  C146     1.0000 0.09096  0.27546  0.53036  Biso   1.000  C
  C147     1.0000 0.51594  0.04578  0.36068  Biso   1.000  C
  C148     1.0000 0.83254  0.45291  0.43843  Biso   1.000  C
  C149     1.0000 0.59985  0.27897  0.04194  Biso   1.000  C
  C150     1.0000 0.02621  0.05167  0.20831  Biso   1.000  C
  C151     1.0000 0.19606  0.94077  0.10512  Biso   1.000  C
  C152     1.0000 0.43590  0.77441  0.51533  Biso   1.000  C
  C153     1.0000 0.01366  0.54957  0.34071  Biso   1.000  C
  C154     1.0000 0.69541  0.96322  0.44857  Biso   1.000  C
  C155     1.0000 0.92142  0.78597  0.04076  Biso   1.000  C
  C156     1.0000 0.49986  0.54112  0.20061  Biso   1.000  C
  C157     1.0000 0.69545  0.45529  0.94340  Biso   1.000  C
  C158     1.0000 0.93486  0.63865  0.52295  Biso   1.000  C
  C159     1.0000 0.51708  0.86701  0.70588  Biso   1.000  C
  C160     1.0000 0.19471  0.46347  0.60917  Biso   1.000  C
  C161     1.0000 0.42565  0.63008  0.01662  Biso   1.000  C
  C162     1.0000 0.01051  0.87737  0.84496  Biso   1.000  C
  C163     1.0000 0.83099  0.96506  0.94661  Biso   1.000  C
  C164     1.0000 0.58792  0.13467  0.54317  Biso   1.000  C
  C165     1.0000 0.01391  0.37764  0.70612  Biso   1.000  C
  C166     1.0000 0.33004  0.95773  0.61128  Biso   1.000  C
  C167     1.0000 0.10585  0.13448  0.01679  Biso   1.000  C
  C168     1.0000 0.52625  0.36397  0.85319  Biso   1.000  C
  C169     1.0000 0.02039  0.78554  0.11057  Biso   1.000  C
  C170     1.0000 0.09768  0.96935  0.84334  Biso   1.000  C
  C171     1.0000 0.83406  0.05458  0.01995  Biso   1.000  C
  C172     1.0000 0.51937  0.77041  0.43072  Biso   1.000  C
  C173     1.0000 0.59676  0.96193  0.71269  Biso   1.000  C
  C174     1.0000 0.32212  0.03694  0.53239  Biso   1.000  C
  C175     1.0000 0.50635  0.27449  0.12609  Biso   1.000  C
  C176     1.0000 0.42986  0.43495  0.84324  Biso   1.000  C
  C177     1.0000 0.69730  0.55011  0.02064  Biso   1.000  C
  C178     1.0000 0.01040  0.27816  0.43883  Biso   1.000  C
  C179     1.0000 0.92473  0.46614  0.70968  Biso   1.000  C
  C180     1.0000 0.20183  0.53834  0.51531  Biso   1.000  C
  C181     1.0000 0.02449  0.14355  0.93826  Biso   1.000  C
  C182     1.0000 0.92908  0.96632  0.21393  Biso   1.000  C
  C183     1.0000 0.19521  0.86514  0.01031  Biso   1.000  C
  C184     1.0000 0.50422  0.13921  0.62974  Biso   1.000  C
  C185     1.0000 0.42438  0.96991  0.34264  Biso   1.000  C
  C186     1.0000 0.70035  0.87504  0.51994  Biso   1.000  C
  C187     1.0000 0.51724  0.63211  0.93146  Biso   1.000  C
  C188     1.0000 0.59444  0.46626  0.20912  Biso   1.000  C
  C189     1.0000 0.33137  0.36623  0.03659  Biso   1.000  C
  C190     1.0000 0.01930  0.64429  0.61298  Biso   1.000  C
  C191     1.0000 0.09597  0.45567  0.34386  Biso   1.000  C
  C192     1.0000 0.82071  0.37340  0.52949  Biso   1.000  C
  C193     1.0000 0.85752  0.96600  0.93060  Biso   1.000  C
  C194     1.0000 0.90556  0.81381  0.04113  Biso   1.000  C
  C195     1.0000 0.00978  0.86124  0.87252  Biso   1.000  C
  C196     1.0000 0.35734  0.95814  0.62688  Biso   1.000  C
  C197     1.0000 0.41976  0.80154  0.51509  Biso   1.000  C
  C198     1.0000 0.51557  0.85189  0.67748  Biso   1.000  C
  C199     1.0000 0.66769  0.45764  0.92775  Biso   1.000  C
  C200     1.0000 0.61344  0.30742  0.04312  Biso   1.000  C
  C201     1.0000 0.52614  0.35133  0.88172  Biso   1.000  C
  C202     1.0000 0.16725  0.46324  0.62659  Biso   1.000  C
  C203     1.0000 0.10749  0.30295  0.52619  Biso   1.000  C
  C204     1.0000 0.01279  0.36194  0.67981  Biso   1.000  C
  C205     1.0000 0.16928  0.94129  0.12163  Biso   1.000  C
  C206     1.0000 0.12074  0.10647  0.01795  Biso   1.000  C
  C207     1.0000 0.02608  0.06533  0.17998  Biso   1.000  C
  C208     1.0000 0.66717  0.95796  0.43315  Biso   1.000  C
  C209     1.0000 0.60642  0.10811  0.54393  Biso   1.000  C
  C210     1.0000 0.51272  0.06071  0.38960  Biso   1.000  C
  C211     1.0000 0.35283  0.45731  0.12229  Biso   1.000  C
  C212     1.0000 0.40868  0.60454  0.01278  Biso   1.000  C
  C213     1.0000 0.50080  0.55552  0.17191  Biso   1.000  C
  C214     1.0000 0.85919  0.45620  0.42123  Biso   1.000  C
  C215     1.0000 0.91932  0.61051  0.52318  Biso   1.000  C
  C216     1.0000 0.01738  0.56453  0.36800  Biso   1.000  C
  C217     1.0000 0.11440  0.96698  0.86929  Biso   1.000  C
  C218     1.0000 0.86114  0.06958  0.01969  Biso   1.000  C
  C219     1.0000 0.01794  0.81258  0.12773  Biso   1.000  C
  C220     1.0000 0.61450  0.96121  0.68585  Biso   1.000  C
  C221     1.0000 0.34917  0.05478  0.53873  Biso   1.000  C
  C222     1.0000 0.51653  0.79808  0.41646  Biso   1.000  C
  C223     1.0000 0.41351  0.43727  0.87011  Biso   1.000  C
  C224     1.0000 0.66881  0.56507  0.01986  Biso   1.000  C
  C225     1.0000 0.51274  0.30233  0.14063  Biso   1.000  C
  C226     1.0000 0.90998  0.46594  0.68253  Biso   1.000  C
  C227     1.0000 0.17661  0.55583  0.51075  Biso   1.000  C
  C228     1.0000 0.01113  0.30585  0.42450  Biso   1.000  C
  C229     1.0000 0.91113  0.96668  0.18699  Biso   1.000  C
  C230     1.0000 0.16712  0.85041  0.01145  Biso   1.000  C
  C231     1.0000 0.01917  0.11820  0.92193  Biso   1.000  C
  C232     1.0000 0.40829  0.97309  0.37005  Biso   1.000  C
  C233     1.0000 0.67451  0.85633  0.52321  Biso   1.000  C
  C234     1.0000 0.50294  0.11217  0.64477  Biso   1.000  C
  C235     1.0000 0.61199  0.46949  0.18242  Biso   1.000  C
  C236     1.0000 0.35902  0.35020  0.03623  Biso   1.000  C
  C237     1.0000 0.51279  0.60533  0.91661  Biso   1.000  C
  C238     1.0000 0.11103  0.45331  0.37098  Biso   1.000  C
  C239     1.0000 0.84937  0.35572  0.52763  Biso   1.000  C
  C240     1.0000 0.01996  0.61711  0.62971  Biso   1.000  C
  C241     1.0000 0.61680  0.45416  0.87306  Biso   1.000  C
  C242     1.0000 0.86430  0.55989  0.52160  Biso   1.000  C
  C243     1.0000 0.51761  0.80168  0.62231  Biso   1.000  C
  C244     1.0000 0.11689  0.46319  0.67990  Biso   1.000  C
  C245     1.0000 0.35694  0.55312  0.00828  Biso   1.000  C
  C246     1.0000 0.00119  0.81130  0.92598  Biso   1.000  C
  C247     1.0000 0.90918  0.96642  0.87610  Biso   1.000  C
  C248     1.0000 0.66278  0.06028  0.54591  Biso   1.000  C
  C249     1.0000 0.00259  0.30802  0.62859  Biso   1.000  C
  C250     1.0000 0.40855  0.95945  0.68019  Biso   1.000  C
  C251     1.0000 0.17222  0.05421  0.01529  Biso   1.000  C
  C252     1.0000 0.52183  0.30020  0.93951  Biso   1.000  C
  C253     1.0000 0.40638  0.45496  0.17425  Biso   1.000  C
  C254     1.0000 0.16091  0.35500  0.52347  Biso   1.000  C
  C255     1.0000 0.50320  0.11102  0.44058  Biso   1.000  C
  C256     1.0000 0.90665  0.46266  0.36782  Biso   1.000  C
  C257     1.0000 0.66261  0.36374  0.04075  Biso   1.000  C
  C258     1.0000 0.01407  0.11277  0.12771  Biso   1.000  C
  C259     1.0000 0.11797  0.94766  0.17701  Biso   1.000  C
  C260     1.0000 0.36608  0.85378  0.51524  Biso   1.000  C
  C261     1.0000 0.02362  0.61518  0.42224  Biso   1.000  C
  C262     1.0000 0.61542  0.95108  0.37978  Biso   1.000  C
  C263     1.0000 0.85350  0.86513  0.04093  Biso   1.000  C
  C264     1.0000 0.49911  0.60823  0.12087  Biso   1.000  C
  C265     1.0000 0.01155  0.06593  0.87248  Biso   1.000  C
  C266     1.0000 0.86120  0.97038  0.13480  Biso   1.000  C
  C267     1.0000 0.11181  0.80072  0.01971  Biso   1.000  C
  C268     1.0000 0.50824  0.05429  0.69467  Biso   1.000  C
  C269     1.0000 0.35656  0.96773  0.42322  Biso   1.000  C
  C270     1.0000 0.62418  0.80171  0.52771  Biso   1.000  C
  C271     1.0000 0.50487  0.55047  0.86644  Biso   1.000  C
  C272     1.0000 0.66416  0.47201  0.13210  Biso   1.000  C
  C273     1.0000 0.41103  0.29831  0.03482  Biso   1.000  C
  C274     1.0000 0.01494  0.56631  0.68432  Biso   1.000  C
  C275     1.0000 0.16460  0.44656  0.42409  Biso   1.000  C
  C276     1.0000 0.90098  0.30232  0.52039  Biso   1.000  C
  C277     1.0000 0.01649  0.86513  0.18152  Biso   1.000  C
  C278     1.0000 0.16750  0.96439  0.91984  Biso   1.000  C
  C279     1.0000 0.91493  0.11832  0.02081  Biso   1.000  C
  C280     1.0000 0.51489  0.85481  0.36662  Biso   1.000  C
  C281     1.0000 0.66714  0.96183  0.63420  Biso   1.000  C
  C282     1.0000 0.39681  0.10966  0.54846  Biso   1.000  C
  C283     1.0000 0.52278  0.35307  0.18950  Biso   1.000  C
  C284     1.0000 0.35631  0.43484  0.91978  Biso   1.000  C
  C285     1.0000 0.61538  0.61572  0.01695  Biso   1.000  C
  C286     1.0000 0.00906  0.35980  0.37309  Biso   1.000  C
  C287     1.0000 0.86012  0.46344  0.62946  Biso   1.000  C
  C288     1.0000 0.12496  0.60957  0.51344  Biso   1.000  C
  C289     1.0000 0.36656  0.82281  0.51201  Biso   1.000  C
  C290     1.0000 0.52477  0.30042  0.90844  Biso   1.000  C
  C291     1.0000 0.87561  0.45894  0.36702  Biso   1.000  C
  C292     1.0000 0.85242  0.83336  0.04129  Biso   1.000  C
  C293     1.0000 0.00941  0.30795  0.65978  Biso   1.000  C
  C294     1.0000 0.37325  0.45572  0.17467  Biso   1.000  C
  C295     1.0000 0.16153  0.32427  0.52820  Biso   1.000  C
  C296     1.0000 0.00217  0.80991  0.89440  Biso   1.000  C
  C297     1.0000 0.64685  0.95166  0.37946  Biso   1.000  C
  C298     1.0000 0.66544  0.33292  0.04095  Biso   1.000  C
  C299     1.0000 0.51612  0.80011  0.65292  Biso   1.000  C
  C300     1.0000 0.14928  0.94474  0.17630  Biso   1.000  C
  C301     1.0000 0.66138  0.09161  0.54316  Biso   1.000  C
  C302     1.0000 0.50101  0.60799  0.15160  Biso   1.000  C
  C303     1.0000 0.14770  0.46200  0.68037  Biso   1.000  C
  C304     1.0000 0.17344  0.08658  0.01652  Biso   1.000  C
  C305     1.0000 0.02149  0.61659  0.39117  Biso   1.000  C
  C306     1.0000 0.64817  0.45349  0.87418  Biso   1.000  C
  C307     1.0000 0.86600  0.59073  0.51935  Biso   1.000  C
  C308     1.0000 0.01670  0.11557  0.15779  Biso   1.000  C
  C309     1.0000 0.37682  0.96122  0.68032  Biso   1.000  C
  C310     1.0000 0.35568  0.58476  0.00989  Biso   1.000  C
  C311     1.0000 0.50738  0.11340  0.40988  Biso   1.000  C
  C312     1.0000 0.87763  0.96702  0.87663  Biso   1.000  C
  C313     1.0000 0.16301  0.44596  0.39173  Biso   1.000  C
  C314     1.0000 0.36566  0.10801  0.54674  Biso   1.000  C
  C315     1.0000 0.51836  0.32331  0.19335  Biso   1.000  C
  C316     1.0000 0.66505  0.47092  0.16381  Biso   1.000  C
  C317     1.0000 0.88318  0.12074  0.02132  Biso   1.000  C
  C318     1.0000 0.01025  0.32912  0.37077  Biso   1.000  C
  C319     1.0000 0.35586  0.97034  0.39173  Biso   1.000  C
  C320     1.0000 0.15592  0.60969  0.50877  Biso   1.000  C
  C321     1.0000 0.01641  0.83326  0.18162  Biso   1.000  C
  C322     1.0000 0.85902  0.96636  0.16634  Biso   1.000  C
  C323     1.0000 0.64653  0.61834  0.01917  Biso   1.000  C
  C324     1.0000 0.51385  0.82287  0.36451  Biso   1.000  C
  C325     1.0000 0.85786  0.45893  0.66011  Biso   1.000  C
  C326     1.0000 0.65518  0.80325  0.52117  Biso   1.000  C
  C327     1.0000 0.50443  0.58279  0.86508  Biso   1.000  C
  C328     1.0000 0.35854  0.43527  0.88831  Biso   1.000  C
  C329     1.0000 0.14399  0.79870  0.01782  Biso   1.000  C
  C330     1.0000 0.01176  0.59813  0.68341  Biso   1.000  C
  C331     1.0000 0.66757  0.96191  0.66612  Biso   1.000  C
  C332     1.0000 0.86902  0.30231  0.52312  Biso   1.000  C
  C333     1.0000 0.01498  0.09740  0.87016  Biso   1.000  C
  C334     1.0000 0.16649  0.96969  0.88943  Biso   1.000  C
  C335     1.0000 0.37947  0.29684  0.03746  Biso   1.000  C
  C336     1.0000 0.51134  0.08627  0.69556  Biso   1.000  C
  C337     1.0000 0.66896  0.45522  0.89595  Biso   1.000  C
  C338     1.0000 0.88805  0.61165  0.52007  Biso   1.000  C
  C339     1.0000 0.51566  0.82069  0.67602  Biso   1.000  C
  C340     1.0000 0.16887  0.46131  0.65834  Biso   1.000  C
  C341     1.0000 0.37760  0.60596  0.01310  Biso   1.000  C
  C342     1.0000 0.00637  0.83049  0.87254  Biso   1.000  C
  C343     1.0000 0.85629  0.96620  0.89952  Biso   1.000  C
  C344     1.0000 0.63779  0.11013  0.54432  Biso   1.000  C
  C345     1.0000 0.01255  0.33019  0.68073  Biso   1.000  C
  C346     1.0000 0.35538  0.96097  0.65883  Biso   1.000  C
  C347     1.0000 0.15145  0.10789  0.01937  Biso   1.000  C
  C348     1.0000 0.52621  0.32112  0.88432  Biso   1.000  C
  C349     1.0000 0.35186  0.45556  0.15360  Biso   1.000  C
  C350     1.0000 0.13998  0.30297  0.52930  Biso   1.000  C
  C351     1.0000 0.51073  0.09251  0.38785  Biso   1.000  C
  C352     1.0000 0.85605  0.45616  0.38966  Biso   1.000  C
  C353     1.0000 0.64499  0.30953  0.04136  Biso   1.000  C
  C354     1.0000 0.02267  0.09594  0.18113  Biso   1.000  C
  C355     1.0000 0.17032  0.94195  0.15390  Biso   1.000  C
  C356     1.0000 0.38840  0.80150  0.51354  Biso   1.000  C
  C357     1.0000 0.01790  0.59566  0.36854  Biso   1.000  C
  C358     1.0000 0.66698  0.95374  0.40153  Biso   1.000  C
  C359     1.0000 0.87438  0.81320  0.04043  Biso   1.000  C
  C360     1.0000 0.50103  0.58717  0.17259  Biso   1.000  C
  C361     1.0000 0.01775  0.11950  0.89093  Biso   1.000  C
  C362     1.0000 0.88081  0.96754  0.18753  Biso   1.000  C
  C363     1.0000 0.16645  0.81928  0.01527  Biso   1.000  C
  C364     1.0000 0.51040  0.11050  0.67581  Biso   1.000  C
  C365     1.0000 0.37727  0.97188  0.36971  Biso   1.000  C
  C366     1.0000 0.67573  0.82523  0.52153  Biso   1.000  C
  C367     1.0000 0.50853  0.60572  0.88561  Biso   1.000  C
  C368     1.0000 0.64270  0.46978  0.18522  Biso   1.000  C
  C369     1.0000 0.35761  0.31896  0.03789  Biso   1.000  C
  C370     1.0000 0.01315  0.61875  0.66081  Biso   1.000  C
  C371     1.0000 0.14086  0.44788  0.37033  Biso   1.000  C
  C372     1.0000 0.84689  0.32399  0.52406  Biso   1.000  C
  C373     1.0000 0.01801  0.81270  0.15867  Biso   1.000  C
  C374     1.0000 0.14508  0.97177  0.86828  Biso   1.000  C
  C375     1.0000 0.86140  0.09996  0.02010  Biso   1.000  C
  C376     1.0000 0.51537  0.79926  0.38416  Biso   1.000  C
  C377     1.0000 0.64641  0.96463  0.68772  Biso   1.000  C
  C378     1.0000 0.34549  0.08551  0.54195  Biso   1.000  C
  C379     1.0000 0.51426  0.30150  0.17260  Biso   1.000  C
  C380     1.0000 0.38130  0.43398  0.86808  Biso   1.000  C
  C381     1.0000 0.66872  0.59690  0.01941  Biso   1.000  C
  C382     1.0000 0.01031  0.30746  0.39203  Biso   1.000  C
  C383     1.0000 0.87897  0.46056  0.68191  Biso   1.000  C
  C384     1.0000 0.17715  0.58699  0.50855  Biso   1.000  C
  C385     1.0000 0.20017  0.10161  0.01767  Biso   1.000  C
  C386     1.0000 0.01258  0.14355  0.17234  Biso   1.000  C
  C387     1.0000 0.16591  0.94771  0.20237  Biso   1.000  C
  C388     1.0000 0.68760  0.10849  0.54070  Biso   1.000  C
  C389     1.0000 0.50706  0.14008  0.39502  Biso   1.000  C
  C390     1.0000 0.66406  0.95105  0.35256  Biso   1.000  C
  C391     1.0000 0.32819  0.59985  0.01034  Biso   1.000  C
  C392     1.0000 0.49919  0.63482  0.16648  Biso   1.000  C
  C393     1.0000 0.35755  0.45479  0.20236  Biso   1.000  C
  C394     1.0000 0.83982  0.60734  0.51557  Biso   1.000  C
  C395     1.0000 0.02273  0.64389  0.37508  Biso   1.000  C
  C396     1.0000 0.85929  0.45943  0.34132  Biso   1.000  C
  C397     1.0000 0.82593  0.81780  0.04494  Biso   1.000  C
  C398     1.0000 0.00146  0.78297  0.87831  Biso   1.000  C
  C399     1.0000 0.86149  0.96912  0.85074  Biso   1.000  C
  C400     1.0000 0.33949  0.80620  0.51082  Biso   1.000  C
  C401     1.0000 0.51639  0.77205  0.66719  Biso   1.000  C
  C402     1.0000 0.36106  0.96417  0.70708  Biso   1.000  C
  C403     1.0000 0.69291  0.31825  0.03804  Biso   1.000  C
  C404     1.0000 0.52638  0.27244  0.89486  Biso   1.000  C
  C405     1.0000 0.66514  0.45029  0.84659  Biso   1.000  C
  C406     1.0000 0.18707  0.30734  0.53239  Biso   1.000  C
  C407     1.0000 0.01471  0.28161  0.67687  Biso   1.000  C
  C408     1.0000 0.16460  0.45941  0.70601  Biso   1.000  C
  C409     1.0000 0.15937  0.97654  0.84251  Biso   1.000  C
  C410     1.0000 0.83447  0.11690  0.02074  Biso   1.000  C
  C411     1.0000 0.01707  0.78561  0.17427  Biso   1.000  C
  C412     1.0000 0.66187  0.96965  0.71403  Biso   1.000  C
  C413     1.0000 0.31756  0.09856  0.54553  Biso   1.000  C
  C414     1.0000 0.51007  0.77470  0.36759  Biso   1.000  C
  C415     1.0000 0.36706  0.43091  0.84055  Biso   1.000  C
  C416     1.0000 0.69449  0.61296  0.02174  Biso   1.000  C
  C417     1.0000 0.51137  0.27541  0.18983  Biso   1.000  C
  C418     1.0000 0.86284  0.45520  0.70869  Biso   1.000  C
  C419     1.0000 0.20450  0.60240  0.50701  Biso   1.000  C
  C420     1.0000 0.00914  0.28128  0.37532  Biso   1.000  C
  C421     1.0000 0.86547  0.96577  0.21546  Biso   1.000  C
  C422     1.0000 0.19302  0.80299  0.01667  Biso   1.000  C
  C423     1.0000 0.02373  0.14575  0.87524  Biso   1.000  C
  C424     1.0000 0.36278  0.97355  0.34279  Biso   1.000  C
  C425     1.0000 0.70272  0.81138  0.51382  Biso   1.000  C
  C426     1.0000 0.51632  0.13487  0.69317  Biso   1.000  C
  C427     1.0000 0.65814  0.46704  0.21253  Biso   1.000  C
  C428     1.0000 0.33122  0.30336  0.03837  Biso   1.000  C
  C429     1.0000 0.50750  0.63271  0.86886  Biso   1.000  C
  C430     1.0000 0.15735  0.44682  0.34244  Biso   1.000  C
  C431     1.0000 0.82017  0.30934  0.52526  Biso   1.000  C
  C432     1.0000 0.00814  0.64690  0.67498  Biso   1.000  C
  C433     1.0000 0.01968  0.11286  0.84316  Biso   1.000  C
  C434     1.0000 0.83193  0.96450  0.18336  Biso   1.000  C
  C435     1.0000 0.15901  0.77147  0.01797  Biso   1.000  C
  C436     1.0000 0.51766  0.09942  0.72288  Biso   1.000  C
  C437     1.0000 0.32913  0.97118  0.37551  Biso   1.000  C
  C438     1.0000 0.67089  0.77792  0.51375  Biso   1.000  C
  C439     1.0000 0.50111  0.59808  0.83756  Biso   1.000  C
  C440     1.0000 0.69120  0.46816  0.17820  Biso   1.000  C
  C441     1.0000 0.36479  0.27020  0.03624  Biso   1.000  C
  C442     1.0000 0.00691  0.61495  0.71038  Biso   1.000  C
  C443     1.0000 0.19007  0.44468  0.37500  Biso   1.000  C
  C444     1.0000 0.85307  0.27480  0.52278  Biso   1.000  C
  C445     1.0000 0.01607  0.81691  0.20830  Biso   1.000  C
  C446     1.0000 0.19370  0.97041  0.87282  Biso   1.000  C
  C447     1.0000 0.86884  0.14876  0.02403  Biso   1.000  C
  C448     1.0000 0.50884  0.80913  0.33733  Biso   1.000  C
  C449     1.0000 0.69386  0.96349  0.68207  Biso   1.000  C
  C450     1.0000 0.34759  0.13335  0.55022  Biso   1.000  C
  C451     1.0000 0.52180  0.30787  0.22107  Biso   1.000  C
  C452     1.0000 0.33106  0.43484  0.87223  Biso   1.000  C
  C453     1.0000 0.65981  0.64628  0.02301  Biso   1.000  C
  C454     1.0000 0.01248  0.31455  0.34348  Biso   1.000  C
  C455     1.0000 0.83067  0.45380  0.67516  Biso   1.000  C
  C456     1.0000 0.17289  0.63598  0.50723  Biso   1.000  C
  C457     1.0000 0.01669  0.61246  0.34202  Biso   1.000  C
  C458     1.0000 0.32831  0.96315  0.67387  Biso   1.000  C
  C459     1.0000 0.66268  0.28344  0.04110  Biso   1.000  C
  C460     1.0000 0.49932  0.60275  0.19978  Biso   1.000  C
  C461     1.0000 0.82869  0.96809  0.88473  Biso   1.000  C
  C462     1.0000 0.15383  0.27584  0.53518  Biso   1.000  C
  C463     1.0000 0.51524  0.10879  0.36297  Biso   1.000  C
  C464     1.0000 0.19667  0.45895  0.67199  Biso   1.000  C
  C465     1.0000 0.85795  0.78445  0.04140  Biso   1.000  C
  C466     1.0000 0.01960  0.11249  0.20703  Biso   1.000  C
  C467     1.0000 0.69623  0.45356  0.87934  Biso   1.000  C
  C468     1.0000 0.37365  0.77370  0.51170  Biso   1.000  C
  C469     1.0000 0.01723  0.31603  0.70755  Biso   1.000  C
  C470     1.0000 0.69441  0.95615  0.38536  Biso   1.000  C
  C471     1.0000 0.36135  0.63206  0.01515  Biso   1.000  C
  C472     1.0000 0.52666  0.30314  0.85850  Biso   1.000  C
  C473     1.0000 0.19844  0.94133  0.16768  Biso   1.000  C
  C474     1.0000 0.87247  0.63883  0.51902  Biso   1.000  C
  C475     1.0000 0.51459  0.80280  0.70258  Biso   1.000  C
  C476     1.0000 0.82761  0.45481  0.37578  Biso   1.000  C
  C477     1.0000 0.16604  0.13459  0.02112  Biso   1.000  C
  C478     1.0000 0.00588  0.81562  0.84572  Biso   1.000  C
  C479     1.0000 0.32553  0.45421  0.16928  Biso   1.000  C
  C480     1.0000 0.65316  0.13853  0.54304  Biso   1.000  C
  C481     1.0000 0.38953  0.74666  0.51197  Biso   1.000  C
  C482     1.0000 0.53056  0.31501  0.82897  Biso   1.000  C
  C483     1.0000 0.80287  0.45161  0.39473  Biso   1.000  C
  C484     1.0000 0.87325  0.75846  0.03879  Biso   1.000  C
  C485     1.0000 0.01751  0.33199  0.73435  Biso   1.000  C
  C486     1.0000 0.29802  0.45562  0.15264  Biso   1.000  C
  C487     1.0000 0.13648  0.24909  0.54161  Biso   1.000  C
  C488     1.0000 0.00856  0.83065  0.81805  Biso   1.000  C
  C489     1.0000 0.72186  0.96413  0.40068  Biso   1.000  C
  C490     1.0000 0.64823  0.25548  0.03934  Biso   1.000  C
  C491     1.0000 0.51284  0.81879  0.73028  Biso   1.000  C
  C492     1.0000 0.22531  0.93724  0.15174  Biso   1.000  C
  C493     1.0000 0.63475  0.16524  0.54149  Biso   1.000  C
  C494     1.0000 0.50035  0.58811  0.22792  Biso   1.000  C
  C495     1.0000 0.22291  0.45903  0.65463  Biso   1.000  C
  C496     1.0000 0.15104  0.16329  0.01938  Biso   1.000  C
  C497     1.0000 0.01311  0.59833  0.31429  Biso   1.000  C
  C498     1.0000 0.72412  0.45124  0.89486  Biso   1.000  C
  C499     1.0000 0.88796  0.66426  0.52555  Biso   1.000  C
  C500     1.0000 0.02260  0.09850  0.23432  Biso   1.000  C
  C501     1.0000 0.30212  0.96107  0.65823  Biso   1.000  C
  C502     1.0000 0.37769  0.65809  0.02101  Biso   1.000  C
  C503     1.0000 0.51749  0.09254  0.33447  Biso   1.000  C
  C504     1.0000 0.79997  0.96654  0.90137  Biso   1.000  C
  C505     1.0000 0.65071  0.44975  0.81884  Biso   1.000  C
  C506     1.0000 0.81309  0.59271  0.51132  Biso   1.000  C
  C507     1.0000 0.51726  0.74431  0.65290  Biso   1.000  C
  C508     1.0000 0.14978  0.45980  0.73400  Biso   1.000  C
  C509     1.0000 0.30110  0.58286  0.00641  Biso   1.000  C
  C510     1.0000 0.99551  0.75683  0.89344  Biso   1.000  C
  C511     1.0000 0.87654  0.97224  0.82303  Biso   1.000  C
  C512     1.0000 0.71595  0.09429  0.53584  Biso   1.000  C
  C513     1.0000 0.01488  0.25447  0.66172  Biso   1.000  C
  C514     1.0000 0.37651  0.97097  0.73445  Biso   1.000  C
  C515     1.0000 0.22769  0.08458  0.01522  Biso   1.000  C
  C516     1.0000 0.52707  0.24419  0.90937  Biso   1.000  C
  C517     1.0000 0.37298  0.44854  0.22885  Biso   1.000  C
  C518     1.0000 0.21454  0.32191  0.52890  Biso   1.000  C
  C519     1.0000 0.50569  0.16738  0.41164  Biso   1.000  C
  C520     1.0000 0.87640  0.46460  0.31405  Biso   1.000  C
  C521     1.0000 0.71923  0.33490  0.03376  Biso   1.000  C
  C522     1.0000 0.00479  0.16999  0.15522  Biso   1.000  C
  C523     1.0000 0.15193  0.95517  0.23005  Biso   1.000  C
  C524     1.0000 0.31122  0.82069  0.51022  Biso   1.000  C
  C525     1.0000 0.02387  0.67088  0.39085  Biso   1.000  C
  C526     1.0000 0.64924  0.94647  0.32472  Biso   1.000  C
  C527     1.0000 0.79964  0.83476  0.04826  Biso   1.000  C
  C528     1.0000 0.49628  0.66251  0.15177  Biso   1.000  C
  C529     1.0000 0.80716  0.10139  0.01897  Biso   1.000  C
  C530     1.0000 0.01997  0.75896  0.15884  Biso   1.000  C
  C531     1.0000 0.14294  0.98230  0.81711  Biso   1.000  C
  C532     1.0000 0.29081  0.08052  0.54187  Biso   1.000  C
  C533     1.0000 0.51379  0.74551  0.38063  Biso   1.000  C
  C534     1.0000 0.64433  0.97052  0.73978  Biso   1.000  C
  C535     1.0000 0.72313  0.59881  0.02294  Biso   1.000  C
  C536     1.0000 0.50574  0.24764  0.17440  Biso   1.000  C
  C537     1.0000 0.38400  0.42672  0.81388  Biso   1.000  C
  C538     1.0000 0.23091  0.58451  0.50977  Biso   1.000  C
  C539     1.0000 0.00999  0.25398  0.38983  Biso   1.000  C
  C540     1.0000 0.87783  0.45551  0.73717  Biso   1.000  C
  C541     1.0000 0.22157  0.81688  0.01518  Biso   1.000  C
  C542     1.0000 0.03043  0.17243  0.89204  Biso   1.000  C
  C543     1.0000 0.88254  0.96507  0.24318  Biso   1.000  C
  C544     1.0000 0.72873  0.82872  0.50781  Biso   1.000  C
  C545     1.0000 0.51612  0.16361  0.67773  Biso   1.000  C
  C546     1.0000 0.37987  0.97514  0.31454  Biso   1.000  C
  C547     1.0000 0.30477  0.31824  0.03927  Biso   1.000  C
  C548     1.0000 0.51313  0.65939  0.88295  Biso   1.000  C
  C549     1.0000 0.64037  0.46735  0.23787  Biso   1.000  C
  C550     1.0000 0.79213  0.32589  0.52589  Biso   1.000  C
  C551     1.0000 0.01024  0.67391  0.65757  Biso   1.000  C
  C552     1.0000 0.14089  0.44783  0.31647  Biso   1.000  C
  C553     1.0000 0.01762  0.09600  0.81643  Biso   1.000  C
  C554     1.0000 0.80505  0.96322  0.16657  Biso   1.000  C
  C555     1.0000 0.14303  0.74483  0.01663  Biso   1.000  C
  C556     1.0000 0.52383  0.08088  0.74670  Biso   1.000  C
  C557     1.0000 0.30149  0.96734  0.39145  Biso   1.000  C
  C558     1.0000 0.65699  0.74882  0.51513  Biso   1.000  C
  C559     1.0000 0.49706  0.58091  0.81184  Biso   1.000  C
  C560     1.0000 0.71937  0.46713  0.16181  Biso   1.000  C
  C561     1.0000 0.38041  0.24357  0.03192  Biso   1.000  C
  C562     1.0000 0.00291  0.60154  0.73905  Biso   1.000  C
  C563     1.0000 0.21861  0.44518  0.38895  Biso   1.000  C
  C564     1.0000 0.86990  0.24770  0.52517  Biso   1.000  C
  C565     1.0000 0.01535  0.83144  0.23638  Biso   1.000  C
  C566     1.0000 0.22187  0.96569  0.88683  Biso   1.000  C
  C567     1.0000 0.88610  0.17463  0.02735  Biso   1.000  C
  C568     1.0000 0.50638  0.82771  0.31127  Biso   1.000  C
  C569     1.0000 0.72173  0.96301  0.66803  Biso   1.000  C
  C570     1.0000 0.36111  0.16174  0.55359  Biso   1.000  C
  C571     1.0000 0.52973  0.32466  0.24645  Biso   1.000  C
  C572     1.0000 0.30282  0.44004  0.88777  Biso   1.000  C
  C573     1.0000 0.64281  0.67255  0.02228  Biso   1.000  C
  C574     1.0000 0.01435  0.33092  0.31600  Biso   1.000  C
  C575     1.0000 0.80420  0.45055  0.65798  Biso   1.000  C
  C576     1.0000 0.15766  0.66300  0.51156  Biso   1.000  C
  C577     1.0000 0.29931  0.45764  0.12101  Biso   1.000  C
  C578     1.0000 0.10524  0.24913  0.54087  Biso   1.000  C
  C579     1.0000 0.51716  0.06175  0.33335  Biso   1.000  C
  C580     1.0000 0.80413  0.44772  0.42505  Biso   1.000  C
  C581     1.0000 0.61663  0.25308  0.04005  Biso   1.000  C
  C582     1.0000 0.02667  0.06905  0.23516  Biso   1.000  C
  C583     1.0000 0.22391  0.93770  0.12025  Biso   1.000  C
  C584     1.0000 0.42076  0.74665  0.51179  Biso   1.000  C
  C585     1.0000 0.01069  0.56618  0.31409  Biso   1.000  C
  C586     1.0000 0.72075  0.96708  0.43200  Biso   1.000  C
  C587     1.0000 0.90528  0.75836  0.04040  Biso   1.000  C
  C588     1.0000 0.49864  0.55783  0.22809  Biso   1.000  C
  C589     1.0000 0.72263  0.45250  0.92716  Biso   1.000  C
  C590     1.0000 0.91946  0.66576  0.52651  Biso   1.000  C
  C591     1.0000 0.51706  0.85091  0.73184  Biso   1.000  C
  C592     1.0000 0.22191  0.46141  0.62321  Biso   1.000  C
  C593     1.0000 0.40963  0.65779  0.02106  Biso   1.000  C
  C594     1.0000 0.01057  0.86084  0.81708  Biso   1.000  C
  C595     1.0000 0.80264  0.96450  0.93238  Biso   1.000  C
  C596     1.0000 0.60265  0.16328  0.54236  Biso   1.000  C
  C597     1.0000 0.01577  0.36368  0.73318  Biso   1.000  C
  C598     1.0000 0.30290  0.95916  0.62716  Biso   1.000  C
  C599     1.0000 0.12035  0.16288  0.01674  Biso   1.000  C
  C600     1.0000 0.52874  0.34513  0.82633  Biso   1.000  C
  C601     1.0000 0.22215  0.96262  0.91786  Biso   1.000  C
  C602     1.0000 0.91850  0.17232  0.02763  Biso   1.000  C
  C603     1.0000 0.01482  0.86243  0.23638  Biso   1.000  C
  C604     1.0000 0.72214  0.96269  0.63644  Biso   1.000  C
  C605     1.0000 0.39218  0.16473  0.55576  Biso   1.000  C
  C606     1.0000 0.50625  0.85908  0.31332  Biso   1.000  C
  C607     1.0000 0.30100  0.44049  0.91867  Biso   1.000  C
  C608     1.0000 0.61068  0.67012  0.01965  Biso   1.000  C
  C609     1.0000 0.53216  0.35583  0.24124  Biso   1.000  C
  C610     1.0000 0.80488  0.45482  0.62708  Biso   1.000  C
  C611     1.0000 0.12642  0.66328  0.51409  Biso   1.000  C
  C612     1.0000 0.01531  0.36385  0.31731  Biso   1.000  C
  C613     1.0000 0.80701  0.96952  0.13567  Biso   1.000  C
  C614     1.0000 0.11068  0.74591  0.01604  Biso   1.000  C
  C615     1.0000 0.01375  0.06491  0.81701  Biso   1.000  C
  C616     1.0000 0.30178  0.96373  0.42291  Biso   1.000  C
  C617     1.0000 0.62553  0.74596  0.52247  Biso   1.000  C
  C618     1.0000 0.52213  0.04903  0.74799  Biso   1.000  C
  C619     1.0000 0.71899  0.46907  0.13026  Biso   1.000  C
  C620     1.0000 0.41191  0.24343  0.03184  Biso   1.000  C
  C621     1.0000 0.49822  0.54947  0.81269  Biso   1.000  C
  C622     1.0000 0.21874  0.44807  0.42035  Biso   1.000  C
  C623     1.0000 0.90183  0.24718  0.52553  Biso   1.000  C
  C624     1.0000 0.00359  0.56913  0.73961  Biso   1.000  C
  C625     1.0000 0.03047  0.17043  0.92281  Biso   1.000  C
  C626     1.0000 0.91391  0.96473  0.24334  Biso   1.000  C
  C627     1.0000 0.22156  0.84843  0.01074  Biso   1.000  C
  C628     1.0000 0.51140  0.16488  0.64650  Biso   1.000  C
  C629     1.0000 0.41025  0.97214  0.31441  Biso   1.000  C
  C630     1.0000 0.72837  0.86118  0.51123  Biso   1.000  C
  C631     1.0000 0.51796  0.65841  0.91493  Biso   1.000  C
  C632     1.0000 0.60925  0.46843  0.23759  Biso   1.000  C
  C633     1.0000 0.30477  0.34881  0.03944  Biso   1.000  C
  C634     1.0000 0.01610  0.67193  0.62664  Biso   1.000  C
  C635     1.0000 0.10990  0.45310  0.31546  Biso   1.000  C
  C636     1.0000 0.79232  0.35802  0.52900  Biso   1.000  C
  C637     1.0000 0.02323  0.75759  0.12723  Biso   1.000  C
  C638     1.0000 0.11089  0.97956  0.81728  Biso   1.000  C
  C639     1.0000 0.80689  0.06994  0.02008  Biso   1.000  C
  C640     1.0000 0.51860  0.74414  0.41189  Biso   1.000  C
  C641     1.0000 0.61288  0.96477  0.73974  Biso   1.000  C
  C642     1.0000 0.29405  0.04921  0.53402  Biso   1.000  C
  C643     1.0000 0.50325  0.24851  0.14327  Biso   1.000  C
  C644     1.0000 0.41656  0.42985  0.81640  Biso   1.000  C
  C645     1.0000 0.72415  0.56722  0.02334  Biso   1.000  C
  C646     1.0000 0.01015  0.25204  0.42158  Biso   1.000  C
  C647     1.0000 0.90859  0.46120  0.73577  Biso   1.000  C
  C648     1.0000 0.23011  0.55352  0.51521  Biso   1.000  C
  C649     1.0000 0.02474  0.66939  0.42408  Biso   1.000  C
  C650     1.0000 0.40742  0.96759  0.73417  Biso   1.000  C
  C651     1.0000 0.71814  0.36609  0.03319  Biso   1.000  C
  C652     1.0000 0.49622  0.66360  0.12046  Biso   1.000  C
  C653     1.0000 0.90860  0.97574  0.82212  Biso   1.000  C
  C654     1.0000 0.21627  0.35153  0.52448  Biso   1.000  C
  C655     1.0000 0.50242  0.16634  0.44194  Biso   1.000  C
  C656     1.0000 0.11728  0.45812  0.73495  Biso   1.000  C
  C657     1.0000 0.79912  0.86617  0.04783  Biso   1.000  C
  C658     1.0000 0.00421  0.16711  0.12393  Biso   1.000  C
  C659     1.0000 0.61899  0.45356  0.81751  Biso   1.000  C
  C660     1.0000 0.31040  0.85151  0.51519  Biso   1.000  C
  C661     1.0000 0.00834  0.25314  0.62973  Biso   1.000  C
  C662     1.0000 0.61742  0.94687  0.32623  Biso   1.000  C
  C663     1.0000 0.30170  0.55187  0.00153  Biso   1.000  C
  C664     1.0000 0.52804  0.24337  0.94042  Biso   1.000  C
  C665     1.0000 0.11972  0.95875  0.23262  Biso   1.000  C
  C666     1.0000 0.81213  0.56112  0.51229  Biso   1.000  C
  C667     1.0000 0.52013  0.74592  0.62173  Biso   1.000  C
  C668     1.0000 0.90811  0.46762  0.31376  Biso   1.000  C
  C669     1.0000 0.22605  0.05371  0.01611  Biso   1.000  C
  C670     1.0000 0.99001  0.75746  0.92432  Biso   1.000  C
  C671     1.0000 0.40532  0.44928  0.22916  Biso   1.000  C
  C672     1.0000 0.71704  0.06312  0.53520  Biso   1.000  C
  C673     1.0000 0.20455  0.98005  0.82625  Biso   1.000  C
  C674     1.0000 0.82315  0.16193  0.02736  Biso   1.000  C
  C675     1.0000 0.01761  0.76896  0.22113  Biso   1.000  C
  C676     1.0000 0.70833  0.96627  0.72879  Biso   1.000  C
  C677     1.0000 0.30222  0.14649  0.54833  Biso   1.000  C
  C678     1.0000 0.50445  0.76406  0.32087  Biso   1.000  C
  C679     1.0000 0.32123  0.43506  0.82392  Biso   1.000  C
  C680     1.0000 0.70838  0.65916  0.02240  Biso   1.000  C
  C681     1.0000 0.51660  0.26080  0.23495  Biso   1.000  C
  C682     1.0000 0.81779  0.44799  0.72300  Biso   1.000  C
  C683     1.0000 0.21993  0.64964  0.50537  Biso   1.000  C
  C684     1.0000 0.01125  0.26865  0.32775  Biso   1.000  C
  C685     1.0000 0.81986  0.96196  0.23100  Biso   1.000  C
  C686     1.0000 0.20436  0.75555  0.01813  Biso   1.000  C
  C687     1.0000 0.02612  0.15969  0.82901  Biso   1.000  C
  C688     1.0000 0.31618  0.96842  0.32872  Biso   1.000  C
  C689     1.0000 0.71931  0.76680  0.50802  Biso   1.000  C
  C690     1.0000 0.52434  0.14471  0.74123  Biso   1.000  C
  C691     1.0000 0.70375  0.46599  0.22498  Biso   1.000  C
  C692     1.0000 0.31754  0.25783  0.03466  Biso   1.000  C
  C693     1.0000 0.49925  0.64504  0.82214  Biso   1.000  C
  C694     1.0000 0.20295  0.44671  0.32705  Biso   1.000  C
  C695     1.0000 0.80478  0.26223  0.52832  Biso   1.000  C
  C696     1.0000 0.00311  0.66078  0.72316  Biso   1.000  C
  C697     1.0000 0.71234  0.95412  0.33827  Biso   1.000  C
  C698     1.0000 0.31367  0.64517  0.01512  Biso   1.000  C
  C699     1.0000 0.01881  0.26969  0.72412  Biso   1.000  C
  C700     1.0000 0.21302  0.94560  0.21615  Biso   1.000  C
  C701     1.0000 0.82562  0.65378  0.51080  Biso   1.000  C
  C702     1.0000 0.52567  0.25590  0.84775  Biso   1.000  C
  C703     1.0000 0.81228  0.46124  0.32892  Biso   1.000  C
  C704     1.0000 0.21401  0.14668  0.02290  Biso   1.000  C
  C705     1.0000 0.50706  0.75640  0.71374  Biso   1.000  C
  C706     1.0000 0.31017  0.45165  0.21538  Biso   1.000  C
  C707     1.0000 0.69885  0.15700  0.53986  Biso   1.000  C
  C708     1.0000 0.00099  0.77133  0.83176  Biso   1.000  C
  C709     1.0000 0.31305  0.96697  0.71860  Biso   1.000  C
  C710     1.0000 0.71173  0.27266  0.03547  Biso   1.000  C
  C711     1.0000 0.02030  0.65763  0.32764  Biso   1.000  C
  C712     1.0000 0.81476  0.96608  0.83913  Biso   1.000  C
  C713     1.0000 0.20143  0.26035  0.53613  Biso   1.000  C
  C714     1.0000 0.50118  0.65019  0.21346  Biso   1.000  C
  C715     1.0000 0.21339  0.45400  0.71715  Biso   1.000  C
  C716     1.0000 0.81126  0.77268  0.04222  Biso   1.000  C
  C717     1.0000 0.51009  0.15371  0.34715  Biso   1.000  C
  C718     1.0000 0.71159  0.45121  0.83229  Biso   1.000  C
  C719     1.0000 0.32822  0.75951  0.50743  Biso   1.000  C
  C720     1.0000 0.01636  0.15746  0.22022  Biso   1.000  C
  C721     1.0000 0.52078  0.76845  0.29342  Biso   1.000  C
  C722     1.0000 0.32763  0.44968  0.79645  Biso   1.000  C
  C723     1.0000 0.78187  0.26804  0.55076  Biso   1.000  C
  C724     1.0000 0.99728  0.74531  0.21927  Biso   1.000  C
  C725     1.0000 0.78971  0.46117  0.71832  Biso   1.000  C
  C726     1.0000 0.29332  0.26292  0.01467  Biso   1.000  C
  C727     1.0000 0.99089  0.24520  0.32669  Biso   1.000  C
  C728     1.0000 0.23258  0.99537  0.82961  Biso   1.000  C
  C729     1.0000 0.74618  0.76722  0.52287  Biso   1.000  C
  C730     1.0000 0.50687  0.26645  0.26483  Biso   1.000  C
  C731     1.0000 0.73122  0.94483  0.73235  Biso   1.000  C
  C732     1.0000 0.22674  0.75647  0.99509  Biso   1.000  C
  C733     1.0000 0.50970  0.14178  0.77069  Biso   1.000  C
  C734     1.0000 0.70244  0.45004  0.25089  Biso   1.000  C
  C735     1.0000 0.21561  0.67597  0.48821  Biso   1.000  C
  C736     1.0000 0.01400  0.18878  0.83411  Biso   1.000  C
  C737     1.0000 0.22923  0.42804  0.32741  Biso   1.000  C
  C738     1.0000 0.72922  0.65841  0.04533  Biso   1.000  C
  C739     1.0000 0.01708  0.65787  0.75141  Biso   1.000  C
  C740     1.0000 0.79625  0.94135  0.22906  Biso   1.000  C
  C741     1.0000 0.28623  0.15179  0.52173  Biso   1.000  C
  C742     1.0000 0.51542  0.64182  0.79469  Biso   1.000  C
  C743     1.0000 0.32306  0.95166  0.30205  Biso   1.000  C
  C744     1.0000 0.82490  0.18638  0.04721  Biso   1.000  C
  C745     1.0000 0.04149  0.67999  0.32749  Biso   1.000  C
  C746     1.0000 0.28741  0.98536  0.71289  Biso   1.000  C
  C747     1.0000 0.73947  0.27391  0.04844  Biso   1.000  C
  C748     1.0000 0.52260  0.67560  0.21035  Biso   1.000  C
  C749     1.0000 0.81735  0.95028  0.81225  Biso   1.000  C
  C750     1.0000 0.22761  0.26446  0.55380  Biso   1.000  C
  C751     1.0000 0.53076  0.15155  0.32274  Biso   1.000  C
  C752     1.0000 0.24048  0.43862  0.71027  Biso   1.000  C
  C753     1.0000 0.78660  0.77788  0.02467  Biso   1.000  C
  C754     1.0000 0.03258  0.18434  0.21555  Biso   1.000  C
  C755     1.0000 0.70640  0.43018  0.80800  Biso   1.000  C
  C756     1.0000 0.29920  0.75975  0.52279  Biso   1.000  C
  C757     1.0000 0.00357  0.24206  0.72260  Biso   1.000  C
  C758     1.0000 0.70804  0.96411  0.30958  Biso   1.000  C
  C759     1.0000 0.28405  0.63880  0.02624  Biso   1.000  C
  C760     1.0000 0.54707  0.25375  0.82416  Biso   1.000  C
  C761     1.0000 0.23862  0.96406  0.21180  Biso   1.000  C
  C762     1.0000 0.83257  0.68194  0.49726  Biso   1.000  C
  C763     1.0000 0.48420  0.75546  0.73590  Biso   1.000  C
  C764     1.0000 0.78541  0.47796  0.33436  Biso   1.000  C
  C765     1.0000 0.21026  0.16949  0.04447  Biso   1.000  C
  C766     1.0000 0.98194  0.77487  0.80664  Biso   1.000  C
  C767     1.0000 0.31484  0.46451  0.24338  Biso   1.000  C
  C768     1.0000 0.69285  0.18468  0.52627  Biso   1.000  C
  C769     1.0000 0.48270  0.67170  0.82575  Biso   1.000  C
  C770     1.0000 0.82198  0.43030  0.74850  Biso   1.000  C
  C771     1.0000 0.71369  0.74359  0.48706  Biso   1.000  C
  C772     1.0000 0.98351  0.68687  0.72037  Biso   1.000  C
  C773     1.0000 0.29158  0.42507  0.82815  Biso   1.000  C
  C774     1.0000 0.20427  0.73174  0.03909  Biso   1.000  C
  C775     1.0000 0.04156  0.15373  0.80123  Biso   1.000  C
  C776     1.0000 0.70681  0.98928  0.75096  Biso   1.000  C
  C777     1.0000 0.80539  0.23651  0.51100  Biso   1.000  C
  C778     1.0000 0.54023  0.17095  0.73618  Biso   1.000  C
  C779     1.0000 0.19996  0.96694  0.79826  Biso   1.000  C
  C780     1.0000 0.31902  0.23062  0.04962  Biso   1.000  C
  C781     1.0000 0.52592  0.23066  0.23017  Biso   1.000  C
  C782     1.0000 0.19997  0.46956  0.30414  Biso   1.000  C
  C783     1.0000 0.29851  0.16917  0.56999  Biso   1.000  C
  C784     1.0000 0.03142  0.26991  0.30335  Biso   1.000  C
  C785     1.0000 0.72917  0.48458  0.22057  Biso   1.000  C
  C786     1.0000 0.79753  0.16108  0.00863  Biso   1.000  C
  C787     1.0000 0.03843  0.76916  0.24470  Biso   1.000  C
  C788     1.0000 0.28693  0.98107  0.33070  Biso   1.000  C
  C789     1.0000 0.24708  0.64636  0.52158  Biso   1.000  C
  C790     1.0000 0.48805  0.73788  0.32478  Biso   1.000  C
  C791     1.0000 0.82182  0.97767  0.25809  Biso   1.000  C
  C792     1.0000 0.70731  0.68371  0.00295  Biso   1.000  C
  C793     1.0000 0.48943  0.17597  0.34654  Biso   1.000  C
  C794     1.0000 0.28178  0.43645  0.21136  Biso   1.000  C
  C795     1.0000 0.19584  0.23292  0.52335  Biso   1.000  C
  C796     1.0000 0.99736  0.15596  0.24583  Biso   1.000  C
  C797     1.0000 0.81574  0.44738  0.30067  Biso   1.000  C
  C798     1.0000 0.70783  0.24703  0.01591  Biso   1.000  C
  C799     1.0000 0.99844  0.65858  0.30339  Biso   1.000  C
  C800     1.0000 0.20896  0.93326  0.24623  Biso   1.000  C
  C801     1.0000 0.33348  0.73409  0.48845  Biso   1.000  C
  C802     1.0000 0.48567  0.65049  0.24158  Biso   1.000  C
  C803     1.0000 0.74116  0.94383  0.34589  Biso   1.000  C
  C804     1.0000 0.81501  0.74404  0.05524  Biso   1.000  C
  C805     1.0000 0.52669  0.73174  0.71492  Biso   1.000  C
  C806     1.0000 0.73898  0.46740  0.83120  Biso   1.000  C
  C807     1.0000 0.79537  0.65097  0.52037  Biso   1.000  C
  C808     1.0000 0.01711  0.74424  0.83341  Biso   1.000  C
  C809     1.0000 0.20972  0.46650  0.74584  Biso   1.000  C
  C810     1.0000 0.31966  0.67471  0.00552  Biso   1.000  C
  C811     1.0000 0.03703  0.27449  0.74908  Biso   1.000  C
  C812     1.0000 0.78906  0.98250  0.84305  Biso   1.000  C
  C813     1.0000 0.72645  0.15490  0.55721  Biso   1.000  C
  C814     1.0000 0.50461  0.23402  0.84825  Biso   1.000  C
  C815     1.0000 0.31516  0.95448  0.74795  Biso   1.000  C
  C816     1.0000 0.23881  0.14932  0.00299  Biso   1.000  C
  C817     1.0000 0.01627  0.20892  0.81209  Biso   1.000  C
  C818     1.0000 0.77685  0.93671  0.25272  Biso   1.000  C
  C819     1.0000 0.24854  0.73505  0.99549  Biso   1.000  C
  C820     1.0000 0.51233  0.16296  0.79230  Biso   1.000  C
  C821     1.0000 0.30093  0.94435  0.28184  Biso   1.000  C
  C822     1.0000 0.76647  0.74572  0.51785  Biso   1.000  C
  C823     1.0000 0.51309  0.66170  0.77306  Biso   1.000  C
  C824     1.0000 0.72438  0.45072  0.27025  Biso   1.000  C
  C825     1.0000 0.27296  0.24044  0.01182  Biso   1.000  C
  C826     1.0000 0.01133  0.67835  0.77381  Biso   1.000  C
  C827     1.0000 0.24805  0.43009  0.30367  Biso   1.000  C
  C828     1.0000 0.76156  0.24776  0.55336  Biso   1.000  C
  C829     1.0000 0.99862  0.72459  0.24039  Biso   1.000  C
  C830     1.0000 0.25451  0.99495  0.80868  Biso   1.000  C
  C831     1.0000 0.80202  0.20577  0.04986  Biso   1.000  C
  C832     1.0000 0.52314  0.74562  0.27338  Biso   1.000  C
  C833     1.0000 0.74969  0.94531  0.75549  Biso   1.000  C
  C834     1.0000 0.26841  0.17516  0.51762  Biso   1.000  C
  C835     1.0000 0.50258  0.24493  0.28447  Biso   1.000  C
  C836     1.0000 0.30694  0.45467  0.77618  Biso   1.000  C
  C837     1.0000 0.74823  0.68110  0.04791  Biso   1.000  C
  C838     1.0000 0.98932  0.22725  0.30298  Biso   1.000  C
  C839     1.0000 0.76735  0.45645  0.73831  Biso   1.000  C
  C840     1.0000 0.23882  0.69513  0.48485  Biso   1.000  C
  C841     1.0000 0.22084  0.96928  0.77584  Biso   1.000  C
  C842     1.0000 0.77664  0.18279  0.01009  Biso   1.000  C
  C843     1.0000 0.03972  0.74606  0.26406  Biso   1.000  C
  C844     1.0000 0.72717  0.98942  0.77230  Biso   1.000  C
  C845     1.0000 0.27882  0.19046  0.56537  Biso   1.000  C
  C846     1.0000 0.48992  0.71594  0.30429  Biso   1.000  C
  C847     1.0000 0.27139  0.42801  0.80616  Biso   1.000  C
  C848     1.0000 0.72892  0.70542  0.00383  Biso   1.000  C
  C849     1.0000 0.52427  0.21103  0.25247  Biso   1.000  C
  C850     1.0000 0.79999  0.42855  0.76892  Biso   1.000  C
  C851     1.0000 0.26819  0.66751  0.51925  Biso   1.000  C
  C852     1.0000 0.03088  0.24972  0.28170  Biso   1.000  C
  C853     1.0000 0.80327  0.97147  0.28092  Biso   1.000  C
  C854     1.0000 0.22553  0.71099  0.03615  Biso   1.000  C
  C855     1.0000 0.04268  0.17564  0.78023  Biso   1.000  C
  C856     1.0000 0.26708  0.97301  0.30863  Biso   1.000  C
  C857     1.0000 0.73529  0.72211  0.48519  Biso   1.000  C
  C858     1.0000 0.54095  0.19165  0.75726  Biso   1.000  C
  C859     1.0000 0.75107  0.48557  0.24083  Biso   1.000  C
  C860     1.0000 0.29801  0.21053  0.04686  Biso   1.000  C
  C861     1.0000 0.48154  0.69249  0.80422  Biso   1.000  C
  C862     1.0000 0.21944  0.46909  0.28045  Biso   1.000  C
  C863     1.0000 0.78344  0.21610  0.51679  Biso   1.000  C
  C864     1.0000 0.98032  0.70742  0.74232  Biso   1.000  C
  C865     1.0000 0.72626  0.42916  0.78461  Biso   1.000  C
  C866     1.0000 0.81146  0.70254  0.49202  Biso   1.000  C
  C867     1.0000 0.47954  0.73333  0.75555  Biso   1.000  C
  C868     1.0000 0.26201  0.43596  0.73171  Biso   1.000  C
  C869     1.0000 0.26322  0.66020  0.02569  Biso   1.000  C
  C870     1.0000 0.97917  0.75296  0.78643  Biso   1.000  C
  C871     1.0000 0.79626  0.95199  0.79108  Biso   1.000  C
  C872     1.0000 0.71271  0.20680  0.52548  Biso   1.000  C
  C873     1.0000 0.00720  0.22035  0.74316  Biso   1.000  C
  C874     1.0000 0.26562  0.98970  0.73393  Biso   1.000  C
  C875     1.0000 0.22995  0.19261  0.04639  Biso   1.000  C
  C876     1.0000 0.54748  0.23281  0.80355  Biso   1.000  C
  C877     1.0000 0.29297  0.46302  0.26589  Biso   1.000  C
  C878     1.0000 0.24759  0.24228  0.55421  Biso   1.000  C
  C879     1.0000 0.53127  0.17188  0.30156  Biso   1.000  C
  C880     1.0000 0.76418  0.47865  0.31336  Biso   1.000  C
  C881     1.0000 0.76094  0.25291  0.04553  Biso   1.000  C
  C882     1.0000 0.03076  0.20642  0.23590  Biso   1.000  C
  C883     1.0000 0.25824  0.96655  0.23411  Biso   1.000  C
  C884     1.0000 0.28007  0.73700  0.51950  Biso   1.000  C
  C885     1.0000 0.03979  0.70251  0.30815  Biso   1.000  C
  C886     1.0000 0.72932  0.95987  0.28809  Biso   1.000  C
  C887     1.0000 0.76578  0.75563  0.02080  Biso   1.000  C
  C888     1.0000 0.52276  0.69777  0.23064  Biso   1.000  C
  C889     1.0000 0.76236  0.94318  0.32552  Biso   1.000  C
  C890     1.0000 0.29772  0.69514  0.00476  Biso   1.000  C
  C891     1.0000 0.04229  0.25109  0.76760  Biso   1.000  C
  C892     1.0000 0.22966  0.93827  0.26836  Biso   1.000  C
  C893     1.0000 0.77494  0.67359  0.51575  Biso   1.000  C
  C894     1.0000 0.50546  0.21168  0.82605  Biso   1.000  C
  C895     1.0000 0.79478  0.45178  0.27920  Biso   1.000  C
  C896     1.0000 0.25888  0.17122  0.00595  Biso   1.000  C
  C897     1.0000 0.52214  0.70922  0.73613  Biso   1.000  C
  C898     1.0000 0.26087  0.43731  0.23433  Biso   1.000  C
  C899     1.0000 0.74513  0.17844  0.55750  Biso   1.000  C
  C900     1.0000 0.01620  0.72392  0.81205  Biso   1.000  C
  C901     1.0000 0.29298  0.96182  0.76898  Biso   1.000  C
  C902     1.0000 0.72899  0.22416  0.01699  Biso   1.000  C
  C903     1.0000 0.99884  0.67950  0.28169  Biso   1.000  C
  C904     1.0000 0.76655  0.98126  0.82318  Biso   1.000  C
  C905     1.0000 0.21592  0.21132  0.52686  Biso   1.000  C
  C906     1.0000 0.49056  0.67116  0.26346  Biso   1.000  C
  C907     1.0000 0.23277  0.46382  0.76607  Biso   1.000  C
  C908     1.0000 0.79491  0.72282  0.04858  Biso   1.000  C
  C909     1.0000 0.49001  0.19639  0.32431  Biso   1.000  C
  C910     1.0000 0.75950  0.46190  0.80987  Biso   1.000  C
  C911     1.0000 0.31450  0.71033  0.48741  Biso   1.000  C
  C912     1.0000 0.99556  0.17897  0.26577  Biso   1.000  C
  C913     1.0000 0.77322  0.44119  0.76402  Biso   1.000  C
  C914     1.0000 0.76100  0.72304  0.50009  Biso   1.000  C
  C915     1.0000 0.49663  0.68692  0.77845  Biso   1.000  C
  C916     1.0000 0.27868  0.44542  0.78226  Biso   1.000  C
  C917     1.0000 0.24665  0.71183  0.01532  Biso   1.000  C
  C918     1.0000 0.99447  0.70356  0.76771  Biso   1.000  C
  C919     1.0000 0.74784  0.96795  0.77462  Biso   1.000  C
  C920     1.0000 0.76243  0.22290  0.53832  Biso   1.000  C
  C921     1.0000 0.02956  0.20193  0.78550  Biso   1.000  C
  C922     1.0000 0.24832  0.98248  0.78236  Biso   1.000  C
  C923     1.0000 0.27540  0.21583  0.02802  Biso   1.000  C
  C924     1.0000 0.52876  0.18716  0.78538  Biso   1.000  C
  C925     1.0000 0.24388  0.45090  0.28225  Biso   1.000  C
  C926     1.0000 0.26178  0.19208  0.54127  Biso   1.000  C
  C927     1.0000 0.51436  0.21836  0.27961  Biso   1.000  C
  C928     1.0000 0.74924  0.46862  0.26575  Biso   1.000  C
  C929     1.0000 0.77871  0.20424  0.03180  Biso   1.000  C
  C930     1.0000 0.01079  0.22809  0.28008  Biso   1.000  C
  C931     1.0000 0.27493  0.95986  0.28365  Biso   1.000  C
  C932     1.0000 0.26392  0.69120  0.50050  Biso   1.000  C
  C933     1.0000 0.01992  0.72452  0.26248  Biso   1.000  C
  C934     1.0000 0.78062  0.95291  0.27655  Biso   1.000  C
  C935     1.0000 0.74751  0.70384  0.02841  Biso   1.000  C
  C936     1.0000 0.50634  0.72062  0.27828  Biso   1.000  C
  C937     1.0000 0.75492  0.22755  0.03093  Biso   1.000  C
  C938     1.0000 0.02039  0.70135  0.28415  Biso   1.000  C
  C939     1.0000 0.27052  0.97969  0.76095  Biso   1.000  C
  C940     1.0000 0.24153  0.21563  0.54023  Biso   1.000  C
  C941     1.0000 0.50805  0.69583  0.25700  Biso   1.000  C
  C942     1.0000 0.77136  0.96826  0.79672  Biso   1.000  C
  C943     1.0000 0.77091  0.72830  0.03207  Biso   1.000  C
  C944     1.0000 0.51192  0.19527  0.30207  Biso   1.000  C
  C945     1.0000 0.25807  0.44952  0.75827  Biso   1.000  C
  C946     1.0000 0.28649  0.71307  0.50149  Biso   1.000  C
  C947     1.0000 0.01304  0.20315  0.26100  Biso   1.000  C
  C948     1.0000 0.75285  0.44285  0.78838  Biso   1.000  C
  C949     1.0000 0.26940  0.68851  0.01489  Biso   1.000  C
  C950     1.0000 0.02816  0.22460  0.76380  Biso   1.000  C
  C951     1.0000 0.75727  0.94985  0.29722  Biso   1.000  C
  C952     1.0000 0.78253  0.69870  0.50097  Biso   1.000  C
  C953     1.0000 0.52680  0.21181  0.80512  Biso   1.000  C
  C954     1.0000 0.25272  0.95591  0.26246  Biso   1.000  C
  C955     1.0000 0.25367  0.19249  0.02734  Biso   1.000  C
  C956     1.0000 0.49830  0.70931  0.75523  Biso   1.000  C
  C957     1.0000 0.77096  0.46833  0.28620  Biso   1.000  C
  C958     1.0000 0.73816  0.20343  0.54103  Biso   1.000  C
  C959     1.0000 0.99697  0.72857  0.78958  Biso   1.000  C
  C960     1.0000 0.26654  0.45078  0.26007  Biso   1.000  C
  Cu1      1.0000 0.01286  0.46925  0.68291  Biso   1.000  Cu
  Cu2      1.0000 0.66761  0.95807  0.53441  Biso   1.000  Cu
  Cu3      1.0000 0.51275  0.61067  0.01887  Biso   1.000  Cu
  Cu4      1.0000 0.51545  0.45094  0.87256  Biso   1.000  Cu
  Cu5      1.0000 0.16929  0.95136  0.01979  Biso   1.000  Cu
  Cu6      1.0000 0.02332  0.61391  0.52631  Biso   1.000  Cu
  Cu7      1.0000 0.51046  0.95454  0.68544  Biso   1.000  Cu
  Cu8      1.0000 0.85623  0.45558  0.52469  Biso   1.000  Cu
  Cu9      1.0000 0.01973  0.11265  0.02527  Biso   1.000  Cu
  Cu10     1.0000 0.01287  0.96363  0.87240  Biso   1.000  Cu
  Cu11     1.0000 0.35435  0.45273  0.02067  Biso   1.000  Cu
  Cu12     1.0000 0.49881  0.11049  0.54295  Biso   1.000  Cu
  Cu13     1.0000 0.00814  0.46383  0.37110  Biso   1.000  Cu
  Cu14     1.0000 0.35816  0.95457  0.52484  Biso   1.000  Cu
  Cu15     1.0000 0.51323  0.29937  0.03859  Biso   1.000  Cu
  Cu16     1.0000 0.50935  0.45276  0.17850  Biso   1.000  Cu
  Cu17     1.0000 0.86035  0.96607  0.03189  Biso   1.000  Cu
  Cu18     1.0000 0.00384  0.30756  0.52555  Biso   1.000  Cu
  Cu19     1.0000 0.51054  0.95652  0.37543  Biso   1.000  Cu
  Cu20     1.0000 0.16721  0.45625  0.52337  Biso   1.000  Cu
  Cu21     1.0000 0.01106  0.81011  0.02409  Biso   1.000  Cu
  Cu22     1.0000 0.01688  0.96670  0.18440  Biso   1.000  Cu
  Cu23     1.0000 0.66558  0.46613  0.02831  Biso   1.000  Cu
  Cu24     1.0000 0.52435  0.79737  0.52065  Biso   1.000  Cu
  Cu25     1.0000 0.22341  0.94975  0.02054  Biso   1.000  Cu
  Cu26     1.0000 0.02083  0.16650  0.02595  Biso   1.000  Cu
  Cu27     1.0000 0.01660  0.96536  0.23760  Biso   1.000  Cu
  Cu28     1.0000 0.72140  0.96079  0.53398  Biso   1.000  Cu
  Cu29     1.0000 0.49879  0.16605  0.54362  Biso   1.000  Cu
  Cu30     1.0000 0.51292  0.96145  0.32036  Biso   1.000  Cu
  Cu31     1.0000 0.30068  0.45356  0.02067  Biso   1.000  Cu
  Cu32     1.0000 0.51061  0.66397  0.01737  Biso   1.000  Cu
  Cu33     1.0000 0.50498  0.45693  0.23187  Biso   1.000  Cu
  Cu34     1.0000 0.80314  0.46117  0.52630  Biso   1.000  Cu
  Cu35     1.0000 0.02400  0.66941  0.52481  Biso   1.000  Cu
  Cu36     1.0000 0.00837  0.46071  0.31698  Biso   1.000  Cu
  Cu37     1.0000 0.80702  0.97075  0.03258  Biso   1.000  Cu
  Cu38     1.0000 0.00757  0.75779  0.02561  Biso   1.000  Cu
  Cu39     1.0000 0.01263  0.96360  0.81894  Biso   1.000  Cu
  Cu40     1.0000 0.30466  0.94839  0.52377  Biso   1.000  Cu
  Cu41     1.0000 0.52100  0.74405  0.52155  Biso   1.000  Cu
  Cu42     1.0000 0.50963  0.94999  0.73853  Biso   1.000  Cu
  Cu43     1.0000 0.71871  0.46216  0.02974  Biso   1.000  Cu
  Cu44     1.0000 0.51226  0.24591  0.04125  Biso   1.000  Cu
  Cu45     1.0000 0.51485  0.44761  0.81873  Biso   1.000  Cu
  Cu46     1.0000 0.22054  0.45097  0.52299  Biso   1.000  Cu
  Cu47     1.0000 0.00240  0.25216  0.52643  Biso   1.000  Cu
  Cu48     1.0000 0.01486  0.46463  0.73688  Biso   1.000  Cu
  H1       1.0000 0.25883  0.73895  0.53212  Biso   1.000  H
  H2       1.0000 0.56446  0.23228  0.78753  Biso   1.000  H
  H3       1.0000 0.74307  0.48978  0.31893  Biso   1.000  H
  H4       1.0000 0.74752  0.75950  0.00594  Biso   1.000  H
  H5       1.0000 0.99508  0.20028  0.74154  Biso   1.000  H
  H6       1.0000 0.29678  0.47483  0.28532  Biso   1.000  H
  H7       1.0000 0.26797  0.24579  0.56325  Biso   1.000  H
  H8       1.0000 0.96555  0.75579  0.76733  Biso   1.000  H
  H9       1.0000 0.72615  0.96621  0.26458  Biso   1.000  H
  H10      1.0000 0.78158  0.25362  0.05690  Biso   1.000  H
  H11      1.0000 0.46352  0.73697  0.77253  Biso   1.000  H
  H12      1.0000 0.27839  0.97863  0.23013  Biso   1.000  H
  H13      1.0000 0.70859  0.22635  0.51213  Biso   1.000  H
  H14      1.0000 0.53831  0.71347  0.22827  Biso   1.000  H
  H15      1.0000 0.28189  0.42315  0.72711  Biso   1.000  H
  H16      1.0000 0.22660  0.20980  0.06188  Biso   1.000  H
  H17      1.0000 0.05353  0.72106  0.30966  Biso   1.000  H
  H18      1.0000 0.72553  0.41527  0.76593  Biso   1.000  H
  H19      1.0000 0.81730  0.72202  0.47984  Biso   1.000  H
  H20      1.0000 0.04465  0.22599  0.23133  Biso   1.000  H
  H21      1.0000 0.24669  0.00276  0.72739  Biso   1.000  H
  H22      1.0000 0.24241  0.65535  0.03455  Biso   1.000  H
  H23      1.0000 0.55026  0.17054  0.28711  Biso   1.000  H
  H24      1.0000 0.79906  0.94078  0.77128  Biso   1.000  H
  H25      1.0000 0.27516  0.00437  0.81303  Biso   1.000  H
  H26      1.0000 0.80364  0.22328  0.06658  Biso   1.000  H
  H27      1.0000 0.98363  0.70648  0.23965  Biso   1.000  H
  H28      1.0000 0.76390  0.92620  0.75748  Biso   1.000  H
  H29      1.0000 0.26073  0.18013  0.49583  Biso   1.000  H
  H30      1.0000 0.53575  0.74869  0.25435  Biso   1.000  H
  H31      1.0000 0.31270  0.46750  0.75627  Biso   1.000  H
  H32      1.0000 0.76279  0.68457  0.06659  Biso   1.000  H
  H33      1.0000 0.49314  0.25188  0.30483  Biso   1.000  H
  H34      1.0000 0.74688  0.46599  0.73575  Biso   1.000  H
  H35      1.0000 0.23586  0.71309  0.47033  Biso   1.000  H
  H36      1.0000 0.96948  0.21433  0.30089  Biso   1.000  H
  H37      1.0000 0.75806  0.92330  0.25287  Biso   1.000  H
  H38      1.0000 0.26521  0.73758  0.97896  Biso   1.000  H
  H39      1.0000 0.00287  0.22776  0.81512  Biso   1.000  H
  H40      1.0000 0.30676  0.93001  0.26472  Biso   1.000  H
  H41      1.0000 0.78759  0.74877  0.52709  Biso   1.000  H
  H42      1.0000 0.50426  0.15831  0.81380  Biso   1.000  H
  H43      1.0000 0.72058  0.43891  0.29233  Biso   1.000  H
  H44      1.0000 0.25491  0.24121  0.99708  Biso   1.000  H
  H45      1.0000 0.52105  0.65702  0.75192  Biso   1.000  H
  H46      1.0000 0.26498  0.41384  0.30159  Biso   1.000  H
  H47      1.0000 0.74643  0.24829  0.57142  Biso   1.000  H
  H48      1.0000 0.02109  0.67471  0.79401  Biso   1.000  H
  H49      1.0000 0.21621  0.48267  0.26122  Biso   1.000  H
  H50      1.0000 0.27346  0.20481  0.58343  Biso   1.000  H
  H51      1.0000 0.53141  0.18824  0.24733  Biso   1.000  H
  H52      1.0000 0.76869  0.50023  0.23535  Biso   1.000  H
  H53      1.0000 0.75909  0.18426  0.99416  Biso   1.000  H
  H54      1.0000 0.04790  0.25269  0.26558  Biso   1.000  H
  H55      1.0000 0.24558  0.98319  0.31248  Biso   1.000  H
  H56      1.0000 0.28694  0.66634  0.53460  Biso   1.000  H
  H57      1.0000 0.05697  0.74820  0.28048  Biso   1.000  H
  H58      1.0000 0.80614  0.98314  0.30056  Biso   1.000  H
  H59      1.0000 0.72737  0.72267  0.98865  Biso   1.000  H
  H60      1.0000 0.47847  0.69529  0.30906  Biso   1.000  H
  H61      1.0000 0.80371  0.41329  0.78805  Biso   1.000  H
  H62      1.0000 0.73206  0.70385  0.47257  Biso   1.000  H
  H63      1.0000 0.46777  0.71073  0.80570  Biso   1.000  H
  H64      1.0000 0.24862  0.42126  0.81185  Biso   1.000  H
  H65      1.0000 0.22503  0.69305  0.05013  Biso   1.000  H
  H66      1.0000 0.96395  0.72483  0.73632  Biso   1.000  H
  H67      1.0000 0.72849  0.01016  0.78277  Biso   1.000  H
  H68      1.0000 0.78160  0.19634  0.50573  Biso   1.000  H
  H69      1.0000 0.05124  0.17293  0.75793  Biso   1.000  H
  H70      1.0000 0.21627  0.95965  0.75337  Biso   1.000  H
  H71      1.0000 0.29780  0.19241  0.06115  Biso   1.000  H
  H72      1.0000 0.55185  0.21225  0.75030  Biso   1.000  H
  H73      1.0000 0.77848  0.47527  0.81072  Biso   1.000  H
  H74      1.0000 0.75203  0.67339  0.52314  Biso   1.000  H
  H75      1.0000 0.53931  0.69235  0.73734  Biso   1.000  H
  H76      1.0000 0.23171  0.47434  0.78674  Biso   1.000  H
  H77      1.0000 0.30232  0.71673  0.99646  Biso   1.000  H
  H78      1.0000 0.03177  0.70774  0.81255  Biso   1.000  H
  H79      1.0000 0.74777  0.99666  0.82728  Biso   1.000  H
  H80      1.0000 0.76750  0.17836  0.56665  Biso   1.000  H
  H81      1.0000 0.05711  0.25126  0.78475  Biso   1.000  H
  H82      1.0000 0.29407  0.95600  0.79180  Biso   1.000  H
  H83      1.0000 0.27743  0.17173  0.99136  Biso   1.000  H
  H84      1.0000 0.49134  0.19376  0.82833  Biso   1.000  H
  H85      1.0000 0.23983  0.42788  0.22950  Biso   1.000  H
  H86      1.0000 0.20958  0.18910  0.51937  Biso   1.000  H
  H87      1.0000 0.47370  0.21306  0.32297  Biso   1.000  H
  H88      1.0000 0.79620  0.44523  0.25705  Biso   1.000  H
  H89      1.0000 0.72413  0.20349  0.00672  Biso   1.000  H
  H90      1.0000 0.98016  0.17552  0.28296  Biso   1.000  H
  H91      1.0000 0.22699  0.93122  0.28986  Biso   1.000  H
  H92      1.0000 0.32045  0.69055  0.47517  Biso   1.000  H
  H93      1.0000 0.98453  0.67812  0.26250  Biso   1.000  H
  H94      1.0000 0.78434  0.93453  0.33363  Biso   1.000  H
  H95      1.0000 0.80008  0.69945  0.05206  Biso   1.000  H
  H96      1.0000 0.47986  0.66657  0.28232  Biso   1.000  H
  H97      1.0000 0.87963  0.96599  0.94077  Biso   1.000  H
  H98      1.0000 0.91714  0.83532  0.04204  Biso   1.000  H
  H99      1.0000 0.01041  0.87214  0.89252  Biso   1.000  H
  H100     1.0000 0.37802  0.95863  0.61520  Biso   1.000  H
  H101     1.0000 0.43245  0.82211  0.51595  Biso   1.000  H
  H102     1.0000 0.51428  0.86415  0.65699  Biso   1.000  H
  H103     1.0000 0.64767  0.45864  0.94034  Biso   1.000  H
  H104     1.0000 0.60426  0.33019  0.04553  Biso   1.000  H
  H105     1.0000 0.52320  0.36448  0.90149  Biso   1.000  H
  H106     1.0000 0.14808  0.46665  0.61480  Biso   1.000  H
  H107     1.0000 0.09594  0.32194  0.51938  Biso   1.000  H
  H108     1.0000 0.01104  0.37235  0.65816  Biso   1.000  H
  H109     1.0000 0.14833  0.94420  0.11039  Biso   1.000  H
  H110     1.0000 0.10979  0.08650  0.01878  Biso   1.000  H
  H111     1.0000 0.02961  0.05589  0.16003  Biso   1.000  H
  H112     1.0000 0.64610  0.95928  0.44399  Biso   1.000  H
  H113     1.0000 0.59678  0.08606  0.54374  Biso   1.000  H
  H114     1.0000 0.50986  0.04839  0.40989  Biso   1.000  H
  H115     1.0000 0.37394  0.45712  0.11177  Biso   1.000  H
  H116     1.0000 0.42026  0.58373  0.00606  Biso   1.000  H
  H117     1.0000 0.50033  0.54478  0.15038  Biso   1.000  H
  H118     1.0000 0.88155  0.45936  0.43008  Biso   1.000  H
  H119     1.0000 0.93003  0.58970  0.52155  Biso   1.000  H
  H120     1.0000 0.02290  0.55321  0.38850  Biso   1.000  H
  H121     1.0000 0.10412  0.96290  0.88944  Biso   1.000  H
  H122     1.0000 0.88156  0.05910  0.02062  Biso   1.000  H
  H123     1.0000 0.01545  0.83200  0.11515  Biso   1.000  H
  H124     1.0000 0.60531  0.95999  0.66527  Biso   1.000  H
  H125     1.0000 0.36975  0.04456  0.53971  Biso   1.000  H
  H126     1.0000 0.52100  0.81839  0.42942  Biso   1.000  H
  H127     1.0000 0.42219  0.44219  0.89142  Biso   1.000  H
  H128     1.0000 0.65045  0.55053  0.01859  Biso   1.000  H
  H129     1.0000 0.51500  0.32181  0.12583  Biso   1.000  H
  H130     1.0000 0.92193  0.46920  0.66170  Biso   1.000  H
  H131     1.0000 0.15656  0.54435  0.51332  Biso   1.000  H
  H132     1.0000 0.01272  0.32687  0.43596  Biso   1.000  H
  H133     1.0000 0.92293  0.96807  0.16642  Biso   1.000  H
  H134     1.0000 0.14675  0.86114  0.01176  Biso   1.000  H
  H135     1.0000 0.01542  0.09675  0.93117  Biso   1.000  H
  H136     1.0000 0.42071  0.97717  0.39021  Biso   1.000  H
  H137     1.0000 0.65345  0.86477  0.52895  Biso   1.000  H
  H138     1.0000 0.49580  0.09211  0.63238  Biso   1.000  H
  H139     1.0000 0.60238  0.47350  0.16126  Biso   1.000  H
  H140     1.0000 0.38124  0.35796  0.03252  Biso   1.000  H
  H141     1.0000 0.51369  0.58380  0.92776  Biso   1.000  H
  H142     1.0000 0.09927  0.45587  0.39112  Biso   1.000  H
  H143     1.0000 0.87137  0.36367  0.52682  Biso   1.000  H
  H144     1.0000 0.02169  0.59500  0.62143  Biso   1.000  H
  H145     1.0000 0.60436  0.45721  0.89283  Biso   1.000  H
  H146     1.0000 0.88362  0.54883  0.52600  Biso   1.000  H
  H147     1.0000 0.51712  0.82314  0.61204  Biso   1.000  H
  H148     1.0000 0.10400  0.46800  0.66030  Biso   1.000  H
  H149     1.0000 0.37586  0.53912  0.01338  Biso   1.000  H
  H150     1.0000 0.00165  0.83022  0.94076  Biso   1.000  H
  H151     1.0000 0.92015  0.96237  0.89644  Biso   1.000  H
  H152     1.0000 0.64329  0.04830  0.55378  Biso   1.000  H
  H153     1.0000 0.99565  0.32728  0.61686  Biso   1.000  H
  H154     1.0000 0.42100  0.95754  0.65951  Biso   1.000  H
  H155     1.0000 0.15040  0.04426  0.01249  Biso   1.000  H
  H156     1.0000 0.51816  0.32116  0.94979  Biso   1.000  H
  H157     1.0000 0.41964  0.45245  0.15295  Biso   1.000  H
  H158     1.0000 0.14131  0.36704  0.51902  Biso   1.000  H
  H159     1.0000 0.50193  0.09127  0.45304  Biso   1.000  H
  H160     1.0000 0.91696  0.46322  0.38940  Biso   1.000  H
  H161     1.0000 0.64154  0.37471  0.04542  Biso   1.000  H
  H162     1.0000 0.01708  0.09186  0.11620  Biso   1.000  H
  H163     1.0000 0.10424  0.94703  0.15890  Biso   1.000  H
  H164     1.0000 0.38687  0.86623  0.51860  Biso   1.000  H
  H165     1.0000 0.02464  0.59440  0.43295  Biso   1.000  H
  H166     1.0000 0.60545  0.95063  0.40133  Biso   1.000  H
  H167     1.0000 0.87451  0.87512  0.03916  Biso   1.000  H
  H168     1.0000 0.49926  0.58763  0.10944  Biso   1.000  H
  H169     1.0000 0.00841  0.05498  0.89313  Biso   1.000  H
  H170     1.0000 0.88251  0.97407  0.12440  Biso   1.000  H
  H171     1.0000 0.09922  0.82104  0.02241  Biso   1.000  H
  H172     1.0000 0.49981  0.04668  0.67578  Biso   1.000  H
  H173     1.0000 0.37630  0.97119  0.43428  Biso   1.000  H
  H174     1.0000 0.61373  0.82049  0.53678  Biso   1.000  H
  H175     1.0000 0.50633  0.54037  0.88847  Biso   1.000  H
  H176     1.0000 0.64439  0.47182  0.11993  Biso   1.000  H
  H177     1.0000 0.42175  0.31877  0.03109  Biso   1.000  H
  H178     1.0000 0.01709  0.55390  0.66351  Biso   1.000  H
  H179     1.0000 0.14234  0.44578  0.43652  Biso   1.000  H
  H180     1.0000 0.91347  0.32262  0.52109  Biso   1.000  H
  H181     1.0000 0.01895  0.87675  0.16081  Biso   1.000  H
  H182     1.0000 0.14683  0.96492  0.93179  Biso   1.000  H
  H183     1.0000 0.92699  0.09732  0.01906  Biso   1.000  H
  H184     1.0000 0.51645  0.86461  0.38834  Biso   1.000  H
  H185     1.0000 0.64606  0.96358  0.62406  Biso   1.000  H
  H186     1.0000 0.40872  0.08833  0.54617  Biso   1.000  H
  H187     1.0000 0.52184  0.36187  0.16728  Biso   1.000  H
  H188     1.0000 0.37469  0.43377  0.93467  Biso   1.000  H
  H189     1.0000 0.60337  0.59646  0.01965  Biso   1.000  H
  H190     1.0000 0.00480  0.37112  0.39521  Biso   1.000  H
  H191     1.0000 0.87920  0.47132  0.61984  Biso   1.000  H
  H192     1.0000 0.11469  0.58867  0.51665  Biso   1.000  H
  H193     1.0000 0.29071  0.81038  0.50600  Biso   1.000  H
  H194     1.0000 0.52690  0.22417  0.89727  Biso   1.000  H
  H195     1.0000 0.86488  0.46475  0.29353  Biso   1.000  H
  H196     1.0000 0.77723  0.82424  0.05321  Biso   1.000  H
  H197     1.0000 0.02038  0.23443  0.67254  Biso   1.000  H
  H198     1.0000 0.36131  0.44381  0.24907  Biso   1.000  H
  H199     1.0000 0.23556  0.31079  0.52894  Biso   1.000  H
  H200     1.0000 0.99272  0.73617  0.88158  Biso   1.000  H
  H201     1.0000 0.66111  0.94336  0.30436  Biso   1.000  H
  H202     1.0000 0.73973  0.32470  0.02930  Biso   1.000  H
  H203     1.0000 0.51731  0.72510  0.66593  Biso   1.000  H
  H204     1.0000 0.16433  0.96024  0.24946  Biso   1.000  H
  H205     1.0000 0.73496  0.10744  0.53054  Biso   1.000  H
  H206     1.0000 0.49300  0.68208  0.16431  Biso   1.000  H
  H207     1.0000 0.16066  0.45801  0.75417  Biso   1.000  H
  H208     1.0000 0.24926  0.09688  0.01245  Biso   1.000  H
  H209     1.0000 0.02395  0.69284  0.38132  Biso   1.000  H
  H210     1.0000 0.66157  0.45048  0.79754  Biso   1.000  H
  H211     1.0000 0.79121  0.60161  0.50859  Biso   1.000  H
  H212     1.0000 0.00199  0.19221  0.16497  Biso   1.000  H
  H213     1.0000 0.36333  0.97609  0.75459  Biso   1.000  H
  H214     1.0000 0.28096  0.59410  0.00539  Biso   1.000  H
  H215     1.0000 0.50566  0.18666  0.39972  Biso   1.000  H
  H216     1.0000 0.86594  0.97604  0.80184  Biso   1.000  H
  H217     1.0000 0.23898  0.44582  0.37600  Biso   1.000  H
  H218     1.0000 0.34821  0.18140  0.55430  Biso   1.000  H
  H219     1.0000 0.53537  0.31561  0.26678  Biso   1.000  H
  H220     1.0000 0.74141  0.46478  0.17213  Biso   1.000  H
  H221     1.0000 0.87740  0.19762  0.02584  Biso   1.000  H
  H222     1.0000 0.01599  0.32114  0.29388  Biso   1.000  H
  H223     1.0000 0.28011  0.96509  0.38111  Biso   1.000  H
  H224     1.0000 0.16912  0.68436  0.51052  Biso   1.000  H
  H225     1.0000 0.01296  0.81938  0.25607  Biso   1.000  H
  H226     1.0000 0.78288  0.96096  0.17691  Biso   1.000  H
  H227     1.0000 0.65305  0.69372  0.02390  Biso   1.000  H
  H228     1.0000 0.49890  0.81744  0.29113  Biso   1.000  H
  H229     1.0000 0.78384  0.44403  0.66625  Biso   1.000  H
  H230     1.0000 0.66766  0.72971  0.50983  Biso   1.000  H
  H231     1.0000 0.49185  0.59253  0.79118  Biso   1.000  H
  H232     1.0000 0.28192  0.44339  0.87582  Biso   1.000  H
  H233     1.0000 0.15119  0.72331  0.01638  Biso   1.000  H
  H234     1.0000 0.99350  0.61394  0.75655  Biso   1.000  H
  H235     1.0000 0.74140  0.96262  0.68157  Biso   1.000  H
  H236     1.0000 0.85711  0.22772  0.52617  Biso   1.000  H
  H237     1.0000 0.01443  0.10732  0.79635  Biso   1.000  H
  H238     1.0000 0.24276  0.96446  0.87450  Biso   1.000  H
  H239     1.0000 0.36937  0.22351  0.02637  Biso   1.000  H
  H240     1.0000 0.53083  0.09088  0.76650  Biso   1.000  H
  H241     1.0000 0.74514  0.44997  0.88327  Biso   1.000  H
  H242     1.0000 0.87767  0.68503  0.52883  Biso   1.000  H
  H243     1.0000 0.51322  0.80564  0.74919  Biso   1.000  H
  H244     1.0000 0.24426  0.45919  0.66152  Biso   1.000  H
  H245     1.0000 0.36538  0.67651  0.02718  Biso   1.000  H
  H246     1.0000 0.00777  0.81724  0.79742  Biso   1.000  H
  H247     1.0000 0.77834  0.96545  0.89225  Biso   1.000  H
  H248     1.0000 0.64489  0.18551  0.54178  Biso   1.000  H
  H249     1.0000 0.01744  0.32254  0.75526  Biso   1.000  H
  H250     1.0000 0.28081  0.96225  0.67039  Biso   1.000  H
  H251     1.0000 0.16371  0.18370  0.02087  Biso   1.000  H
  H252     1.0000 0.53111  0.30154  0.81053  Biso   1.000  H
  H253     1.0000 0.27661  0.45541  0.16232  Biso   1.000  H
  H254     1.0000 0.14889  0.23121  0.55065  Biso   1.000  H
  H255     1.0000 0.51481  0.10371  0.31423  Biso   1.000  H
  H256     1.0000 0.78179  0.44772  0.38218  Biso   1.000  H
  H257     1.0000 0.65985  0.23541  0.03735  Biso   1.000  H
  H258     1.0000 0.02102  0.11246  0.25510  Biso   1.000  H
  H259     1.0000 0.24683  0.93640  0.16251  Biso   1.000  H
  H260     1.0000 0.37812  0.72633  0.51257  Biso   1.000  H
  H261     1.0000 0.01266  0.60956  0.29269  Biso   1.000  H
  H262     1.0000 0.74377  0.96857  0.39137  Biso   1.000  H
  H263     1.0000 0.86468  0.73793  0.03504  Biso   1.000  H
  H264     1.0000 0.50345  0.60129  0.24663  Biso   1.000  H
  H265     1.0000 0.04000  0.19100  0.88206  Biso   1.000  H
  H266     1.0000 0.87222  0.96183  0.26431  Biso   1.000  H
  H267     1.0000 0.24276  0.80555  0.01685  Biso   1.000  H
  H268     1.0000 0.51968  0.18478  0.68669  Biso   1.000  H
  H269     1.0000 0.36864  0.97674  0.29263  Biso   1.000  H
  H270     1.0000 0.74995  0.82130  0.50019  Biso   1.000  H
  H271     1.0000 0.51300  0.67983  0.87206  Biso   1.000  H
  H272     1.0000 0.64843  0.46991  0.26043  Biso   1.000  H
  H273     1.0000 0.28518  0.30797  0.04476  Biso   1.000  H
  H274     1.0000 0.00753  0.69443  0.66992  Biso   1.000  H
  H275     1.0000 0.15233  0.44171  0.29666  Biso   1.000  H
  H276     1.0000 0.77136  0.31393  0.52626  Biso   1.000  H
  H277     1.0000 0.02165  0.73787  0.16992  Biso   1.000  H
  H278     1.0000 0.15362  0.98861  0.79711  Biso   1.000  H
  H279     1.0000 0.78596  0.11200  0.01634  Biso   1.000  H
  H280     1.0000 0.51284  0.72653  0.36785  Biso   1.000  H
  H281     1.0000 0.65461  0.97244  0.76094  Biso   1.000  H
  H282     1.0000 0.26871  0.08979  0.54321  Biso   1.000  H
  H283     1.0000 0.50283  0.22584  0.18382  Biso   1.000  H
  H284     1.0000 0.37563  0.42071  0.79185  Biso   1.000  H
  H285     1.0000 0.74364  0.61040  0.02618  Biso   1.000  H
  H286     1.0000 0.01121  0.23389  0.37802  Biso   1.000  H
  H287     1.0000 0.86830  0.44836  0.75769  Biso   1.000  H
  H288     1.0000 0.25216  0.59254  0.50908  Biso   1.000  H
  H289     1.0000 0.10905  0.18251  0.01268  Biso   1.000  H
  H290     1.0000 0.02552  0.05885  0.25509  Biso   1.000  H
  H291     1.0000 0.24503  0.93507  0.10896  Biso   1.000  H
  H292     1.0000 0.58952  0.18224  0.54234  Biso   1.000  H
  H293     1.0000 0.51819  0.05066  0.31282  Biso   1.000  H
  H294     1.0000 0.74042  0.97187  0.44392  Biso   1.000  H
  H295     1.0000 0.42247  0.67703  0.02595  Biso   1.000  H
  H296     1.0000 0.50279  0.54560  0.24810  Biso   1.000  H
  H297     1.0000 0.27869  0.45622  0.10924  Biso   1.000  H
  H298     1.0000 0.93040  0.68591  0.53071  Biso   1.000  H
  H299     1.0000 0.00650  0.55576  0.29435  Biso   1.000  H
  H300     1.0000 0.78510  0.44533  0.44044  Biso   1.000  H
  H301     1.0000 0.91866  0.73963  0.04093  Biso   1.000  H
  H302     1.0000 0.01260  0.87356  0.79631  Biso   1.000  H
  H303     1.0000 0.78179  0.95883  0.94523  Biso   1.000  H
  H304     1.0000 0.43171  0.72640  0.50709  Biso   1.000  H
  H305     1.0000 0.51989  0.86250  0.75439  Biso   1.000  H
  H306     1.0000 0.28060  0.95853  0.61545  Biso   1.000  H
  H307     1.0000 0.60792  0.23159  0.03950  Biso   1.000  H
  H308     1.0000 0.52749  0.35433  0.80391  Biso   1.000  H
  H309     1.0000 0.74368  0.45485  0.93877  Biso   1.000  H
  H310     1.0000 0.08978  0.23172  0.54734  Biso   1.000  H
  H311     1.0000 0.01680  0.37335  0.75506  Biso   1.000  H
  H312     1.0000 0.24256  0.46401  0.61186  Biso   1.000  H
  H313     1.0000 0.24260  0.95980  0.92998  Biso   1.000  H
  H314     1.0000 0.93155  0.19181  0.02634  Biso   1.000  H
  H315     1.0000 0.01834  0.87207  0.25760  Biso   1.000  H
  H316     1.0000 0.74350  0.96213  0.62653  Biso   1.000  H
  H317     1.0000 0.40241  0.18596  0.55719  Biso   1.000  H
  H318     1.0000 0.50084  0.87032  0.29397  Biso   1.000  H
  H319     1.0000 0.28009  0.44216  0.93002  Biso   1.000  H
  H320     1.0000 0.59788  0.68928  0.01459  Biso   1.000  H
  H321     1.0000 0.53733  0.37005  0.25898  Biso   1.000  H
  H322     1.0000 0.78320  0.45237  0.61660  Biso   1.000  H
  H323     1.0000 0.11402  0.68304  0.51731  Biso   1.000  H
  H324     1.0000 0.01506  0.37866  0.29847  Biso   1.000  H
  H325     1.0000 0.78714  0.97209  0.12249  Biso   1.000  H
  H326     1.0000 0.09710  0.72720  0.01347  Biso   1.000  H
  H327     1.0000 0.01496  0.05403  0.79612  Biso   1.000  H
  H328     1.0000 0.28228  0.95748  0.43365  Biso   1.000  H
  H329     1.0000 0.61390  0.72532  0.52119  Biso   1.000  H
  H330     1.0000 0.52638  0.03651  0.76752  Biso   1.000  H
  H331     1.0000 0.73972  0.46751  0.11819  Biso   1.000  H
  H332     1.0000 0.42337  0.22469  0.02551  Biso   1.000  H
  H333     1.0000 0.48841  0.53918  0.79295  Biso   1.000  H
  H334     1.0000 0.24075  0.44956  0.42926  Biso   1.000  H
  H335     1.0000 0.91406  0.22539  0.52285  Biso   1.000  H
  H336     1.0000 0.00235  0.55866  0.76018  Biso   1.000  H
  H337     1.0000 0.03603  0.19076  0.93463  Biso   1.000  H
  H338     1.0000 0.92472  0.96494  0.26424  Biso   1.000  H
  H339     1.0000 0.24145  0.86160  0.01000  Biso   1.000  H
  H340     1.0000 0.50843  0.18646  0.63811  Biso   1.000  H
  H341     1.0000 0.42321  0.97377  0.29544  Biso   1.000  H
  H342     1.0000 0.74795  0.87364  0.50911  Biso   1.000  H
  H343     1.0000 0.52576  0.67706  0.92512  Biso   1.000  H
  H344     1.0000 0.59690  0.46719  0.25666  Biso   1.000  H
  H345     1.0000 0.28437  0.35992  0.04314  Biso   1.000  H
  H346     1.0000 0.01747  0.69032  0.61387  Biso   1.000  H
  H347     1.0000 0.09838  0.45265  0.29520  Biso   1.000  H
  H348     1.0000 0.77158  0.36880  0.53145  Biso   1.000  H
  H349     1.0000 0.02297  0.73568  0.11595  Biso   1.000  H
  H350     1.0000 0.10046  0.98403  0.79712  Biso   1.000  H
  H351     1.0000 0.78841  0.05650  0.02176  Biso   1.000  H
  H352     1.0000 0.51685  0.72289  0.42329  Biso   1.000  H
  H353     1.0000 0.60254  0.96107  0.76076  Biso   1.000  H
  H354     1.0000 0.27516  0.03596  0.53176  Biso   1.000  H
  H355     1.0000 0.49850  0.22605  0.13464  Biso   1.000  H
  H356     1.0000 0.43127  0.42575  0.79834  Biso   1.000  H
  H357     1.0000 0.74492  0.55656  0.02333  Biso   1.000  H
  H358     1.0000 0.00917  0.23104  0.43096  Biso   1.000  H
  H359     1.0000 0.91795  0.46168  0.75712  Biso   1.000  H
  H360     1.0000 0.25129  0.54139  0.51816  Biso   1.000  H
  H361     1.0000 0.02717  0.68988  0.43551  Biso   1.000  H
  H362     1.0000 0.41738  0.96901  0.75556  Biso   1.000  H
  H363     1.0000 0.73859  0.37941  0.03081  Biso   1.000  H
  H364     1.0000 0.49425  0.68427  0.10819  Biso   1.000  H
  H365     1.0000 0.91765  0.97813  0.80094  Biso   1.000  H
  H366     1.0000 0.23699  0.36027  0.52028  Biso   1.000  H
  H367     1.0000 0.50122  0.18589  0.45646  Biso   1.000  H
  H368     1.0000 0.10511  0.45426  0.75515  Biso   1.000  H
  H369     1.0000 0.77921  0.87841  0.04744  Biso   1.000  H
  H370     1.0000 0.00120  0.18612  0.11015  Biso   1.000  H
  H371     1.0000 0.60645  0.45470  0.79804  Biso   1.000  H
  H372     1.0000 0.28917  0.86351  0.51553  Biso   1.000  H
  H373     1.0000 0.00844  0.23315  0.61914  Biso   1.000  H
  H374     1.0000 0.60652  0.94360  0.30503  Biso   1.000  H
  H375     1.0000 0.28044  0.54158  0.00066  Biso   1.000  H
  H376     1.0000 0.52901  0.22166  0.95019  Biso   1.000  H
  H377     1.0000 0.10851  0.96236  0.25307  Biso   1.000  H
  H378     1.0000 0.79054  0.55277  0.51101  Biso   1.000  H
  H379     1.0000 0.52353  0.72573  0.61056  Biso   1.000  H
  H380     1.0000 0.92123  0.47177  0.29307  Biso   1.000  H
  H381     1.0000 0.24619  0.04249  0.01779  Biso   1.000  H
  H382     1.0000 0.98465  0.73912  0.93674  Biso   1.000  H
  H383     1.0000 0.41741  0.44592  0.24973  Biso   1.000  H
  H384     1.0000 0.73757  0.05253  0.53108  Biso   1.000  H
  H385     1.0000 0.23555  0.41242  0.34551  Biso   1.000  H
  H386     1.0000 0.29172  0.13852  0.50269  Biso   1.000  H
  H387     1.0000 0.49930  0.28744  0.27071  Biso   1.000  H
  H388     1.0000 0.68248  0.43846  0.25592  Biso   1.000  H
  H389     1.0000 0.84394  0.18863  0.06238  Biso   1.000  H
  H390     1.0000 0.97539  0.24370  0.34491  Biso   1.000  H
  H391     1.0000 0.34430  0.94122  0.30138  Biso   1.000  H
  H392     1.0000 0.19652  0.67911  0.47508  Biso   1.000  H
  H393     1.0000 0.98168  0.74634  0.20192  Biso   1.000  H
  H394     1.0000 0.79626  0.92769  0.21038  Biso   1.000  H
  H395     1.0000 0.73183  0.64113  0.05999  Biso   1.000  H
  H396     1.0000 0.53441  0.78716  0.28986  Biso   1.000  H
  H397     1.0000 0.78482  0.47553  0.70024  Biso   1.000  H
  H398     1.0000 0.75150  0.78437  0.53823  Biso   1.000  H
  H399     1.0000 0.52916  0.62291  0.78775  Biso   1.000  H
  H400     1.0000 0.34840  0.45903  0.79282  Biso   1.000  H
  H401     1.0000 0.22830  0.77311  0.97823  Biso   1.000  H
  H402     1.0000 0.03386  0.64027  0.75356  Biso   1.000  H
  H403     1.0000 0.73091  0.92468  0.71877  Biso   1.000  H
  H404     1.0000 0.78275  0.28489  0.56712  Biso   1.000  H
  H405     1.0000 0.00370  0.19239  0.85476  Biso   1.000  H
  H406     1.0000 0.23611  0.00270  0.85205  Biso   1.000  H
  H407     1.0000 0.29091  0.28312  0.00043  Biso   1.000  H
  H408     1.0000 0.49799  0.12163  0.77465  Biso   1.000  H
  H409     1.0000 0.28067  0.42353  0.19301  Biso   1.000  H
  H410     1.0000 0.17714  0.22996  0.51049  Biso   1.000  H
  H411     1.0000 0.47396  0.17846  0.36503  Biso   1.000  H
  H412     1.0000 0.83509  0.43440  0.29825  Biso   1.000  H
  H413     1.0000 0.68717  0.24252  0.00549  Biso   1.000  H
  H414     1.0000 0.98373  0.13602  0.24939  Biso   1.000  H
  H415     1.0000 0.18865  0.92121  0.25007  Biso   1.000  H
  H416     1.0000 0.35278  0.73412  0.47474  Biso   1.000  H
  H417     1.0000 0.97987  0.64346  0.30472  Biso   1.000  H
  H418     1.0000 0.74395  0.93561  0.36802  Biso   1.000  H
  H419     1.0000 0.83317  0.73446  0.06816  Biso   1.000  H
  H420     1.0000 0.47139  0.63290  0.24659  Biso   1.000  H
  H421     1.0000 0.74068  0.48507  0.84640  Biso   1.000  H
  H422     1.0000 0.79139  0.63151  0.53254  Biso   1.000  H
  H423     1.0000 0.54384  0.73155  0.70020  Biso   1.000  H
  H424     1.0000 0.19107  0.48087  0.74909  Biso   1.000  H
  H425     1.0000 0.33997  0.68500  0.99584  Biso   1.000  H
  H426     1.0000 0.03336  0.74148  0.85039  Biso   1.000  H
  H427     1.0000 0.78468  0.99766  0.86039  Biso   1.000  H
  H428     1.0000 0.73219  0.13500  0.56849  Biso   1.000  H
  H429     1.0000 0.04969  0.29441  0.75279  Biso   1.000  H
  H430     1.0000 0.33378  0.94196  0.75335  Biso   1.000  H
  H431     1.0000 0.24500  0.13429  0.98446  Biso   1.000  H
  H432     1.0000 0.48618  0.23515  0.86294  Biso   1.000  H
  H433     1.0000 0.28856  0.99748  0.69331  Biso   1.000  H
  H434     1.0000 0.74458  0.29320  0.06278  Biso   1.000  H
  H435     1.0000 0.05677  0.68205  0.34534  Biso   1.000  H
  H436     1.0000 0.83635  0.93619  0.80923  Biso   1.000  H
  H437     1.0000 0.23016  0.28444  0.56579  Biso   1.000  H
  H438     1.0000 0.53560  0.67865  0.18999  Biso   1.000  H
  H439     1.0000 0.24431  0.42663  0.69070  Biso   1.000  H
  H440     1.0000 0.78223  0.79886  0.01508  Biso   1.000  H
  H441     1.0000 0.54875  0.13599  0.32129  Biso   1.000  H
  H442     1.0000 0.68800  0.41478  0.80588  Biso   1.000  H
  H443     1.0000 0.29083  0.77734  0.53724  Biso   1.000  H
  H444     1.0000 0.04597  0.18787  0.19447  Biso   1.000  H
  H445     1.0000 0.68884  0.97584  0.30286  Biso   1.000  H
  H446     1.0000 0.27730  0.61797  0.03553  Biso   1.000  H
  H447     1.0000 0.98647  0.23770  0.70568  Biso   1.000  H
  H448     1.0000 0.24420  0.97501  0.19220  Biso   1.000  H
  H449     1.0000 0.85504  0.68688  0.48905  Biso   1.000  H
  H450     1.0000 0.56350  0.26966  0.82218  Biso   1.000  H
  H451     1.0000 0.77880  0.49052  0.35469  Biso   1.000  H
  H452     1.0000 0.19227  0.16765  0.05960  Biso   1.000  H
  H453     1.0000 0.47019  0.77287  0.73930  Biso   1.000  H
  H454     1.0000 0.33187  0.48101  0.24702  Biso   1.000  H
  H455     1.0000 0.67300  0.18928  0.51239  Biso   1.000  H
  H456     1.0000 0.96907  0.79408  0.80382  Biso   1.000  H
  H457     1.0000 0.69487  0.74257  0.47423  Biso   1.000  H
  H458     1.0000 0.46742  0.67562  0.84375  Biso   1.000  H
  H459     1.0000 0.84157  0.41781  0.75306  Biso   1.000  H
  H460     1.0000 0.18939  0.73475  0.05648  Biso   1.000  H
  H461     1.0000 0.97018  0.69107  0.70107  Biso   1.000  H
  H462     1.0000 0.28799  0.41070  0.84606  Biso   1.000  H
  H463     1.0000 0.82158  0.23206  0.49287  Biso   1.000  H
  H464     1.0000 0.05021  0.13255  0.79748  Biso   1.000  H
  H465     1.0000 0.69169  0.00794  0.75050  Biso   1.000  H
  H466     1.0000 0.33718  0.22559  0.06421  Biso   1.000  H
  H467     1.0000 0.55219  0.17461  0.71698  Biso   1.000  H
  H468     1.0000 0.18021  0.95491  0.79535  Biso   1.000  H
  H469     1.0000 0.31075  0.16902  0.59024  Biso   1.000  H
  H470     1.0000 0.53546  0.22573  0.20932  Biso   1.000  H
  H471     1.0000 0.18333  0.48626  0.30461  Biso   1.000  H
  H472     1.0000 0.79622  0.14647  0.98951  Biso   1.000  H
  H473     1.0000 0.04903  0.28672  0.30060  Biso   1.000  H
  H474     1.0000 0.73254  0.49951  0.20231  Biso   1.000  H
  H475     1.0000 0.24976  0.62889  0.53690  Biso   1.000  H
  H476     1.0000 0.05443  0.78558  0.24920  Biso   1.000  H
  H477     1.0000 0.28266  0.99754  0.34658  Biso   1.000  H
  H478     1.0000 0.69093  0.68352  0.98555  Biso   1.000  H
  H479     1.0000 0.47337  0.73587  0.34342  Biso   1.000  H
  H480     1.0000 0.83666  0.99522  0.26030  Biso   1.000  H
  N1       1.0000 0.68043  0.13592  0.54032  Biso   1.000  N
  N2       1.0000 0.49985  0.62968  0.19456  Biso   1.000  N
  N3       1.0000 0.19231  0.45746  0.69884  Biso   1.000  N
  N4       1.0000 0.19387  0.12882  0.02098  Biso   1.000  N
  N5       1.0000 0.01985  0.63899  0.34763  Biso   1.000  N
  N6       1.0000 0.69232  0.45224  0.85293  Biso   1.000  N
  N7       1.0000 0.84480  0.63390  0.51591  Biso   1.000  N
  N8       1.0000 0.01766  0.13894  0.20017  Biso   1.000  N
  N9       1.0000 0.33437  0.96479  0.70121  Biso   1.000  N
  N10      1.0000 0.33401  0.62655  0.01319  Biso   1.000  N
  N11      1.0000 0.51113  0.13520  0.36788  Biso   1.000  N
  N12      1.0000 0.83475  0.96824  0.85790  Biso   1.000  N
  N13      1.0000 0.34599  0.77963  0.50979  Biso   1.000  N
  N14      1.0000 0.52627  0.27662  0.86655  Biso   1.000  N
  N15      1.0000 0.83172  0.45786  0.34805  Biso   1.000  N
  N16      1.0000 0.83104  0.79092  0.04461  Biso   1.000  N
  N17      1.0000 0.01602  0.28824  0.70429  Biso   1.000  N
  N18      1.0000 0.33045  0.45407  0.19655  Biso   1.000  N
  N19      1.0000 0.18138  0.28049  0.53519  Biso   1.000  N
  N20      1.0000 0.00368  0.78893  0.85157  Biso   1.000  N
  N21      1.0000 0.69168  0.95354  0.35799  Biso   1.000  N
  N22      1.0000 0.69037  0.29097  0.03884  Biso   1.000  N
  N23      1.0000 0.51370  0.77588  0.69526  Biso   1.000  N
  N24      1.0000 0.19262  0.94409  0.19627  Biso   1.000  N
  N25      1.0000 0.83639  0.45158  0.70330  Biso   1.000  N
  N26      1.0000 0.69876  0.78477  0.51186  Biso   1.000  N
  N27      1.0000 0.50235  0.62556  0.84207  Biso   1.000  N
  N28      1.0000 0.33841  0.43241  0.84499  Biso   1.000  N
  N29      1.0000 0.18576  0.77600  0.01789  Biso   1.000  N
  N30      1.0000 0.00620  0.64199  0.70279  Biso   1.000  N
  N31      1.0000 0.68900  0.96643  0.70878  Biso   1.000  N
  N32      1.0000 0.82533  0.28142  0.52614  Biso   1.000  N
  N33      1.0000 0.02354  0.14008  0.84828  Biso   1.000  N
  N34      1.0000 0.18740  0.97621  0.84720  Biso   1.000  N
  N35      1.0000 0.33707  0.27608  0.03721  Biso   1.000  N
  N36      1.0000 0.52018  0.12693  0.72027  Biso   1.000  N
  N37      1.0000 0.18477  0.44668  0.34806  Biso   1.000  N
  N38      1.0000 0.32108  0.12588  0.54864  Biso   1.000  N
  N39      1.0000 0.51738  0.28057  0.21648  Biso   1.000  N
  N40      1.0000 0.68472  0.46668  0.20553  Biso   1.000  N
  N41      1.0000 0.84198  0.14329  0.02420  Biso   1.000  N
  N42      1.0000 0.01126  0.28744  0.34820  Biso   1.000  N
  N43      1.0000 0.33524  0.97231  0.34830  Biso   1.000  N
  N44      1.0000 0.20028  0.63028  0.50534  Biso   1.000  N
  N45      1.0000 0.01749  0.78976  0.20265  Biso   1.000  N
  N46      1.0000 0.83793  0.96376  0.21044  Biso   1.000  N
  N47      1.0000 0.68754  0.64056  0.02298  Biso   1.000  N
  N48      1.0000 0.50660  0.78230  0.34138  Biso   1.000  N
  O1       1.0000 0.35435  0.49361  0.01500  Biso   1.000  O
  O2       1.0000 0.00470  0.30425  0.56917  Biso   1.000  O
  O3       1.0000 0.55350  0.95261  0.37631  Biso   1.000  O
  O4       1.0000 0.85567  0.49929  0.52424  Biso   1.000  O
  O5       1.0000 0.52097  0.29406  0.99764  Biso   1.000  O
  O6       1.0000 0.05867  0.96244  0.18370  Biso   1.000  O
  O7       1.0000 0.17533  0.99475  0.02329  Biso   1.000  O
  O8       1.0000 0.52523  0.79746  0.56251  Biso   1.000  O
  O9       1.0000 0.96472  0.46670  0.36794  Biso   1.000  O
  O10      1.0000 0.66666  0.00215  0.53668  Biso   1.000  O
  O11      1.0000 0.00862  0.80557  0.98457  Biso   1.000  O
  O12      1.0000 0.46767  0.44563  0.17874  Biso   1.000  O
  O13      1.0000 0.66487  0.42486  0.02903  Biso   1.000  O
  O14      1.0000 0.02275  0.61608  0.48442  Biso   1.000  O
  O15      1.0000 0.46935  0.95468  0.68694  Biso   1.000  O
  O16      1.0000 0.16787  0.41441  0.52719  Biso   1.000  O
  O17      1.0000 0.50376  0.61157  0.06097  Biso   1.000  O
  O18      1.0000 0.97099  0.96620  0.87073  Biso   1.000  O
  O19      1.0000 0.85421  0.92281  0.03181  Biso   1.000  O
  O20      1.0000 0.49671  0.11367  0.50028  Biso   1.000  O
  O21      1.0000 0.05611  0.46880  0.68468  Biso   1.000  O
  O22      1.0000 0.36182  0.91197  0.52441  Biso   1.000  O
  O23      1.0000 0.01503  0.11258  0.06763  Biso   1.000  O
  O24      1.0000 0.55753  0.45556  0.86844  Biso   1.000  O
  O25      1.0000 0.97496  0.97215  0.18862  Biso   1.000  O
  O26      1.0000 0.17125  0.90924  0.01977  Biso   1.000  O
  O27      1.0000 0.02714  0.11977  0.98309  Biso   1.000  O
  O28      1.0000 0.46793  0.96406  0.36966  Biso   1.000  O
  O29      1.0000 0.67329  0.91688  0.53261  Biso   1.000  O
  O30      1.0000 0.50145  0.11617  0.58548  Biso   1.000  O
  O31      1.0000 0.55066  0.45873  0.18242  Biso   1.000  O
  O32      1.0000 0.35272  0.41157  0.02774  Biso   1.000  O
  O33      1.0000 0.51691  0.61097  0.97803  Biso   1.000  O
  O34      1.0000 0.05057  0.45891  0.36956  Biso   1.000  O
  O35      1.0000 0.85071  0.41441  0.52808  Biso   1.000  O
  O36      1.0000 0.02240  0.61882  0.56918  Biso   1.000  O
  O37      1.0000 0.05534  0.96101  0.86870  Biso   1.000  O
  O38      1.0000 0.85945  0.00972  0.02795  Biso   1.000  O
  O39      1.0000 0.01863  0.80976  0.06729  Biso   1.000  O
  O40      1.0000 0.55338  0.95193  0.68680  Biso   1.000  O
  O41      1.0000 0.35019  0.99608  0.52608  Biso   1.000  O
  O42      1.0000 0.52556  0.79490  0.47547  Biso   1.000  O
  O43      1.0000 0.47287  0.44485  0.86627  Biso   1.000  O
  O44      1.0000 0.67243  0.50703  0.02039  Biso   1.000  O
  O45      1.0000 0.50574  0.29750  0.08063  Biso   1.000  O
  O46      1.0000 0.97121  0.46589  0.68728  Biso   1.000  O
  O47      1.0000 0.17595  0.49577  0.51760  Biso   1.000  O
  O48      1.0000 0.00410  0.30158  0.48279  Biso   1.000  O
  O49      1.0000 0.01445  0.92436  0.18530  Biso   1.000  O
  O50      1.0000 0.16864  0.95032  0.97839  Biso   1.000  O
  O51      1.0000 0.97829  0.11848  0.02268  Biso   1.000  O
  O52      1.0000 0.50686  0.91675  0.36828  Biso   1.000  O
  O53      1.0000 0.67176  0.96148  0.57672  Biso   1.000  O
  O54      1.0000 0.45682  0.11510  0.54937  Biso   1.000  O
  O55      1.0000 0.51521  0.41158  0.18731  Biso   1.000  O
  O56      1.0000 0.35063  0.44377  0.98047  Biso   1.000  O
  O57      1.0000 0.55335  0.61420  0.02061  Biso   1.000  O
  O58      1.0000 0.00703  0.42060  0.37167  Biso   1.000  O
  O59      1.0000 0.85422  0.45784  0.56617  Biso   1.000  O
  O60      1.0000 0.06494  0.61386  0.52563  Biso   1.000  O
  O61      1.0000 0.01670  0.00518  0.86780  Biso   1.000  O
  O62      1.0000 0.85840  0.97224  0.07325  Biso   1.000  O
  O63      1.0000 0.05115  0.80042  0.02221  Biso   1.000  O
  O64      1.0000 0.51210  0.99517  0.69024  Biso   1.000  O
  O65      1.0000 0.35443  0.95330  0.48247  Biso   1.000  O
  O66      1.0000 0.56501  0.79712  0.51355  Biso   1.000  O
  O67      1.0000 0.50884  0.49198  0.86778  Biso   1.000  O
  O68      1.0000 0.66878  0.46975  0.07017  Biso   1.000  O
  O69      1.0000 0.47158  0.29566  0.03248  Biso   1.000  O
  O70      1.0000 0.01182  0.50861  0.68852  Biso   1.000  O
  O71      1.0000 0.16980  0.45055  0.48261  Biso   1.000  O
  O72      1.0000 0.96042  0.30416  0.52483  Biso   1.000  O
  O73      1.0000 0.01104  0.42388  0.68290  Biso   1.000  O
  O74      1.0000 0.67131  0.96076  0.49149  Biso   1.000  O
  O75      1.0000 0.47214  0.61003  0.01320  Biso   1.000  O
  O76      1.0000 0.52023  0.41036  0.87184  Biso   1.000  O
  O77      1.0000 0.17313  0.95016  0.06074  Biso   1.000  O
  O78      1.0000 0.98013  0.61458  0.52310  Biso   1.000  O
  O79      1.0000 0.50938  0.91318  0.68458  Biso   1.000  O
  O80      1.0000 0.85779  0.45049  0.48343  Biso   1.000  O
  O81      1.0000 0.06153  0.11249  0.02825  Biso   1.000  O
  O82      1.0000 0.00790  0.92023  0.87022  Biso   1.000  O
  O83      1.0000 0.35385  0.45915  0.06209  Biso   1.000  O
  O84      1.0000 0.54296  0.11175  0.53922  Biso   1.000  O
  O85      1.0000 0.01133  0.50617  0.36623  Biso   1.000  O
  O86      1.0000 0.35584  0.95535  0.56676  Biso   1.000  O
  O87      1.0000 0.55473  0.30158  0.04446  Biso   1.000  O
  O88      1.0000 0.50403  0.49407  0.18041  Biso   1.000  O
  O89      1.0000 0.85575  0.96452  0.98989  Biso   1.000  O
  O90      1.0000 0.04507  0.30010  0.52720  Biso   1.000  O
  O91      1.0000 0.51717  0.99819  0.37865  Biso   1.000  O
  O92      1.0000 0.17124  0.45857  0.56541  Biso   1.000  O
  O93      1.0000 0.96663  0.81136  0.03063  Biso   1.000  O
  O94      1.0000 0.02021  0.00859  0.18509  Biso   1.000  O
  O95      1.0000 0.67121  0.46361  0.98559  Biso   1.000  O
  O96      1.0000 0.48407  0.79438  0.52027  Biso   1.000  O
  O97      1.0000 0.45543  0.16371  0.54919  Biso   1.000  O
  O98      1.0000 0.51322  0.41659  0.23439  Biso   1.000  O
  O99      1.0000 0.21813  0.44455  0.47987  Biso   1.000  O
  O100     1.0000 0.97819  0.16683  0.02559  Biso   1.000  O
  O101     1.0000 0.00843  0.42101  0.32256  Biso   1.000  O
  O102     1.0000 0.71648  0.46319  0.07161  Biso   1.000  O
  O103     1.0000 0.06520  0.66260  0.52157  Biso   1.000  O
  O104     1.0000 0.01153  0.92272  0.23408  Biso   1.000  O
  O105     1.0000 0.30702  0.94529  0.48138  Biso   1.000  O
  O106     1.0000 0.55110  0.66305  0.02226  Biso   1.000  O
  O107     1.0000 0.51191  0.91833  0.31878  Biso   1.000  O
  O108     1.0000 0.80971  0.97183  0.07320  Biso   1.000  O
  O109     1.0000 0.56392  0.74971  0.52675  Biso   1.000  O
  O110     1.0000 0.50796  0.48790  0.81819  Biso   1.000  O
  O111     1.0000 0.80428  0.46542  0.56810  Biso   1.000  O
  O112     1.0000 0.04890  0.75199  0.02497  Biso   1.000  O
  O113     1.0000 0.01300  0.50840  0.73718  Biso   1.000  O
  O114     1.0000 0.30084  0.44511  0.97803  Biso   1.000  O
  O115     1.0000 0.96278  0.25507  0.52811  Biso   1.000  O
  O116     1.0000 0.01446  0.00481  0.81945  Biso   1.000  O
  O117     1.0000 0.72111  0.96008  0.57430  Biso   1.000  O
  O118     1.0000 0.47105  0.24741  0.03532  Biso   1.000  O
  O119     1.0000 0.50340  0.99040  0.73868  Biso   1.000  O
  O120     1.0000 0.21888  0.94983  0.97945  Biso   1.000  O
  O121     1.0000 0.05657  0.46521  0.73346  Biso   1.000  O
  O122     1.0000 0.71562  0.00264  0.53351  Biso   1.000  O
  O123     1.0000 0.50422  0.66021  0.06240  Biso   1.000  O
  O124     1.0000 0.55660  0.45083  0.82060  Biso   1.000  O
  O125     1.0000 0.22486  0.99229  0.02424  Biso   1.000  O
  O126     1.0000 0.02645  0.66444  0.48275  Biso   1.000  O
  O127     1.0000 0.46417  0.95048  0.73445  Biso   1.000  O
  O128     1.0000 0.80871  0.50160  0.51675  Biso   1.000  O
  O129     1.0000 0.02184  0.16078  0.06668  Biso   1.000  O
  O130     1.0000 0.96957  0.96670  0.82188  Biso   1.000  O
  O131     1.0000 0.30567  0.49355  0.01255  Biso   1.000  O
  O132     1.0000 0.49705  0.16250  0.50193  Biso   1.000  O
  O133     1.0000 0.96892  0.46510  0.31791  Biso   1.000  O
  O134     1.0000 0.31261  0.90926  0.52668  Biso   1.000  O
  O135     1.0000 0.52060  0.24664  0.00014  Biso   1.000  O
  O136     1.0000 0.46372  0.44537  0.22678  Biso   1.000  O
  O137     1.0000 0.80587  0.92790  0.03741  Biso   1.000  O
  O138     1.0000 0.00335  0.25493  0.56880  Biso   1.000  O
  O139     1.0000 0.55473  0.95643  0.32704  Biso   1.000  O
  O140     1.0000 0.21626  0.41125  0.52537  Biso   1.000  O
  O141     1.0000 0.00093  0.75706  0.98422  Biso   1.000  O
  O142     1.0000 0.05992  0.96108  0.23276  Biso   1.000  O
  O143     1.0000 0.71278  0.42372  0.03234  Biso   1.000  O
  O144     1.0000 0.51965  0.74828  0.56374  Biso   1.000  O
  O145     1.0000 0.54706  0.46456  0.23087  Biso   1.000  O
  O146     1.0000 0.22602  0.49410  0.51581  Biso   1.000  O
  O147     1.0000 0.50561  0.16462  0.58563  Biso   1.000  O
  O148     1.0000 0.05189  0.46206  0.32122  Biso   1.000  O
  O149     1.0000 0.72092  0.50437  0.02563  Biso   1.000  O
  O150     1.0000 0.02403  0.16852  0.98216  Biso   1.000  O
  O151     1.0000 0.97497  0.96776  0.23767  Biso   1.000  O
  O152     1.0000 0.30280  0.99184  0.51956  Biso   1.000  O
  O153     1.0000 0.02626  0.66800  0.56715  Biso   1.000  O
  O154     1.0000 0.47161  0.96260  0.32127  Biso   1.000  O
  O155     1.0000 0.81103  0.01076  0.03095  Biso   1.000  O
  O156     1.0000 0.51799  0.65893  0.97459  Biso   1.000  O
  O157     1.0000 0.47357  0.43903  0.81874  Biso   1.000  O
  O158     1.0000 0.80266  0.42018  0.53434  Biso   1.000  O
  O159     1.0000 0.52162  0.74551  0.47629  Biso   1.000  O
  O160     1.0000 0.97018  0.46277  0.73514  Biso   1.000  O
  O161     1.0000 0.30478  0.41107  0.02819  Biso   1.000  O
  O162     1.0000 0.01601  0.76075  0.06654  Biso   1.000  O
  O163     1.0000 0.05518  0.96345  0.81936  Biso   1.000  O
  O164     1.0000 0.72193  0.91909  0.53397  Biso   1.000  O
  O165     1.0000 0.00233  0.25238  0.48331  Biso   1.000  O
  O166     1.0000 0.55265  0.95222  0.73609  Biso   1.000  O
  O167     1.0000 0.21967  0.90799  0.01752  Biso   1.000  O
  O168     1.0000 0.50418  0.24923  0.08237  Biso   1.000  O
  O169     1.0000 0.02208  0.00927  0.23428  Biso   1.000  O
  O170     1.0000 0.22074  0.94727  0.06164  Biso   1.000  O
  O171     1.0000 0.06324  0.16092  0.02471  Biso   1.000  O
  O172     1.0000 0.51297  0.00334  0.32986  Biso   1.000  O
  O173     1.0000 0.72041  0.96290  0.49347  Biso   1.000  O
  O174     1.0000 0.54214  0.15907  0.54478  Biso   1.000  O
  O175     1.0000 0.49690  0.49682  0.22824  Biso   1.000  O
  O176     1.0000 0.30276  0.45713  0.06267  Biso   1.000  O
  O177     1.0000 0.46969  0.65590  0.01190  Biso   1.000  O
  O178     1.0000 0.01020  0.50399  0.31660  Biso   1.000  O
  O179     1.0000 0.80894  0.45415  0.48462  Biso   1.000  O
  O180     1.0000 0.97971  0.66296  0.52785  Biso   1.000  O
  O181     1.0000 0.01254  0.92256  0.82040  Biso   1.000  O
  O182     1.0000 0.80812  0.96398  0.99164  Biso   1.000  O
  O183     1.0000 0.96589  0.76280  0.03302  Biso   1.000  O
  O184     1.0000 0.51629  0.90897  0.73303  Biso   1.000  O
  O185     1.0000 0.30785  0.95067  0.56671  Biso   1.000  O
  O186     1.0000 0.47818  0.74642  0.51668  Biso   1.000  O
  O187     1.0000 0.51911  0.40574  0.82391  Biso   1.000  O
  O188     1.0000 0.71881  0.45394  0.98865  Biso   1.000  O
  O189     1.0000 0.55538  0.25247  0.04576  Biso   1.000  O
  O190     1.0000 0.01556  0.42184  0.73020  Biso   1.000  O
  O191     1.0000 0.22032  0.45970  0.56454  Biso   1.000  O
  O192     1.0000 0.04713  0.25130  0.52669  Biso   1.000  O
