data_image0
_cell_length_a       46.9371
_cell_length_b       46.6646
_cell_length_c       46.6336
_cell_angle_alpha    90
_cell_angle_beta     90
_cell_angle_gamma    90

_symmetry_space_group_name_H-M    "P 1"
_symmetry_int_tables_number       1

loop_
  _symmetry_equiv_pos_as_xyz
  'x, y, z'

loop_
  _atom_site_label
  _atom_site_occupancy
  _atom_site_fract_x
  _atom_site_fract_y
  _atom_site_fract_z
  _atom_site_thermal_displace_type
  _atom_site_B_iso_or_equiv
  _atom_site_type_symbol
  C1       1.0000 0.55616  0.00287  0.32496  Biso   1.000  C
  C2       1.0000 0.32145  0.55713  0.00628  Biso   1.000  C
  C3       1.0000 0.00719  0.31781  0.56657  Biso   1.000  C
  C4       1.0000 0.05579  0.99426  0.18842  Biso   1.000  C
  C5       1.0000 0.82321  0.56044  0.50478  Biso   1.000  C
  C6       1.0000 0.50828  0.31845  0.95448  Biso   1.000  C
  C7       1.0000 0.95007  0.49012  0.33396  Biso   1.000  C
  C8       1.0000 0.18456  0.05768  0.00829  Biso   1.000  C
  C9       1.0000 0.49475  0.82420  0.55785  Biso   1.000  C
  C10      1.0000 0.44544  0.49947  0.18339  Biso   1.000  C
  C11      1.0000 0.68934  0.06130  0.50467  Biso   1.000  C
  C12      1.0000 0.01149  0.81970  0.95265  Biso   1.000  C
  C13      1.0000 0.44666  0.99878  0.68497  Biso   1.000  C
  C14      1.0000 0.68145  0.44137  0.01476  Biso   1.000  C
  C15      1.0000 0.00915  0.68468  0.45532  Biso   1.000  C
  C16      1.0000 0.94608  0.99350  0.82597  Biso   1.000  C
  C17      1.0000 0.18492  0.44244  0.50122  Biso   1.000  C
  C18      1.0000 0.50032  0.68345  0.05919  Biso   1.000  C
  C19      1.0000 0.06628  0.49869  0.69201  Biso   1.000  C
  C20      1.0000 0.81967  0.94066  0.01490  Biso   1.000  C
  C21      1.0000 0.51258  0.18205  0.45637  Biso   1.000  C
  C22      1.0000 0.56319  0.50043  0.83314  Biso   1.000  C
  C23      1.0000 0.32116  0.94239  0.50634  Biso   1.000  C
  C24      1.0000 0.99798  0.17772  0.06385  Biso   1.000  C
  C25      1.0000 0.31414  0.05158  0.50087  Biso   1.000  C
  C26      1.0000 0.49080  0.31529  0.06304  Biso   1.000  C
  C27      1.0000 0.05889  0.49939  0.32985  Biso   1.000  C
  C28      1.0000 0.81826  0.04824  0.00675  Biso   1.000  C
  C29      1.0000 0.00395  0.32105  0.45712  Biso   1.000  C
  C30      1.0000 0.55242  0.50757  0.19153  Biso   1.000  C
  C31      1.0000 0.19281  0.54846  0.51457  Biso   1.000  C
  C32      1.0000 0.00163  0.81667  0.06115  Biso   1.000  C
  C33      1.0000 0.44723  0.00200  0.32352  Biso   1.000  C
  C34      1.0000 0.68317  0.55001  0.02130  Biso   1.000  C
  C35      1.0000 0.51376  0.82773  0.44964  Biso   1.000  C
  C36      1.0000 0.94608  0.99649  0.19556  Biso   1.000  C
  C37      1.0000 0.68209  0.95217  0.50625  Biso   1.000  C
  C38      1.0000 0.50539  0.68650  0.95006  Biso   1.000  C
  C39      1.0000 0.95931  0.50261  0.69072  Biso   1.000  C
  C40      1.0000 0.18078  0.95054  0.99838  Biso   1.000  C
  C41      1.0000 0.01217  0.68083  0.56277  Biso   1.000  C
  C42      1.0000 0.45606  0.49706  0.82788  Biso   1.000  C
  C43      1.0000 0.82446  0.45460  0.51472  Biso   1.000  C
  C44      1.0000 0.99752  0.17724  0.95346  Biso   1.000  C
  C45      1.0000 0.55578  0.99062  0.68351  Biso   1.000  C
  C46      1.0000 0.32334  0.44786  0.99740  Biso   1.000  C
  C47      1.0000 0.49766  0.17553  0.56434  Biso   1.000  C
  C48      1.0000 0.05521  0.00177  0.81886  Biso   1.000  C
  C49      1.0000 0.00052  0.05279  0.82383  Biso   1.000  C
  C50      1.0000 0.82646  0.99597  0.06512  Biso   1.000  C
  C51      1.0000 0.05665  0.81945  0.00582  Biso   1.000  C
  C52      1.0000 0.50367  0.04914  0.68790  Biso   1.000  C
  C53      1.0000 0.31621  0.99591  0.45133  Biso   1.000  C
  C54      1.0000 0.55768  0.82198  0.51616  Biso   1.000  C
  C55      1.0000 0.50822  0.55316  0.83063  Biso   1.000  C
  C56      1.0000 0.68102  0.49226  0.07307  Biso   1.000  C
  C57      1.0000 0.44541  0.31937  0.00325  Biso   1.000  C
  C58      1.0000 0.01889  0.55292  0.69143  Biso   1.000  C
  C59      1.0000 0.18919  0.49716  0.45310  Biso   1.000  C
  C60      1.0000 0.94947  0.32643  0.51477  Biso   1.000  C
  C61      1.0000 0.00069  0.94478  0.19175  Biso   1.000  C
  C62      1.0000 0.17891  0.00407  0.94976  Biso   1.000  C
  C63      1.0000 0.94195  0.17699  0.00406  Biso   1.000  C
  C64      1.0000 0.50334  0.95022  0.32524  Biso   1.000  C
  C65      1.0000 0.68896  0.00591  0.56014  Biso   1.000  C
  C66      1.0000 0.44800  0.17898  0.50223  Biso   1.000  C
  C67      1.0000 0.50501  0.44839  0.18320  Biso   1.000  C
  C68      1.0000 0.32287  0.50755  0.94991  Biso   1.000  C
  C69      1.0000 0.55494  0.67915  0.00483  Biso   1.000  C
  C70      1.0000 0.00629  0.44401  0.32738  Biso   1.000  C
  C71      1.0000 0.82640  0.51188  0.56922  Biso   1.000  C
  C72      1.0000 0.06610  0.67794  0.50983  Biso   1.000  C
  C73      1.0000 0.99900  0.55299  0.33040  Biso   1.000  C
  C74      1.0000 0.31812  0.00109  0.55953  Biso   1.000  C
  C75      1.0000 0.55223  0.31510  0.01880  Biso   1.000  C
  C76      1.0000 0.49334  0.55953  0.18595  Biso   1.000  C
  C77      1.0000 0.81762  0.98725  0.95493  Biso   1.000  C
  C78      1.0000 0.05743  0.32073  0.51076  Biso   1.000  C
  C79      1.0000 0.50369  0.05903  0.32592  Biso   1.000  C
  C80      1.0000 0.19091  0.49023  0.56173  Biso   1.000  C
  C81      1.0000 0.94821  0.81761  0.00301  Biso   1.000  C
  C82      1.0000 0.99936  0.05420  0.19034  Biso   1.000  C
  C83      1.0000 0.68846  0.49897  0.96399  Biso   1.000  C
  C84      1.0000 0.45236  0.82045  0.49366  Biso   1.000  C
  C85      1.0000 0.01137  0.44625  0.69177  Biso   1.000  C
  C86      1.0000 0.68265  0.00794  0.45031  Biso   1.000  C
  C87      1.0000 0.44608  0.68751  0.00167  Biso   1.000  C
  C88      1.0000 0.51146  0.44454  0.82813  Biso   1.000  C
  C89      1.0000 0.18180  0.99375  0.05666  Biso   1.000  C
  C90      1.0000 0.95550  0.68383  0.50736  Biso   1.000  C
  C91      1.0000 0.50127  0.94195  0.68653  Biso   1.000  C
  C92      1.0000 0.82204  0.49940  0.45821  Biso   1.000  C
  C93      1.0000 0.05226  0.17831  0.00293  Biso   1.000  C
  C94      1.0000 0.01019  0.94641  0.82463  Biso   1.000  C
  C95      1.0000 0.32000  0.50054  0.05586  Biso   1.000  C
  C96      1.0000 0.55635  0.18172  0.51827  Biso   1.000  C
  C97      1.0000 0.69068  0.09330  0.50865  Biso   1.000  C
  C98      1.0000 0.49783  0.68261  0.09114  Biso   1.000  C
  C99      1.0000 0.09948  0.49515  0.69110  Biso   1.000  C
  C100     1.0000 0.18449  0.09100  0.00829  Biso   1.000  C
  C101     1.0000 0.00750  0.68421  0.42432  Biso   1.000  C
  C102     1.0000 0.59572  0.50481  0.83564  Biso   1.000  C
  C103     1.0000 0.82441  0.59250  0.50375  Biso   1.000  C
  C104     1.0000 0.00139  0.17885  0.09629  Biso   1.000  C
  C105     1.0000 0.41423  0.99706  0.68498  Biso   1.000  C
  C106     1.0000 0.32198  0.58901  0.00807  Biso   1.000  C
  C107     1.0000 0.51655  0.18329  0.42576  Biso   1.000  C
  C108     1.0000 0.91353  0.99034  0.82736  Biso   1.000  C
  C109     1.0000 0.32290  0.91056  0.50677  Biso   1.000  C
  C110     1.0000 0.51289  0.31699  0.92189  Biso   1.000  C
  C111     1.0000 0.91778  0.48733  0.33433  Biso   1.000  C
  C112     1.0000 0.81911  0.90889  0.01908  Biso   1.000  C
  C113     1.0000 0.00993  0.31605  0.59836  Biso   1.000  C
  C114     1.0000 0.41372  0.50215  0.18297  Biso   1.000  C
  C115     1.0000 0.18469  0.41150  0.49105  Biso   1.000  C
  C116     1.0000 0.02183  0.82125  0.92171  Biso   1.000  C
  C117     1.0000 0.58783  0.99875  0.32495  Biso   1.000  C
  C118     1.0000 0.68224  0.40905  0.01423  Biso   1.000  C
  C119     1.0000 0.48924  0.82160  0.58924  Biso   1.000  C
  C120     1.0000 0.08803  0.99430  0.18597  Biso   1.000  C
  C121     1.0000 0.82492  0.99693  0.09667  Biso   1.000  C
  C122     1.0000 0.08999  0.82102  0.00274  Biso   1.000  C
  C123     1.0000 0.00033  0.08464  0.82383  Biso   1.000  C
  C124     1.0000 0.31691  0.00046  0.41895  Biso   1.000  C
  C125     1.0000 0.58895  0.82290  0.51501  Biso   1.000  C
  C126     1.0000 0.50121  0.08098  0.68960  Biso   1.000  C
  C127     1.0000 0.67941  0.49185  0.10439  Biso   1.000  C
  C128     1.0000 0.41327  0.32066  0.00348  Biso   1.000  C
  C129     1.0000 0.50549  0.58556  0.82870  Biso   1.000  C
  C130     1.0000 0.18873  0.49887  0.42082  Biso   1.000  C
  C131     1.0000 0.91760  0.32706  0.51854  Biso   1.000  C
  C132     1.0000 0.01976  0.58597  0.69085  Biso   1.000  C
  C133     1.0000 0.17876  0.99773  0.91876  Biso   1.000  C
  C134     1.0000 0.90988  0.17774  0.00526  Biso   1.000  C
  C135     1.0000 0.00085  0.91151  0.19166  Biso   1.000  C
  C136     1.0000 0.68599  0.00771  0.59143  Biso   1.000  C
  C137     1.0000 0.41664  0.17724  0.49969  Biso   1.000  C
  C138     1.0000 0.50219  0.91927  0.32548  Biso   1.000  C
  C139     1.0000 0.32498  0.51061  0.91885  Biso   1.000  C
  C140     1.0000 0.58621  0.67871  0.00857  Biso   1.000  C
  C141     1.0000 0.50930  0.41634  0.18288  Biso   1.000  C
  C142     1.0000 0.82931  0.51123  0.60164  Biso   1.000  C
  C143     1.0000 0.09704  0.67612  0.51917  Biso   1.000  C
  C144     1.0000 0.00521  0.41203  0.32783  Biso   1.000  C
  C145     1.0000 0.31918  0.50193  0.08797  Biso   1.000  C
  C146     1.0000 0.09040  0.32054  0.51108  Biso   1.000  C
  C147     1.0000 0.50203  0.09064  0.32778  Biso   1.000  C
  C148     1.0000 0.82211  0.49855  0.42573  Biso   1.000  C
  C149     1.0000 0.58408  0.31522  0.02482  Biso   1.000  C
  C150     1.0000 0.99439  0.08481  0.19145  Biso   1.000  C
  C151     1.0000 0.18290  0.99206  0.08854  Biso   1.000  C
  C152     1.0000 0.42009  0.81875  0.49588  Biso   1.000  C
  C153     1.0000 0.99656  0.58622  0.33116  Biso   1.000  C
  C154     1.0000 0.68316  0.01007  0.41878  Biso   1.000  C
  C155     1.0000 0.91643  0.81825  0.00402  Biso   1.000  C
  C156     1.0000 0.48592  0.59128  0.18531  Biso   1.000  C
  C157     1.0000 0.69100  0.49762  0.93091  Biso   1.000  C
  C158     1.0000 0.92263  0.68604  0.50739  Biso   1.000  C
  C159     1.0000 0.50867  0.91092  0.68469  Biso   1.000  C
  C160     1.0000 0.19263  0.48709  0.59306  Biso   1.000  C
  C161     1.0000 0.41528  0.68817  0.00203  Biso   1.000  C
  C162     1.0000 0.01321  0.91463  0.82597  Biso   1.000  C
  C163     1.0000 0.81740  0.98614  0.92341  Biso   1.000  C
  C164     1.0000 0.58976  0.18230  0.51894  Biso   1.000  C
  C165     1.0000 0.01554  0.41452  0.69396  Biso   1.000  C
  C166     1.0000 0.31782  0.00118  0.59152  Biso   1.000  C
  C167     1.0000 0.08400  0.18010  0.00359  Biso   1.000  C
  C168     1.0000 0.51482  0.41254  0.82953  Biso   1.000  C
  C169     1.0000 0.00424  0.81665  0.09322  Biso   1.000  C
  C170     1.0000 0.08704  0.99939  0.81829  Biso   1.000  C
  C171     1.0000 0.81755  0.08061  0.00690  Biso   1.000  C
  C172     1.0000 0.51547  0.82635  0.41747  Biso   1.000  C
  C173     1.0000 0.58719  0.99273  0.68356  Biso   1.000  C
  C174     1.0000 0.31300  0.08421  0.50129  Biso   1.000  C
  C175     1.0000 0.49039  0.31667  0.09523  Biso   1.000  C
  C176     1.0000 0.42365  0.49695  0.82683  Biso   1.000  C
  C177     1.0000 0.68362  0.58164  0.01974  Biso   1.000  C
  C178     1.0000 0.00154  0.31967  0.42464  Biso   1.000  C
  C179     1.0000 0.92550  0.50269  0.69248  Biso   1.000  C
  C180     1.0000 0.19484  0.58124  0.51575  Biso   1.000  C
  C181     1.0000 0.99737  0.17669  0.92115  Biso   1.000  C
  C182     1.0000 0.91468  0.99102  0.19418  Biso   1.000  C
  C183     1.0000 0.18088  0.91909  0.99469  Biso   1.000  C
  C184     1.0000 0.49671  0.17542  0.59602  Biso   1.000  C
  C185     1.0000 0.41407  0.99748  0.32384  Biso   1.000  C
  C186     1.0000 0.68359  0.91929  0.50525  Biso   1.000  C
  C187     1.0000 0.50992  0.68484  0.91964  Biso   1.000  C
  C188     1.0000 0.58383  0.50972  0.19231  Biso   1.000  C
  C189     1.0000 0.32288  0.41657  0.99602  Biso   1.000  C
  C190     1.0000 0.01902  0.67982  0.59379  Biso   1.000  C
  C191     1.0000 0.09138  0.50131  0.32730  Biso   1.000  C
  C192     1.0000 0.82377  0.42265  0.51146  Biso   1.000  C
  C193     1.0000 0.84552  0.98602  0.90701  Biso   1.000  C
  C194     1.0000 0.89874  0.84507  0.00775  Biso   1.000  C
  C195     1.0000 0.01589  0.89929  0.85277  Biso   1.000  C
  C196     1.0000 0.34419  0.00186  0.60722  Biso   1.000  C
  C197     1.0000 0.40289  0.84430  0.49574  Biso   1.000  C
  C198     1.0000 0.50249  0.89512  0.65784  Biso   1.000  C
  C199     1.0000 0.66371  0.49914  0.91590  Biso   1.000  C
  C200     1.0000 0.59988  0.34253  0.02091  Biso   1.000  C
  C201     1.0000 0.51702  0.39656  0.85561  Biso   1.000  C
  C202     1.0000 0.16576  0.49224  0.60961  Biso   1.000  C
  C203     1.0000 0.10508  0.34695  0.50629  Biso   1.000  C
  C204     1.0000 0.01180  0.39832  0.66617  Biso   1.000  C
  C205     1.0000 0.15572  0.99124  0.10382  Biso   1.000  C
  C206     1.0000 0.10128  0.15367  0.00109  Biso   1.000  C
  C207     1.0000 0.99358  0.09988  0.16334  Biso   1.000  C
  C208     1.0000 0.65626  0.00538  0.40414  Biso   1.000  C
  C209     1.0000 0.60871  0.15696  0.51683  Biso   1.000  C
  C210     1.0000 0.50572  0.10537  0.35509  Biso   1.000  C
  C211     1.0000 0.34614  0.50138  0.10311  Biso   1.000  C
  C212     1.0000 0.40120  0.66015  0.00036  Biso   1.000  C
  C213     1.0000 0.48626  0.60578  0.15824  Biso   1.000  C
  C214     1.0000 0.84950  0.49671  0.41034  Biso   1.000  C
  C215     1.0000 0.90603  0.65879  0.50781  Biso   1.000  C
  C216     1.0000 0.99867  0.60280  0.35769  Biso   1.000  C
  C217     1.0000 0.10042  0.99954  0.84568  Biso   1.000  C
  C218     1.0000 0.84320  0.09840  0.00212  Biso   1.000  C
  C219     1.0000 0.00346  0.84373  0.11043  Biso   1.000  C
  C220     1.0000 0.60485  0.99552  0.65746  Biso   1.000  C
  C221     1.0000 0.34089  0.09869  0.50581  Biso   1.000  C
  C222     1.0000 0.51254  0.85286  0.40225  Biso   1.000  C
  C223     1.0000 0.40750  0.49837  0.85453  Biso   1.000  C
  C224     1.0000 0.65606  0.59793  0.01978  Biso   1.000  C
  C225     1.0000 0.49566  0.34437  0.11033  Biso   1.000  C
  C226     1.0000 0.90888  0.50145  0.66615  Biso   1.000  C
  C227     1.0000 0.16771  0.59826  0.51601  Biso   1.000  C
  C228     1.0000 0.00075  0.34660  0.40859  Biso   1.000  C
  C229     1.0000 0.90142  0.99248  0.16750  Biso   1.000  C
  C230     1.0000 0.15456  0.90155  0.99433  Biso   1.000  C
  C231     1.0000 0.99956  0.15049  0.90372  Biso   1.000  C
  C232     1.0000 0.39873  0.00041  0.35183  Biso   1.000  C
  C233     1.0000 0.65684  0.90297  0.50655  Biso   1.000  C
  C234     1.0000 0.50013  0.14888  0.61111  Biso   1.000  C
  C235     1.0000 0.60201  0.50716  0.16739  Biso   1.000  C
  C236     1.0000 0.34874  0.39957  0.99706  Biso   1.000  C
  C237     1.0000 0.51123  0.65679  0.90558  Biso   1.000  C
  C238     1.0000 0.10803  0.49893  0.35420  Biso   1.000  C
  C239     1.0000 0.84995  0.40621  0.51209  Biso   1.000  C
  C240     1.0000 0.01706  0.65201  0.60996  Biso   1.000  C
  C241     1.0000 0.61132  0.50319  0.86353  Biso   1.000  C
  C242     1.0000 0.85140  0.60783  0.50559  Biso   1.000  C
  C243     1.0000 0.48906  0.84737  0.60735  Biso   1.000  C
  C244     1.0000 0.11440  0.49351  0.66369  Biso   1.000  C
  C245     1.0000 0.34853  0.60563  0.00440  Biso   1.000  C
  C246     1.0000 0.01943  0.84687  0.90456  Biso   1.000  C
  C247     1.0000 0.89764  0.98704  0.85485  Biso   1.000  C
  C248     1.0000 0.66371  0.10837  0.51170  Biso   1.000  C
  C249     1.0000 0.01035  0.34432  0.61377  Biso   1.000  C
  C250     1.0000 0.39770  0.99809  0.65816  Biso   1.000  C
  C251     1.0000 0.15724  0.10585  0.00415  Biso   1.000  C
  C252     1.0000 0.51280  0.34366  0.90682  Biso   1.000  C
  C253     1.0000 0.39663  0.50370  0.15513  Biso   1.000  C
  C254     1.0000 0.15765  0.39551  0.49324  Biso   1.000  C
  C255     1.0000 0.51109  0.15529  0.40817  Biso   1.000  C
  C256     1.0000 0.90110  0.49173  0.36138  Biso   1.000  C
  C257     1.0000 0.65441  0.39462  0.01414  Biso   1.000  C
  C258     1.0000 0.99742  0.15189  0.11232  Biso   1.000  C
  C259     1.0000 0.10298  0.99246  0.15871  Biso   1.000  C
  C260     1.0000 0.35092  0.89598  0.50160  Biso   1.000  C
  C261     1.0000 0.00717  0.65724  0.40909  Biso   1.000  C
  C262     1.0000 0.60450  0.00027  0.35273  Biso   1.000  C
  C263     1.0000 0.84649  0.89324  0.01619  Biso   1.000  C
  C264     1.0000 0.49628  0.65552  0.10562  Biso   1.000  C
  C265     1.0000 0.00033  0.09949  0.85248  Biso   1.000  C
  C266     1.0000 0.85072  0.99511  0.11339  Biso   1.000  C
  C267     1.0000 0.10362  0.84859  0.00155  Biso   1.000  C
  C268     1.0000 0.50127  0.09827  0.66314  Biso   1.000  C
  C269     1.0000 0.34503  0.00031  0.40339  Biso   1.000  C
  C270     1.0000 0.60560  0.85038  0.51061  Biso   1.000  C
  C271     1.0000 0.50845  0.60307  0.85520  Biso   1.000  C
  C272     1.0000 0.65157  0.49648  0.11974  Biso   1.000  C
  C273     1.0000 0.39820  0.34765  0.00215  Biso   1.000  C
  C274     1.0000 0.01658  0.59972  0.66232  Biso   1.000  C
  C275     1.0000 0.16186  0.49667  0.40388  Biso   1.000  C
  C276     1.0000 0.90121  0.35421  0.51656  Biso   1.000  C
  C277     1.0000 0.00402  0.89682  0.16270  Biso   1.000  C
  C278     1.0000 0.15074  0.99671  0.90314  Biso   1.000  C
  C279     1.0000 0.89426  0.15007  0.00124  Biso   1.000  C
  C280     1.0000 0.50783  0.90151  0.35076  Biso   1.000  C
  C281     1.0000 0.65782  0.00431  0.60776  Biso   1.000  C
  C282     1.0000 0.39875  0.15081  0.50750  Biso   1.000  C
  C283     1.0000 0.50875  0.39844  0.15684  Biso   1.000  C
  C284     1.0000 0.35041  0.50706  0.90338  Biso   1.000  C
  C285     1.0000 0.60293  0.65129  0.01163  Biso   1.000  C
  C286     1.0000 0.00548  0.39661  0.35470  Biso   1.000  C
  C287     1.0000 0.85734  0.50830  0.61436  Biso   1.000  C
  C288     1.0000 0.11390  0.64871  0.51797  Biso   1.000  C
  C289     1.0000 0.34995  0.86389  0.50708  Biso   1.000  C
  C290     1.0000 0.51407  0.34363  0.87467  Biso   1.000  C
  C291     1.0000 0.87049  0.49519  0.35886  Biso   1.000  C
  C292     1.0000 0.84628  0.86284  0.01495  Biso   1.000  C
  C293     1.0000 0.01083  0.34441  0.64395  Biso   1.000  C
  C294     1.0000 0.36579  0.50589  0.15532  Biso   1.000  C
  C295     1.0000 0.15827  0.36409  0.49649  Biso   1.000  C
  C296     1.0000 0.02080  0.84496  0.87296  Biso   1.000  C
  C297     1.0000 0.63580  0.00296  0.35178  Biso   1.000  C
  C298     1.0000 0.65324  0.36395  0.01945  Biso   1.000  C
  C299     1.0000 0.49327  0.84300  0.63864  Biso   1.000  C
  C300     1.0000 0.13456  0.99141  0.15754  Biso   1.000  C
  C301     1.0000 0.66323  0.13941  0.51504  Biso   1.000  C
  C302     1.0000 0.49006  0.65867  0.13705  Biso   1.000  C
  C303     1.0000 0.14579  0.49070  0.66348  Biso   1.000  C
  C304     1.0000 0.15640  0.13689  0.00615  Biso   1.000  C
  C305     1.0000 0.00427  0.65731  0.37733  Biso   1.000  C
  C306     1.0000 0.64239  0.50558  0.86318  Biso   1.000  C
  C307     1.0000 0.85124  0.63956  0.50356  Biso   1.000  C
  C308     1.0000 0.99809  0.15291  0.14347  Biso   1.000  C
  C309     1.0000 0.36672  0.99504  0.65989  Biso   1.000  C
  C310     1.0000 0.34891  0.63746  0.00454  Biso   1.000  C
  C311     1.0000 0.50755  0.15772  0.37695  Biso   1.000  C
  C312     1.0000 0.86631  0.98262  0.85438  Biso   1.000  C
  C313     1.0000 0.16154  0.49529  0.37296  Biso   1.000  C
  C314     1.0000 0.36753  0.15102  0.50058  Biso   1.000  C
  C315     1.0000 0.50762  0.36586  0.16035  Biso   1.000  C
  C316     1.0000 0.65308  0.50075  0.15130  Biso   1.000  C
  C317     1.0000 0.86294  0.15106  0.00356  Biso   1.000  C
  C318     1.0000 0.00301  0.36438  0.35400  Biso   1.000  C
  C319     1.0000 0.34554  0.99762  0.37240  Biso   1.000  C
  C320     1.0000 0.14529  0.64922  0.52107  Biso   1.000  C
  C321     1.0000 0.00400  0.86529  0.16301  Biso   1.000  C
  C322     1.0000 0.84914  0.99403  0.14425  Biso   1.000  C
  C323     1.0000 0.63520  0.65077  0.01508  Biso   1.000  C
  C324     1.0000 0.50697  0.86994  0.34848  Biso   1.000  C
  C325     1.0000 0.85531  0.50836  0.64695  Biso   1.000  C
  C326     1.0000 0.63734  0.85054  0.51256  Biso   1.000  C
  C327     1.0000 0.50825  0.63437  0.85393  Biso   1.000  C
  C328     1.0000 0.35339  0.50226  0.87253  Biso   1.000  C
  C329     1.0000 0.13524  0.84752  0.99948  Biso   1.000  C
  C330     1.0000 0.01983  0.63225  0.66181  Biso   1.000  C
  C331     1.0000 0.65772  0.00309  0.63899  Biso   1.000  C
  C332     1.0000 0.86998  0.35380  0.51444  Biso   1.000  C
  C333     1.0000 0.99962  0.13040  0.85114  Biso   1.000  C
  C334     1.0000 0.15266  0.99724  0.87037  Biso   1.000  C
  C335     1.0000 0.36680  0.34609  0.00105  Biso   1.000  C
  C336     1.0000 0.50101  0.12995  0.66443  Biso   1.000  C
  C337     1.0000 0.66375  0.50226  0.88512  Biso   1.000  C
  C338     1.0000 0.87400  0.66021  0.50436  Biso   1.000  C
  C339     1.0000 0.49765  0.86389  0.66030  Biso   1.000  C
  C340     1.0000 0.16637  0.49089  0.64095  Biso   1.000  C
  C341     1.0000 0.37047  0.65929  0.00316  Biso   1.000  C
  C342     1.0000 0.01646  0.86742  0.85222  Biso   1.000  C
  C343     1.0000 0.84588  0.98294  0.87603  Biso   1.000  C
  C344     1.0000 0.63925  0.15983  0.51642  Biso   1.000  C
  C345     1.0000 0.01132  0.36624  0.66555  Biso   1.000  C
  C346     1.0000 0.34504  0.99654  0.63768  Biso   1.000  C
  C347     1.0000 0.13300  0.15641  0.00488  Biso   1.000  C
  C348     1.0000 0.51700  0.36483  0.85242  Biso   1.000  C
  C349     1.0000 0.34481  0.50430  0.13444  Biso   1.000  C
  C350     1.0000 0.13682  0.34474  0.50219  Biso   1.000  C
  C351     1.0000 0.50564  0.13622  0.35454  Biso   1.000  C
  C352     1.0000 0.84798  0.49756  0.37916  Biso   1.000  C
  C353     1.0000 0.63220  0.34280  0.02082  Biso   1.000  C
  C354     1.0000 0.99402  0.13153  0.16448  Biso   1.000  C
  C355     1.0000 0.15628  0.99161  0.13522  Biso   1.000  C
  C356     1.0000 0.37304  0.84308  0.50270  Biso   1.000  C
  C357     1.0000 0.00070  0.63506  0.35701  Biso   1.000  C
  C358     1.0000 0.65747  0.00501  0.37295  Biso   1.000  C
  C359     1.0000 0.86816  0.84237  0.01040  Biso   1.000  C
  C360     1.0000 0.48644  0.63764  0.15827  Biso   1.000  C
  C361     1.0000 0.99925  0.15194  0.87252  Biso   1.000  C
  C362     1.0000 0.86939  0.99247  0.16549  Biso   1.000  C
  C363     1.0000 0.15624  0.86994  0.99571  Biso   1.000  C
  C364     1.0000 0.50270  0.15124  0.64239  Biso   1.000  C
  C365     1.0000 0.36760  0.99977  0.35123  Biso   1.000  C
  C366     1.0000 0.65812  0.87217  0.50969  Biso   1.000  C
  C367     1.0000 0.50856  0.65743  0.87436  Biso   1.000  C
  C368     1.0000 0.63239  0.50562  0.17150  Biso   1.000  C
  C369     1.0000 0.34576  0.36788  0.99767  Biso   1.000  C
  C370     1.0000 0.02133  0.65334  0.64014  Biso   1.000  C
  C371     1.0000 0.13967  0.49806  0.35236  Biso   1.000  C
  C372     1.0000 0.84908  0.37420  0.51329  Biso   1.000  C
  C373     1.0000 0.00244  0.84346  0.14227  Biso   1.000  C
  C374     1.0000 0.13275  0.99658  0.84726  Biso   1.000  C
  C375     1.0000 0.84099  0.12953  0.00319  Biso   1.000  C
  C376     1.0000 0.50881  0.84969  0.37071  Biso   1.000  C
  C377     1.0000 0.63584  0.99834  0.65924  Biso   1.000  C
  C378     1.0000 0.34424  0.13082  0.50169  Biso   1.000  C
  C379     1.0000 0.50291  0.34464  0.14010  Biso   1.000  C
  C380     1.0000 0.37642  0.49847  0.85214  Biso   1.000  C
  C381     1.0000 0.65698  0.62942  0.01900  Biso   1.000  C
  C382     1.0000 0.00012  0.34525  0.37697  Biso   1.000  C
  C383     1.0000 0.87653  0.50537  0.66849  Biso   1.000  C
  C384     1.0000 0.16816  0.62939  0.51983  Biso   1.000  C
  C385     1.0000 0.18227  0.15362  0.00981  Biso   1.000  C
  C386     1.0000 0.00032  0.18036  0.15928  Biso   1.000  C
  C387     1.0000 0.15223  0.99116  0.18397  Biso   1.000  C
  C388     1.0000 0.68812  0.15608  0.51447  Biso   1.000  C
  C389     1.0000 0.50757  0.18499  0.36294  Biso   1.000  C
  C390     1.0000 0.65116  0.00079  0.32625  Biso   1.000  C
  C391     1.0000 0.32219  0.65233  0.00585  Biso   1.000  C
  C392     1.0000 0.49160  0.68611  0.15193  Biso   1.000  C
  C393     1.0000 0.35122  0.50849  0.18157  Biso   1.000  C
  C394     1.0000 0.82507  0.65600  0.50492  Biso   1.000  C
  C395     1.0000 0.00369  0.68334  0.36173  Biso   1.000  C
  C396     1.0000 0.85638  0.49487  0.33040  Biso   1.000  C
  C397     1.0000 0.82025  0.84603  0.01569  Biso   1.000  C
  C398     1.0000 0.02477  0.81885  0.85718  Biso   1.000  C
  C399     1.0000 0.85135  0.98112  0.82755  Biso   1.000  C
  C400     1.0000 0.32372  0.84802  0.51261  Biso   1.000  C
  C401     1.0000 0.49470  0.81584  0.65397  Biso   1.000  C
  C402     1.0000 0.35226  0.98889  0.68674  Biso   1.000  C
  C403     1.0000 0.68034  0.34902  0.02170  Biso   1.000  C
  C404     1.0000 0.51100  0.31677  0.85966  Biso   1.000  C
  C405     1.0000 0.65809  0.51105  0.83677  Biso   1.000  C
  C406     1.0000 0.18535  0.34867  0.49388  Biso   1.000  C
  C407     1.0000 0.01185  0.31831  0.66046  Biso   1.000  C
  C408     1.0000 0.16113  0.48949  0.69058  Biso   1.000  C
  C409     1.0000 0.14908  0.99360  0.82135  Biso   1.000  C
  C410     1.0000 0.81464  0.14477  0.01072  Biso   1.000  C
  C411     1.0000 0.00393  0.81643  0.15769  Biso   1.000  C
  C412     1.0000 0.65121  0.99695  0.68683  Biso   1.000  C
  C413     1.0000 0.31947  0.14812  0.49433  Biso   1.000  C
  C414     1.0000 0.50616  0.82199  0.35550  Biso   1.000  C
  C415     1.0000 0.36249  0.49606  0.82419  Biso   1.000  C
  C416     1.0000 0.68351  0.64406  0.01620  Biso   1.000  C
  C417     1.0000 0.50395  0.31855  0.15562  Biso   1.000  C
  C418     1.0000 0.86090  0.50602  0.69387  Biso   1.000  C
  C419     1.0000 0.19554  0.64450  0.52106  Biso   1.000  C
  C420     1.0000 0.99823  0.31724  0.36141  Biso   1.000  C
  C421     1.0000 0.85279  0.98988  0.19152  Biso   1.000  C
  C422     1.0000 0.18433  0.85582  0.99754  Biso   1.000  C
  C423     1.0000 0.99954  0.17990  0.85816  Biso   1.000  C
  C424     1.0000 0.35265  0.99719  0.32446  Biso   1.000  C
  C425     1.0000 0.68596  0.85606  0.50889  Biso   1.000  C
  C426     1.0000 0.50360  0.17750  0.65803  Biso   1.000  C
  C427     1.0000 0.64697  0.50496  0.19848  Biso   1.000  C
  C428     1.0000 0.31921  0.35296  0.99782  Biso   1.000  C
  C429     1.0000 0.50671  0.68294  0.85739  Biso   1.000  C
  C430     1.0000 0.15424  0.49881  0.32592  Biso   1.000  C
  C431     1.0000 0.82179  0.35936  0.51512  Biso   1.000  C
  C432     1.0000 0.02680  0.67999  0.65582  Biso   1.000  C
  C433     1.0000 0.99909  0.14677  0.82480  Biso   1.000  C
  C434     1.0000 0.82169  0.99137  0.15823  Biso   1.000  C
  C435     1.0000 0.15262  0.82203  0.00153  Biso   1.000  C
  C436     1.0000 0.50139  0.14535  0.69148  Biso   1.000  C
  C437     1.0000 0.31888  0.99509  0.35642  Biso   1.000  C
  C438     1.0000 0.65377  0.82327  0.51441  Biso   1.000  C
  C439     1.0000 0.50769  0.64865  0.82659  Biso   1.000  C
  C440     1.0000 0.68014  0.49972  0.16747  Biso   1.000  C
  C441     1.0000 0.35054  0.32007  0.00149  Biso   1.000  C
  C442     1.0000 0.02475  0.64775  0.68820  Biso   1.000  C
  C443     1.0000 0.18775  0.49744  0.35683  Biso   1.000  C
  C444     1.0000 0.85486  0.32699  0.51659  Biso   1.000  C
  C445     1.0000 0.00555  0.84936  0.19094  Biso   1.000  C
  C446     1.0000 0.17977  0.99450  0.85551  Biso   1.000  C
  C447     1.0000 0.84705  0.17737  0.00812  Biso   1.000  C
  C448     1.0000 0.50257  0.85398  0.32187  Biso   1.000  C
  C449     1.0000 0.68409  0.00490  0.65500  Biso   1.000  C
  C450     1.0000 0.35335  0.17821  0.49333  Biso   1.000  C
  C451     1.0000 0.50969  0.35249  0.18742  Biso   1.000  C
  C452     1.0000 0.32823  0.50235  0.85549  Biso   1.000  C
  C453     1.0000 0.65052  0.67735  0.01300  Biso   1.000  C
  C454     1.0000 0.00147  0.34757  0.32741  Biso   1.000  C
  C455     1.0000 0.82894  0.50994  0.66266  Biso   1.000  C
  C456     1.0000 0.16125  0.67677  0.52541  Biso   1.000  C
  C457     1.0000 0.99829  0.65025  0.33001  Biso   1.000  C
  C458     1.0000 0.31782  0.99153  0.65359  Biso   1.000  C
  C459     1.0000 0.64750  0.31627  0.02529  Biso   1.000  C
  C460     1.0000 0.48578  0.65418  0.18537  Biso   1.000  C
  C461     1.0000 0.81927  0.98122  0.85959  Biso   1.000  C
  C462     1.0000 0.15196  0.31782  0.50470  Biso   1.000  C
  C463     1.0000 0.50454  0.15332  0.32824  Biso   1.000  C
  C464     1.0000 0.19391  0.48786  0.65688  Biso   1.000  C
  C465     1.0000 0.85334  0.81442  0.01019  Biso   1.000  C
  C466     1.0000 0.99453  0.14769  0.19088  Biso   1.000  C
  C467     1.0000 0.69070  0.50419  0.86947  Biso   1.000  C
  C468     1.0000 0.35823  0.81633  0.50843  Biso   1.000  C
  C469     1.0000 0.01070  0.35164  0.69245  Biso   1.000  C
  C470     1.0000 0.68354  0.00867  0.35713  Biso   1.000  C
  C471     1.0000 0.35406  0.68517  0.00446  Biso   1.000  C
  C472     1.0000 0.51353  0.34926  0.82622  Biso   1.000  C
  C473     1.0000 0.18423  0.99061  0.15083  Biso   1.000  C
  C474     1.0000 0.85940  0.68733  0.50361  Biso   1.000  C
  C475     1.0000 0.50116  0.84803  0.68657  Biso   1.000  C
  C476     1.0000 0.82298  0.49902  0.36175  Biso   1.000  C
  C477     1.0000 0.14638  0.18451  0.00750  Biso   1.000  C
  C478     1.0000 0.01687  0.85114  0.82604  Biso   1.000  C
  C479     1.0000 0.31798  0.50678  0.14984  Biso   1.000  C
  C480     1.0000 0.65459  0.18793  0.51683  Biso   1.000  C
  C481     1.0000 0.37523  0.78964  0.50751  Biso   1.000  C
  C482     1.0000 0.51440  0.36593  0.79975  Biso   1.000  C
  C483     1.0000 0.79584  0.49955  0.37927  Biso   1.000  C
  C484     1.0000 0.87118  0.78886  0.00917  Biso   1.000  C
  C485     1.0000 0.01384  0.36650  0.72047  Biso   1.000  C
  C486     1.0000 0.29116  0.50625  0.13325  Biso   1.000  C
  C487     1.0000 0.13603  0.29075  0.51010  Biso   1.000  C
  C488     1.0000 0.01579  0.86800  0.79803  Biso   1.000  C
  C489     1.0000 0.71016  0.01306  0.37231  Biso   1.000  C
  C490     1.0000 0.63226  0.28962  0.03108  Biso   1.000  C
  C491     1.0000 0.50880  0.86472  0.71115  Biso   1.000  C
  C492     1.0000 0.21157  0.98968  0.13493  Biso   1.000  C
  C493     1.0000 0.63658  0.21334  0.52249  Biso   1.000  C
  C494     1.0000 0.48482  0.63907  0.21383  Biso   1.000  C
  C495     1.0000 0.22067  0.48393  0.63928  Biso   1.000  C
  C496     1.0000 0.12917  0.21043  0.00556  Biso   1.000  C
  C497     1.0000 0.99703  0.63337  0.30262  Biso   1.000  C
  C498     1.0000 0.71804  0.50002  0.88494  Biso   1.000  C
  C499     1.0000 0.87749  0.71601  0.50445  Biso   1.000  C
  C500     1.0000 0.99586  0.13226  0.21754  Biso   1.000  C
  C501     1.0000 0.28995  0.99432  0.63925  Biso   1.000  C
  C502     1.0000 0.36735  0.71203  0.00436  Biso   1.000  C
  C503     1.0000 0.50024  0.13829  0.30074  Biso   1.000  C
  C504     1.0000 0.79208  0.98261  0.87529  Biso   1.000  C
  C505     1.0000 0.64262  0.51450  0.80945  Biso   1.000  C
  C506     1.0000 0.79625  0.63964  0.50436  Biso   1.000  C
  C507     1.0000 0.49411  0.78994  0.63419  Biso   1.000  C
  C508     1.0000 0.14599  0.48685  0.71851  Biso   1.000  C
  C509     1.0000 0.29419  0.63719  0.00718  Biso   1.000  C
  C510     1.0000 0.02970  0.79230  0.87500  Biso   1.000  C
  C511     1.0000 0.86788  0.98285  0.80116  Biso   1.000  C
  C512     1.0000 0.71617  0.13961  0.51076  Biso   1.000  C
  C513     1.0000 0.01234  0.29067  0.64573  Biso   1.000  C
  C514     1.0000 0.36866  0.98665  0.71295  Biso   1.000  C
  C515     1.0000 0.20933  0.13858  0.01191  Biso   1.000  C
  C516     1.0000 0.51126  0.28902  0.87491  Biso   1.000  C
  C517     1.0000 0.36774  0.50448  0.21056  Biso   1.000  C
  C518     1.0000 0.21234  0.36599  0.49078  Biso   1.000  C
  C519     1.0000 0.51375  0.21169  0.37978  Biso   1.000  C
  C520     1.0000 0.87391  0.49180  0.30444  Biso   1.000  C
  C521     1.0000 0.70897  0.36173  0.01892  Biso   1.000  C
  C522     1.0000 0.00521  0.20678  0.14243  Biso   1.000  C
  C523     1.0000 0.13587  0.99605  0.21260  Biso   1.000  C
  C524     1.0000 0.29605  0.86357  0.51331  Biso   1.000  C
  C525     1.0000 0.00374  0.71183  0.37642  Biso   1.000  C
  C526     1.0000 0.63664  0.99472  0.29979  Biso   1.000  C
  C527     1.0000 0.79340  0.86059  0.01982  Biso   1.000  C
  C528     1.0000 0.49495  0.71199  0.13581  Biso   1.000  C
  C529     1.0000 0.78817  0.12748  0.01463  Biso   1.000  C
  C530     1.0000 0.00551  0.78900  0.14028  Biso   1.000  C
  C531     1.0000 0.13423  0.99180  0.79371  Biso   1.000  C
  C532     1.0000 0.29089  0.13390  0.49245  Biso   1.000  C
  C533     1.0000 0.51132  0.79560  0.37167  Biso   1.000  C
  C534     1.0000 0.63424  0.99295  0.71252  Biso   1.000  C
  C535     1.0000 0.70998  0.62775  0.01548  Biso   1.000  C
  C536     1.0000 0.49774  0.29085  0.14354  Biso   1.000  C
  C537     1.0000 0.37854  0.49218  0.79682  Biso   1.000  C
  C538     1.0000 0.22205  0.62796  0.51588  Biso   1.000  C
  C539     1.0000 0.00039  0.29101  0.37857  Biso   1.000  C
  C540     1.0000 0.87833  0.50425  0.72099  Biso   1.000  C
  C541     1.0000 0.20948  0.87290  0.99583  Biso   1.000  C
  C542     1.0000 0.99969  0.20599  0.87644  Biso   1.000  C
  C543     1.0000 0.86748  0.98733  0.21955  Biso   1.000  C
  C544     1.0000 0.71186  0.87306  0.50414  Biso   1.000  C
  C545     1.0000 0.50228  0.20405  0.64244  Biso   1.000  C
  C546     1.0000 0.36745  0.99535  0.29735  Biso   1.000  C
  C547     1.0000 0.29212  0.37028  0.99990  Biso   1.000  C
  C548     1.0000 0.51062  0.71085  0.87105  Biso   1.000  C
  C549     1.0000 0.62935  0.51008  0.22366  Biso   1.000  C
  C550     1.0000 0.79464  0.37567  0.51201  Biso   1.000  C
  C551     1.0000 0.02955  0.70690  0.63915  Biso   1.000  C
  C552     1.0000 0.13746  0.50131  0.29830  Biso   1.000  C
  C553     1.0000 0.99675  0.13288  0.79750  Biso   1.000  C
  C554     1.0000 0.79571  0.99169  0.14200  Biso   1.000  C
  C555     1.0000 0.13674  0.79516  0.00130  Biso   1.000  C
  C556     1.0000 0.50493  0.12795  0.71705  Biso   1.000  C
  C557     1.0000 0.29064  0.99493  0.37167  Biso   1.000  C
  C558     1.0000 0.63691  0.79698  0.51995  Biso   1.000  C
  C559     1.0000 0.50669  0.63234  0.79904  Biso   1.000  C
  C560     1.0000 0.70682  0.49300  0.15243  Biso   1.000  C
  C561     1.0000 0.36480  0.29208  0.00190  Biso   1.000  C
  C562     1.0000 0.02610  0.63267  0.71553  Biso   1.000  C
  C563     1.0000 0.21567  0.49784  0.37215  Biso   1.000  C
  C564     1.0000 0.87013  0.30016  0.51885  Biso   1.000  C
  C565     1.0000 0.00564  0.86495  0.21832  Biso   1.000  C
  C566     1.0000 0.20685  0.99347  0.87307  Biso   1.000  C
  C567     1.0000 0.86235  0.20584  0.00565  Biso   1.000  C
  C568     1.0000 0.49720  0.87284  0.29641  Biso   1.000  C
  C569     1.0000 0.71146  0.01034  0.64036  Biso   1.000  C
  C570     1.0000 0.37099  0.20321  0.48680  Biso   1.000  C
  C571     1.0000 0.51539  0.37120  0.21215  Biso   1.000  C
  C572     1.0000 0.29966  0.50898  0.87081  Biso   1.000  C
  C573     1.0000 0.63443  0.70494  0.01135  Biso   1.000  C
  C574     1.0000 0.00455  0.36294  0.29923  Biso   1.000  C
  C575     1.0000 0.80182  0.51069  0.64789  Biso   1.000  C
  C576     1.0000 0.14414  0.70328  0.53085  Biso   1.000  C
  C577     1.0000 0.29191  0.50240  0.10297  Biso   1.000  C
  C578     1.0000 0.10540  0.29224  0.51334  Biso   1.000  C
  C579     1.0000 0.49815  0.10624  0.30135  Biso   1.000  C
  C580     1.0000 0.79582  0.49926  0.41005  Biso   1.000  C
  C581     1.0000 0.60192  0.28884  0.03125  Biso   1.000  C
  C582     1.0000 0.99539  0.10055  0.21813  Biso   1.000  C
  C583     1.0000 0.21007  0.99130  0.10289  Biso   1.000  C
  C584     1.0000 0.40554  0.79075  0.49978  Biso   1.000  C
  C585     1.0000 0.99597  0.60129  0.30426  Biso   1.000  C
  C586     1.0000 0.70963  0.01498  0.40342  Biso   1.000  C
  C587     1.0000 0.90205  0.79087  0.00501  Biso   1.000  C
  C588     1.0000 0.48394  0.60834  0.21328  Biso   1.000  C
  C589     1.0000 0.71802  0.49910  0.91534  Biso   1.000  C
  C590     1.0000 0.90919  0.71437  0.50543  Biso   1.000  C
  C591     1.0000 0.51214  0.89544  0.71020  Biso   1.000  C
  C592     1.0000 0.21912  0.48070  0.60748  Biso   1.000  C
  C593     1.0000 0.39808  0.71482  0.00220  Biso   1.000  C
  C594     1.0000 0.01396  0.89873  0.79831  Biso   1.000  C
  C595     1.0000 0.79010  0.98582  0.90574  Biso   1.000  C
  C596     1.0000 0.60502  0.20942  0.52345  Biso   1.000  C
  C597     1.0000 0.01670  0.39854  0.72127  Biso   1.000  C
  C598     1.0000 0.29112  0.99746  0.60817  Biso   1.000  C
  C599     1.0000 0.09788  0.20950  0.00471  Biso   1.000  C
  C600     1.0000 0.51400  0.39777  0.80162  Biso   1.000  C
  C601     1.0000 0.20588  0.99553  0.90460  Biso   1.000  C
  C602     1.0000 0.89406  0.20574  0.00571  Biso   1.000  C
  C603     1.0000 0.00188  0.89495  0.21855  Biso   1.000  C
  C604     1.0000 0.71186  0.01356  0.60871  Biso   1.000  C
  C605     1.0000 0.40226  0.20250  0.48866  Biso   1.000  C
  C606     1.0000 0.49714  0.90455  0.29805  Biso   1.000  C
  C607     1.0000 0.29936  0.51119  0.90147  Biso   1.000  C
  C608     1.0000 0.60299  0.70441  0.01036  Biso   1.000  C
  C609     1.0000 0.51467  0.40254  0.21157  Biso   1.000  C
  C610     1.0000 0.80197  0.51243  0.61700  Biso   1.000  C
  C611     1.0000 0.11215  0.70393  0.52796  Biso   1.000  C
  C612     1.0000 0.00666  0.39490  0.30159  Biso   1.000  C
  C613     1.0000 0.79657  0.99548  0.11048  Biso   1.000  C
  C614     1.0000 0.10693  0.79508  0.00215  Biso   1.000  C
  C615     1.0000 0.99750  0.10273  0.79715  Biso   1.000  C
  C616     1.0000 0.29075  0.99891  0.40242  Biso   1.000  C
  C617     1.0000 0.60577  0.79644  0.51869  Biso   1.000  C
  C618     1.0000 0.50104  0.09708  0.71710  Biso   1.000  C
  C619     1.0000 0.70562  0.48820  0.12181  Biso   1.000  C
  C620     1.0000 0.39718  0.29384  0.00363  Biso   1.000  C
  C621     1.0000 0.50265  0.60076  0.80101  Biso   1.000  C
  C622     1.0000 0.21400  0.49899  0.40355  Biso   1.000  C
  C623     1.0000 0.90120  0.29973  0.52011  Biso   1.000  C
  C624     1.0000 0.02648  0.60154  0.71724  Biso   1.000  C
  C625     1.0000 0.99853  0.20486  0.90803  Biso   1.000  C
  C626     1.0000 0.89879  0.98669  0.22044  Biso   1.000  C
  C627     1.0000 0.20835  0.90372  0.99405  Biso   1.000  C
  C628     1.0000 0.49648  0.20364  0.61198  Biso   1.000  C
  C629     1.0000 0.39849  0.99461  0.29564  Biso   1.000  C
  C630     1.0000 0.71172  0.90377  0.50267  Biso   1.000  C
  C631     1.0000 0.51110  0.71125  0.90223  Biso   1.000  C
  C632     1.0000 0.59776  0.51221  0.22063  Biso   1.000  C
  C633     1.0000 0.29510  0.40184  0.99873  Biso   1.000  C
  C634     1.0000 0.02530  0.70700  0.60766  Biso   1.000  C
  C635     1.0000 0.10553  0.50233  0.30041  Biso   1.000  C
  C636     1.0000 0.79595  0.40627  0.50944  Biso   1.000  C
  C637     1.0000 0.00535  0.78909  0.10924  Biso   1.000  C
  C638     1.0000 0.10224  0.99238  0.79183  Biso   1.000  C
  C639     1.0000 0.79014  0.09533  0.01293  Biso   1.000  C
  C640     1.0000 0.51429  0.79745  0.40282  Biso   1.000  C
  C641     1.0000 0.60241  0.99014  0.71080  Biso   1.000  C
  C642     1.0000 0.28767  0.10383  0.49597  Biso   1.000  C
  C643     1.0000 0.49295  0.28919  0.11189  Biso   1.000  C
  C644     1.0000 0.40946  0.49403  0.79949  Biso   1.000  C
  C645     1.0000 0.71036  0.59731  0.01719  Biso   1.000  C
  C646     1.0000 0.00320  0.29210  0.40904  Biso   1.000  C
  C647     1.0000 0.90974  0.50455  0.71926  Biso   1.000  C
  C648     1.0000 0.22239  0.59571  0.51454  Biso   1.000  C
  C649     1.0000 0.00470  0.71171  0.40874  Biso   1.000  C
  C650     1.0000 0.40012  0.99178  0.71228  Biso   1.000  C
  C651     1.0000 0.70991  0.39312  0.01673  Biso   1.000  C
  C652     1.0000 0.49619  0.71048  0.10483  Biso   1.000  C
  C653     1.0000 0.89917  0.98798  0.79996  Biso   1.000  C
  C654     1.0000 0.21255  0.39598  0.48958  Biso   1.000  C
  C655     1.0000 0.51823  0.21119  0.40998  Biso   1.000  C
  C656     1.0000 0.11485  0.49130  0.71840  Biso   1.000  C
  C657     1.0000 0.79353  0.89184  0.02036  Biso   1.000  C
  C658     1.0000 0.00651  0.20605  0.11125  Biso   1.000  C
  C659     1.0000 0.61216  0.50970  0.80953  Biso   1.000  C
  C660     1.0000 0.29603  0.89463  0.51267  Biso   1.000  C
  C661     1.0000 0.01005  0.28920  0.61486  Biso   1.000  C
  C662     1.0000 0.60539  0.99486  0.29926  Biso   1.000  C
  C663     1.0000 0.29510  0.60527  0.00927  Biso   1.000  C
  C664     1.0000 0.51315  0.28923  0.90676  Biso   1.000  C
  C665     1.0000 0.10455  0.99526  0.21255  Biso   1.000  C
  C666     1.0000 0.79741  0.60903  0.50389  Biso   1.000  C
  C667     1.0000 0.49044  0.79315  0.60228  Biso   1.000  C
  C668     1.0000 0.90411  0.48714  0.30665  Biso   1.000  C
  C669     1.0000 0.21059  0.10764  0.01274  Biso   1.000  C
  C670     1.0000 0.02828  0.79314  0.90650  Biso   1.000  C
  C671     1.0000 0.39941  0.50202  0.21036  Biso   1.000  C
  C672     1.0000 0.71745  0.10862  0.50808  Biso   1.000  C
  C673     1.0000 0.19752  0.98975  0.81019  Biso   1.000  C
  C674     1.0000 0.80103  0.19212  0.01610  Biso   1.000  C
  C675     1.0000 0.00293  0.80351  0.20532  Biso   1.000  C
  C676     1.0000 0.69805  0.99906  0.70187  Biso   1.000  C
  C677     1.0000 0.30865  0.19582  0.48814  Biso   1.000  C
  C678     1.0000 0.50229  0.80780  0.30858  Biso   1.000  C
  C679     1.0000 0.31646  0.49560  0.80933  Biso   1.000  C
  C680     1.0000 0.69688  0.68981  0.01602  Biso   1.000  C
  C681     1.0000 0.51102  0.30716  0.20338  Biso   1.000  C
  C682     1.0000 0.81399  0.50993  0.70944  Biso   1.000  C
  C683     1.0000 0.20839  0.69098  0.52894  Biso   1.000  C
  C684     1.0000 0.99949  0.30120  0.31696  Biso   1.000  C
  C685     1.0000 0.80602  0.98911  0.20464  Biso   1.000  C
  C686     1.0000 0.19918  0.80745  0.00082  Biso   1.000  C
  C687     1.0000 0.99923  0.19558  0.81166  Biso   1.000  C
  C688     1.0000 0.30772  0.99213  0.30864  Biso   1.000  C
  C689     1.0000 0.70040  0.80978  0.50815  Biso   1.000  C
  C690     1.0000 0.50511  0.19203  0.70419  Biso   1.000  C
  C691     1.0000 0.69505  0.50238  0.21236  Biso   1.000  C
  C692     1.0000 0.30292  0.30631  0.00207  Biso   1.000  C
  C693     1.0000 0.50236  0.69392  0.81033  Biso   1.000  C
  C694     1.0000 0.20092  0.50199  0.30839  Biso   1.000  C
  C695     1.0000 0.80820  0.31258  0.51815  Biso   1.000  C
  C696     1.0000 0.02591  0.69399  0.70290  Biso   1.000  C
  C697     1.0000 0.69729  0.99960  0.31037  Biso   1.000  C
  C698     1.0000 0.30826  0.69917  0.00684  Biso   1.000  C
  C699     1.0000 0.00975  0.30478  0.70725  Biso   1.000  C
  C700     1.0000 0.19722  0.98791  0.19881  Biso   1.000  C
  C701     1.0000 0.81248  0.70440  0.50613  Biso   1.000  C
  C702     1.0000 0.51026  0.30264  0.81302  Biso   1.000  C
  C703     1.0000 0.81026  0.49625  0.31500  Biso   1.000  C
  C704     1.0000 0.19391  0.20023  0.00966  Biso   1.000  C
  C705     1.0000 0.49858  0.80161  0.70162  Biso   1.000  C
  C706     1.0000 0.30471  0.50758  0.19529  Biso   1.000  C
  C707     1.0000 0.70188  0.20256  0.51562  Biso   1.000  C
  C708     1.0000 0.02290  0.80411  0.81022  Biso   1.000  C
  C709     1.0000 0.30484  0.98726  0.69946  Biso   1.000  C
  C710     1.0000 0.69426  0.30175  0.02427  Biso   1.000  C
  C711     1.0000 0.99783  0.69527  0.31488  Biso   1.000  C
  C712     1.0000 0.80596  0.97985  0.81087  Biso   1.000  C
  C713     1.0000 0.19884  0.30391  0.50073  Biso   1.000  C
  C714     1.0000 0.49616  0.70083  0.19681  Biso   1.000  C
  C715     1.0000 0.20650  0.48738  0.70464  Biso   1.000  C
  C716     1.0000 0.80646  0.79897  0.01514  Biso   1.000  C
  C717     1.0000 0.50623  0.19853  0.31384  Biso   1.000  C
  C718     1.0000 0.70519  0.51092  0.82276  Biso   1.000  C
  C719     1.0000 0.31364  0.79967  0.51565  Biso   1.000  C
  C720     1.0000 0.99926  0.19278  0.20786  Biso   1.000  C
  C721     1.0000 0.51553  0.81380  0.27978  Biso   1.000  C
  C722     1.0000 0.31815  0.50732  0.77952  Biso   1.000  C
  C723     1.0000 0.78114  0.31779  0.53385  Biso   1.000  C
  C724     1.0000 0.98378  0.77761  0.20171  Biso   1.000  C
  C725     1.0000 0.78572  0.52773  0.70794  Biso   1.000  C
  C726     1.0000 0.27412  0.31309  0.98881  Biso   1.000  C
  C727     1.0000 0.97821  0.27650  0.31822  Biso   1.000  C
  C728     1.0000 0.22492  0.00456  0.81258  Biso   1.000  C
  C729     1.0000 0.72894  0.81590  0.52197  Biso   1.000  C
  C730     1.0000 0.49914  0.31403  0.23166  Biso   1.000  C
  C731     1.0000 0.72563  0.98548  0.69578  Biso   1.000  C
  C732     1.0000 0.22694  0.81076  0.98717  Biso   1.000  C
  C733     1.0000 0.49341  0.18992  0.73384  Biso   1.000  C
  C734     1.0000 0.69091  0.48666  0.24009  Biso   1.000  C
  C735     1.0000 0.20530  0.71999  0.51901  Biso   1.000  C
  C736     1.0000 0.98424  0.22315  0.81550  Biso   1.000  C
  C737     1.0000 0.22775  0.48641  0.30930  Biso   1.000  C
  C738     1.0000 0.72062  0.68785  0.03633  Biso   1.000  C
  C739     1.0000 0.04112  0.69073  0.72950  Biso   1.000  C
  C740     1.0000 0.77843  0.97479  0.20001  Biso   1.000  C
  C741     1.0000 0.28263  0.19554  0.46992  Biso   1.000  C
  C742     1.0000 0.51872  0.69097  0.78315  Biso   1.000  C
  C743     1.0000 0.28165  0.97373  0.31107  Biso   1.000  C
  C744     1.0000 0.80646  0.21899  0.03076  Biso   1.000  C
  C745     1.0000 0.02007  0.71762  0.31461  Biso   1.000  C
  C746     1.0000 0.27698  0.00332  0.69677  Biso   1.000  C
  C747     1.0000 0.72035  0.30361  0.04140  Biso   1.000  C
  C748     1.0000 0.51930  0.72214  0.19562  Biso   1.000  C
  C749     1.0000 0.80546  0.96268  0.78458  Biso   1.000  C
  C750     1.0000 0.22709  0.30985  0.51215  Biso   1.000  C
  C751     1.0000 0.52192  0.19571  0.28669  Biso   1.000  C
  C752     1.0000 0.23101  0.46741  0.70157  Biso   1.000  C
  C753     1.0000 0.77898  0.80196  0.99904  Biso   1.000  C
  C754     1.0000 0.01851  0.21768  0.20647  Biso   1.000  C
  C755     1.0000 0.70092  0.49881  0.79293  Biso   1.000  C
  C756     1.0000 0.28967  0.80468  0.53675  Biso   1.000  C
  C757     1.0000 0.98993  0.28031  0.70320  Biso   1.000  C
  C758     1.0000 0.69576  0.01341  0.28337  Biso   1.000  C
  C759     1.0000 0.28558  0.70016  0.02752  Biso   1.000  C
  C760     1.0000 0.52764  0.30624  0.78711  Biso   1.000  C
  C761     1.0000 0.22458  0.00469  0.19605  Biso   1.000  C
  C762     1.0000 0.81610  0.73188  0.49266  Biso   1.000  C
  C763     1.0000 0.48793  0.80651  0.73048  Biso   1.000  C
  C764     1.0000 0.78281  0.51309  0.31945  Biso   1.000  C
  C765     1.0000 0.22072  0.20056  0.02843  Biso   1.000  C
  C766     1.0000 0.00100  0.80426  0.78724  Biso   1.000  C
  C767     1.0000 0.31020  0.52172  0.22381  Biso   1.000  C
  C768     1.0000 0.69467  0.23015  0.50194  Biso   1.000  C
  C769     1.0000 0.48402  0.71794  0.81556  Biso   1.000  C
  C770     1.0000 0.81778  0.49436  0.73586  Biso   1.000  C
  C771     1.0000 0.69570  0.78123  0.49436  Biso   1.000  C
  C772     1.0000 0.00839  0.72000  0.69878  Biso   1.000  C
  C773     1.0000 0.29073  0.47870  0.81666  Biso   1.000  C
  C774     1.0000 0.19487  0.78105  0.01553  Biso   1.000  C
  C775     1.0000 0.01559  0.19126  0.78416  Biso   1.000  C
  C776     1.0000 0.69399  0.00787  0.73160  Biso   1.000  C
  C777     1.0000 0.81178  0.28344  0.50498  Biso   1.000  C
  C778     1.0000 0.51928  0.21892  0.69917  Biso   1.000  C
  C779     1.0000 0.19417  0.97018  0.78479  Biso   1.000  C
  C780     1.0000 0.30619  0.28202  0.02012  Biso   1.000  C
  C781     1.0000 0.52728  0.27953  0.19878  Biso   1.000  C
  C782     1.0000 0.19541  0.52040  0.28262  Biso   1.000  C
  C783     1.0000 0.31260  0.22046  0.50885  Biso   1.000  C
  C784     1.0000 0.02295  0.30017  0.29514  Biso   1.000  C
  C785     1.0000 0.72303  0.51816  0.20782  Biso   1.000  C
  C786     1.0000 0.77248  0.18824  0.00696  Biso   1.000  C
  C787     1.0000 0.01900  0.80546  0.23239  Biso   1.000  C
  C788     1.0000 0.30995  0.00997  0.28225  Biso   1.000  C
  C789     1.0000 0.23701  0.68339  0.54227  Biso   1.000  C
  C790     1.0000 0.49370  0.77795  0.31201  Biso   1.000  C
  C791     1.0000 0.81050  0.00374  0.23271  Biso   1.000  C
  C792     1.0000 0.69649  0.71352  0.99306  Biso   1.000  C
  C793     1.0000 0.49401  0.22746  0.31941  Biso   1.000  C
  C794     1.0000 0.27717  0.49176  0.19299  Biso   1.000  C
  C795     1.0000 0.19368  0.27566  0.48694  Biso   1.000  C
  C796     1.0000 0.98486  0.18695  0.23613  Biso   1.000  C
  C797     1.0000 0.81117  0.47828  0.28771  Biso   1.000  C
  C798     1.0000 0.69064  0.27507  0.00690  Biso   1.000  C
  C799     1.0000 0.97786  0.69407  0.29017  Biso   1.000  C
  C800     1.0000 0.19384  0.97108  0.22431  Biso   1.000  C
  C801     1.0000 0.31344  0.77157  0.50125  Biso   1.000  C
  C802     1.0000 0.47707  0.70297  0.22237  Biso   1.000  C
  C803     1.0000 0.72212  0.98107  0.31619  Biso   1.000  C
  C804     1.0000 0.81163  0.77130  0.02899  Biso   1.000  C
  C805     1.0000 0.50759  0.77137  0.69381  Biso   1.000  C
  C806     1.0000 0.73426  0.52347  0.82706  Biso   1.000  C
  C807     1.0000 0.78395  0.70111  0.52043  Biso   1.000  C
  C808     1.0000 0.04639  0.78285  0.80966  Biso   1.000  C
  C809     1.0000 0.20447  0.50644  0.73016  Biso   1.000  C
  C810     1.0000 0.31087  0.72140  0.98443  Biso   1.000  C
  C811     1.0000 0.02774  0.30513  0.73342  Biso   1.000  C
  C812     1.0000 0.78400  0.00317  0.81367  Biso   1.000  C
  C813     1.0000 0.72950  0.19989  0.53035  Biso   1.000  C
  C814     1.0000 0.49061  0.27849  0.81403  Biso   1.000  C
  C815     1.0000 0.30819  0.96769  0.72341  Biso   1.000  C
  C816     1.0000 0.18797  0.22771  0.99589  Biso   1.000  C
  C817     1.0000 0.98942  0.24559  0.79606  Biso   1.000  C
  C818     1.0000 0.75741  0.97355  0.22325  Biso   1.000  C
  C819     1.0000 0.24946  0.78983  0.98938  Biso   1.000  C
  C820     1.0000 0.49602  0.21074  0.75489  Biso   1.000  C
  C821     1.0000 0.26092  0.97426  0.28952  Biso   1.000  C
  C822     1.0000 0.75007  0.79562  0.52009  Biso   1.000  C
  C823     1.0000 0.51459  0.71163  0.76289  Biso   1.000  C
  C824     1.0000 0.71331  0.48544  0.26017  Biso   1.000  C
  C825     1.0000 0.25121  0.29546  0.99550  Biso   1.000  C
  C826     1.0000 0.03853  0.71331  0.74955  Biso   1.000  C
  C827     1.0000 0.24827  0.48913  0.28850  Biso   1.000  C
  C828     1.0000 0.75884  0.29747  0.53500  Biso   1.000  C
  C829     1.0000 0.98155  0.75905  0.22498  Biso   1.000  C
  C830     1.0000 0.24624  0.99982  0.79236  Biso   1.000  C
  C831     1.0000 0.78628  0.24197  0.03341  Biso   1.000  C
  C832     1.0000 0.51519  0.79366  0.25790  Biso   1.000  C
  C833     1.0000 0.74785  0.98237  0.71562  Biso   1.000  C
  C834     1.0000 0.26219  0.21812  0.47186  Biso   1.000  C
  C835     1.0000 0.50006  0.29412  0.25326  Biso   1.000  C
  C836     1.0000 0.29638  0.50026  0.76026  Biso   1.000  C
  C837     1.0000 0.74229  0.70851  0.03478  Biso   1.000  C
  C838     1.0000 0.98007  0.25343  0.29827  Biso   1.000  C
  C839     1.0000 0.76442  0.52646  0.72932  Biso   1.000  C
  C840     1.0000 0.22643  0.74064  0.52341  Biso   1.000  C
  C841     1.0000 0.21580  0.96804  0.76433  Biso   1.000  C
  C842     1.0000 0.75329  0.21038  0.00972  Biso   1.000  C
  C843     1.0000 0.01559  0.78657  0.25452  Biso   1.000  C
  C844     1.0000 0.71568  0.00337  0.75179  Biso   1.000  C
  C845     1.0000 0.29168  0.24232  0.51012  Biso   1.000  C
  C846     1.0000 0.49363  0.75871  0.28956  Biso   1.000  C
  C847     1.0000 0.26845  0.47584  0.79675  Biso   1.000  C
  C848     1.0000 0.71772  0.73403  0.99444  Biso   1.000  C
  C849     1.0000 0.52667  0.26088  0.22174  Biso   1.000  C
  C850     1.0000 0.79775  0.49763  0.75855  Biso   1.000  C
  C851     1.0000 0.26013  0.70486  0.54197  Biso   1.000  C
  C852     1.0000 0.02376  0.27557  0.27780  Biso   1.000  C
  C853     1.0000 0.78988  0.00229  0.25377  Biso   1.000  C
  C854     1.0000 0.21657  0.75950  0.01622  Biso   1.000  C
  C855     1.0000 0.01589  0.21240  0.76385  Biso   1.000  C
  C856     1.0000 0.28880  0.00766  0.26105  Biso   1.000  C
  C857     1.0000 0.71768  0.76095  0.49397  Biso   1.000  C
  C858     1.0000 0.52223  0.24009  0.72101  Biso   1.000  C
  C859     1.0000 0.74460  0.51552  0.22854  Biso   1.000  C
  C860     1.0000 0.28362  0.26273  0.02143  Biso   1.000  C
  C861     1.0000 0.48098  0.73998  0.79477  Biso   1.000  C
  C862     1.0000 0.21653  0.52169  0.26132  Biso   1.000  C
  C863     1.0000 0.78914  0.26443  0.50729  Biso   1.000  C
  C864     1.0000 0.00951  0.74293  0.71734  Biso   1.000  C
  C865     1.0000 0.72095  0.49891  0.77190  Biso   1.000  C
  C866     1.0000 0.79505  0.75243  0.49194  Biso   1.000  C
  C867     1.0000 0.48444  0.78506  0.75086  Biso   1.000  C
  C868     1.0000 0.25183  0.46633  0.72260  Biso   1.000  C
  C869     1.0000 0.26646  0.72247  0.02513  Biso   1.000  C
  C870     1.0000 0.00159  0.78278  0.76596  Biso   1.000  C
  C871     1.0000 0.78372  0.96638  0.76606  Biso   1.000  C
  C872     1.0000 0.71404  0.25249  0.50358  Biso   1.000  C
  C873     1.0000 0.99121  0.25942  0.72436  Biso   1.000  C
  C874     1.0000 0.25599  0.99906  0.71896  Biso   1.000  C
  C875     1.0000 0.24002  0.22335  0.02749  Biso   1.000  C
  C876     1.0000 0.52691  0.28414  0.76636  Biso   1.000  C
  C877     1.0000 0.29000  0.52035  0.24577  Biso   1.000  C
  C878     1.0000 0.24838  0.28920  0.50971  Biso   1.000  C
  C879     1.0000 0.52551  0.21796  0.26743  Biso   1.000  C
  C880     1.0000 0.76056  0.51318  0.29922  Biso   1.000  C
  C881     1.0000 0.74263  0.28395  0.03946  Biso   1.000  C
  C882     1.0000 0.02138  0.23544  0.23139  Biso   1.000  C
  C883     1.0000 0.24570  0.00395  0.21651  Biso   1.000  C
  C884     1.0000 0.27173  0.78181  0.54276  Biso   1.000  C
  C885     1.0000 0.01969  0.73948  0.29236  Biso   1.000  C
  C886     1.0000 0.71788  0.00803  0.26306  Biso   1.000  C
  C887     1.0000 0.75904  0.77970  0.99983  Biso   1.000  C
  C888     1.0000 0.52296  0.74165  0.21709  Biso   1.000  C
  C889     1.0000 0.74455  0.97690  0.29596  Biso   1.000  C
  C890     1.0000 0.29126  0.74391  0.98460  Biso   1.000  C
  C891     1.0000 0.02443  0.28536  0.75529  Biso   1.000  C
  C892     1.0000 0.21678  0.97059  0.24374  Biso   1.000  C
  C893     1.0000 0.76398  0.72217  0.51910  Biso   1.000  C
  C894     1.0000 0.48938  0.25815  0.79280  Biso   1.000  C
  C895     1.0000 0.78817  0.48015  0.26846  Biso   1.000  C
  C896     1.0000 0.20854  0.24855  0.99421  Biso   1.000  C
  C897     1.0000 0.50676  0.75122  0.71535  Biso   1.000  C
  C898     1.0000 0.25487  0.49461  0.21427  Biso   1.000  C
  C899     1.0000 0.74786  0.22271  0.53007  Biso   1.000  C
  C900     1.0000 0.04624  0.76146  0.78759  Biso   1.000  C
  C901     1.0000 0.28809  0.96694  0.74772  Biso   1.000  C
  C902     1.0000 0.71181  0.25516  0.00742  Biso   1.000  C
  C903     1.0000 0.97765  0.71632  0.26993  Biso   1.000  C
  C904     1.0000 0.76366  0.00600  0.79215  Biso   1.000  C
  C905     1.0000 0.21593  0.25545  0.48499  Biso   1.000  C
  C906     1.0000 0.47935  0.72534  0.24270  Biso   1.000  C
  C907     1.0000 0.22533  0.50254  0.75122  Biso   1.000  C
  C908     1.0000 0.79071  0.74999  0.02836  Biso   1.000  C
  C909     1.0000 0.49763  0.24894  0.29907  Biso   1.000  C
  C910     1.0000 0.75610  0.52183  0.80600  Biso   1.000  C
  C911     1.0000 0.29392  0.75031  0.50777  Biso   1.000  C
  C912     1.0000 0.98929  0.20622  0.26028  Biso   1.000  C
  C913     1.0000 0.77078  0.51153  0.75419  Biso   1.000  C
  C914     1.0000 0.74425  0.76910  0.50614  Biso   1.000  C
  C915     1.0000 0.49747  0.73636  0.76860  Biso   1.000  C
  C916     1.0000 0.27281  0.48483  0.76847  Biso   1.000  C
  C917     1.0000 0.24390  0.76427  0.00302  Biso   1.000  C
  C918     1.0000 0.02438  0.73807  0.74388  Biso   1.000  C
  C919     1.0000 0.74192  0.99108  0.74399  Biso   1.000  C
  C920     1.0000 0.76299  0.26997  0.52181  Biso   1.000  C
  C921     1.0000 0.00351  0.23892  0.77077  Biso   1.000  C
  C922     1.0000 0.24148  0.98369  0.76736  Biso   1.000  C
  C923     1.0000 0.25656  0.26955  0.01077  Biso   1.000  C
  C924     1.0000 0.51035  0.23600  0.74802  Biso   1.000  C
  C925     1.0000 0.24278  0.50782  0.26502  Biso   1.000  C
  C926     1.0000 0.26516  0.23960  0.49344  Biso   1.000  C
  C927     1.0000 0.51182  0.26623  0.24813  Biso   1.000  C
  C928     1.0000 0.73978  0.49782  0.25281  Biso   1.000  C
  C929     1.0000 0.75912  0.23748  0.02164  Biso   1.000  C
  C930     1.0000 0.00348  0.25421  0.27839  Biso   1.000  C
  C931     1.0000 0.26554  0.98925  0.26458  Biso   1.000  C
  C932     1.0000 0.25339  0.73255  0.53389  Biso   1.000  C
  C933     1.0000 0.99741  0.76304  0.25026  Biso   1.000  C
  C934     1.0000 0.76394  0.98864  0.24809  Biso   1.000  C
  C935     1.0000 0.74058  0.73149  0.01418  Biso   1.000  C
  C936     1.0000 0.50313  0.76699  0.26276  Biso   1.000  C
  C937     1.0000 0.73659  0.25943  0.02342  Biso   1.000  C
  C938     1.0000 0.99792  0.73994  0.27137  Biso   1.000  C
  C939     1.0000 0.26226  0.98307  0.74378  Biso   1.000  C
  C940     1.0000 0.24286  0.26277  0.49666  Biso   1.000  C
  C941     1.0000 0.50252  0.74390  0.23944  Biso   1.000  C
  C942     1.0000 0.76276  0.98697  0.76850  Biso   1.000  C
  C943     1.0000 0.76409  0.75342  0.01447  Biso   1.000  C
  C944     1.0000 0.51204  0.24458  0.27296  Biso   1.000  C
  C945     1.0000 0.24779  0.48307  0.74774  Biso   1.000  C
  C946     1.0000 0.27407  0.75495  0.52936  Biso   1.000  C
  C947     1.0000 0.00544  0.23109  0.25673  Biso   1.000  C
  C948     1.0000 0.74902  0.50946  0.77814  Biso   1.000  C
  C949     1.0000 0.26894  0.74419  0.00493  Biso   1.000  C
  C950     1.0000 0.00707  0.26172  0.74986  Biso   1.000  C
  C951     1.0000 0.74106  0.99064  0.26876  Biso   1.000  C
  C952     1.0000 0.76880  0.74699  0.50471  Biso   1.000  C
  C953     1.0000 0.50864  0.26057  0.76970  Biso   1.000  C
  C954     1.0000 0.24359  0.98704  0.24039  Biso   1.000  C
  C955     1.0000 0.23483  0.24582  0.00863  Biso   1.000  C
  C956     1.0000 0.49493  0.75744  0.74299  Biso   1.000  C
  C957     1.0000 0.76324  0.49622  0.27425  Biso   1.000  C
  C958     1.0000 0.73968  0.24875  0.51951  Biso   1.000  C
  C959     1.0000 0.02440  0.76131  0.76606  Biso   1.000  C
  C960     1.0000 0.26335  0.50899  0.24019  Biso   1.000  C
  Cu1      1.0000 0.01086  0.50009  0.66303  Biso   1.000  Cu
  Cu2      1.0000 0.66033  0.00823  0.50545  Biso   1.000  Cu
  Cu3      1.0000 0.49879  0.65874  0.00368  Biso   1.000  Cu
  Cu4      1.0000 0.50821  0.49965  0.85633  Biso   1.000  Cu
  Cu5      1.0000 0.15374  0.00446  0.00427  Biso   1.000  Cu
  Cu6      1.0000 0.00767  0.65349  0.51009  Biso   1.000  Cu
  Cu7      1.0000 0.50011  0.99345  0.65861  Biso   1.000  Cu
  Cu8      1.0000 0.85282  0.50720  0.51002  Biso   1.000  Cu
  Cu9      1.0000 0.99748  0.15047  0.00540  Biso   1.000  Cu
  Cu10     1.0000 0.00153  0.00165  0.85030  Biso   1.000  Cu
  Cu11     1.0000 0.34837  0.50137  0.00336  Biso   1.000  Cu
  Cu12     1.0000 0.50383  0.15263  0.50863  Biso   1.000  Cu
  Cu13     1.0000 0.00490  0.49782  0.35672  Biso   1.000  Cu
  Cu14     1.0000 0.34475  0.99726  0.50278  Biso   1.000  Cu
  Cu15     1.0000 0.49857  0.34293  0.00922  Biso   1.000  Cu
  Cu16     1.0000 0.49966  0.50305  0.15676  Biso   1.000  Cu
  Cu17     1.0000 0.84810  0.99438  0.00969  Biso   1.000  Cu
  Cu18     1.0000 0.00464  0.34788  0.51274  Biso   1.000  Cu
  Cu19     1.0000 0.50185  0.00626  0.35304  Biso   1.000  Cu
  Cu20     1.0000 0.16133  0.49622  0.50988  Biso   1.000  Cu
  Cu21     1.0000 0.00093  0.84575  0.00727  Biso   1.000  Cu
  Cu22     1.0000 0.00035  0.99809  0.16418  Biso   1.000  Cu
  Cu23     1.0000 0.65663  0.49670  0.01794  Biso   1.000  Cu
  Cu24     1.0000 0.50453  0.84948  0.50399  Biso   1.000  Cu
  Cu25     1.0000 0.20632  0.00367  0.00292  Biso   1.000  Cu
  Cu26     1.0000 0.99458  0.20335  0.00727  Biso   1.000  Cu
  Cu27     1.0000 0.00303  0.99773  0.21956  Biso   1.000  Cu
  Cu28     1.0000 0.71377  0.00512  0.50508  Biso   1.000  Cu
  Cu29     1.0000 0.50156  0.20647  0.51153  Biso   1.000  Cu
  Cu30     1.0000 0.50279  0.00412  0.29765  Biso   1.000  Cu
  Cu31     1.0000 0.29500  0.50216  0.00147  Biso   1.000  Cu
  Cu32     1.0000 0.50112  0.71116  0.00417  Biso   1.000  Cu
  Cu33     1.0000 0.49743  0.50304  0.21140  Biso   1.000  Cu
  Cu34     1.0000 0.79752  0.50803  0.51507  Biso   1.000  Cu
  Cu35     1.0000 0.01269  0.70867  0.50835  Biso   1.000  Cu
  Cu36     1.0000 0.00244  0.49767  0.30303  Biso   1.000  Cu
  Cu37     1.0000 0.79435  0.99357  0.01010  Biso   1.000  Cu
  Cu38     1.0000 0.00290  0.79189  0.00442  Biso   1.000  Cu
  Cu39     1.0000 0.00067  0.99772  0.79756  Biso   1.000  Cu
  Cu40     1.0000 0.29206  0.99577  0.50512  Biso   1.000  Cu
  Cu41     1.0000 0.50469  0.79564  0.50044  Biso   1.000  Cu
  Cu42     1.0000 0.50132  0.99398  0.71247  Biso   1.000  Cu
  Cu43     1.0000 0.70976  0.49473  0.01972  Biso   1.000  Cu
  Cu44     1.0000 0.49854  0.28924  0.00667  Biso   1.000  Cu
  Cu45     1.0000 0.51134  0.49900  0.80355  Biso   1.000  Cu
  Cu46     1.0000 0.21477  0.49366  0.50734  Biso   1.000  Cu
  Cu47     1.0000 0.00132  0.29361  0.51258  Biso   1.000  Cu
  Cu48     1.0000 0.01336  0.49993  0.71630  Biso   1.000  Cu
  H1       1.0000 0.25368  0.78508  0.55754  Biso   1.000  H
  H2       1.0000 0.53995  0.28814  0.74687  Biso   1.000  H
  H3       1.0000 0.74323  0.52788  0.30333  Biso   1.000  H
  H4       1.0000 0.73922  0.78555  0.98770  Biso   1.000  H
  H5       1.0000 0.97523  0.24280  0.72327  Biso   1.000  H
  H6       1.0000 0.29469  0.53179  0.26679  Biso   1.000  H
  H7       1.0000 0.26850  0.29266  0.52040  Biso   1.000  H
  H8       1.0000 0.98389  0.78114  0.74966  Biso   1.000  H
  H9       1.0000 0.71673  0.01681  0.24213  Biso   1.000  H
  H10      1.0000 0.76208  0.28929  0.05204  Biso   1.000  H
  H11      1.0000 0.47895  0.79139  0.77209  Biso   1.000  H
  H12      1.0000 0.26445  0.01796  0.21154  Biso   1.000  H
  H13      1.0000 0.70827  0.27421  0.49472  Biso   1.000  H
  H14      1.0000 0.54018  0.75719  0.21606  Biso   1.000  H
  H15      1.0000 0.27199  0.45391  0.72153  Biso   1.000  H
  H16      1.0000 0.26008  0.21859  0.03884  Biso   1.000  H
  H17      1.0000 0.03487  0.75682  0.29288  Biso   1.000  H
  H18      1.0000 0.71807  0.48830  0.75093  Biso   1.000  H
  H19      1.0000 0.79845  0.77151  0.47997  Biso   1.000  H
  H20      1.0000 0.03805  0.25284  0.23067  Biso   1.000  H
  H21      1.0000 0.23628  0.01132  0.71811  Biso   1.000  H
  H22      1.0000 0.24807  0.72356  0.04077  Biso   1.000  H
  H23      1.0000 0.54221  0.21573  0.25063  Biso   1.000  H
  H24      1.0000 0.78048  0.94880  0.75075  Biso   1.000  H
  H25      1.0000 0.26819  0.01029  0.79426  Biso   1.000  H
  H26      1.0000 0.79221  0.26181  0.04543  Biso   1.000  H
  H27      1.0000 0.96704  0.74058  0.22319  Biso   1.000  H
  H28      1.0000 0.76783  0.96905  0.71030  Biso   1.000  H
  H29      1.0000 0.24161  0.21446  0.46090  Biso   1.000  H
  H30      1.0000 0.52278  0.79700  0.23607  Biso   1.000  H
  H31      1.0000 0.29893  0.50921  0.73823  Biso   1.000  H
  H32      1.0000 0.76137  0.70402  0.04645  Biso   1.000  H
  H33      1.0000 0.48796  0.29903  0.27252  Biso   1.000  H
  H34      1.0000 0.74207  0.53585  0.72646  Biso   1.000  H
  H35      1.0000 0.22112  0.76137  0.51593  Biso   1.000  H
  H36      1.0000 0.96287  0.23713  0.29749  Biso   1.000  H
  H37      1.0000 0.73741  0.96142  0.21961  Biso   1.000  H
  H38      1.0000 0.27078  0.79323  0.98217  Biso   1.000  H
  H39      1.0000 0.97698  0.26459  0.80021  Biso   1.000  H
  H40      1.0000 0.24398  0.95805  0.29186  Biso   1.000  H
  H41      1.0000 0.77098  0.79790  0.52829  Biso   1.000  H
  H42      1.0000 0.48628  0.20778  0.77628  Biso   1.000  H
  H43      1.0000 0.71103  0.47435  0.28041  Biso   1.000  H
  H44      1.0000 0.23076  0.30008  0.98632  Biso   1.000  H
  H45      1.0000 0.52565  0.70695  0.74247  Biso   1.000  H
  H46      1.0000 0.26908  0.47718  0.28946  Biso   1.000  H
  H47      1.0000 0.73863  0.30103  0.54825  Biso   1.000  H
  H48      1.0000 0.04903  0.70947  0.77002  Biso   1.000  H
  H49      1.0000 0.21355  0.53524  0.24323  Biso   1.000  H
  H50      1.0000 0.29236  0.25964  0.52760  Biso   1.000  H
  H51      1.0000 0.54241  0.24342  0.22029  Biso   1.000  H
  H52      1.0000 0.76462  0.52645  0.22769  Biso   1.000  H
  H53      1.0000 0.73211  0.20486  0.00024  Biso   1.000  H
  H54      1.0000 0.04389  0.27369  0.26517  Biso   1.000  H
  H55      1.0000 0.29212  0.02150  0.24225  Biso   1.000  H
  H56      1.0000 0.28285  0.69813  0.54543  Biso   1.000  H
  H57      1.0000 0.02937  0.79129  0.27411  Biso   1.000  H
  H58      1.0000 0.79116  0.01329  0.27379  Biso   1.000  H
  H59      1.0000 0.71528  0.75168  0.97697  Biso   1.000  H
  H60      1.0000 0.48537  0.73552  0.29334  Biso   1.000  H
  H61      1.0000 0.80222  0.49002  0.77982  Biso   1.000  H
  H62      1.0000 0.71611  0.73992  0.48680  Biso   1.000  H
  H63      1.0000 0.46668  0.75838  0.79961  Biso   1.000  H
  H64      1.0000 0.24884  0.46468  0.80236  Biso   1.000  H
  H65      1.0000 0.20878  0.74061  0.02730  Biso   1.000  H
  H66      1.0000 0.99793  0.76308  0.71150  Biso   1.000  H
  H67      1.0000 0.71241  0.01108  0.77421  Biso   1.000  H
  H68      1.0000 0.79025  0.24381  0.49750  Biso   1.000  H
  H69      1.0000 0.02955  0.20788  0.74384  Biso   1.000  H
  H70      1.0000 0.21365  0.95533  0.74555  Biso   1.000  H
  H71      1.0000 0.28743  0.24404  0.03589  Biso   1.000  H
  H72      1.0000 0.53472  0.25914  0.71556  Biso   1.000  H
  H73      1.0000 0.77801  0.52985  0.81032  Biso   1.000  H
  H74      1.0000 0.74201  0.72038  0.52956  Biso   1.000  H
  H75      1.0000 0.51292  0.72903  0.70992  Biso   1.000  H
  H76      1.0000 0.22523  0.51624  0.76997  Biso   1.000  H
  H77      1.0000 0.29090  0.76020  0.96691  Biso   1.000  H
  H78      1.0000 0.06550  0.74655  0.78561  Biso   1.000  H
  H79      1.0000 0.74803  0.02329  0.79758  Biso   1.000  H
  H80      1.0000 0.76844  0.22106  0.54202  Biso   1.000  H
  H81      1.0000 0.03760  0.28684  0.77504  Biso   1.000  H
  H82      1.0000 0.29078  0.95537  0.76845  Biso   1.000  H
  H83      1.0000 0.20317  0.26637  0.97990  Biso   1.000  H
  H84      1.0000 0.47313  0.24184  0.79239  Biso   1.000  H
  H85      1.0000 0.23493  0.48211  0.21185  Biso   1.000  H
  H86      1.0000 0.21356  0.23463  0.47510  Biso   1.000  H
  H87      1.0000 0.48778  0.27003  0.30362  Biso   1.000  H
  H88      1.0000 0.78873  0.46835  0.24809  Biso   1.000  H
  H89      1.0000 0.70965  0.23759  0.99073  Biso   1.000  H
  H90      1.0000 0.98241  0.20236  0.28208  Biso   1.000  H
  H91      1.0000 0.21219  0.95783  0.26329  Biso   1.000  H
  H92      1.0000 0.29743  0.73004  0.49655  Biso   1.000  H
  H93      1.0000 0.96105  0.71401  0.25335  Biso   1.000  H
  H94      1.0000 0.76258  0.96292  0.29935  Biso   1.000  H
  H95      1.0000 0.79545  0.72903  0.03981  Biso   1.000  H
  H96      1.0000 0.46019  0.72779  0.25814  Biso   1.000  H
  H97      1.0000 0.86587  0.98653  0.92012  Biso   1.000  H
  H98      1.0000 0.90898  0.86611  0.00830  Biso   1.000  H
  H99      1.0000 0.01856  0.91359  0.87148  Biso   1.000  H
  H100     1.0000 0.36421  0.00619  0.59642  Biso   1.000  H
  H101     1.0000 0.41301  0.86577  0.49257  Biso   1.000  H
  H102     1.0000 0.50085  0.90465  0.63751  Biso   1.000  H
  H103     1.0000 0.64367  0.49997  0.92931  Biso   1.000  H
  H104     1.0000 0.58826  0.36347  0.01750  Biso   1.000  H
  H105     1.0000 0.51903  0.40808  0.87583  Biso   1.000  H
  H106     1.0000 0.14550  0.49605  0.59913  Biso   1.000  H
  H107     1.0000 0.09266  0.36661  0.50603  Biso   1.000  H
  H108     1.0000 0.01248  0.40913  0.64567  Biso   1.000  H
  H109     1.0000 0.13468  0.99474  0.09095  Biso   1.000  H
  H110     1.0000 0.09061  0.13319  0.99975  Biso   1.000  H
  H111     1.0000 0.99739  0.08882  0.14283  Biso   1.000  H
  H112     1.0000 0.63580  0.99895  0.41647  Biso   1.000  H
  H113     1.0000 0.59796  0.13564  0.51521  Biso   1.000  H
  H114     1.0000 0.50417  0.09324  0.37676  Biso   1.000  H
  H115     1.0000 0.36619  0.49921  0.09062  Biso   1.000  H
  H116     1.0000 0.41124  0.63738  0.00023  Biso   1.000  H
  H117     1.0000 0.48814  0.59372  0.13809  Biso   1.000  H
  H118     1.0000 0.86956  0.49144  0.42063  Biso   1.000  H
  H119     1.0000 0.91545  0.63775  0.51107  Biso   1.000  H
  H120     1.0000 0.00136  0.59225  0.37858  Biso   1.000  H
  H121     1.0000 0.08784  0.99986  0.86507  Biso   1.000  H
  H122     1.0000 0.86406  0.08836  0.00045  Biso   1.000  H
  H123     1.0000 0.00439  0.86540  0.10143  Biso   1.000  H
  H124     1.0000 0.59324  0.99494  0.63828  Biso   1.000  H
  H125     1.0000 0.36152  0.08864  0.51220  Biso   1.000  H
  H126     1.0000 0.51022  0.87457  0.41333  Biso   1.000  H
  H127     1.0000 0.41905  0.49777  0.87454  Biso   1.000  H
  H128     1.0000 0.63464  0.58555  0.02114  Biso   1.000  H
  H129     1.0000 0.49258  0.36588  0.10060  Biso   1.000  H
  H130     1.0000 0.91931  0.49979  0.64568  Biso   1.000  H
  H131     1.0000 0.14649  0.58707  0.51410  Biso   1.000  H
  H132     1.0000 0.00368  0.36690  0.41926  Biso   1.000  H
  H133     1.0000 0.91515  0.98944  0.14666  Biso   1.000  H
  H134     1.0000 0.13284  0.91215  0.99641  Biso   1.000  H
  H135     1.0000 0.99853  0.12907  0.91411  Biso   1.000  H
  H136     1.0000 0.41108  0.00288  0.37173  Biso   1.000  H
  H137     1.0000 0.63411  0.91289  0.50560  Biso   1.000  H
  H138     1.0000 0.49977  0.12728  0.59906  Biso   1.000  H
  H139     1.0000 0.59124  0.50808  0.14506  Biso   1.000  H
  H140     1.0000 0.36798  0.41194  0.99499  Biso   1.000  H
  H141     1.0000 0.51013  0.63556  0.91674  Biso   1.000  H
  H142     1.0000 0.09632  0.49913  0.37457  Biso   1.000  H
  H143     1.0000 0.87185  0.41616  0.51179  Biso   1.000  H
  H144     1.0000 0.01265  0.63145  0.59856  Biso   1.000  H
  H145     1.0000 0.60101  0.50217  0.88519  Biso   1.000  H
  H146     1.0000 0.87204  0.59805  0.50569  Biso   1.000  H
  H147     1.0000 0.49155  0.86755  0.59756  Biso   1.000  H
  H148     1.0000 0.10288  0.49872  0.64401  Biso   1.000  H
  H149     1.0000 0.36983  0.59436  0.00241  Biso   1.000  H
  H150     1.0000 0.01514  0.86838  0.91339  Biso   1.000  H
  H151     1.0000 0.90750  0.98783  0.87673  Biso   1.000  H
  H152     1.0000 0.64191  0.09697  0.51058  Biso   1.000  H
  H153     1.0000 0.01136  0.36453  0.60258  Biso   1.000  H
  H154     1.0000 0.40713  0.00065  0.63750  Biso   1.000  H
  H155     1.0000 0.13881  0.09156  0.99831  Biso   1.000  H
  H156     1.0000 0.51319  0.36461  0.91859  Biso   1.000  H
  H157     1.0000 0.40877  0.50015  0.13471  Biso   1.000  H
  H158     1.0000 0.13782  0.40504  0.48746  Biso   1.000  H
  H159     1.0000 0.50842  0.13216  0.41671  Biso   1.000  H
  H160     1.0000 0.91013  0.49478  0.38266  Biso   1.000  H
  H161     1.0000 0.63545  0.40656  0.00929  Biso   1.000  H
  H162     1.0000 0.99490  0.13047  0.10272  Biso   1.000  H
  H163     1.0000 0.08896  0.99448  0.13923  Biso   1.000  H
  H164     1.0000 0.36952  0.91049  0.49817  Biso   1.000  H
  H165     1.0000 0.00599  0.63673  0.41999  Biso   1.000  H
  H166     1.0000 0.59275  0.00277  0.37248  Biso   1.000  H
  H167     1.0000 0.86641  0.90527  0.01182  Biso   1.000  H
  H168     1.0000 0.49727  0.63409  0.09616  Biso   1.000  H
  H169     1.0000 0.00353  0.08958  0.87362  Biso   1.000  H
  H170     1.0000 0.87101  0.99799  0.10396  Biso   1.000  H
  H171     1.0000 0.09404  0.86914  0.00136  Biso   1.000  H
  H172     1.0000 0.49951  0.08817  0.64272  Biso   1.000  H
  H173     1.0000 0.36521  0.00181  0.41476  Biso   1.000  H
  H174     1.0000 0.59317  0.86977  0.50918  Biso   1.000  H
  H175     1.0000 0.50941  0.59539  0.87684  Biso   1.000  H
  H176     1.0000 0.63191  0.50076  0.10881  Biso   1.000  H
  H177     1.0000 0.40973  0.36827  0.00144  Biso   1.000  H
  H178     1.0000 0.01092  0.58893  0.64185  Biso   1.000  H
  H179     1.0000 0.14120  0.49611  0.41457  Biso   1.000  H
  H180     1.0000 0.91175  0.37410  0.51731  Biso   1.000  H
  H181     1.0000 0.00459  0.90778  0.14295  Biso   1.000  H
  H182     1.0000 0.12990  0.99954  0.91383  Biso   1.000  H
  H183     1.0000 0.90639  0.12998  0.99714  Biso   1.000  H
  H184     1.0000 0.51196  0.91465  0.37039  Biso   1.000  H
  H185     1.0000 0.63872  0.00270  0.59641  Biso   1.000  H
  H186     1.0000 0.40918  0.13247  0.51626  Biso   1.000  H
  H187     1.0000 0.50556  0.40904  0.13610  Biso   1.000  H
  H188     1.0000 0.36859  0.50926  0.91626  Biso   1.000  H
  H189     1.0000 0.59159  0.62952  0.01404  Biso   1.000  H
  H190     1.0000 0.00298  0.40751  0.37529  Biso   1.000  H
  H191     1.0000 0.87818  0.50647  0.60327  Biso   1.000  H
  H192     1.0000 0.10315  0.62843  0.51519  Biso   1.000  H
  H193     1.0000 0.27787  0.85061  0.51617  Biso   1.000  H
  H194     1.0000 0.51123  0.26915  0.86263  Biso   1.000  H
  H195     1.0000 0.86632  0.48765  0.28199  Biso   1.000  H
  H196     1.0000 0.77364  0.84986  0.02500  Biso   1.000  H
  H197     1.0000 0.01301  0.27037  0.65720  Biso   1.000  H
  H198     1.0000 0.35516  0.50197  0.23122  Biso   1.000  H
  H199     1.0000 0.23264  0.35592  0.49059  Biso   1.000  H
  H200     1.0000 0.03621  0.77173  0.86455  Biso   1.000  H
  H201     1.0000 0.64982  0.99147  0.28079  Biso   1.000  H
  H202     1.0000 0.72915  0.35099  0.01840  Biso   1.000  H
  H203     1.0000 0.49298  0.76841  0.64399  Biso   1.000  H
  H204     1.0000 0.14752  0.99795  0.23258  Biso   1.000  H
  H205     1.0000 0.73590  0.15068  0.51120  Biso   1.000  H
  H206     1.0000 0.49667  0.73274  0.14751  Biso   1.000  H
  H207     1.0000 0.15525  0.48418  0.74020  Biso   1.000  H
  H208     1.0000 0.22951  0.15031  0.01355  Biso   1.000  H
  H209     1.0000 0.00082  0.73324  0.36562  Biso   1.000  H
  H210     1.0000 0.65248  0.52199  0.78995  Biso   1.000  H
  H211     1.0000 0.77486  0.64864  0.50608  Biso   1.000  H
  H212     1.0000 0.00663  0.22830  0.15404  Biso   1.000  H
  H213     1.0000 0.35736  0.98282  0.73321  Biso   1.000  H
  H214     1.0000 0.27301  0.64648  0.01068  Biso   1.000  H
  H215     1.0000 0.51386  0.23192  0.36869  Biso   1.000  H
  H216     1.0000 0.85435  0.98433  0.78110  Biso   1.000  H
  H217     1.0000 0.23563  0.49764  0.36057  Biso   1.000  H
  H218     1.0000 0.36243  0.22428  0.48198  Biso   1.000  H
  H219     1.0000 0.52145  0.36187  0.23178  Biso   1.000  H
  H220     1.0000 0.72881  0.48899  0.16109  Biso   1.000  H
  H221     1.0000 0.85251  0.22726  0.00155  Biso   1.000  H
  H222     1.0000 0.00314  0.35383  0.27733  Biso   1.000  H
  H223     1.0000 0.27055  0.99286  0.35948  Biso   1.000  H
  H224     1.0000 0.15346  0.72298  0.53830  Biso   1.000  H
  H225     1.0000 0.00666  0.85409  0.23819  Biso   1.000  H
  H226     1.0000 0.77490  0.99098  0.15283  Biso   1.000  H
  H227     1.0000 0.64607  0.72560  0.01159  Biso   1.000  H
  H228     1.0000 0.49374  0.86028  0.27588  Biso   1.000  H
  H229     1.0000 0.78118  0.51317  0.65882  Biso   1.000  H
  H230     1.0000 0.64724  0.77670  0.52227  Biso   1.000  H
  H231     1.0000 0.50386  0.63993  0.77665  Biso   1.000  H
  H232     1.0000 0.27839  0.50967  0.85967  Biso   1.000  H
  H233     1.0000 0.14809  0.77421  0.99598  Biso   1.000  H
  H234     1.0000 0.02560  0.64625  0.73503  Biso   1.000  H
  H235     1.0000 0.72969  0.01419  0.65198  Biso   1.000  H
  H236     1.0000 0.85916  0.28108  0.52216  Biso   1.000  H
  H237     1.0000 0.99559  0.14238  0.77699  Biso   1.000  H
  H238     1.0000 0.22746  0.99107  0.86139  Biso   1.000  H
  H239     1.0000 0.35248  0.27147  0.00198  Biso   1.000  H
  H240     1.0000 0.50760  0.14065  0.73784  Biso   1.000  H
  H241     1.0000 0.74023  0.49687  0.87348  Biso   1.000  H
  H242     1.0000 0.86831  0.73832  0.50612  Biso   1.000  H
  H243     1.0000 0.51233  0.85240  0.73066  Biso   1.000  H
  H244     1.0000 0.24067  0.48141  0.65156  Biso   1.000  H
  H245     1.0000 0.35556  0.73257  0.00564  Biso   1.000  H
  H246     1.0000 0.01723  0.85756  0.77774  Biso   1.000  H
  H247     1.0000 0.77128  0.98206  0.86420  Biso   1.000  H
  H248     1.0000 0.64502  0.23451  0.52443  Biso   1.000  H
  H249     1.0000 0.01338  0.35507  0.74087  Biso   1.000  H
  H250     1.0000 0.27010  0.99046  0.65201  Biso   1.000  H
  H251     1.0000 0.13849  0.23130  0.00636  Biso   1.000  H
  H252     1.0000 0.51515  0.35745  0.77732  Biso   1.000  H
  H253     1.0000 0.26957  0.50904  0.14337  Biso   1.000  H
  H254     1.0000 0.14821  0.27060  0.51257  Biso   1.000  H
  H255     1.0000 0.49942  0.14968  0.28103  Biso   1.000  H
  H256     1.0000 0.77452  0.49865  0.36936  Biso   1.000  H
  H257     1.0000 0.64487  0.27074  0.03479  Biso   1.000  H
  H258     1.0000 0.99878  0.14314  0.23867  Biso   1.000  H
  H259     1.0000 0.23094  0.98316  0.14751  Biso   1.000  H
  H260     1.0000 0.36754  0.76809  0.51336  Biso   1.000  H
  H261     1.0000 0.99523  0.64422  0.28240  Biso   1.000  H
  H262     1.0000 0.73107  0.01627  0.36201  Biso   1.000  H
  H263     1.0000 0.86094  0.76605  0.01089  Biso   1.000  H
  H264     1.0000 0.48592  0.65027  0.23483  Biso   1.000  H
  H265     1.0000 0.99963  0.22740  0.86518  Biso   1.000  H
  H266     1.0000 0.85599  0.98530  0.24194  Biso   1.000  H
  H267     1.0000 0.22976  0.86334  0.99847  Biso   1.000  H
  H268     1.0000 0.50404  0.22436  0.65204  Biso   1.000  H
  H269     1.0000 0.35586  0.99464  0.27594  Biso   1.000  H
  H270     1.0000 0.73244  0.86346  0.50078  Biso   1.000  H
  H271     1.0000 0.51147  0.73051  0.85892  Biso   1.000  H
  H272     1.0000 0.63750  0.51027  0.24547  Biso   1.000  H
  H273     1.0000 0.27233  0.36065  0.00722  Biso   1.000  H
  H274     1.0000 0.03165  0.72738  0.65111  Biso   1.000  H
  H275     1.0000 0.14678  0.50497  0.27670  Biso   1.000  H
  H276     1.0000 0.77334  0.36589  0.50839  Biso   1.000  H
  H277     1.0000 0.00802  0.76936  0.15152  Biso   1.000  H
  H278     1.0000 0.14400  0.99045  0.77360  Biso   1.000  H
  H279     1.0000 0.76775  0.13695  0.01820  Biso   1.000  H
  H280     1.0000 0.51201  0.77349  0.36378  Biso   1.000  H
  H281     1.0000 0.64391  0.99298  0.73327  Biso   1.000  H
  H282     1.0000 0.27047  0.14697  0.48901  Biso   1.000  H
  H283     1.0000 0.49701  0.27139  0.15910  Biso   1.000  H
  H284     1.0000 0.36915  0.49112  0.77548  Biso   1.000  H
  H285     1.0000 0.73040  0.63989  0.01489  Biso   1.000  H
  H286     1.0000 0.00126  0.27037  0.36754  Biso   1.000  H
  H287     1.0000 0.86868  0.50589  0.74284  Biso   1.000  H
  H288     1.0000 0.24280  0.63858  0.51255  Biso   1.000  H
  H289     1.0000 0.08550  0.22970  0.00706  Biso   1.000  H
  H290     1.0000 0.99679  0.08914  0.23713  Biso   1.000  H
  H291     1.0000 0.23021  0.99224  0.08906  Biso   1.000  H
  H292     1.0000 0.59209  0.22798  0.52711  Biso   1.000  H
  H293     1.0000 0.49246  0.09481  0.28160  Biso   1.000  H
  H294     1.0000 0.72966  0.01999  0.41554  Biso   1.000  H
  H295     1.0000 0.40871  0.73681  0.00031  Biso   1.000  H
  H296     1.0000 0.48396  0.59706  0.23440  Biso   1.000  H
  H297     1.0000 0.27023  0.50172  0.09234  Biso   1.000  H
  H298     1.0000 0.92033  0.73469  0.50787  Biso   1.000  H
  H299     1.0000 0.99514  0.58952  0.28404  Biso   1.000  H
  H300     1.0000 0.77390  0.50160  0.42037  Biso   1.000  H
  H301     1.0000 0.91349  0.77087  0.00691  Biso   1.000  H
  H302     1.0000 0.01308  0.90836  0.77769  Biso   1.000  H
  H303     1.0000 0.76785  0.98390  0.91353  Biso   1.000  H
  H304     1.0000 0.41940  0.77233  0.49817  Biso   1.000  H
  H305     1.0000 0.51648  0.90532  0.73178  Biso   1.000  H
  H306     1.0000 0.27043  0.99717  0.59670  Biso   1.000  H
  H307     1.0000 0.59155  0.26878  0.03822  Biso   1.000  H
  H308     1.0000 0.51201  0.40932  0.77977  Biso   1.000  H
  H309     1.0000 0.73893  0.49918  0.92581  Biso   1.000  H
  H310     1.0000 0.09457  0.27214  0.51705  Biso   1.000  H
  H311     1.0000 0.01881  0.41092  0.74105  Biso   1.000  H
  H312     1.0000 0.23999  0.47597  0.59705  Biso   1.000  H
  H313     1.0000 0.22660  0.99807  0.91422  Biso   1.000  H
  H314     1.0000 0.90779  0.22631  0.00623  Biso   1.000  H
  H315     1.0000 0.00071  0.90257  0.24083  Biso   1.000  H
  H316     1.0000 0.73164  0.01926  0.59881  Biso   1.000  H
  H317     1.0000 0.41200  0.22259  0.48324  Biso   1.000  H
  H318     1.0000 0.49305  0.91528  0.27712  Biso   1.000  H
  H319     1.0000 0.28049  0.51530  0.91338  Biso   1.000  H
  H320     1.0000 0.59201  0.72593  0.00748  Biso   1.000  H
  H321     1.0000 0.52022  0.41289  0.23149  Biso   1.000  H
  H322     1.0000 0.78086  0.51743  0.60791  Biso   1.000  H
  H323     1.0000 0.09939  0.72238  0.53252  Biso   1.000  H
  H324     1.0000 0.00879  0.40439  0.28018  Biso   1.000  H
  H325     1.0000 0.77666  0.99606  0.09851  Biso   1.000  H
  H326     1.0000 0.09985  0.77371  0.00128  Biso   1.000  H
  H327     1.0000 0.99584  0.09302  0.77692  Biso   1.000  H
  H328     1.0000 0.26952  0.00114  0.41197  Biso   1.000  H
  H329     1.0000 0.59306  0.77651  0.52179  Biso   1.000  H
  H330     1.0000 0.50304  0.08502  0.73785  Biso   1.000  H
  H331     1.0000 0.72626  0.48315  0.11267  Biso   1.000  H
  H332     1.0000 0.40845  0.27342  0.00319  Biso   1.000  H
  H333     1.0000 0.50095  0.58734  0.78277  Biso   1.000  H
  H334     1.0000 0.23473  0.50016  0.41505  Biso   1.000  H
  H335     1.0000 0.91318  0.27884  0.52188  Biso   1.000  H
  H336     1.0000 0.02864  0.58748  0.73709  Biso   1.000  H
  H337     1.0000 0.00125  0.22525  0.91967  Biso   1.000  H
  H338     1.0000 0.91042  0.98699  0.24113  Biso   1.000  H
  H339     1.0000 0.22699  0.91659  0.99601  Biso   1.000  H
  H340     1.0000 0.49318  0.22262  0.59874  Biso   1.000  H
  H341     1.0000 0.40827  0.99256  0.27464  Biso   1.000  H
  H342     1.0000 0.73111  0.91750  0.49945  Biso   1.000  H
  H343     1.0000 0.51257  0.73187  0.91330  Biso   1.000  H
  H344     1.0000 0.58629  0.51777  0.24098  Biso   1.000  H
  H345     1.0000 0.27651  0.41523  0.99992  Biso   1.000  H
  H346     1.0000 0.02819  0.72727  0.59725  Biso   1.000  H
  H347     1.0000 0.09357  0.50413  0.28079  Biso   1.000  H
  H348     1.0000 0.77589  0.41839  0.50269  Biso   1.000  H
  H349     1.0000 0.00590  0.76801  0.09758  Biso   1.000  H
  H350     1.0000 0.09273  0.98969  0.77157  Biso   1.000  H
  H351     1.0000 0.76901  0.08483  0.01581  Biso   1.000  H
  H352     1.0000 0.51651  0.77675  0.41360  Biso   1.000  H
  H353     1.0000 0.59009  0.98696  0.73098  Biso   1.000  H
  H354     1.0000 0.26687  0.09420  0.49508  Biso   1.000  H
  H355     1.0000 0.49015  0.26785  0.10321  Biso   1.000  H
  H356     1.0000 0.42534  0.49308  0.78059  Biso   1.000  H
  H357     1.0000 0.73017  0.58609  0.01369  Biso   1.000  H
  H358     1.0000 0.00111  0.27231  0.42221  Biso   1.000  H
  H359     1.0000 0.92245  0.50617  0.73946  Biso   1.000  H
  H360     1.0000 0.24241  0.58517  0.51555  Biso   1.000  H
  H361     1.0000 0.00726  0.73156  0.42124  Biso   1.000  H
  H362     1.0000 0.40983  0.99134  0.73245  Biso   1.000  H
  H363     1.0000 0.73053  0.40355  0.01700  Biso   1.000  H
  H364     1.0000 0.49629  0.73067  0.09258  Biso   1.000  H
  H365     1.0000 0.91105  0.98887  0.78070  Biso   1.000  H
  H366     1.0000 0.23265  0.40792  0.48672  Biso   1.000  H
  H367     1.0000 0.52340  0.23133  0.42298  Biso   1.000  H
  H368     1.0000 0.10394  0.49295  0.73946  Biso   1.000  H
  H369     1.0000 0.77225  0.90249  0.02129  Biso   1.000  H
  H370     1.0000 0.00861  0.22483  0.10028  Biso   1.000  H
  H371     1.0000 0.60245  0.51243  0.78885  Biso   1.000  H
  H372     1.0000 0.27462  0.90655  0.51261  Biso   1.000  H
  H373     1.0000 0.01433  0.26937  0.60361  Biso   1.000  H
  H374     1.0000 0.59430  0.99162  0.27825  Biso   1.000  H
  H375     1.0000 0.27445  0.59328  0.01149  Biso   1.000  H
  H376     1.0000 0.51610  0.26954  0.91994  Biso   1.000  H
  H377     1.0000 0.09114  0.99920  0.23315  Biso   1.000  H
  H378     1.0000 0.77726  0.59656  0.50329  Biso   1.000  H
  H379     1.0000 0.48898  0.77181  0.59007  Biso   1.000  H
  H380     1.0000 0.91638  0.48321  0.28720  Biso   1.000  H
  H381     1.0000 0.23168  0.09727  0.01206  Biso   1.000  H
  H382     1.0000 0.03279  0.77200  0.91785  Biso   1.000  H
  H383     1.0000 0.40985  0.50201  0.23156  Biso   1.000  H
  H384     1.0000 0.73693  0.09662  0.50230  Biso   1.000  H
  H385     1.0000 0.23171  0.46866  0.32588  Biso   1.000  H
  H386     1.0000 0.27850  0.17901  0.45285  Biso   1.000  H
  H387     1.0000 0.48870  0.33437  0.23523  Biso   1.000  H
  H388     1.0000 0.67058  0.47711  0.24333  Biso   1.000  H
  H389     1.0000 0.82794  0.21931  0.04020  Biso   1.000  H
  H390     1.0000 0.96120  0.27540  0.33429  Biso   1.000  H
  H391     1.0000 0.28171  0.95800  0.32763  Biso   1.000  H
  H392     1.0000 0.18572  0.72565  0.50828  Biso   1.000  H
  H393     1.0000 0.97332  0.77226  0.18080  Biso   1.000  H
  H394     1.0000 0.77724  0.96271  0.17941  Biso   1.000  H
  H395     1.0000 0.72474  0.67008  0.04995  Biso   1.000  H
  H396     1.0000 0.52463  0.83519  0.27652  Biso   1.000  H
  H397     1.0000 0.78355  0.54331  0.68892  Biso   1.000  H
  H398     1.0000 0.73452  0.83732  0.53014  Biso   1.000  H
  H399     1.0000 0.53484  0.67498  0.77968  Biso   1.000  H
  H400     1.0000 0.33585  0.52187  0.77194  Biso   1.000  H
  H401     1.0000 0.23301  0.82933  0.97576  Biso   1.000  H
  H402     1.0000 0.05705  0.67482  0.73472  Biso   1.000  H
  H403     1.0000 0.72835  0.97626  0.67550  Biso   1.000  H
  H404     1.0000 0.77701  0.33769  0.54645  Biso   1.000  H
  H405     1.0000 0.96963  0.22845  0.83463  Biso   1.000  H
  H406     1.0000 0.22860  0.01998  0.83017  Biso   1.000  H
  H407     1.0000 0.27006  0.32977  0.97230  Biso   1.000  H
  H408     1.0000 0.47978  0.17194  0.73871  Biso   1.000  H
  H409     1.0000 0.27272  0.47903  0.17373  Biso   1.000  H
  H410     1.0000 0.17488  0.27217  0.47396  Biso   1.000  H
  H411     1.0000 0.48002  0.23318  0.33836  Biso   1.000  H
  H412     1.0000 0.82986  0.46459  0.28078  Biso   1.000  H
  H413     1.0000 0.67174  0.27114  0.99357  Biso   1.000  H
  H414     1.0000 0.96968  0.16872  0.23964  Biso   1.000  H
  H415     1.0000 0.17708  0.95573  0.22933  Biso   1.000  H
  H416     1.0000 0.32750  0.76734  0.48340  Biso   1.000  H
  H417     1.0000 0.96125  0.67744  0.28748  Biso   1.000  H
  H418     1.0000 0.72263  0.97060  0.33700  Biso   1.000  H
  H419     1.0000 0.83026  0.76875  0.04317  Biso   1.000  H
  H420     1.0000 0.46011  0.68837  0.22354  Biso   1.000  H
  H421     1.0000 0.73811  0.53383  0.84770  Biso   1.000  H
  H422     1.0000 0.77609  0.68125  0.53259  Biso   1.000  H
  H423     1.0000 0.51487  0.76334  0.67267  Biso   1.000  H
  H424     1.0000 0.18801  0.52303  0.73112  Biso   1.000  H
  H425     1.0000 0.32764  0.72079  0.96803  Biso   1.000  H
  H426     1.0000 0.06424  0.78290  0.82554  Biso   1.000  H
  H427     1.0000 0.78476  0.01932  0.83080  Biso   1.000  H
  H428     1.0000 0.73686  0.17956  0.53986  Biso   1.000  H
  H429     1.0000 0.04053  0.32421  0.73869  Biso   1.000  H
  H430     1.0000 0.32717  0.95443  0.72349  Biso   1.000  H
  H431     1.0000 0.16891  0.22974  0.98228  Biso   1.000  H
  H432     1.0000 0.47550  0.27863  0.83335  Biso   1.000  H
  H433     1.0000 0.27358  0.01770  0.68008  Biso   1.000  H
  H434     1.0000 0.72223  0.32177  0.05857  Biso   1.000  H
  H435     1.0000 0.03630  0.71709  0.33108  Biso   1.000  H
  H436     1.0000 0.82152  0.94585  0.77931  Biso   1.000  H
  H437     1.0000 0.22966  0.32761  0.52550  Biso   1.000  H
  H438     1.0000 0.53515  0.72167  0.17865  Biso   1.000  H
  H439     1.0000 0.23304  0.45567  0.68130  Biso   1.000  H
  H440     1.0000 0.77605  0.82077  0.98739  Biso   1.000  H
  H441     1.0000 0.53419  0.17621  0.28453  Biso   1.000  H
  H442     1.0000 0.68058  0.48821  0.78687  Biso   1.000  H
  H443     1.0000 0.28696  0.82545  0.54894  Biso   1.000  H
  H444     1.0000 0.03296  0.22111  0.18859  Biso   1.000  H
  H445     1.0000 0.67952  0.02891  0.28003  Biso   1.000  H
  H446     1.0000 0.28223  0.68406  0.04420  Biso   1.000  H
  H447     1.0000 0.97628  0.27739  0.68413  Biso   1.000  H
  H448     1.0000 0.22589  0.01872  0.17810  Biso   1.000  H
  H449     1.0000 0.83526  0.73531  0.47919  Biso   1.000  H
  H450     1.0000 0.54257  0.32483  0.78666  Biso   1.000  H
  H451     1.0000 0.77891  0.52749  0.33775  Biso   1.000  H
  H452     1.0000 0.22443  0.18177  0.04077  Biso   1.000  H
  H453     1.0000 0.47891  0.82744  0.73934  Biso   1.000  H
  H454     1.0000 0.33048  0.53339  0.22909  Biso   1.000  H
  H455     1.0000 0.67592  0.23357  0.48911  Biso   1.000  H
  H456     1.0000 0.98391  0.82165  0.78551  Biso   1.000  H
  H457     1.0000 0.67425  0.77760  0.48688  Biso   1.000  H
  H458     1.0000 0.47463  0.71660  0.83717  Biso   1.000  H
  H459     1.0000 0.83727  0.48321  0.73991  Biso   1.000  H
  H460     1.0000 0.17587  0.77585  0.02817  Biso   1.000  H
  H461     1.0000 0.99344  0.72514  0.68049  Biso   1.000  H
  H462     1.0000 0.28701  0.46873  0.83674  Biso   1.000  H
  H463     1.0000 0.83008  0.27568  0.49293  Biso   1.000  H
  H464     1.0000 0.02653  0.17100  0.77957  Biso   1.000  H
  H465     1.0000 0.67274  0.01818  0.73883  Biso   1.000  H
  H466     1.0000 0.32523  0.27697  0.03286  Biso   1.000  H
  H467     1.0000 0.53188  0.21960  0.67905  Biso   1.000  H
  H468     1.0000 0.17361  0.95893  0.77764  Biso   1.000  H
  H469     1.0000 0.33227  0.22522  0.52154  Biso   1.000  H
  H470     1.0000 0.53895  0.27564  0.17873  Biso   1.000  H
  H471     1.0000 0.17596  0.53305  0.27846  Biso   1.000  H
  H472     1.0000 0.76377  0.16977  0.99354  Biso   1.000  H
  H473     1.0000 0.03821  0.31776  0.29645  Biso   1.000  H
  H474     1.0000 0.72506  0.53324  0.19034  Biso   1.000  H
  H475     1.0000 0.24345  0.66298  0.54979  Biso   1.000  H
  H476     1.0000 0.03674  0.82063  0.23783  Biso   1.000  H
  H477     1.0000 0.32803  0.02370  0.27747  Biso   1.000  H
  H478     1.0000 0.68142  0.71475  0.97630  Biso   1.000  H
  H479     1.0000 0.48557  0.76908  0.33287  Biso   1.000  H
  H480     1.0000 0.82947  0.01750  0.23901  Biso   1.000  H
  N1       1.0000 0.68234  0.18334  0.51482  Biso   1.000  N
  N2       1.0000 0.48976  0.68141  0.17915  Biso   1.000  N
  N3       1.0000 0.18858  0.48915  0.68409  Biso   1.000  N
  N4       1.0000 0.17481  0.18071  0.00868  Biso   1.000  N
  N5       1.0000 0.00006  0.67684  0.33487  Biso   1.000  N
  N6       1.0000 0.68495  0.50856  0.84211  Biso   1.000  N
  N7       1.0000 0.83144  0.68359  0.50499  Biso   1.000  N
  N8       1.0000 0.99757  0.17458  0.18669  Biso   1.000  N
  N9       1.0000 0.32497  0.98810  0.68057  Biso   1.000  N
  N10      1.0000 0.32726  0.67911  0.00635  Biso   1.000  N
  N11      1.0000 0.50568  0.18095  0.33515  Biso   1.000  N
  N12      1.0000 0.82459  0.97986  0.83213  Biso   1.000  N
  N13      1.0000 0.33165  0.82061  0.51195  Biso   1.000  N
  N14      1.0000 0.51111  0.32188  0.83217  Biso   1.000  N
  N15      1.0000 0.82904  0.49728  0.33485  Biso   1.000  N
  N16      1.0000 0.82649  0.81855  0.01326  Biso   1.000  N
  N17      1.0000 0.01091  0.32415  0.68794  Biso   1.000  N
  N18      1.0000 0.32429  0.50864  0.17636  Biso   1.000  N
  N19      1.0000 0.17866  0.32318  0.49959  Biso   1.000  N
  N20      1.0000 0.02182  0.82371  0.83052  Biso   1.000  N
  N21      1.0000 0.67838  0.00329  0.33029  Biso   1.000  N
  N22      1.0000 0.67504  0.32178  0.02351  Biso   1.000  N
  N23      1.0000 0.49806  0.82062  0.68171  Biso   1.000  N
  N24      1.0000 0.17930  0.98910  0.17814  Biso   1.000  N
  N25      1.0000 0.83449  0.50912  0.68987  Biso   1.000  N
  N26      1.0000 0.68079  0.82834  0.51061  Biso   1.000  N
  N27      1.0000 0.50664  0.67588  0.83039  Biso   1.000  N
  N28      1.0000 0.33486  0.49850  0.82908  Biso   1.000  N
  N29      1.0000 0.17953  0.82755  0.99942  Biso   1.000  N
  N30      1.0000 0.02574  0.67537  0.68305  Biso   1.000  N
  N31      1.0000 0.67871  0.00035  0.68216  Biso   1.000  N
  N32      1.0000 0.82824  0.33229  0.51684  Biso   1.000  N
  N33      1.0000 0.99965  0.17510  0.82993  Biso   1.000  N
  N34      1.0000 0.17626  0.99123  0.82774  Biso   1.000  N
  N35      1.0000 0.32343  0.32537  0.00047  Biso   1.000  N
  N36      1.0000 0.50325  0.17289  0.68539  Biso   1.000  N
  N37      1.0000 0.18263  0.49954  0.32891  Biso   1.000  N
  N38      1.0000 0.32608  0.17467  0.49042  Biso   1.000  N
  N39      1.0000 0.50907  0.32554  0.18276  Biso   1.000  N
  N40      1.0000 0.67411  0.50306  0.19397  Biso   1.000  N
  N41      1.0000 0.81976  0.17250  0.01113  Biso   1.000  N
  N42      1.0000 0.99867  0.32135  0.33431  Biso   1.000  N
  N43      1.0000 0.32525  0.99467  0.32953  Biso   1.000  N
  N44      1.0000 0.18859  0.67173  0.52506  Biso   1.000  N
  N45      1.0000 0.00402  0.82255  0.18573  Biso   1.000  N
  N46      1.0000 0.82570  0.98950  0.18548  Biso   1.000  N
  N47      1.0000 0.67723  0.67151  0.01487  Biso   1.000  N
  N48      1.0000 0.50224  0.82728  0.32828  Biso   1.000  N
  O1       1.0000 0.34527  0.54352  0.00466  Biso   1.000  O
  O2       1.0000 0.00568  0.34211  0.55570  Biso   1.000  O
  O3       1.0000 0.54416  0.00579  0.34883  Biso   1.000  O
  O4       1.0000 0.84751  0.54968  0.49967  Biso   1.000  O
  O5       1.0000 0.50807  0.34255  0.96564  Biso   1.000  O
  O6       1.0000 0.04160  0.99538  0.16546  Biso   1.000  O
  O7       1.0000 0.15976  0.04602  0.00693  Biso   1.000  O
  O8       1.0000 0.49298  0.84841  0.54582  Biso   1.000  O
  O9       1.0000 0.96269  0.49303  0.35763  Biso   1.000  O
  O10      1.0000 0.66444  0.05087  0.50757  Biso   1.000  O
  O11      1.0000 0.00490  0.84264  0.96586  Biso   1.000  O
  O12      1.0000 0.45868  0.50017  0.15919  Biso   1.000  O
  O13      1.0000 0.65721  0.45374  0.01262  Biso   1.000  O
  O14      1.0000 0.00584  0.66071  0.46871  Biso   1.000  O
  O15      1.0000 0.46029  0.99973  0.66121  Biso   1.000  O
  O16      1.0000 0.16111  0.45411  0.50893  Biso   1.000  O
  O17      1.0000 0.50111  0.66007  0.04478  Biso   1.000  O
  O18      1.0000 0.95925  0.99668  0.85051  Biso   1.000  O
  O19      1.0000 0.84351  0.95344  0.01315  Biso   1.000  O
  O20      1.0000 0.51111  0.15783  0.46891  Biso   1.000  O
  O21      1.0000 0.05443  0.50292  0.66725  Biso   1.000  O
  O22      1.0000 0.34565  0.95477  0.50582  Biso   1.000  O
  O23      1.0000 0.99613  0.15390  0.05018  Biso   1.000  O
  O24      1.0000 0.54854  0.49947  0.85589  Biso   1.000  O
  O25      1.0000 0.95703  0.00056  0.17132  Biso   1.000  O
  O26      1.0000 0.15709  0.96190  0.99870  Biso   1.000  O
  O27      1.0000 0.00178  0.15256  0.96400  Biso   1.000  O
  O28      1.0000 0.46006  0.00232  0.34680  Biso   1.000  O
  O29      1.0000 0.65822  0.96597  0.50428  Biso   1.000  O
  O30      1.0000 0.50210  0.15207  0.55244  Biso   1.000  O
  O31      1.0000 0.54123  0.50755  0.16659  Biso   1.000  O
  O32      1.0000 0.34816  0.45933  0.00127  Biso   1.000  O
  O33      1.0000 0.50090  0.66199  0.96207  Biso   1.000  O
  O34      1.0000 0.04775  0.49886  0.35529  Biso   1.000  O
  O35      1.0000 0.84860  0.46674  0.51672  Biso   1.000  O
  O36      1.0000 0.00675  0.65585  0.55192  Biso   1.000  O
  O37      1.0000 0.04230  0.00467  0.84297  Biso   1.000  O
  O38      1.0000 0.84196  0.03553  0.00642  Biso   1.000  O
  O39      1.0000 0.99747  0.84096  0.04872  Biso   1.000  O
  O40      1.0000 0.54347  0.98868  0.65983  Biso   1.000  O
  O41      1.0000 0.33837  0.03920  0.50100  Biso   1.000  O
  O42      1.0000 0.51392  0.85181  0.46257  Biso   1.000  O
  O43      1.0000 0.46832  0.49800  0.85196  Biso   1.000  O
  O44      1.0000 0.65929  0.53714  0.02296  Biso   1.000  O
  O45      1.0000 0.49017  0.33953  0.05181  Biso   1.000  O
  O46      1.0000 0.96854  0.49893  0.66621  Biso   1.000  O
  O47      1.0000 0.16701  0.53800  0.51044  Biso   1.000  O
  O48      1.0000 0.00537  0.34693  0.46885  Biso   1.000  O
  O49      1.0000 0.99848  0.95836  0.16874  Biso   1.000  O
  O50      1.0000 0.15522  0.00702  0.96389  Biso   1.000  O
  O51      1.0000 0.95452  0.15256  0.00216  Biso   1.000  O
  O52      1.0000 0.50056  0.96276  0.35007  Biso   1.000  O
  O53      1.0000 0.66558  0.00686  0.54713  Biso   1.000  O
  O54      1.0000 0.46136  0.15487  0.50629  Biso   1.000  O
  O55      1.0000 0.50363  0.46201  0.15905  Biso   1.000  O
  O56      1.0000 0.34503  0.49985  0.96304  Biso   1.000  O
  O57      1.0000 0.54092  0.65641  0.00405  Biso   1.000  O
  O58      1.0000 0.00851  0.45594  0.35173  Biso   1.000  O
  O59      1.0000 0.85071  0.51131  0.55436  Biso   1.000  O
  O60      1.0000 0.05174  0.65584  0.50998  Biso   1.000  O
  O61      1.0000 0.99830  0.04208  0.84862  Biso   1.000  O
  O62      1.0000 0.85041  0.99586  0.05270  Biso   1.000  O
  O63      1.0000 0.04408  0.84501  0.00909  Biso   1.000  O
  O64      1.0000 0.50493  0.03766  0.66271  Biso   1.000  O
  O65      1.0000 0.34106  0.99770  0.46283  Biso   1.000  O
  O66      1.0000 0.54540  0.84643  0.51398  Biso   1.000  O
  O67      1.0000 0.50277  0.54132  0.85574  Biso   1.000  O
  O68      1.0000 0.65651  0.49396  0.05959  Biso   1.000  O
  O69      1.0000 0.45795  0.34308  0.00199  Biso   1.000  O
  O70      1.0000 0.01027  0.54067  0.66709  Biso   1.000  O
  O71      1.0000 0.16521  0.49539  0.46575  Biso   1.000  O
  O72      1.0000 0.96364  0.34976  0.51426  Biso   1.000  O
  O73      1.0000 0.01202  0.45810  0.66744  Biso   1.000  O
  O74      1.0000 0.65949  0.01040  0.46400  Biso   1.000  O
  O75      1.0000 0.45811  0.66311  0.00748  Biso   1.000  O
  O76      1.0000 0.50919  0.45728  0.85181  Biso   1.000  O
  O77      1.0000 0.15807  0.99634  0.04453  Biso   1.000  O
  O78      1.0000 0.96619  0.65953  0.50703  Biso   1.000  O
  O79      1.0000 0.49903  0.95413  0.66373  Biso   1.000  O
  O80      1.0000 0.84659  0.49682  0.46916  Biso   1.000  O
  O81      1.0000 0.03978  0.15351  0.00590  Biso   1.000  O
  O82      1.0000 0.00506  0.96020  0.84731  Biso   1.000  O
  O83      1.0000 0.34487  0.50062  0.04488  Biso   1.000  O
  O84      1.0000 0.54513  0.15716  0.51107  Biso   1.000  O
  O85      1.0000 0.00450  0.54025  0.35362  Biso   1.000  O
  O86      1.0000 0.34186  0.00465  0.54666  Biso   1.000  O
  O87      1.0000 0.53928  0.33878  0.02007  Biso   1.000  O
  O88      1.0000 0.49603  0.54545  0.16148  Biso   1.000  O
  O89      1.0000 0.84130  0.98967  0.96764  Biso   1.000  O
  O90      1.0000 0.04564  0.34506  0.51124  Biso   1.000  O
  O91      1.0000 0.50260  0.04795  0.35056  Biso   1.000  O
  O92      1.0000 0.16658  0.49631  0.55051  Biso   1.000  O
  O93      1.0000 0.95935  0.84254  0.00445  Biso   1.000  O
  O94      1.0000 0.99988  0.04091  0.16654  Biso   1.000  O
  O95      1.0000 0.66360  0.49842  0.97560  Biso   1.000  O
  O96      1.0000 0.46265  0.84554  0.49078  Biso   1.000  O
  O97      1.0000 0.45921  0.20352  0.50170  Biso   1.000  O
  O98      1.0000 0.49998  0.46015  0.20699  Biso   1.000  O
  O99      1.0000 0.21349  0.49757  0.46545  Biso   1.000  O
  O100     1.0000 0.95239  0.20204  0.00450  Biso   1.000  O
  O101     1.0000 0.00303  0.45555  0.30331  Biso   1.000  O
  O102     1.0000 0.70568  0.49192  0.06095  Biso   1.000  O
  O103     1.0000 0.05549  0.70249  0.50447  Biso   1.000  O
  O104     1.0000 0.99834  0.95646  0.21629  Biso   1.000  O
  O105     1.0000 0.29202  0.99257  0.46388  Biso   1.000  O
  O106     1.0000 0.54286  0.70293  0.00325  Biso   1.000  O
  O107     1.0000 0.50135  0.96346  0.30035  Biso   1.000  O
  O108     1.0000 0.80296  0.99752  0.05100  Biso   1.000  O
  O109     1.0000 0.54505  0.79856  0.51321  Biso   1.000  O
  O110     1.0000 0.51154  0.53916  0.80658  Biso   1.000  O
  O111     1.0000 0.80230  0.51052  0.55788  Biso   1.000  O
  O112     1.0000 0.04556  0.79521  0.00510  Biso   1.000  O
  O113     1.0000 0.02281  0.54067  0.71603  Biso   1.000  O
  O114     1.0000 0.29863  0.51098  0.96205  Biso   1.000  O
  O115     1.0000 0.96065  0.30060  0.51503  Biso   1.000  O
  O116     1.0000 0.99714  0.04017  0.80052  Biso   1.000  O
  O117     1.0000 0.71431  0.00471  0.54823  Biso   1.000  O
  O118     1.0000 0.45736  0.29540  0.00300  Biso   1.000  O
  O119     1.0000 0.50261  0.03564  0.71107  Biso   1.000  O
  O120     1.0000 0.20274  0.00287  0.96152  Biso   1.000  O
  O121     1.0000 0.05377  0.49639  0.71619  Biso   1.000  O
  O122     1.0000 0.71333  0.04809  0.50531  Biso   1.000  O
  O123     1.0000 0.49890  0.70810  0.04795  Biso   1.000  O
  O124     1.0000 0.55288  0.49846  0.80778  Biso   1.000  O
  O125     1.0000 0.20752  0.04411  0.00896  Biso   1.000  O
  O126     1.0000 0.01039  0.70819  0.46770  Biso   1.000  O
  O127     1.0000 0.45860  0.99776  0.70976  Biso   1.000  O
  O128     1.0000 0.80139  0.54791  0.51258  Biso   1.000  O
  O129     1.0000 0.99645  0.20110  0.05062  Biso   1.000  O
  O130     1.0000 0.95680  0.99409  0.80101  Biso   1.000  O
  O131     1.0000 0.29668  0.54617  0.00816  Biso   1.000  O
  O132     1.0000 0.51005  0.20610  0.46961  Biso   1.000  O
  O133     1.0000 0.96262  0.49206  0.30961  Biso   1.000  O
  O134     1.0000 0.29694  0.95522  0.50833  Biso   1.000  O
  O135     1.0000 0.50419  0.29522  0.96742  Biso   1.000  O
  O136     1.0000 0.45647  0.49880  0.20744  Biso   1.000  O
  O137     1.0000 0.79532  0.95261  0.01352  Biso   1.000  O
  O138     1.0000 0.00568  0.29464  0.55440  Biso   1.000  O
  O139     1.0000 0.54356  0.00259  0.30055  Biso   1.000  O
  O140     1.0000 0.20878  0.45403  0.50123  Biso   1.000  O
  O141     1.0000 0.01060  0.79511  0.96307  Biso   1.000  O
  O142     1.0000 0.04360  0.99522  0.21256  Biso   1.000  O
  O143     1.0000 0.70634  0.45335  0.01673  Biso   1.000  O
  O144     1.0000 0.49910  0.80014  0.54345  Biso   1.000  O
  O145     1.0000 0.53830  0.50770  0.21549  Biso   1.000  O
  O146     1.0000 0.21509  0.53382  0.51609  Biso   1.000  O
  O147     1.0000 0.49304  0.19941  0.55230  Biso   1.000  O
  O148     1.0000 0.04505  0.49885  0.30630  Biso   1.000  O
  O149     1.0000 0.70733  0.53769  0.02163  Biso   1.000  O
  O150     1.0000 0.99354  0.20206  0.96635  Biso   1.000  O
  O151     1.0000 0.96042  0.99448  0.21866  Biso   1.000  O
  O152     1.0000 0.28994  0.03880  0.50075  Biso   1.000  O
  O153     1.0000 0.01498  0.70389  0.54950  Biso   1.000  O
  O154     1.0000 0.45857  0.00500  0.29805  Biso   1.000  O
  O155     1.0000 0.79398  0.03598  0.00576  Biso   1.000  O
  O156     1.0000 0.50480  0.71099  0.96300  Biso   1.000  O
  O157     1.0000 0.46936  0.49792  0.80352  Biso   1.000  O
  O158     1.0000 0.79945  0.46642  0.51463  Biso   1.000  O
  O159     1.0000 0.51182  0.80350  0.46035  Biso   1.000  O
  O160     1.0000 0.97179  0.50594  0.71476  Biso   1.000  O
  O161     1.0000 0.29910  0.46070  0.99601  Biso   1.000  O
  O162     1.0000 0.00152  0.79210  0.04815  Biso   1.000  O
  O163     1.0000 0.04375  0.00030  0.79375  Biso   1.000  O
  O164     1.0000 0.70746  0.96421  0.50555  Biso   1.000  O
  O165     1.0000 0.00295  0.29691  0.47029  Biso   1.000  O
  O166     1.0000 0.54329  0.99371  0.70761  Biso   1.000  O
  O167     1.0000 0.20483  0.96306  0.99622  Biso   1.000  O
  O168     1.0000 0.49315  0.29071  0.04925  Biso   1.000  O
  O169     1.0000 0.00285  0.04154  0.21350  Biso   1.000  O
  O170     1.0000 0.20666  0.99524  0.04468  Biso   1.000  O
  O171     1.0000 0.03799  0.20211  0.00280  Biso   1.000  O
  O172     1.0000 0.50463  0.04601  0.30124  Biso   1.000  O
  O173     1.0000 0.70733  0.00509  0.46108  Biso   1.000  O
  O174     1.0000 0.54093  0.20365  0.52153  Biso   1.000  O
  O175     1.0000 0.49439  0.54843  0.21003  Biso   1.000  O
  O176     1.0000 0.29640  0.49901  0.04235  Biso   1.000  O
  O177     1.0000 0.45806  0.71250  0.99897  Biso   1.000  O
  O178     1.0000 0.99462  0.54092  0.30711  Biso   1.000  O
  O179     1.0000 0.79868  0.50393  0.47176  Biso   1.000  O
  O180     1.0000 0.96996  0.70756  0.50845  Biso   1.000  O
  O181     1.0000 0.00670  0.95774  0.80028  Biso   1.000  O
  O182     1.0000 0.79401  0.98711  0.96845  Biso   1.000  O
  O183     1.0000 0.96202  0.79410  0.00214  Biso   1.000  O
  O184     1.0000 0.49876  0.95448  0.71066  Biso   1.000  O
  O185     1.0000 0.29345  0.99901  0.54778  Biso   1.000  O
  O186     1.0000 0.46425  0.79602  0.49373  Biso   1.000  O
  O187     1.0000 0.51180  0.45541  0.80364  Biso   1.000  O
  O188     1.0000 0.71048  0.49604  0.97892  Biso   1.000  O
  O189     1.0000 0.54034  0.29124  0.01378  Biso   1.000  O
  O190     1.0000 0.00876  0.45876  0.71574  Biso   1.000  O
  O191     1.0000 0.21495  0.48828  0.54758  Biso   1.000  O
  O192     1.0000 0.04500  0.29643  0.50830  Biso   1.000  O
