data_image0
_cell_length_a       47.0512
_cell_length_b       46.615
_cell_length_c       46.4901
_cell_angle_alpha    90
_cell_angle_beta     90
_cell_angle_gamma    90

_symmetry_space_group_name_H-M    "P 1"
_symmetry_int_tables_number       1

loop_
  _symmetry_equiv_pos_as_xyz
  'x, y, z'

loop_
  _atom_site_label
  _atom_site_occupancy
  _atom_site_fract_x
  _atom_site_fract_y
  _atom_site_fract_z
  _atom_site_thermal_displace_type
  _atom_site_B_iso_or_equiv
  _atom_site_type_symbol
  C1       1.0000 0.59191  0.98113  0.34140  Biso   1.000  C
  C2       1.0000 0.34733  0.53886  0.02680  Biso   1.000  C
  C3       1.0000 0.03041  0.31138  0.57294  Biso   1.000  C
  C4       1.0000 0.09213  0.98720  0.20132  Biso   1.000  C
  C5       1.0000 0.85144  0.54710  0.52451  Biso   1.000  C
  C6       1.0000 0.53189  0.31174  0.95574  Biso   1.000  C
  C7       1.0000 0.97532  0.49382  0.33631  Biso   1.000  C
  C8       1.0000 0.21057  0.03622  0.00573  Biso   1.000  C
  C9       1.0000 0.53510  0.81452  0.58503  Biso   1.000  C
  C10      1.0000 0.47553  0.47952  0.20212  Biso   1.000  C
  C11      1.0000 0.70513  0.04861  0.52978  Biso   1.000  C
  C12      1.0000 0.01680  0.81691  0.97274  Biso   1.000  C
  C13      1.0000 0.47481  0.00515  0.70681  Biso   1.000  C
  C14      1.0000 0.71425  0.43799  0.01688  Biso   1.000  C
  C15      1.0000 0.04573  0.66390  0.46990  Biso   1.000  C
  C16      1.0000 0.97517  0.99424  0.84642  Biso   1.000  C
  C17      1.0000 0.21235  0.42821  0.51832  Biso   1.000  C
  C18      1.0000 0.53045  0.66312  0.08260  Biso   1.000  C
  C19      1.0000 0.08702  0.48272  0.69902  Biso   1.000  C
  C20      1.0000 0.84829  0.93782  0.03160  Biso   1.000  C
  C21      1.0000 0.52428  0.16521  0.45865  Biso   1.000  C
  C22      1.0000 0.57993  0.50451  0.84243  Biso   1.000  C
  C23      1.0000 0.35292  0.92648  0.53181  Biso   1.000  C
  C24      1.0000 0.03292  0.16845  0.07078  Biso   1.000  C
  C25      1.0000 0.34753  0.03324  0.50751  Biso   1.000  C
  C26      1.0000 0.53531  0.30241  0.06421  Biso   1.000  C
  C27      1.0000 0.08342  0.48263  0.33712  Biso   1.000  C
  C28      1.0000 0.85591  0.04617  0.02159  Biso   1.000  C
  C29      1.0000 0.01368  0.31015  0.46614  Biso   1.000  C
  C30      1.0000 0.58543  0.48052  0.20214  Biso   1.000  C
  C31      1.0000 0.21750  0.53870  0.51593  Biso   1.000  C
  C32      1.0000 0.02897  0.81162  0.07855  Biso   1.000  C
  C33      1.0000 0.48394  0.96580  0.34143  Biso   1.000  C
  C34      1.0000 0.70909  0.54931  0.03095  Biso   1.000  C
  C35      1.0000 0.53563  0.80825  0.47850  Biso   1.000  C
  C36      1.0000 0.98360  0.99252  0.20271  Biso   1.000  C
  C37      1.0000 0.71297  0.93830  0.51789  Biso   1.000  C
  C38      1.0000 0.51468  0.67765  0.97489  Biso   1.000  C
  C39      1.0000 0.97876  0.50342  0.70689  Biso   1.000  C
  C40      1.0000 0.21366  0.92937  0.01939  Biso   1.000  C
  C41      1.0000 0.02945  0.67269  0.57769  Biso   1.000  C
  C42      1.0000 0.47187  0.49842  0.83936  Biso   1.000  C
  C43      1.0000 0.84563  0.43892  0.52481  Biso   1.000  C
  C44      1.0000 0.03711  0.17359  0.96260  Biso   1.000  C
  C45      1.0000 0.58496  0.99963  0.70456  Biso   1.000  C
  C46      1.0000 0.34984  0.42951  0.02155  Biso   1.000  C
  C47      1.0000 0.51775  0.17280  0.56596  Biso   1.000  C
  C48      1.0000 0.08144  0.99312  0.83740  Biso   1.000  C
  C49      1.0000 0.02402  0.04683  0.83721  Biso   1.000  C
  C50      1.0000 0.84705  0.99817  0.08031  Biso   1.000  C
  C51      1.0000 0.07905  0.81352  0.02065  Biso   1.000  C
  C52      1.0000 0.53057  0.05440  0.69835  Biso   1.000  C
  C53      1.0000 0.35357  0.97172  0.46492  Biso   1.000  C
  C54      1.0000 0.59270  0.80939  0.53475  Biso   1.000  C
  C55      1.0000 0.52281  0.55617  0.83729  Biso   1.000  C
  C56      1.0000 0.71237  0.48973  0.07796  Biso   1.000  C
  C57      1.0000 0.47825  0.30522  0.01237  Biso   1.000  C
  C58      1.0000 0.03697  0.54944  0.70395  Biso   1.000  C
  C59      1.0000 0.20838  0.48068  0.46414  Biso   1.000  C
  C60      1.0000 0.97039  0.31297  0.52717  Biso   1.000  C
  C61      1.0000 0.03358  0.93511  0.20703  Biso   1.000  C
  C62      1.0000 0.20906  0.97979  0.96157  Biso   1.000  C
  C63      1.0000 0.97848  0.17433  0.01241  Biso   1.000  C
  C64      1.0000 0.54243  0.92169  0.34308  Biso   1.000  C
  C65      1.0000 0.71222  0.98621  0.57817  Biso   1.000  C
  C66      1.0000 0.46785  0.16273  0.50575  Biso   1.000  C
  C67      1.0000 0.52899  0.42275  0.19820  Biso   1.000  C
  C68      1.0000 0.35052  0.48547  0.96875  Biso   1.000  C
  C69      1.0000 0.57926  0.67250  0.02779  Biso   1.000  C
  C70      1.0000 0.02275  0.43420  0.33590  Biso   1.000  C
  C71      1.0000 0.84772  0.48948  0.57938  Biso   1.000  C
  C72      1.0000 0.09391  0.67108  0.52855  Biso   1.000  C
  C73      1.0000 0.03263  0.54188  0.34027  Biso   1.000  C
  C74      1.0000 0.35393  0.98882  0.57237  Biso   1.000  C
  C75      1.0000 0.58549  0.31139  0.00718  Biso   1.000  C
  C76      1.0000 0.52926  0.53163  0.20229  Biso   1.000  C
  C77      1.0000 0.84801  0.98539  0.97206  Biso   1.000  C
  C78      1.0000 0.07709  0.31214  0.50852  Biso   1.000  C
  C79      1.0000 0.52493  0.02796  0.33671  Biso   1.000  C
  C80      1.0000 0.21872  0.48731  0.57387  Biso   1.000  C
  C81      1.0000 0.97100  0.81087  0.03000  Biso   1.000  C
  C82      1.0000 0.04078  0.04187  0.20121  Biso   1.000  C
  C83      1.0000 0.70608  0.49753  0.97048  Biso   1.000  C
  C84      1.0000 0.48295  0.80963  0.52782  Biso   1.000  C
  C85      1.0000 0.02347  0.44429  0.69689  Biso   1.000  C
  C86      1.0000 0.71366  0.99451  0.46895  Biso   1.000  C
  C87      1.0000 0.47138  0.66813  0.03579  Biso   1.000  C
  C88      1.0000 0.53113  0.44787  0.83932  Biso   1.000  C
  C89      1.0000 0.21441  0.98677  0.07028  Biso   1.000  C
  C90      1.0000 0.98417  0.66672  0.51751  Biso   1.000  C
  C91      1.0000 0.52929  0.94599  0.70884  Biso   1.000  C
  C92      1.0000 0.85574  0.49557  0.47049  Biso   1.000  C
  C93      1.0000 0.08964  0.17171  0.01811  Biso   1.000  C
  C94      1.0000 0.03051  0.94006  0.84302  Biso   1.000  C
  C95      1.0000 0.34848  0.48134  0.07997  Biso   1.000  C
  C96      1.0000 0.57496  0.16836  0.51918  Biso   1.000  C
  C97      1.0000 0.70508  0.08059  0.53534  Biso   1.000  C
  C98      1.0000 0.53041  0.66129  0.11427  Biso   1.000  C
  C99      1.0000 0.11910  0.47703  0.69912  Biso   1.000  C
  C100     1.0000 0.20987  0.06865  0.00358  Biso   1.000  C
  C101     1.0000 0.04276  0.66507  0.43691  Biso   1.000  C
  C102     1.0000 0.61194  0.50192  0.84329  Biso   1.000  C
  C103     1.0000 0.85347  0.57686  0.51682  Biso   1.000  C
  C104     1.0000 0.03327  0.16868  0.10323  Biso   1.000  C
  C105     1.0000 0.44345  0.00149  0.70659  Biso   1.000  C
  C106     1.0000 0.34660  0.57107  0.02632  Biso   1.000  C
  C107     1.0000 0.53044  0.16090  0.42760  Biso   1.000  C
  C108     1.0000 0.94289  0.99726  0.84581  Biso   1.000  C
  C109     1.0000 0.35141  0.89421  0.53047  Biso   1.000  C
  C110     1.0000 0.53266  0.31418  0.92394  Biso   1.000  C
  C111     1.0000 0.94391  0.49798  0.33744  Biso   1.000  C
  C112     1.0000 0.84618  0.90529  0.03263  Biso   1.000  C
  C113     1.0000 0.02411  0.31316  0.60397  Biso   1.000  C
  C114     1.0000 0.44562  0.46899  0.20099  Biso   1.000  C
  C115     1.0000 0.21097  0.39522  0.51555  Biso   1.000  C
  C116     1.0000 0.01756  0.81626  0.93997  Biso   1.000  C
  C117     1.0000 0.62316  0.98176  0.34076  Biso   1.000  C
  C118     1.0000 0.71434  0.40719  0.01337  Biso   1.000  C
  C119     1.0000 0.53510  0.81500  0.61724  Biso   1.000  C
  C120     1.0000 0.12343  0.98813  0.20165  Biso   1.000  C
  C121     1.0000 0.84883  0.00028  0.11150  Biso   1.000  C
  C122     1.0000 0.11147  0.81075  0.02325  Biso   1.000  C
  C123     1.0000 0.01712  0.07827  0.83717  Biso   1.000  C
  C124     1.0000 0.35360  0.97051  0.43198  Biso   1.000  C
  C125     1.0000 0.62462  0.81061  0.54051  Biso   1.000  C
  C126     1.0000 0.53034  0.08611  0.69658  Biso   1.000  C
  C127     1.0000 0.71334  0.49052  0.11050  Biso   1.000  C
  C128     1.0000 0.44684  0.30425  0.01798  Biso   1.000  C
  C129     1.0000 0.52226  0.58772  0.83894  Biso   1.000  C
  C130     1.0000 0.20894  0.47669  0.43144  Biso   1.000  C
  C131     1.0000 0.93794  0.31256  0.52958  Biso   1.000  C
  C132     1.0000 0.03743  0.58176  0.70478  Biso   1.000  C
  C133     1.0000 0.20908  0.97976  0.92952  Biso   1.000  C
  C134     1.0000 0.94600  0.17297  0.00801  Biso   1.000  C
  C135     1.0000 0.02868  0.90411  0.20796  Biso   1.000  C
  C136     1.0000 0.71054  0.98394  0.61012  Biso   1.000  C
  C137     1.0000 0.43714  0.16287  0.50584  Biso   1.000  C
  C138     1.0000 0.53727  0.89113  0.34568  Biso   1.000  C
  C139     1.0000 0.35049  0.48498  0.93679  Biso   1.000  C
  C140     1.0000 0.61063  0.67196  0.03648  Biso   1.000  C
  C141     1.0000 0.53131  0.39095  0.19599  Biso   1.000  C
  C142     1.0000 0.84873  0.48709  0.61188  Biso   1.000  C
  C143     1.0000 0.12610  0.66957  0.52424  Biso   1.000  C
  C144     1.0000 0.00943  0.40473  0.33684  Biso   1.000  C
  C145     1.0000 0.34786  0.47428  0.11130  Biso   1.000  C
  C146     1.0000 0.10941  0.30743  0.50502  Biso   1.000  C
  C147     1.0000 0.52100  0.06064  0.33618  Biso   1.000  C
  C148     1.0000 0.85355  0.49601  0.43855  Biso   1.000  C
  C149     1.0000 0.61763  0.31205  0.00630  Biso   1.000  C
  C150     1.0000 0.03551  0.07299  0.20102  Biso   1.000  C
  C151     1.0000 0.21660  0.99031  0.10216  Biso   1.000  C
  C152     1.0000 0.45070  0.80619  0.52371  Biso   1.000  C
  C153     1.0000 0.03421  0.57342  0.33969  Biso   1.000  C
  C154     1.0000 0.71588  0.99267  0.43618  Biso   1.000  C
  C155     1.0000 0.93979  0.80889  0.02925  Biso   1.000  C
  C156     1.0000 0.53037  0.56355  0.20415  Biso   1.000  C
  C157     1.0000 0.70636  0.49430  0.93912  Biso   1.000  C
  C158     1.0000 0.95282  0.66718  0.51815  Biso   1.000  C
  C159     1.0000 0.52992  0.91375  0.71191  Biso   1.000  C
  C160     1.0000 0.21682  0.48248  0.60478  Biso   1.000  C
  C161     1.0000 0.43971  0.66856  0.03979  Biso   1.000  C
  C162     1.0000 0.03540  0.90731  0.84514  Biso   1.000  C
  C163     1.0000 0.84786  0.97985  0.93979  Biso   1.000  C
  C164     1.0000 0.60750  0.17145  0.52366  Biso   1.000  C
  C165     1.0000 0.01979  0.41170  0.69986  Biso   1.000  C
  C166     1.0000 0.35420  0.98810  0.60422  Biso   1.000  C
  C167     1.0000 0.12100  0.16934  0.01693  Biso   1.000  C
  C168     1.0000 0.52848  0.41655  0.83703  Biso   1.000  C
  C169     1.0000 0.02986  0.81051  0.11113  Biso   1.000  C
  C170     1.0000 0.11324  0.99453  0.83557  Biso   1.000  C
  C171     1.0000 0.85414  0.07781  0.02050  Biso   1.000  C
  C172     1.0000 0.53359  0.80551  0.44620  Biso   1.000  C
  C173     1.0000 0.61786  0.00535  0.70534  Biso   1.000  C
  C174     1.0000 0.34692  0.06481  0.50491  Biso   1.000  C
  C175     1.0000 0.53556  0.29961  0.09709  Biso   1.000  C
  C176     1.0000 0.43988  0.49734  0.84015  Biso   1.000  C
  C177     1.0000 0.70883  0.58056  0.03326  Biso   1.000  C
  C178     1.0000 0.01417  0.31006  0.43211  Biso   1.000  C
  C179     1.0000 0.94613  0.50066  0.70787  Biso   1.000  C
  C180     1.0000 0.21808  0.57098  0.51015  Biso   1.000  C
  C181     1.0000 0.03569  0.17298  0.92998  Biso   1.000  C
  C182     1.0000 0.95088  0.99484  0.20365  Biso   1.000  C
  C183     1.0000 0.21154  0.89696  0.01768  Biso   1.000  C
  C184     1.0000 0.52005  0.17608  0.59820  Biso   1.000  C
  C185     1.0000 0.45096  0.96471  0.34061  Biso   1.000  C
  C186     1.0000 0.71416  0.90643  0.51986  Biso   1.000  C
  C187     1.0000 0.51040  0.67932  0.94170  Biso   1.000  C
  C188     1.0000 0.61740  0.48439  0.20498  Biso   1.000  C
  C189     1.0000 0.35012  0.39752  0.01661  Biso   1.000  C
  C190     1.0000 0.02637  0.67426  0.60955  Biso   1.000  C
  C191     1.0000 0.11539  0.47834  0.33589  Biso   1.000  C
  C192     1.0000 0.84403  0.40598  0.52187  Biso   1.000  C
  C193     1.0000 0.87429  0.98559  0.92360  Biso   1.000  C
  C194     1.0000 0.92239  0.83553  0.03101  Biso   1.000  C
  C195     1.0000 0.03137  0.89111  0.87161  Biso   1.000  C
  C196     1.0000 0.38017  0.98981  0.62152  Biso   1.000  C
  C197     1.0000 0.43329  0.83314  0.52306  Biso   1.000  C
  C198     1.0000 0.53023  0.89774  0.68345  Biso   1.000  C
  C199     1.0000 0.68168  0.49833  0.92137  Biso   1.000  C
  C200     1.0000 0.63440  0.33971  0.00633  Biso   1.000  C
  C201     1.0000 0.52888  0.39767  0.86301  Biso   1.000  C
  C202     1.0000 0.18942  0.47799  0.61935  Biso   1.000  C
  C203     1.0000 0.12794  0.33267  0.50543  Biso   1.000  C
  C204     1.0000 0.02384  0.39428  0.67456  Biso   1.000  C
  C205     1.0000 0.19103  0.98949  0.11968  Biso   1.000  C
  C206     1.0000 0.13593  0.14303  0.01031  Biso   1.000  C
  C207     1.0000 0.03294  0.08899  0.17380  Biso   1.000  C
  C208     1.0000 0.68953  0.98926  0.41931  Biso   1.000  C
  C209     1.0000 0.62538  0.14525  0.52389  Biso   1.000  C
  C210     1.0000 0.52489  0.07717  0.36235  Biso   1.000  C
  C211     1.0000 0.37469  0.47765  0.12794  Biso   1.000  C
  C212     1.0000 0.42501  0.64057  0.03609  Biso   1.000  C
  C213     1.0000 0.52896  0.58001  0.17741  Biso   1.000  C
  C214     1.0000 0.88023  0.49900  0.42127  Biso   1.000  C
  C215     1.0000 0.93491  0.64205  0.51772  Biso   1.000  C
  C216     1.0000 0.03565  0.58769  0.36834  Biso   1.000  C
  C217     1.0000 0.13051  0.99163  0.86237  Biso   1.000  C
  C218     1.0000 0.88200  0.09538  0.02112  Biso   1.000  C
  C219     1.0000 0.03127  0.83744  0.12916  Biso   1.000  C
  C220     1.0000 0.63299  0.99946  0.67799  Biso   1.000  C
  C221     1.0000 0.37379  0.07930  0.50221  Biso   1.000  C
  C222     1.0000 0.53481  0.83148  0.42852  Biso   1.000  C
  C223     1.0000 0.42479  0.49551  0.86726  Biso   1.000  C
  C224     1.0000 0.68155  0.59602  0.03110  Biso   1.000  C
  C225     1.0000 0.53762  0.32758  0.11279  Biso   1.000  C
  C226     1.0000 0.93112  0.49657  0.68040  Biso   1.000  C
  C227     1.0000 0.19186  0.58777  0.51139  Biso   1.000  C
  C228     1.0000 0.01373  0.33931  0.41568  Biso   1.000  C
  C229     1.0000 0.93287  0.99825  0.17642  Biso   1.000  C
  C230     1.0000 0.18305  0.88493  0.01749  Biso   1.000  C
  C231     1.0000 0.03248  0.14594  0.91334  Biso   1.000  C
  C232     1.0000 0.43370  0.96057  0.36774  Biso   1.000  C
  C233     1.0000 0.68859  0.88932  0.52483  Biso   1.000  C
  C234     1.0000 0.52256  0.14958  0.61506  Biso   1.000  C
  C235     1.0000 0.63374  0.48440  0.17846  Biso   1.000  C
  C236     1.0000 0.37775  0.38092  0.01726  Biso   1.000  C
  C237     1.0000 0.51030  0.65228  0.92432  Biso   1.000  C
  C238     1.0000 0.13191  0.48120  0.36236  Biso   1.000  C
  C239     1.0000 0.86909  0.38959  0.52629  Biso   1.000  C
  C240     1.0000 0.02681  0.64739  0.62692  Biso   1.000  C
  C241     1.0000 0.62832  0.49757  0.87104  Biso   1.000  C
  C242     1.0000 0.88103  0.59166  0.51441  Biso   1.000  C
  C243     1.0000 0.53664  0.84316  0.63325  Biso   1.000  C
  C244     1.0000 0.13575  0.47327  0.67127  Biso   1.000  C
  C245     1.0000 0.37403  0.58681  0.02895  Biso   1.000  C
  C246     1.0000 0.02230  0.84246  0.92415  Biso   1.000  C
  C247     1.0000 0.92707  0.99505  0.87344  Biso   1.000  C
  C248     1.0000 0.67813  0.09615  0.53248  Biso   1.000  C
  C249     1.0000 0.02549  0.34065  0.62138  Biso   1.000  C
  C250     1.0000 0.43024  0.99911  0.67803  Biso   1.000  C
  C251     1.0000 0.18451  0.08638  0.00357  Biso   1.000  C
  C252     1.0000 0.53203  0.34186  0.91046  Biso   1.000  C
  C253     1.0000 0.42685  0.47371  0.17472  Biso   1.000  C
  C254     1.0000 0.18326  0.38082  0.51556  Biso   1.000  C
  C255     1.0000 0.52886  0.13380  0.41245  Biso   1.000  C
  C256     1.0000 0.92917  0.50166  0.36497  Biso   1.000  C
  C257     1.0000 0.68648  0.39197  0.01155  Biso   1.000  C
  C258     1.0000 0.03062  0.14089  0.11890  Biso   1.000  C
  C259     1.0000 0.13828  0.98947  0.17409  Biso   1.000  C
  C260     1.0000 0.37819  0.87970  0.53130  Biso   1.000  C
  C261     1.0000 0.04374  0.63803  0.42041  Biso   1.000  C
  C262     1.0000 0.63844  0.98262  0.36765  Biso   1.000  C
  C263     1.0000 0.87162  0.88785  0.03206  Biso   1.000  C
  C264     1.0000 0.52966  0.63342  0.12760  Biso   1.000  C
  C265     1.0000 0.02187  0.09556  0.86294  Biso   1.000  C
  C266     1.0000 0.87806  0.00008  0.12537  Biso   1.000  C
  C267     1.0000 0.12947  0.83609  0.02007  Biso   1.000  C
  C268     1.0000 0.52582  0.10078  0.66760  Biso   1.000  C
  C269     1.0000 0.37936  0.96593  0.41545  Biso   1.000  C
  C270     1.0000 0.64000  0.83866  0.53780  Biso   1.000  C
  C271     1.0000 0.51951  0.60208  0.86790  Biso   1.000  C
  C272     1.0000 0.68605  0.48849  0.12519  Biso   1.000  C
  C273     1.0000 0.43005  0.33165  0.02024  Biso   1.000  C
  C274     1.0000 0.03315  0.59770  0.67877  Biso   1.000  C
  C275     1.0000 0.18192  0.47751  0.41531  Biso   1.000  C
  C276     1.0000 0.92205  0.33898  0.52633  Biso   1.000  C
  C277     1.0000 0.02746  0.88780  0.18046  Biso   1.000  C
  C278     1.0000 0.18119  0.98473  0.91380  Biso   1.000  C
  C279     1.0000 0.93215  0.14531  0.01341  Biso   1.000  C
  C280     1.0000 0.53317  0.87802  0.37391  Biso   1.000  C
  C281     1.0000 0.68430  0.98354  0.62644  Biso   1.000  C
  C282     1.0000 0.42285  0.13504  0.50621  Biso   1.000  C
  C283     1.0000 0.53592  0.37585  0.16859  Biso   1.000  C
  C284     1.0000 0.37619  0.49110  0.91981  Biso   1.000  C
  C285     1.0000 0.62745  0.64560  0.03369  Biso   1.000  C
  C286     1.0000 0.01349  0.38833  0.36456  Biso   1.000  C
  C287     1.0000 0.87712  0.49169  0.62784  Biso   1.000  C
  C288     1.0000 0.14191  0.64182  0.52192  Biso   1.000  C
  C289     1.0000 0.37977  0.84858  0.52337  Biso   1.000  C
  C290     1.0000 0.52869  0.34337  0.87958  Biso   1.000  C
  C291     1.0000 0.89726  0.50087  0.36637  Biso   1.000  C
  C292     1.0000 0.86946  0.85650  0.03288  Biso   1.000  C
  C293     1.0000 0.02247  0.34124  0.65391  Biso   1.000  C
  C294     1.0000 0.39619  0.47171  0.17974  Biso   1.000  C
  C295     1.0000 0.18297  0.34914  0.51031  Biso   1.000  C
  C296     1.0000 0.02818  0.83972  0.89403  Biso   1.000  C
  C297     1.0000 0.66975  0.98865  0.36617  Biso   1.000  C
  C298     1.0000 0.68821  0.36098  0.00728  Biso   1.000  C
  C299     1.0000 0.53291  0.84456  0.66374  Biso   1.000  C
  C300     1.0000 0.17025  0.98764  0.17302  Biso   1.000  C
  C301     1.0000 0.67804  0.12796  0.53374  Biso   1.000  C
  C302     1.0000 0.53295  0.63276  0.16003  Biso   1.000  C
  C303     1.0000 0.16753  0.47495  0.67213  Biso   1.000  C
  C304     1.0000 0.18756  0.11811  0.00766  Biso   1.000  C
  C305     1.0000 0.04238  0.63966  0.38882  Biso   1.000  C
  C306     1.0000 0.65941  0.49630  0.86942  Biso   1.000  C
  C307     1.0000 0.88113  0.62307  0.51365  Biso   1.000  C
  C308     1.0000 0.02652  0.14137  0.14994  Biso   1.000  C
  C309     1.0000 0.39932  0.99542  0.67731  Biso   1.000  C
  C310     1.0000 0.37244  0.61867  0.03404  Biso   1.000  C
  C311     1.0000 0.52666  0.13359  0.38060  Biso   1.000  C
  C312     1.0000 0.89553  0.99174  0.87019  Biso   1.000  C
  C313     1.0000 0.18238  0.47525  0.38450  Biso   1.000  C
  C314     1.0000 0.39144  0.13484  0.50767  Biso   1.000  C
  C315     1.0000 0.53364  0.34485  0.16893  Biso   1.000  C
  C316     1.0000 0.68621  0.48944  0.15685  Biso   1.000  C
  C317     1.0000 0.90099  0.14677  0.01117  Biso   1.000  C
  C318     1.0000 0.01083  0.35702  0.36162  Biso   1.000  C
  C319     1.0000 0.37920  0.96806  0.38471  Biso   1.000  C
  C320     1.0000 0.17126  0.64127  0.51189  Biso   1.000  C
  C321     1.0000 0.02932  0.85626  0.18201  Biso   1.000  C
  C322     1.0000 0.88024  0.99605  0.15697  Biso   1.000  C
  C323     1.0000 0.65918  0.64820  0.03289  Biso   1.000  C
  C324     1.0000 0.53024  0.84614  0.37448  Biso   1.000  C
  C325     1.0000 0.87742  0.49128  0.65964  Biso   1.000  C
  C326     1.0000 0.67119  0.83651  0.53235  Biso   1.000  C
  C327     1.0000 0.51678  0.63305  0.87104  Biso   1.000  C
  C328     1.0000 0.37367  0.48902  0.88897  Biso   1.000  C
  C329     1.0000 0.16012  0.83393  0.02150  Biso   1.000  C
  C330     1.0000 0.03160  0.62841  0.67980  Biso   1.000  C
  C331     1.0000 0.68442  0.99208  0.65728  Biso   1.000  C
  C332     1.0000 0.88941  0.33647  0.52703  Biso   1.000  C
  C333     1.0000 0.02374  0.12648  0.86123  Biso   1.000  C
  C334     1.0000 0.18412  0.98460  0.88240  Biso   1.000  C
  C335     1.0000 0.39883  0.32812  0.01836  Biso   1.000  C
  C336     1.0000 0.52713  0.13243  0.66756  Biso   1.000  C
  C337     1.0000 0.68231  0.49594  0.88995  Biso   1.000  C
  C338     1.0000 0.90349  0.64327  0.51573  Biso   1.000  C
  C339     1.0000 0.53053  0.86675  0.68477  Biso   1.000  C
  C340     1.0000 0.18999  0.47730  0.65122  Biso   1.000  C
  C341     1.0000 0.39348  0.64032  0.03615  Biso   1.000  C
  C342     1.0000 0.03340  0.86001  0.87203  Biso   1.000  C
  C343     1.0000 0.87535  0.98815  0.89272  Biso   1.000  C
  C344     1.0000 0.65550  0.14757  0.53090  Biso   1.000  C
  C345     1.0000 0.02183  0.36379  0.67461  Biso   1.000  C
  C346     1.0000 0.37910  0.99128  0.65395  Biso   1.000  C
  C347     1.0000 0.16749  0.14163  0.00974  Biso   1.000  C
  C348     1.0000 0.52825  0.36662  0.86063  Biso   1.000  C
  C349     1.0000 0.37463  0.47342  0.15886  Biso   1.000  C
  C350     1.0000 0.16089  0.32848  0.50669  Biso   1.000  C
  C351     1.0000 0.52565  0.10961  0.36094  Biso   1.000  C
  C352     1.0000 0.87753  0.49905  0.38918  Biso   1.000  C
  C353     1.0000 0.66614  0.33919  0.00524  Biso   1.000  C
  C354     1.0000 0.02860  0.12049  0.17338  Biso   1.000  C
  C355     1.0000 0.19217  0.98951  0.15116  Biso   1.000  C
  C356     1.0000 0.40300  0.82963  0.52009  Biso   1.000  C
  C357     1.0000 0.03835  0.61892  0.36677  Biso   1.000  C
  C358     1.0000 0.69042  0.99136  0.38765  Biso   1.000  C
  C359     1.0000 0.89089  0.83452  0.03153  Biso   1.000  C
  C360     1.0000 0.53075  0.61093  0.18058  Biso   1.000  C
  C361     1.0000 0.02691  0.14839  0.88217  Biso   1.000  C
  C362     1.0000 0.90210  0.99767  0.17772  Biso   1.000  C
  C363     1.0000 0.18203  0.85410  0.01869  Biso   1.000  C
  C364     1.0000 0.52507  0.15308  0.64546  Biso   1.000  C
  C365     1.0000 0.40268  0.96587  0.36641  Biso   1.000  C
  C366     1.0000 0.69214  0.85827  0.52685  Biso   1.000  C
  C367     1.0000 0.51197  0.65411  0.89369  Biso   1.000  C
  C368     1.0000 0.66495  0.48826  0.17863  Biso   1.000  C
  C369     1.0000 0.37715  0.34969  0.01818  Biso   1.000  C
  C370     1.0000 0.02849  0.64986  0.65805  Biso   1.000  C
  C371     1.0000 0.16200  0.47637  0.36102  Biso   1.000  C
  C372     1.0000 0.86829  0.35798  0.52602  Biso   1.000  C
  C373     1.0000 0.02902  0.83567  0.16023  Biso   1.000  C
  C374     1.0000 0.16161  0.98735  0.86040  Biso   1.000  C
  C375     1.0000 0.87854  0.12528  0.01368  Biso   1.000  C
  C376     1.0000 0.52937  0.82715  0.39785  Biso   1.000  C
  C377     1.0000 0.66457  0.99755  0.67923  Biso   1.000  C
  C378     1.0000 0.37218  0.11145  0.50512  Biso   1.000  C
  C379     1.0000 0.53383  0.32469  0.14486  Biso   1.000  C
  C380     1.0000 0.39437  0.49057  0.86752  Biso   1.000  C
  C381     1.0000 0.68244  0.62753  0.03369  Biso   1.000  C
  C382     1.0000 0.01162  0.33683  0.38433  Biso   1.000  C
  C383     1.0000 0.89938  0.49357  0.68166  Biso   1.000  C
  C384     1.0000 0.19154  0.61904  0.50804  Biso   1.000  C
  C385     1.0000 0.21413  0.13243  0.00920  Biso   1.000  C
  C386     1.0000 0.02425  0.16862  0.16547  Biso   1.000  C
  C387     1.0000 0.18601  0.98888  0.20063  Biso   1.000  C
  C388     1.0000 0.70415  0.14411  0.53797  Biso   1.000  C
  C389     1.0000 0.52532  0.15845  0.36291  Biso   1.000  C
  C390     1.0000 0.68525  0.99290  0.34001  Biso   1.000  C
  C391     1.0000 0.34485  0.63369  0.03112  Biso   1.000  C
  C392     1.0000 0.53472  0.65863  0.17801  Biso   1.000  C
  C393     1.0000 0.38249  0.46696  0.20605  Biso   1.000  C
  C394     1.0000 0.85405  0.64056  0.51624  Biso   1.000  C
  C395     1.0000 0.04410  0.66658  0.37393  Biso   1.000  C
  C396     1.0000 0.87968  0.50168  0.34025  Biso   1.000  C
  C397     1.0000 0.84255  0.84186  0.03444  Biso   1.000  C
  C398     1.0000 0.02933  0.81319  0.87874  Biso   1.000  C
  C399     1.0000 0.87915  0.99183  0.84430  Biso   1.000  C
  C400     1.0000 0.35460  0.83290  0.51812  Biso   1.000  C
  C401     1.0000 0.52817  0.81754  0.67936  Biso   1.000  C
  C402     1.0000 0.38323  0.99423  0.70300  Biso   1.000  C
  C403     1.0000 0.71500  0.34407  0.00591  Biso   1.000  C
  C404     1.0000 0.52622  0.31833  0.86118  Biso   1.000  C
  C405     1.0000 0.67632  0.49465  0.84147  Biso   1.000  C
  C406     1.0000 0.20968  0.33224  0.50862  Biso   1.000  C
  C407     1.0000 0.01616  0.31413  0.66912  Biso   1.000  C
  C408     1.0000 0.18147  0.47417  0.70012  Biso   1.000  C
  C409     1.0000 0.17612  0.98683  0.83347  Biso   1.000  C
  C410     1.0000 0.85165  0.14028  0.00776  Biso   1.000  C
  C411     1.0000 0.02749  0.80794  0.17458  Biso   1.000  C
  C412     1.0000 0.68118  0.00292  0.70525  Biso   1.000  C
  C413     1.0000 0.34446  0.12663  0.50379  Biso   1.000  C
  C414     1.0000 0.52877  0.79889  0.38327  Biso   1.000  C
  C415     1.0000 0.37752  0.48590  0.84158  Biso   1.000  C
  C416     1.0000 0.70810  0.64389  0.03690  Biso   1.000  C
  C417     1.0000 0.53156  0.29644  0.15983  Biso   1.000  C
  C418     1.0000 0.88294  0.49327  0.70825  Biso   1.000  C
  C419     1.0000 0.21795  0.63348  0.50168  Biso   1.000  C
  C420     1.0000 0.01121  0.31029  0.36678  Biso   1.000  C
  C421     1.0000 0.88855  0.99475  0.20541  Biso   1.000  C
  C422     1.0000 0.20787  0.83569  0.02023  Biso   1.000  C
  C423     1.0000 0.02663  0.17505  0.86649  Biso   1.000  C
  C424     1.0000 0.38801  0.97055  0.33826  Biso   1.000  C
  C425     1.0000 0.71877  0.84290  0.52361  Biso   1.000  C
  C426     1.0000 0.52826  0.18161  0.65940  Biso   1.000  C
  C427     1.0000 0.68025  0.49026  0.20530  Biso   1.000  C
  C428     1.0000 0.35115  0.33522  0.02066  Biso   1.000  C
  C429     1.0000 0.51005  0.68127  0.87784  Biso   1.000  C
  C430     1.0000 0.17825  0.46930  0.33522  Biso   1.000  C
  C431     1.0000 0.84025  0.34261  0.52577  Biso   1.000  C
  C432     1.0000 0.03139  0.67734  0.67333  Biso   1.000  C
  C433     1.0000 0.02060  0.14197  0.83503  Biso   1.000  C
  C434     1.0000 0.85443  0.99353  0.17389  Biso   1.000  C
  C435     1.0000 0.17475  0.80600  0.02531  Biso   1.000  C
  C436     1.0000 0.53344  0.14924  0.69376  Biso   1.000  C
  C437     1.0000 0.35368  0.97397  0.36851  Biso   1.000  C
  C438     1.0000 0.68719  0.81041  0.53341  Biso   1.000  C
  C439     1.0000 0.51650  0.65032  0.84493  Biso   1.000  C
  C440     1.0000 0.71237  0.49334  0.17291  Biso   1.000  C
  C441     1.0000 0.38401  0.30084  0.02006  Biso   1.000  C
  C442     1.0000 0.03579  0.64407  0.70583  Biso   1.000  C
  C443     1.0000 0.20872  0.47020  0.36947  Biso   1.000  C
  C444     1.0000 0.87358  0.31095  0.52885  Biso   1.000  C
  C445     1.0000 0.02983  0.84116  0.20746  Biso   1.000  C
  C446     1.0000 0.20975  0.98299  0.86597  Biso   1.000  C
  C447     1.0000 0.88452  0.17181  0.00297  Biso   1.000  C
  C448     1.0000 0.53228  0.82873  0.34861  Biso   1.000  C
  C449     1.0000 0.71197  0.99450  0.67172  Biso   1.000  C
  C450     1.0000 0.37449  0.16076  0.50555  Biso   1.000  C
  C451     1.0000 0.52958  0.32897  0.19467  Biso   1.000  C
  C452     1.0000 0.34746  0.47989  0.87523  Biso   1.000  C
  C453     1.0000 0.67497  0.67606  0.03626  Biso   1.000  C
  C454     1.0000 0.00831  0.34206  0.33355  Biso   1.000  C
  C455     1.0000 0.85150  0.48763  0.67568  Biso   1.000  C
  C456     1.0000 0.18564  0.66767  0.50540  Biso   1.000  C
  C457     1.0000 0.03888  0.63527  0.33879  Biso   1.000  C
  C458     1.0000 0.35166  0.98969  0.66747  Biso   1.000  C
  C459     1.0000 0.68097  0.31304  0.00271  Biso   1.000  C
  C460     1.0000 0.53061  0.62497  0.20884  Biso   1.000  C
  C461     1.0000 0.84768  0.98652  0.87805  Biso   1.000  C
  C462     1.0000 0.17504  0.30156  0.50485  Biso   1.000  C
  C463     1.0000 0.52438  0.12332  0.33322  Biso   1.000  C
  C464     1.0000 0.21608  0.47683  0.66790  Biso   1.000  C
  C465     1.0000 0.87693  0.80798  0.02966  Biso   1.000  C
  C466     1.0000 0.02820  0.13686  0.20045  Biso   1.000  C
  C467     1.0000 0.70864  0.48881  0.87468  Biso   1.000  C
  C468     1.0000 0.38829  0.80146  0.51688  Biso   1.000  C
  C469     1.0000 0.01644  0.34877  0.70166  Biso   1.000  C
  C470     1.0000 0.71762  0.99526  0.37313  Biso   1.000  C
  C471     1.0000 0.37658  0.66680  0.03645  Biso   1.000  C
  C472     1.0000 0.52685  0.35391  0.83195  Biso   1.000  C
  C473     1.0000 0.21937  0.99057  0.16599  Biso   1.000  C
  C474     1.0000 0.88829  0.67099  0.52068  Biso   1.000  C
  C475     1.0000 0.52562  0.85190  0.71150  Biso   1.000  C
  C476     1.0000 0.84887  0.49822  0.37627  Biso   1.000  C
  C477     1.0000 0.18542  0.16695  0.01490  Biso   1.000  C
  C478     1.0000 0.03888  0.84480  0.84530  Biso   1.000  C
  C479     1.0000 0.34856  0.46991  0.17516  Biso   1.000  C
  C480     1.0000 0.66909  0.17470  0.53739  Biso   1.000  C
  C481     1.0000 0.40641  0.77490  0.51698  Biso   1.000  C
  C482     1.0000 0.52726  0.37124  0.80522  Biso   1.000  C
  C483     1.0000 0.82303  0.49605  0.39311  Biso   1.000  C
  C484     1.0000 0.89328  0.78118  0.02551  Biso   1.000  C
  C485     1.0000 0.01312  0.36581  0.72834  Biso   1.000  C
  C486     1.0000 0.32093  0.46473  0.15791  Biso   1.000  C
  C487     1.0000 0.15465  0.27645  0.50572  Biso   1.000  C
  C488     1.0000 0.04517  0.85976  0.81866  Biso   1.000  C
  C489     1.0000 0.74362  0.99943  0.38918  Biso   1.000  C
  C490     1.0000 0.66550  0.28652  0.00190  Biso   1.000  C
  C491     1.0000 0.52193  0.86862  0.73851  Biso   1.000  C
  C492     1.0000 0.24679  0.99120  0.14938  Biso   1.000  C
  C493     1.0000 0.65155  0.20052  0.54007  Biso   1.000  C
  C494     1.0000 0.53278  0.60898  0.23478  Biso   1.000  C
  C495     1.0000 0.24323  0.47897  0.65260  Biso   1.000  C
  C496     1.0000 0.17037  0.19432  0.02140  Biso   1.000  C
  C497     1.0000 0.03980  0.62029  0.31211  Biso   1.000  C
  C498     1.0000 0.73465  0.48134  0.89319  Biso   1.000  C
  C499     1.0000 0.90589  0.69699  0.52245  Biso   1.000  C
  C500     1.0000 0.02889  0.12083  0.22835  Biso   1.000  C
  C501     1.0000 0.32528  0.98462  0.65116  Biso   1.000  C
  C502     1.0000 0.39158  0.69412  0.04127  Biso   1.000  C
  C503     1.0000 0.52366  0.10652  0.30666  Biso   1.000  C
  C504     1.0000 0.82131  0.97884  0.89361  Biso   1.000  C
  C505     1.0000 0.65964  0.50245  0.81570  Biso   1.000  C
  C506     1.0000 0.82708  0.62534  0.51227  Biso   1.000  C
  C507     1.0000 0.52681  0.79003  0.66391  Biso   1.000  C
  C508     1.0000 0.16672  0.47390  0.72871  Biso   1.000  C
  C509     1.0000 0.31773  0.61789  0.02645  Biso   1.000  C
  C510     1.0000 0.02541  0.78624  0.89431  Biso   1.000  C
  C511     1.0000 0.89501  0.99657  0.81773  Biso   1.000  C
  C512     1.0000 0.73094  0.12851  0.54087  Biso   1.000  C
  C513     1.0000 0.01647  0.28793  0.65292  Biso   1.000  C
  C514     1.0000 0.39635  0.99821  0.73162  Biso   1.000  C
  C515     1.0000 0.24021  0.11576  0.00396  Biso   1.000  C
  C516     1.0000 0.52469  0.29037  0.87560  Biso   1.000  C
  C517     1.0000 0.40068  0.46075  0.23235  Biso   1.000  C
  C518     1.0000 0.23781  0.34741  0.50997  Biso   1.000  C
  C519     1.0000 0.52667  0.18525  0.37946  Biso   1.000  C
  C520     1.0000 0.89437  0.50138  0.31203  Biso   1.000  C
  C521     1.0000 0.74186  0.35895  0.00672  Biso   1.000  C
  C522     1.0000 0.02679  0.19636  0.15226  Biso   1.000  C
  C523     1.0000 0.17249  0.98836  0.22941  Biso   1.000  C
  C524     1.0000 0.32666  0.84869  0.51779  Biso   1.000  C
  C525     1.0000 0.04584  0.69270  0.38992  Biso   1.000  C
  C526     1.0000 0.66974  0.98817  0.31243  Biso   1.000  C
  C527     1.0000 0.81663  0.86063  0.03815  Biso   1.000  C
  C528     1.0000 0.53576  0.68749  0.16231  Biso   1.000  C
  C529     1.0000 0.82496  0.12464  0.01079  Biso   1.000  C
  C530     1.0000 0.02552  0.78151  0.15699  Biso   1.000  C
  C531     1.0000 0.16038  0.99319  0.80674  Biso   1.000  C
  C532     1.0000 0.31623  0.11142  0.50365  Biso   1.000  C
  C533     1.0000 0.53043  0.77257  0.40035  Biso   1.000  C
  C534     1.0000 0.66575  0.01113  0.73371  Biso   1.000  C
  C535     1.0000 0.73618  0.62858  0.03587  Biso   1.000  C
  C536     1.0000 0.53099  0.27039  0.14218  Biso   1.000  C
  C537     1.0000 0.39271  0.48834  0.81343  Biso   1.000  C
  C538     1.0000 0.24366  0.61621  0.49823  Biso   1.000  C
  C539     1.0000 0.01662  0.28309  0.38365  Biso   1.000  C
  C540     1.0000 0.89926  0.49635  0.73510  Biso   1.000  C
  C541     1.0000 0.23692  0.84734  0.01670  Biso   1.000  C
  C542     1.0000 0.03141  0.20084  0.88372  Biso   1.000  C
  C543     1.0000 0.90646  0.99494  0.23235  Biso   1.000  C
  C544     1.0000 0.74496  0.85941  0.51821  Biso   1.000  C
  C545     1.0000 0.52401  0.20824  0.64190  Biso   1.000  C
  C546     1.0000 0.40537  0.97057  0.31276  Biso   1.000  C
  C547     1.0000 0.32447  0.35085  0.02075  Biso   1.000  C
  C548     1.0000 0.50725  0.70762  0.89545  Biso   1.000  C
  C549     1.0000 0.66404  0.49114  0.23272  Biso   1.000  C
  C550     1.0000 0.81420  0.35934  0.52208  Biso   1.000  C
  C551     1.0000 0.02897  0.70419  0.65650  Biso   1.000  C
  C552     1.0000 0.16129  0.46465  0.30732  Biso   1.000  C
  C553     1.0000 0.01662  0.12561  0.80845  Biso   1.000  C
  C554     1.0000 0.82524  0.99545  0.16006  Biso   1.000  C
  C555     1.0000 0.15673  0.78069  0.02845  Biso   1.000  C
  C556     1.0000 0.54129  0.13520  0.71985  Biso   1.000  C
  C557     1.0000 0.32727  0.97815  0.38522  Biso   1.000  C
  C558     1.0000 0.67389  0.78315  0.53996  Biso   1.000  C
  C559     1.0000 0.51857  0.63708  0.81596  Biso   1.000  C
  C560     1.0000 0.73991  0.49505  0.15790  Biso   1.000  C
  C561     1.0000 0.40223  0.27493  0.02296  Biso   1.000  C
  C562     1.0000 0.04058  0.62913  0.73268  Biso   1.000  C
  C563     1.0000 0.23602  0.46883  0.38513  Biso   1.000  C
  C564     1.0000 0.89035  0.28461  0.53332  Biso   1.000  C
  C565     1.0000 0.02754  0.85705  0.23524  Biso   1.000  C
  C566     1.0000 0.23640  0.97709  0.88155  Biso   1.000  C
  C567     1.0000 0.89991  0.19621  0.99658  Biso   1.000  C
  C568     1.0000 0.53301  0.84337  0.31930  Biso   1.000  C
  C569     1.0000 0.73815  0.99141  0.65679  Biso   1.000  C
  C570     1.0000 0.38887  0.18897  0.50363  Biso   1.000  C
  C571     1.0000 0.52884  0.34367  0.22315  Biso   1.000  C
  C572     1.0000 0.32216  0.47068  0.89295  Biso   1.000  C
  C573     1.0000 0.65521  0.70094  0.03880  Biso   1.000  C
  C574     1.0000 0.00395  0.35795  0.30699  Biso   1.000  C
  C575     1.0000 0.82412  0.48458  0.66009  Biso   1.000  C
  C576     1.0000 0.17139  0.69515  0.50884  Biso   1.000  C
  C577     1.0000 0.32057  0.46850  0.12611  Biso   1.000  C
  C578     1.0000 0.12331  0.27938  0.50441  Biso   1.000  C
  C579     1.0000 0.52221  0.07444  0.30723  Biso   1.000  C
  C580     1.0000 0.82557  0.49477  0.42404  Biso   1.000  C
  C581     1.0000 0.63432  0.28530  0.00351  Biso   1.000  C
  C582     1.0000 0.03223  0.08841  0.22882  Biso   1.000  C
  C583     1.0000 0.24505  0.99072  0.11762  Biso   1.000  C
  C584     1.0000 0.43809  0.77733  0.52003  Biso   1.000  C
  C585     1.0000 0.03528  0.58931  0.31224  Biso   1.000  C
  C586     1.0000 0.74265  0.99914  0.42064  Biso   1.000  C
  C587     1.0000 0.92450  0.78138  0.02485  Biso   1.000  C
  C588     1.0000 0.53320  0.57683  0.23244  Biso   1.000  C
  C589     1.0000 0.73421  0.48641  0.92449  Biso   1.000  C
  C590     1.0000 0.93745  0.69403  0.52192  Biso   1.000  C
  C591     1.0000 0.52592  0.89889  0.73929  Biso   1.000  C
  C592     1.0000 0.24424  0.48104  0.62110  Biso   1.000  C
  C593     1.0000 0.42340  0.69522  0.04399  Biso   1.000  C
  C594     1.0000 0.04349  0.89161  0.81863  Biso   1.000  C
  C595     1.0000 0.82150  0.97540  0.92437  Biso   1.000  C
  C596     1.0000 0.61972  0.19878  0.53428  Biso   1.000  C
  C597     1.0000 0.01368  0.39706  0.72691  Biso   1.000  C
  C598     1.0000 0.32597  0.98592  0.61975  Biso   1.000  C
  C599     1.0000 0.13799  0.19510  0.02286  Biso   1.000  C
  C600     1.0000 0.52623  0.40318  0.80800  Biso   1.000  C
  C601     1.0000 0.23533  0.97413  0.91390  Biso   1.000  C
  C602     1.0000 0.93052  0.19838  0.99845  Biso   1.000  C
  C603     1.0000 0.02636  0.88814  0.23531  Biso   1.000  C
  C604     1.0000 0.73740  0.98755  0.62529  Biso   1.000  C
  C605     1.0000 0.41929  0.19058  0.50475  Biso   1.000  C
  C606     1.0000 0.53669  0.87454  0.31832  Biso   1.000  C
  C607     1.0000 0.32342  0.47425  0.92397  Biso   1.000  C
  C608     1.0000 0.62409  0.69935  0.04007  Biso   1.000  C
  C609     1.0000 0.52786  0.37467  0.22299  Biso   1.000  C
  C610     1.0000 0.82152  0.48496  0.62709  Biso   1.000  C
  C611     1.0000 0.14127  0.69554  0.51725  Biso   1.000  C
  C612     1.0000 0.00185  0.38928  0.30945  Biso   1.000  C
  C613     1.0000 0.82284  0.00056  0.12997  Biso   1.000  C
  C614     1.0000 0.12590  0.78389  0.02916  Biso   1.000  C
  C615     1.0000 0.01460  0.09362  0.80847  Biso   1.000  C
  C616     1.0000 0.32675  0.97657  0.41657  Biso   1.000  C
  C617     1.0000 0.64255  0.78315  0.54241  Biso   1.000  C
  C618     1.0000 0.53611  0.10347  0.72147  Biso   1.000  C
  C619     1.0000 0.74135  0.49643  0.12705  Biso   1.000  C
  C620     1.0000 0.43372  0.27622  0.02054  Biso   1.000  C
  C621     1.0000 0.52205  0.60565  0.81294  Biso   1.000  C
  C622     1.0000 0.23684  0.47340  0.41692  Biso   1.000  C
  C623     1.0000 0.92251  0.28543  0.53414  Biso   1.000  C
  C624     1.0000 0.04034  0.59786  0.73142  Biso   1.000  C
  C625     1.0000 0.03311  0.20060  0.91514  Biso   1.000  C
  C626     1.0000 0.93741  0.99503  0.23135  Biso   1.000  C
  C627     1.0000 0.23846  0.87869  0.01547  Biso   1.000  C
  C628     1.0000 0.51891  0.20470  0.61103  Biso   1.000  C
  C629     1.0000 0.43663  0.96698  0.31364  Biso   1.000  C
  C630     1.0000 0.74218  0.89083  0.51693  Biso   1.000  C
  C631     1.0000 0.50811  0.70604  0.92661  Biso   1.000  C
  C632     1.0000 0.63209  0.48950  0.23193  Biso   1.000  C
  C633     1.0000 0.32332  0.38171  0.01771  Biso   1.000  C
  C634     1.0000 0.02569  0.70240  0.62490  Biso   1.000  C
  C635     1.0000 0.13018  0.47127  0.30851  Biso   1.000  C
  C636     1.0000 0.81595  0.39174  0.52063  Biso   1.000  C
  C637     1.0000 0.02674  0.78236  0.12573  Biso   1.000  C
  C638     1.0000 0.12868  0.99629  0.80804  Biso   1.000  C
  C639     1.0000 0.82699  0.09246  0.01662  Biso   1.000  C
  C640     1.0000 0.53255  0.77619  0.43211  Biso   1.000  C
  C641     1.0000 0.63487  0.01273  0.73154  Biso   1.000  C
  C642     1.0000 0.31806  0.07945  0.50318  Biso   1.000  C
  C643     1.0000 0.53242  0.27284  0.11002  Biso   1.000  C
  C644     1.0000 0.42305  0.49643  0.81258  Biso   1.000  C
  C645     1.0000 0.73642  0.59652  0.03370  Biso   1.000  C
  C646     1.0000 0.01577  0.28284  0.41542  Biso   1.000  C
  C647     1.0000 0.93078  0.50016  0.73622  Biso   1.000  C
  C648     1.0000 0.24471  0.58471  0.50291  Biso   1.000  C
  C649     1.0000 0.04493  0.69233  0.42194  Biso   1.000  C
  C650     1.0000 0.42728  0.00186  0.73319  Biso   1.000  C
  C651     1.0000 0.74098  0.39020  0.01083  Biso   1.000  C
  C652     1.0000 0.53247  0.68775  0.13070  Biso   1.000  C
  C653     1.0000 0.92700  0.99788  0.81786  Biso   1.000  C
  C654     1.0000 0.23676  0.37841  0.51160  Biso   1.000  C
  C655     1.0000 0.52899  0.18799  0.41045  Biso   1.000  C
  C656     1.0000 0.13624  0.47624  0.72823  Biso   1.000  C
  C657     1.0000 0.81675  0.89277  0.03651  Biso   1.000  C
  C658     1.0000 0.03190  0.19648  0.11992  Biso   1.000  C
  C659     1.0000 0.62759  0.50624  0.81469  Biso   1.000  C
  C660     1.0000 0.32516  0.87994  0.52285  Biso   1.000  C
  C661     1.0000 0.02076  0.28741  0.62109  Biso   1.000  C
  C662     1.0000 0.63915  0.98392  0.31278  Biso   1.000  C
  C663     1.0000 0.31882  0.58615  0.02497  Biso   1.000  C
  C664     1.0000 0.52788  0.28833  0.90670  Biso   1.000  C
  C665     1.0000 0.14123  0.99136  0.22873  Biso   1.000  C
  C666     1.0000 0.82683  0.59385  0.51481  Biso   1.000  C
  C667     1.0000 0.52908  0.78868  0.63222  Biso   1.000  C
  C668     1.0000 0.92561  0.50084  0.31160  Biso   1.000  C
  C669     1.0000 0.23870  0.08395  0.00227  Biso   1.000  C
  C670     1.0000 0.02169  0.78770  0.92462  Biso   1.000  C
  C671     1.0000 0.43283  0.46114  0.22912  Biso   1.000  C
  C672     1.0000 0.73089  0.09609  0.54036  Biso   1.000  C
  C673     1.0000 0.22451  0.98663  0.82045  Biso   1.000  C
  C674     1.0000 0.83719  0.18662  0.00107  Biso   1.000  C
  C675     1.0000 0.02772  0.79428  0.22222  Biso   1.000  C
  C676     1.0000 0.72809  0.00205  0.71785  Biso   1.000  C
  C677     1.0000 0.32954  0.17522  0.50335  Biso   1.000  C
  C678     1.0000 0.53323  0.78081  0.33686  Biso   1.000  C
  C679     1.0000 0.33135  0.47115  0.82895  Biso   1.000  C
  C680     1.0000 0.72069  0.69022  0.03662  Biso   1.000  C
  C681     1.0000 0.52619  0.28329  0.20748  Biso   1.000  C
  C682     1.0000 0.83716  0.48604  0.72237  Biso   1.000  C
  C683     1.0000 0.23368  0.67810  0.49696  Biso   1.000  C
  C684     1.0000 0.01044  0.29695  0.31954  Biso   1.000  C
  C685     1.0000 0.84225  0.99147  0.22144  Biso   1.000  C
  C686     1.0000 0.22146  0.78864  0.02219  Biso   1.000  C
  C687     1.0000 0.01865  0.18876  0.81980  Biso   1.000  C
  C688     1.0000 0.34308  0.97844  0.32017  Biso   1.000  C
  C689     1.0000 0.73466  0.79732  0.52743  Biso   1.000  C
  C690     1.0000 0.53053  0.19663  0.70642  Biso   1.000  C
  C691     1.0000 0.72585  0.49630  0.22203  Biso   1.000  C
  C692     1.0000 0.33706  0.28869  0.01938  Biso   1.000  C
  C693     1.0000 0.51543  0.69700  0.83219  Biso   1.000  C
  C694     1.0000 0.22486  0.46242  0.32573  Biso   1.000  C
  C695     1.0000 0.82583  0.29689  0.53088  Biso   1.000  C
  C696     1.0000 0.03543  0.69051  0.71976  Biso   1.000  C
  C697     1.0000 0.73385  0.99515  0.32821  Biso   1.000  C
  C698     1.0000 0.33081  0.68108  0.03267  Biso   1.000  C
  C699     1.0000 0.01410  0.30191  0.71593  Biso   1.000  C
  C700     1.0000 0.23488  0.99115  0.21104  Biso   1.000  C
  C701     1.0000 0.84122  0.68652  0.51771  Biso   1.000  C
  C702     1.0000 0.52773  0.30805  0.81537  Biso   1.000  C
  C703     1.0000 0.83122  0.50102  0.33006  Biso   1.000  C
  C704     1.0000 0.23151  0.17935  0.01204  Biso   1.000  C
  C705     1.0000 0.52283  0.80548  0.72508  Biso   1.000  C
  C706     1.0000 0.33752  0.46456  0.22320  Biso   1.000  C
  C707     1.0000 0.71586  0.19197  0.53981  Biso   1.000  C
  C708     1.0000 0.03548  0.79919  0.83064  Biso   1.000  C
  C709     1.0000 0.33629  0.98964  0.71593  Biso   1.000  C
  C710     1.0000 0.72878  0.29778  0.00086  Biso   1.000  C
  C711     1.0000 0.04032  0.68060  0.32502  Biso   1.000  C
  C712     1.0000 0.83224  0.98942  0.83109  Biso   1.000  C
  C713     1.0000 0.21925  0.28353  0.50504  Biso   1.000  C
  C714     1.0000 0.53582  0.66894  0.22601  Biso   1.000  C
  C715     1.0000 0.22842  0.47312  0.71624  Biso   1.000  C
  C716     1.0000 0.82908  0.79644  0.02895  Biso   1.000  C
  C717     1.0000 0.52392  0.17029  0.31605  Biso   1.000  C
  C718     1.0000 0.72297  0.48843  0.82691  Biso   1.000  C
  C719     1.0000 0.34116  0.78745  0.50893  Biso   1.000  C
  C720     1.0000 0.02160  0.18323  0.21398  Biso   1.000  C
  C721     1.0000 0.54861  0.78398  0.30946  Biso   1.000  C
  C722     1.0000 0.30177  0.48036  0.83407  Biso   1.000  C
  C723     1.0000 0.79780  0.30424  0.54462  Biso   1.000  C
  C724     1.0000 0.01142  0.76777  0.22004  Biso   1.000  C
  C725     1.0000 0.81023  0.50195  0.71989  Biso   1.000  C
  C726     1.0000 0.31304  0.29151  0.99962  Biso   1.000  C
  C727     1.0000 0.00017  0.26851  0.32376  Biso   1.000  C
  C728     1.0000 0.25094  0.00431  0.82601  Biso   1.000  C
  C729     1.0000 0.76487  0.80229  0.53826  Biso   1.000  C
  C730     1.0000 0.50695  0.28532  0.23385  Biso   1.000  C
  C731     1.0000 0.74902  0.97694  0.72076  Biso   1.000  C
  C732     1.0000 0.24010  0.78509  0.99707  Biso   1.000  C
  C733     1.0000 0.51820  0.19276  0.73451  Biso   1.000  C
  C734     1.0000 0.72305  0.47924  0.24774  Biso   1.000  C
  C735     1.0000 0.23239  0.70545  0.48014  Biso   1.000  C
  C736     1.0000 0.00667  0.21759  0.82482  Biso   1.000  C
  C737     1.0000 0.25094  0.44390  0.33153  Biso   1.000  C
  C738     1.0000 0.74672  0.68839  0.05392  Biso   1.000  C
  C739     1.0000 0.05601  0.69110  0.74383  Biso   1.000  C
  C740     1.0000 0.81460  0.97644  0.21878  Biso   1.000  C
  C741     1.0000 0.30730  0.17332  0.48170  Biso   1.000  C
  C742     1.0000 0.54088  0.69814  0.81118  Biso   1.000  C
  C743     1.0000 0.31513  0.96471  0.32361  Biso   1.000  C
  C744     1.0000 0.84055  0.21397  0.01672  Biso   1.000  C
  C745     1.0000 0.05649  0.70751  0.32838  Biso   1.000  C
  C746     1.0000 0.30814  0.00379  0.71061  Biso   1.000  C
  C747     1.0000 0.75229  0.29620  0.02261  Biso   1.000  C
  C748     1.0000 0.54975  0.69665  0.22321  Biso   1.000  C
  C749     1.0000 0.83540  0.97808  0.80118  Biso   1.000  C
  C750     1.0000 0.24396  0.28506  0.52369  Biso   1.000  C
  C751     1.0000 0.54176  0.16685  0.28904  Biso   1.000  C
  C752     1.0000 0.25191  0.45181  0.71353  Biso   1.000  C
  C753     1.0000 0.79831  0.80327  0.02040  Biso   1.000  C
  C754     1.0000 0.03963  0.18241  0.23983  Biso   1.000  C
  C755     1.0000 0.71639  0.47308  0.79960  Biso   1.000  C
  C756     1.0000 0.31365  0.78813  0.52390  Biso   1.000  C
  C757     1.0000 0.99664  0.27649  0.71273  Biso   1.000  C
  C758     1.0000 0.73134  0.01127  0.29959  Biso   1.000  C
  C759     1.0000 0.30235  0.67825  0.04395  Biso   1.000  C
  C760     1.0000 0.54682  0.30992  0.79105  Biso   1.000  C
  C761     1.0000 0.25960  0.01067  0.21171  Biso   1.000  C
  C762     1.0000 0.84583  0.71569  0.50653  Biso   1.000  C
  C763     1.0000 0.50501  0.80789  0.75032  Biso   1.000  C
  C764     1.0000 0.80462  0.51840  0.33458  Biso   1.000  C
  C765     1.0000 0.25898  0.17469  0.02456  Biso   1.000  C
  C766     1.0000 0.02252  0.80404  0.80071  Biso   1.000  C
  C767     1.0000 0.34059  0.47925  0.25098  Biso   1.000  C
  C768     1.0000 0.71106  0.21882  0.52263  Biso   1.000  C
  C769     1.0000 0.49399  0.72190  0.83322  Biso   1.000  C
  C770     1.0000 0.83968  0.46821  0.75093  Biso   1.000  C
  C771     1.0000 0.72775  0.76912  0.51479  Biso   1.000  C
  C772     1.0000 0.01417  0.71484  0.71914  Biso   1.000  C
  C773     1.0000 0.33941  0.45897  0.79975  Biso   1.000  C
  C774     1.0000 0.22534  0.76909  0.04790  Biso   1.000  C
  C775     1.0000 0.03031  0.18428  0.79002  Biso   1.000  C
  C776     1.0000 0.72712  0.02362  0.74160  Biso   1.000  C
  C777     1.0000 0.82864  0.26802  0.51820  Biso   1.000  C
  C778     1.0000 0.54313  0.22468  0.69985  Biso   1.000  C
  C779     1.0000 0.22265  0.97063  0.79275  Biso   1.000  C
  C780     1.0000 0.33750  0.26319  0.03888  Biso   1.000  C
  C781     1.0000 0.54427  0.25629  0.20530  Biso   1.000  C
  C782     1.0000 0.22421  0.47602  0.29817  Biso   1.000  C
  C783     1.0000 0.33186  0.20085  0.52193  Biso   1.000  C
  C784     1.0000 0.02637  0.30116  0.29184  Biso   1.000  C
  C785     1.0000 0.74918  0.51746  0.22024  Biso   1.000  C
  C786     1.0000 0.80907  0.18197  0.98672  Biso   1.000  C
  C787     1.0000 0.04652  0.79755  0.24767  Biso   1.000  C
  C788     1.0000 0.34909  0.99655  0.29664  Biso   1.000  C
  C789     1.0000 0.26095  0.67419  0.51414  Biso   1.000  C
  C790     1.0000 0.51733  0.75470  0.34059  Biso   1.000  C
  C791     1.0000 0.84819  0.00679  0.24945  Biso   1.000  C
  C792     1.0000 0.71790  0.71310  0.01613  Biso   1.000  C
  C793     1.0000 0.50501  0.19587  0.31690  Biso   1.000  C
  C794     1.0000 0.31285  0.44550  0.21625  Biso   1.000  C
  C795     1.0000 0.21491  0.25738  0.48811  Biso   1.000  C
  C796     1.0000 0.00190  0.20875  0.21087  Biso   1.000  C
  C797     1.0000 0.83380  0.48188  0.30526  Biso   1.000  C
  C798     1.0000 0.72551  0.27348  0.98022  Biso   1.000  C
  C799     1.0000 0.02007  0.67897  0.30011  Biso   1.000  C
  C800     1.0000 0.23397  0.97064  0.23364  Biso   1.000  C
  C801     1.0000 0.34746  0.76298  0.49018  Biso   1.000  C
  C802     1.0000 0.51661  0.66569  0.25223  Biso   1.000  C
  C803     1.0000 0.76137  0.98081  0.33362  Biso   1.000  C
  C804     1.0000 0.83573  0.76768  0.03801  Biso   1.000  C
  C805     1.0000 0.53680  0.77720  0.72137  Biso   1.000  C
  C806     1.0000 0.75147  0.49943  0.83114  Biso   1.000  C
  C807     1.0000 0.81446  0.68153  0.53189  Biso   1.000  C
  C808     1.0000 0.05141  0.77070  0.83532  Biso   1.000  C
  C809     1.0000 0.22532  0.49047  0.74329  Biso   1.000  C
  C810     1.0000 0.33576  0.70556  0.01636  Biso   1.000  C
  C811     1.0000 0.03137  0.30507  0.74198  Biso   1.000  C
  C812     1.0000 0.80385  0.00149  0.83802  Biso   1.000  C
  C813     1.0000 0.74203  0.19015  0.55766  Biso   1.000  C
  C814     1.0000 0.50727  0.28294  0.81609  Biso   1.000  C
  C815     1.0000 0.34122  0.97419  0.74433  Biso   1.000  C
  C816     1.0000 0.22594  0.20662  0.99744  Biso   1.000  C
  C817     1.0000 0.00970  0.23896  0.80539  Biso   1.000  C
  C818     1.0000 0.79516  0.97658  0.24106  Biso   1.000  C
  C819     1.0000 0.26099  0.76406  0.00074  Biso   1.000  C
  C820     1.0000 0.51653  0.21458  0.75539  Biso   1.000  C
  C821     1.0000 0.29379  0.97046  0.30213  Biso   1.000  C
  C822     1.0000 0.78488  0.77893  0.53818  Biso   1.000  C
  C823     1.0000 0.54137  0.72127  0.79350  Biso   1.000  C
  C824     1.0000 0.74354  0.48107  0.26848  Biso   1.000  C
  C825     1.0000 0.29001  0.27242  0.99744  Biso   1.000  C
  C826     1.0000 0.05568  0.71085  0.76595  Biso   1.000  C
  C827     1.0000 0.27185  0.44244  0.31086  Biso   1.000  C
  C828     1.0000 0.77524  0.28575  0.54563  Biso   1.000  C
  C829     1.0000 0.01434  0.74567  0.24012  Biso   1.000  C
  C830     1.0000 0.27241  0.00565  0.80532  Biso   1.000  C
  C831     1.0000 0.81966  0.23573  0.01351  Biso   1.000  C
  C832     1.0000 0.54753  0.76302  0.28862  Biso   1.000  C
  C833     1.0000 0.76631  0.97326  0.74477  Biso   1.000  C
  C834     1.0000 0.28758  0.19634  0.47938  Biso   1.000  C
  C835     1.0000 0.50676  0.26221  0.25376  Biso   1.000  C
  C836     1.0000 0.28181  0.47754  0.81178  Biso   1.000  C
  C837     1.0000 0.76731  0.70925  0.05081  Biso   1.000  C
  C838     1.0000 0.00387  0.24556  0.30490  Biso   1.000  C
  C839     1.0000 0.78754  0.49736  0.74042  Biso   1.000  C
  C840     1.0000 0.25475  0.72460  0.48163  Biso   1.000  C
  C841     1.0000 0.24563  0.97062  0.77432  Biso   1.000  C
  C842     1.0000 0.78945  0.20363  0.98456  Biso   1.000  C
  C843     1.0000 0.04918  0.77426  0.26759  Biso   1.000  C
  C844     1.0000 0.74657  0.01908  0.76509  Biso   1.000  C
  C845     1.0000 0.30923  0.22108  0.51962  Biso   1.000  C
  C846     1.0000 0.51527  0.73488  0.31768  Biso   1.000  C
  C847     1.0000 0.31872  0.45764  0.77867  Biso   1.000  C
  C848     1.0000 0.74002  0.73303  0.01326  Biso   1.000  C
  C849     1.0000 0.54044  0.23355  0.22361  Biso   1.000  C
  C850     1.0000 0.81575  0.46606  0.76840  Biso   1.000  C
  C851     1.0000 0.28422  0.69521  0.51335  Biso   1.000  C
  C852     1.0000 0.02785  0.27847  0.27240  Biso   1.000  C
  C853     1.0000 0.82768  0.00800  0.27111  Biso   1.000  C
  C854     1.0000 0.24797  0.74880  0.04928  Biso   1.000  C
  C855     1.0000 0.02826  0.20554  0.76843  Biso   1.000  C
  C856     1.0000 0.32818  0.00109  0.27516  Biso   1.000  C
  C857     1.0000 0.74836  0.74679  0.51750  Biso   1.000  C
  C858     1.0000 0.54025  0.24688  0.72040  Biso   1.000  C
  C859     1.0000 0.76904  0.51951  0.24361  Biso   1.000  C
  C860     1.0000 0.31678  0.24292  0.03344  Biso   1.000  C
  C861     1.0000 0.49535  0.74294  0.81281  Biso   1.000  C
  C862     1.0000 0.24487  0.47128  0.27555  Biso   1.000  C
  C863     1.0000 0.80607  0.24856  0.52277  Biso   1.000  C
  C864     1.0000 0.01385  0.73482  0.74109  Biso   1.000  C
  C865     1.0000 0.73788  0.47080  0.77809  Biso   1.000  C
  C866     1.0000 0.82463  0.73645  0.51060  Biso   1.000  C
  C867     1.0000 0.50488  0.78840  0.77234  Biso   1.000  C
  C868     1.0000 0.27167  0.45169  0.73548  Biso   1.000  C
  C869     1.0000 0.28068  0.69952  0.04100  Biso   1.000  C
  C870     1.0000 0.02446  0.78116  0.78008  Biso   1.000  C
  C871     1.0000 0.81263  0.98092  0.78138  Biso   1.000  C
  C872     1.0000 0.73220  0.23905  0.52187  Biso   1.000  C
  C873     1.0000 0.99859  0.25503  0.73329  Biso   1.000  C
  C874     1.0000 0.28718  0.00402  0.73124  Biso   1.000  C
  C875     1.0000 0.27932  0.19654  0.02455  Biso   1.000  C
  C876     1.0000 0.54831  0.28848  0.77062  Biso   1.000  C
  C877     1.0000 0.31885  0.47497  0.27242  Biso   1.000  C
  C878     1.0000 0.26609  0.26483  0.52142  Biso   1.000  C
  C879     1.0000 0.53925  0.18760  0.26671  Biso   1.000  C
  C880     1.0000 0.78244  0.51887  0.31347  Biso   1.000  C
  C881     1.0000 0.77108  0.27190  0.02103  Biso   1.000  C
  C882     1.0000 0.03697  0.20264  0.26213  Biso   1.000  C
  C883     1.0000 0.28082  0.01156  0.23443  Biso   1.000  C
  C884     1.0000 0.29353  0.76666  0.51968  Biso   1.000  C
  C885     1.0000 0.05097  0.73071  0.30913  Biso   1.000  C
  C886     1.0000 0.75431  0.01102  0.28052  Biso   1.000  C
  C887     1.0000 0.77739  0.78230  0.02195  Biso   1.000  C
  C888     1.0000 0.54889  0.71675  0.24510  Biso   1.000  C
  C889     1.0000 0.78430  0.98325  0.31506  Biso   1.000  C
  C890     1.0000 0.31410  0.72711  0.01262  Biso   1.000  C
  C891     1.0000 0.03371  0.28296  0.76191  Biso   1.000  C
  C892     1.0000 0.25413  0.97061  0.25534  Biso   1.000  C
  C893     1.0000 0.79264  0.70365  0.53529  Biso   1.000  C
  C894     1.0000 0.50803  0.26287  0.79375  Biso   1.000  C
  C895     1.0000 0.81217  0.48234  0.28559  Biso   1.000  C
  C896     1.0000 0.24688  0.22792  0.99792  Biso   1.000  C
  C897     1.0000 0.53463  0.75574  0.74348  Biso   1.000  C
  C898     1.0000 0.29248  0.44259  0.23830  Biso   1.000  C
  C899     1.0000 0.76161  0.21271  0.55650  Biso   1.000  C
  C900     1.0000 0.05114  0.74974  0.81349  Biso   1.000  C
  C901     1.0000 0.31716  0.97330  0.76361  Biso   1.000  C
  C902     1.0000 0.74578  0.25147  0.97938  Biso   1.000  C
  C903     1.0000 0.01654  0.70052  0.28085  Biso   1.000  C
  C904     1.0000 0.78068  0.00226  0.81739  Biso   1.000  C
  C905     1.0000 0.23723  0.23762  0.48617  Biso   1.000  C
  C906     1.0000 0.51441  0.68859  0.27259  Biso   1.000  C
  C907     1.0000 0.24508  0.48751  0.76517  Biso   1.000  C
  C908     1.0000 0.81374  0.74769  0.03809  Biso   1.000  C
  C909     1.0000 0.50570  0.21697  0.29492  Biso   1.000  C
  C910     1.0000 0.77293  0.49259  0.81121  Biso   1.000  C
  C911     1.0000 0.32788  0.74037  0.49014  Biso   1.000  C
  C912     1.0000 0.00360  0.23087  0.23168  Biso   1.000  C
  C913     1.0000 0.78898  0.47883  0.76406  Biso   1.000  C
  C914     1.0000 0.77630  0.75206  0.52841  Biso   1.000  C
  C915     1.0000 0.51770  0.74131  0.79227  Biso   1.000  C
  C916     1.0000 0.29036  0.46826  0.78420  Biso   1.000  C
  C917     1.0000 0.26488  0.74596  0.02455  Biso   1.000  C
  C918     1.0000 0.03499  0.73211  0.76357  Biso   1.000  C
  C919     1.0000 0.76429  0.99513  0.76595  Biso   1.000  C
  C920     1.0000 0.77994  0.25769  0.53604  Biso   1.000  C
  C921     1.0000 0.01871  0.23315  0.77736  Biso   1.000  C
  C922     1.0000 0.26914  0.98875  0.77967  Biso   1.000  C
  C923     1.0000 0.29438  0.24734  0.01381  Biso   1.000  C
  C924     1.0000 0.52749  0.24201  0.74741  Biso   1.000  C
  C925     1.0000 0.26870  0.45537  0.28424  Biso   1.000  C
  C926     1.0000 0.28632  0.21908  0.49954  Biso   1.000  C
  C927     1.0000 0.52217  0.23672  0.24828  Biso   1.000  C
  C928     1.0000 0.76583  0.50005  0.26640  Biso   1.000  C
  C929     1.0000 0.79496  0.22911  0.99850  Biso   1.000  C
  C930     1.0000 0.01867  0.25016  0.27938  Biso   1.000  C
  C931     1.0000 0.30060  0.98768  0.27840  Biso   1.000  C
  C932     1.0000 0.28014  0.71974  0.49755  Biso   1.000  C
  C933     1.0000 0.03223  0.74889  0.26385  Biso   1.000  C
  C934     1.0000 0.80175  0.99283  0.26591  Biso   1.000  C
  C935     1.0000 0.76366  0.73234  0.03263  Biso   1.000  C
  C936     1.0000 0.53241  0.73645  0.29324  Biso   1.000  C
  C937     1.0000 0.77049  0.25065  0.99877  Biso   1.000  C
  C938     1.0000 0.03112  0.72742  0.28656  Biso   1.000  C
  C939     1.0000 0.29077  0.98778  0.75676  Biso   1.000  C
  C940     1.0000 0.26295  0.24176  0.50211  Biso   1.000  C
  C941     1.0000 0.53132  0.71408  0.26929  Biso   1.000  C
  C942     1.0000 0.78580  0.99298  0.78903  Biso   1.000  C
  C943     1.0000 0.78561  0.75552  0.02998  Biso   1.000  C
  C944     1.0000 0.52105  0.21208  0.26883  Biso   1.000  C
  C945     1.0000 0.26843  0.46969  0.76224  Biso   1.000  C
  C946     1.0000 0.30076  0.74286  0.50243  Biso   1.000  C
  C947     1.0000 0.01888  0.22685  0.25734  Biso   1.000  C
  C948     1.0000 0.76598  0.47711  0.78612  Biso   1.000  C
  C949     1.0000 0.28750  0.72401  0.02567  Biso   1.000  C
  C950     1.0000 0.01852  0.25790  0.75727  Biso   1.000  C
  C951     1.0000 0.77955  0.99464  0.28752  Biso   1.000  C
  C952     1.0000 0.79862  0.73020  0.52525  Biso   1.000  C
  C953     1.0000 0.52886  0.26393  0.77116  Biso   1.000  C
  C954     1.0000 0.27732  0.99071  0.25617  Biso   1.000  C
  C955     1.0000 0.27228  0.22403  0.01382  Biso   1.000  C
  C956     1.0000 0.52038  0.76252  0.76954  Biso   1.000  C
  C957     1.0000 0.78766  0.50058  0.28919  Biso   1.000  C
  C958     1.0000 0.75709  0.23544  0.53882  Biso   1.000  C
  C959     1.0000 0.03758  0.75458  0.78663  Biso   1.000  C
  C960     1.0000 0.29488  0.45672  0.26632  Biso   1.000  C
  Cu1      1.0000 0.03072  0.49607  0.67406  Biso   1.000  Cu
  Cu2      1.0000 0.68446  0.99071  0.52186  Biso   1.000  Cu
  Cu3      1.0000 0.52628  0.64421  0.02824  Biso   1.000  Cu
  Cu4      1.0000 0.52838  0.50175  0.86616  Biso   1.000  Cu
  Cu5      1.0000 0.18223  0.98368  0.01687  Biso   1.000  Cu
  Cu6      1.0000 0.03892  0.64177  0.52520  Biso   1.000  Cu
  Cu7      1.0000 0.52987  0.99748  0.67587  Biso   1.000  Cu
  Cu8      1.0000 0.87801  0.49178  0.52718  Biso   1.000  Cu
  Cu9      1.0000 0.03312  0.14623  0.01559  Biso   1.000  Cu
  Cu10     1.0000 0.02975  0.99502  0.86781  Biso   1.000  Cu
  Cu11     1.0000 0.37481  0.48463  0.02484  Biso   1.000  Cu
  Cu12     1.0000 0.52251  0.14226  0.51214  Biso   1.000  Cu
  Cu13     1.0000 0.03109  0.48807  0.36500  Biso   1.000  Cu
  Cu14     1.0000 0.37724  0.98176  0.51887  Biso   1.000  Cu
  Cu15     1.0000 0.53128  0.33416  0.01140  Biso   1.000  Cu
  Cu16     1.0000 0.53144  0.47726  0.17329  Biso   1.000  Cu
  Cu17     1.0000 0.87565  0.99023  0.02895  Biso   1.000  Cu
  Cu18     1.0000 0.02440  0.33963  0.51930  Biso   1.000  Cu
  Cu19     1.0000 0.53600  0.97699  0.36750  Biso   1.000  Cu
  Cu20     1.0000 0.18662  0.48616  0.51978  Biso   1.000  Cu
  Cu21     1.0000 0.02242  0.84123  0.02801  Biso   1.000  Cu
  Cu22     1.0000 0.03783  0.98784  0.17741  Biso   1.000  Cu
  Cu23     1.0000 0.68361  0.49177  0.02483  Biso   1.000  Cu
  Cu24     1.0000 0.53618  0.83924  0.53058  Biso   1.000  Cu
  Cu25     1.0000 0.23884  0.98353  0.01391  Biso   1.000  Cu
  Cu26     1.0000 0.03444  0.19939  0.01721  Biso   1.000  Cu
  Cu27     1.0000 0.03933  0.99117  0.23095  Biso   1.000  Cu
  Cu28     1.0000 0.73821  0.99416  0.52414  Biso   1.000  Cu
  Cu29     1.0000 0.51886  0.19571  0.51082  Biso   1.000  Cu
  Cu30     1.0000 0.53648  0.97180  0.31200  Biso   1.000  Cu
  Cu31     1.0000 0.32213  0.48445  0.02422  Biso   1.000  Cu
  Cu32     1.0000 0.52296  0.69759  0.03157  Biso   1.000  Cu
  Cu33     1.0000 0.53009  0.47732  0.22763  Biso   1.000  Cu
  Cu34     1.0000 0.82309  0.49529  0.52483  Biso   1.000  Cu
  Cu35     1.0000 0.03926  0.69585  0.52296  Biso   1.000  Cu
  Cu36     1.0000 0.02708  0.48837  0.30998  Biso   1.000  Cu
  Cu37     1.0000 0.82293  0.99323  0.02570  Biso   1.000  Cu
  Cu38     1.0000 0.02562  0.78634  0.02458  Biso   1.000  Cu
  Cu39     1.0000 0.02556  0.99307  0.81305  Biso   1.000  Cu
  Cu40     1.0000 0.32287  0.97933  0.52000  Biso   1.000  Cu
  Cu41     1.0000 0.53846  0.78310  0.53034  Biso   1.000  Cu
  Cu42     1.0000 0.53053  0.00359  0.73141  Biso   1.000  Cu
  Cu43     1.0000 0.73719  0.49536  0.02267  Biso   1.000  Cu
  Cu44     1.0000 0.53408  0.27953  0.00875  Biso   1.000  Cu
  Cu45     1.0000 0.52605  0.50238  0.81348  Biso   1.000  Cu
  Cu46     1.0000 0.24134  0.48185  0.51929  Biso   1.000  Cu
  Cu47     1.0000 0.02317  0.28622  0.52077  Biso   1.000  Cu
  Cu48     1.0000 0.03396  0.49607  0.72833  Biso   1.000  Cu
  H1       1.0000 0.27297  0.77185  0.53009  Biso   1.000  H
  H2       1.0000 0.56419  0.29230  0.75320  Biso   1.000  H
  H3       1.0000 0.76346  0.53266  0.31745  Biso   1.000  H
  H4       1.0000 0.75573  0.78770  0.01663  Biso   1.000  H
  H5       1.0000 0.98302  0.23784  0.73095  Biso   1.000  H
  H6       1.0000 0.31704  0.48519  0.29366  Biso   1.000  H
  H7       1.0000 0.28687  0.26822  0.53299  Biso   1.000  H
  H8       1.0000 0.01726  0.78304  0.75700  Biso   1.000  H
  H9       1.0000 0.75191  0.02156  0.25918  Biso   1.000  H
  H10      1.0000 0.78839  0.27105  0.03807  Biso   1.000  H
  H11      1.0000 0.49141  0.79226  0.79105  Biso   1.000  H
  H12      1.0000 0.29734  0.02835  0.23664  Biso   1.000  H
  H13      1.0000 0.73022  0.25660  0.50592  Biso   1.000  H
  H14      1.0000 0.55955  0.73663  0.24298  Biso   1.000  H
  H15      1.0000 0.29236  0.43675  0.73274  Biso   1.000  H
  H16      1.0000 0.30079  0.19145  0.03298  Biso   1.000  H
  H17      1.0000 0.06699  0.74785  0.31111  Biso   1.000  H
  H18      1.0000 0.73543  0.46345  0.75608  Biso   1.000  H
  H19      1.0000 0.82737  0.75824  0.50235  Biso   1.000  H
  H20      1.0000 0.04730  0.19870  0.28258  Biso   1.000  H
  H21      1.0000 0.26616  0.01547  0.72669  Biso   1.000  H
  H22      1.0000 0.26075  0.69688  0.04956  Biso   1.000  H
  H23      1.0000 0.55150  0.18355  0.24753  Biso   1.000  H
  H24      1.0000 0.81857  0.97291  0.75968  Biso   1.000  H
  H25      1.0000 0.29060  0.01959  0.80982  Biso   1.000  H
  H26      1.0000 0.82072  0.25439  0.02767  Biso   1.000  H
  H27      1.0000 0.99997  0.72777  0.23667  Biso   1.000  H
  H28      1.0000 0.78248  0.95604  0.74574  Biso   1.000  H
  H29      1.0000 0.27137  0.19595  0.46287  Biso   1.000  H
  H30      1.0000 0.55849  0.76661  0.26743  Biso   1.000  H
  H31      1.0000 0.26041  0.48373  0.81611  Biso   1.000  H
  H32      1.0000 0.78671  0.70982  0.06671  Biso   1.000  H
  H33      1.0000 0.49248  0.26469  0.27226  Biso   1.000  H
  H34      1.0000 0.76755  0.51017  0.73921  Biso   1.000  H
  H35      1.0000 0.25447  0.74386  0.47026  Biso   1.000  H
  H36      1.0000 0.99378  0.22586  0.31030  Biso   1.000  H
  H37      1.0000 0.77501  0.96684  0.23947  Biso   1.000  H
  H38      1.0000 0.27366  0.75862  0.98282  Biso   1.000  H
  H39      1.0000 0.00388  0.26183  0.80768  Biso   1.000  H
  H40      1.0000 0.27221  0.95901  0.30553  Biso   1.000  H
  H41      1.0000 0.80657  0.78509  0.54609  Biso   1.000  H
  H42      1.0000 0.50575  0.20914  0.77550  Biso   1.000  H
  H43      1.0000 0.74449  0.46667  0.28713  Biso   1.000  H
  H44      1.0000 0.26901  0.27815  0.98511  Biso   1.000  H
  H45      1.0000 0.55915  0.72218  0.77875  Biso   1.000  H
  H46      1.0000 0.29138  0.42887  0.31759  Biso   1.000  H
  H47      1.0000 0.75452  0.29444  0.55341  Biso   1.000  H
  H48      1.0000 0.07261  0.70840  0.78280  Biso   1.000  H
  H49      1.0000 0.24560  0.48080  0.25406  Biso   1.000  H
  H50      1.0000 0.31197  0.23941  0.53519  Biso   1.000  H
  H51      1.0000 0.55416  0.21316  0.22045  Biso   1.000  H
  H52      1.0000 0.78465  0.53682  0.24418  Biso   1.000  H
  H53      1.0000 0.77054  0.20084  0.97033  Biso   1.000  H
  H54      1.0000 0.03845  0.28131  0.25037  Biso   1.000  H
  H55      1.0000 0.33432  0.01598  0.25813  Biso   1.000  H
  H56      1.0000 0.30500  0.69223  0.52344  Biso   1.000  H
  H57      1.0000 0.06636  0.77272  0.28362  Biso   1.000  H
  H58      1.0000 0.82959  0.01901  0.29194  Biso   1.000  H
  H59      1.0000 0.73679  0.74982  0.99701  Biso   1.000  H
  H60      1.0000 0.50244  0.71534  0.31879  Biso   1.000  H
  H61      1.0000 0.81894  0.45342  0.78824  Biso   1.000  H
  H62      1.0000 0.74450  0.72509  0.50657  Biso   1.000  H
  H63      1.0000 0.47867  0.75997  0.81231  Biso   1.000  H
  H64      1.0000 0.32676  0.44976  0.75791  Biso   1.000  H
  H65      1.0000 0.25398  0.73832  0.06957  Biso   1.000  H
  H66      1.0000 0.99540  0.75182  0.73753  Biso   1.000  H
  H67      1.0000 0.74727  0.03420  0.78270  Biso   1.000  H
  H68      1.0000 0.80613  0.22829  0.51194  Biso   1.000  H
  H69      1.0000 0.03529  0.20388  0.74582  Biso   1.000  H
  H70      1.0000 0.24382  0.95783  0.75406  Biso   1.000  H
  H71      1.0000 0.31676  0.22286  0.04607  Biso   1.000  H
  H72      1.0000 0.55121  0.26814  0.71750  Biso   1.000  H
  H73      1.0000 0.79635  0.49926  0.81601  Biso   1.000  H
  H74      1.0000 0.77131  0.69818  0.54364  Biso   1.000  H
  H75      1.0000 0.54389  0.73451  0.74141  Biso   1.000  H
  H76      1.0000 0.24125  0.50016  0.78545  Biso   1.000  H
  H77      1.0000 0.31790  0.74652  0.00077  Biso   1.000  H
  H78      1.0000 0.06362  0.73002  0.81874  Biso   1.000  H
  H79      1.0000 0.76017  0.01316  0.81968  Biso   1.000  H
  H80      1.0000 0.77876  0.21314  0.57297  Biso   1.000  H
  H81      1.0000 0.04660  0.28507  0.78136  Biso   1.000  H
  H82      1.0000 0.31714  0.95912  0.78206  Biso   1.000  H
  H83      1.0000 0.24022  0.24591  0.98500  Biso   1.000  H
  H84      1.0000 0.49338  0.24558  0.79448  Biso   1.000  H
  H85      1.0000 0.27579  0.42600  0.23689  Biso   1.000  H
  H86      1.0000 0.23749  0.22043  0.47097  Biso   1.000  H
  H87      1.0000 0.49177  0.23578  0.29749  Biso   1.000  H
  H88      1.0000 0.81377  0.46429  0.26863  Biso   1.000  H
  H89      1.0000 0.74483  0.23531  0.96264  Biso   1.000  H
  H90      1.0000 0.99060  0.24980  0.22707  Biso   1.000  H
  H91      1.0000 0.25369  0.95354  0.27091  Biso   1.000  H
  H92      1.0000 0.33388  0.72041  0.47805  Biso   1.000  H
  H93      1.0000 0.00183  0.69659  0.26307  Biso   1.000  H
  H94      1.0000 0.80360  0.97131  0.32255  Biso   1.000  H
  H95      1.0000 0.81976  0.72596  0.04443  Biso   1.000  H
  H96      1.0000 0.49874  0.68577  0.28946  Biso   1.000  H
  H97      1.0000 0.89576  0.98643  0.93512  Biso   1.000  H
  H98      1.0000 0.93306  0.85618  0.03272  Biso   1.000  H
  H99      1.0000 0.02395  0.90175  0.89106  Biso   1.000  H
  H100     1.0000 0.40055  0.99192  0.60932  Biso   1.000  H
  H101     1.0000 0.44270  0.85500  0.52581  Biso   1.000  H
  H102     1.0000 0.53208  0.90829  0.66280  Biso   1.000  H
  H103     1.0000 0.65908  0.50000  0.93049  Biso   1.000  H
  H104     1.0000 0.62253  0.36070  0.00424  Biso   1.000  H
  H105     1.0000 0.53013  0.40811  0.88398  Biso   1.000  H
  H106     1.0000 0.17040  0.47603  0.60621  Biso   1.000  H
  H107     1.0000 0.11639  0.35390  0.50787  Biso   1.000  H
  H108     1.0000 0.03117  0.40512  0.65458  Biso   1.000  H
  H109     1.0000 0.17058  0.98701  0.10892  Biso   1.000  H
  H110     1.0000 0.12319  0.12343  0.00535  Biso   1.000  H
  H111     1.0000 0.03443  0.07874  0.15210  Biso   1.000  H
  H112     1.0000 0.66856  0.98747  0.42950  Biso   1.000  H
  H113     1.0000 0.61691  0.12433  0.51708  Biso   1.000  H
  H114     1.0000 0.52645  0.06568  0.38451  Biso   1.000  H
  H115     1.0000 0.39335  0.48166  0.11454  Biso   1.000  H
  H116     1.0000 0.43481  0.62014  0.03661  Biso   1.000  H
  H117     1.0000 0.52997  0.57047  0.15551  Biso   1.000  H
  H118     1.0000 0.90159  0.50167  0.43316  Biso   1.000  H
  H119     1.0000 0.94614  0.62185  0.51601  Biso   1.000  H
  H120     1.0000 0.03918  0.57660  0.38767  Biso   1.000  H
  H121     1.0000 0.11915  0.99467  0.88330  Biso   1.000  H
  H122     1.0000 0.90476  0.08685  0.02276  Biso   1.000  H
  H123     1.0000 0.03544  0.85800  0.11886  Biso   1.000  H
  H124     1.0000 0.62223  0.99318  0.65761  Biso   1.000  H
  H125     1.0000 0.39457  0.06683  0.50300  Biso   1.000  H
  H126     1.0000 0.53802  0.85339  0.43999  Biso   1.000  H
  H127     1.0000 0.43741  0.50118  0.88697  Biso   1.000  H
  H128     1.0000 0.66283  0.58423  0.02701  Biso   1.000  H
  H129     1.0000 0.54112  0.34846  0.10208  Biso   1.000  H
  H130     1.0000 0.94174  0.49499  0.65944  Biso   1.000  H
  H131     1.0000 0.16947  0.57835  0.51412  Biso   1.000  H
  H132     1.0000 0.01262  0.35997  0.42651  Biso   1.000  H
  H133     1.0000 0.94422  0.99882  0.15607  Biso   1.000  H
  H134     1.0000 0.16235  0.89642  0.01554  Biso   1.000  H
  H135     1.0000 0.03266  0.12462  0.92500  Biso   1.000  H
  H136     1.0000 0.44333  0.95626  0.38912  Biso   1.000  H
  H137     1.0000 0.66734  0.89978  0.52609  Biso   1.000  H
  H138     1.0000 0.52320  0.12735  0.60368  Biso   1.000  H
  H139     1.0000 0.62079  0.48426  0.15739  Biso   1.000  H
  H140     1.0000 0.39825  0.39135  0.01637  Biso   1.000  H
  H141     1.0000 0.51364  0.63120  0.93452  Biso   1.000  H
  H142     1.0000 0.12099  0.48701  0.38105  Biso   1.000  H
  H143     1.0000 0.88901  0.40191  0.52806  Biso   1.000  H
  H144     1.0000 0.02509  0.62553  0.61690  Biso   1.000  H
  H145     1.0000 0.61423  0.49485  0.89015  Biso   1.000  H
  H146     1.0000 0.90178  0.57942  0.51836  Biso   1.000  H
  H147     1.0000 0.54532  0.86199  0.62293  Biso   1.000  H
  H148     1.0000 0.12578  0.47008  0.64897  Biso   1.000  H
  H149     1.0000 0.39455  0.57653  0.02501  Biso   1.000  H
  H150     1.0000 0.02545  0.86095  0.93684  Biso   1.000  H
  H151     1.0000 0.93761  0.99666  0.89411  Biso   1.000  H
  H152     1.0000 0.65654  0.08646  0.52843  Biso   1.000  H
  H153     1.0000 0.03061  0.36094  0.61056  Biso   1.000  H
  H154     1.0000 0.44226  0.00010  0.65721  Biso   1.000  H
  H155     1.0000 0.16401  0.07605  0.00054  Biso   1.000  H
  H156     1.0000 0.53637  0.36276  0.92122  Biso   1.000  H
  H157     1.0000 0.43629  0.47378  0.15275  Biso   1.000  H
  H158     1.0000 0.16332  0.39276  0.51688  Biso   1.000  H
  H159     1.0000 0.53019  0.11389  0.42389  Biso   1.000  H
  H160     1.0000 0.94177  0.50536  0.38531  Biso   1.000  H
  H161     1.0000 0.66426  0.40189  0.01264  Biso   1.000  H
  H162     1.0000 0.03440  0.11988  0.10742  Biso   1.000  H
  H163     1.0000 0.12623  0.99254  0.15355  Biso   1.000  H
  H164     1.0000 0.39800  0.89109  0.53452  Biso   1.000  H
  H165     1.0000 0.04146  0.61732  0.43221  Biso   1.000  H
  H166     1.0000 0.62683  0.97667  0.38702  Biso   1.000  H
  H167     1.0000 0.89321  0.89690  0.03060  Biso   1.000  H
  H168     1.0000 0.52711  0.61236  0.11687  Biso   1.000  H
  H169     1.0000 0.02855  0.08652  0.88351  Biso   1.000  H
  H170     1.0000 0.89737  0.00365  0.11296  Biso   1.000  H
  H171     1.0000 0.12059  0.85786  0.01496  Biso   1.000  H
  H172     1.0000 0.52140  0.08838  0.64824  Biso   1.000  H
  H173     1.0000 0.40047  0.96707  0.42560  Biso   1.000  H
  H174     1.0000 0.62611  0.85849  0.53630  Biso   1.000  H
  H175     1.0000 0.51825  0.58923  0.88769  Biso   1.000  H
  H176     1.0000 0.66554  0.48438  0.11507  Biso   1.000  H
  H177     1.0000 0.44132  0.35251  0.01654  Biso   1.000  H
  H178     1.0000 0.03002  0.58776  0.65703  Biso   1.000  H
  H179     1.0000 0.16231  0.47997  0.42947  Biso   1.000  H
  H180     1.0000 0.93228  0.36017  0.52451  Biso   1.000  H
  H181     1.0000 0.02935  0.89862  0.16044  Biso   1.000  H
  H182     1.0000 0.16086  0.98697  0.92469  Biso   1.000  H
  H183     1.0000 0.94006  0.12327  0.01803  Biso   1.000  H
  H184     1.0000 0.53325  0.89036  0.39385  Biso   1.000  H
  H185     1.0000 0.66441  0.98039  0.61488  Biso   1.000  H
  H186     1.0000 0.43377  0.11502  0.51006  Biso   1.000  H
  H187     1.0000 0.53326  0.38910  0.14757  Biso   1.000  H
  H188     1.0000 0.39605  0.49688  0.93178  Biso   1.000  H
  H189     1.0000 0.61779  0.62525  0.03299  Biso   1.000  H
  H190     1.0000 0.01697  0.39867  0.38608  Biso   1.000  H
  H191     1.0000 0.89689  0.49566  0.61529  Biso   1.000  H
  H192     1.0000 0.13475  0.62104  0.52544  Biso   1.000  H
  H193     1.0000 0.30575  0.83854  0.51552  Biso   1.000  H
  H194     1.0000 0.52052  0.27057  0.86312  Biso   1.000  H
  H195     1.0000 0.88091  0.50396  0.29180  Biso   1.000  H
  H196     1.0000 0.79559  0.85065  0.04127  Biso   1.000  H
  H197     1.0000 0.00914  0.26675  0.66257  Biso   1.000  H
  H198     1.0000 0.38951  0.45415  0.25061  Biso   1.000  H
  H199     1.0000 0.26030  0.33765  0.50792  Biso   1.000  H
  H200     1.0000 0.02284  0.76556  0.88316  Biso   1.000  H
  H201     1.0000 0.68127  0.98378  0.29229  Biso   1.000  H
  H202     1.0000 0.76445  0.34905  0.00499  Biso   1.000  H
  H203     1.0000 0.51988  0.76872  0.67317  Biso   1.000  H
  H204     1.0000 0.18581  0.98644  0.24975  Biso   1.000  H
  H205     1.0000 0.75140  0.13753  0.54737  Biso   1.000  H
  H206     1.0000 0.53355  0.70849  0.17381  Biso   1.000  H
  H207     1.0000 0.17703  0.47355  0.74960  Biso   1.000  H
  H208     1.0000 0.26112  0.12679  0.00495  Biso   1.000  H
  H209     1.0000 0.04446  0.71397  0.37828  Biso   1.000  H
  H210     1.0000 0.67102  0.50510  0.79555  Biso   1.000  H
  H211     1.0000 0.80678  0.63781  0.51039  Biso   1.000  H
  H212     1.0000 0.02443  0.21578  0.16436  Biso   1.000  H
  H213     1.0000 0.38353  0.99956  0.75146  Biso   1.000  H
  H214     1.0000 0.29702  0.62842  0.02204  Biso   1.000  H
  H215     1.0000 0.52681  0.20584  0.36833  Biso   1.000  H
  H216     1.0000 0.88324  0.99994  0.79658  Biso   1.000  H
  H217     1.0000 0.25673  0.46725  0.37422  Biso   1.000  H
  H218     1.0000 0.37715  0.21039  0.50433  Biso   1.000  H
  H219     1.0000 0.53112  0.33199  0.24308  Biso   1.000  H
  H220     1.0000 0.76106  0.49257  0.17121  Biso   1.000  H
  H221     1.0000 0.89072  0.21669  0.98820  Biso   1.000  H
  H222     1.0000 0.00191  0.34870  0.28502  Biso   1.000  H
  H223     1.0000 0.30840  0.98277  0.37346  Biso   1.000  H
  H224     1.0000 0.18107  0.71601  0.50476  Biso   1.000  H
  H225     1.0000 0.02659  0.84577  0.25571  Biso   1.000  H
  H226     1.0000 0.80525  0.99609  0.17449  Biso   1.000  H
  H227     1.0000 0.66488  0.72199  0.04197  Biso   1.000  H
  H228     1.0000 0.53003  0.83100  0.29913  Biso   1.000  H
  H229     1.0000 0.80208  0.48635  0.66952  Biso   1.000  H
  H230     1.0000 0.68576  0.76306  0.54330  Biso   1.000  H
  H231     1.0000 0.51757  0.64982  0.79563  Biso   1.000  H
  H232     1.0000 0.30216  0.46072  0.88354  Biso   1.000  H
  H233     1.0000 0.16809  0.76058  0.03018  Biso   1.000  H
  H234     1.0000 0.04445  0.63894  0.75313  Biso   1.000  H
  H235     1.0000 0.75849  0.99598  0.66895  Biso   1.000  H
  H236     1.0000 0.88184  0.26311  0.53736  Biso   1.000  H
  H237     1.0000 0.01153  0.13553  0.78702  Biso   1.000  H
  H238     1.0000 0.25613  0.97250  0.86860  Biso   1.000  H
  H239     1.0000 0.39033  0.25432  0.02472  Biso   1.000  H
  H240     1.0000 0.54946  0.14763  0.73958  Biso   1.000  H
  H241     1.0000 0.75388  0.47098  0.88323  Biso   1.000  H
  H242     1.0000 0.89644  0.71805  0.52184  Biso   1.000  H
  H243     1.0000 0.52051  0.85856  0.75925  Biso   1.000  H
  H244     1.0000 0.26341  0.47970  0.66433  Biso   1.000  H
  H245     1.0000 0.38022  0.71429  0.04301  Biso   1.000  H
  H246     1.0000 0.05108  0.84646  0.79844  Biso   1.000  H
  H247     1.0000 0.79999  0.97325  0.88236  Biso   1.000  H
  H248     1.0000 0.66076  0.22108  0.54560  Biso   1.000  H
  H249     1.0000 0.00708  0.35579  0.74858  Biso   1.000  H
  H250     1.0000 0.30558  0.97646  0.66150  Biso   1.000  H
  H251     1.0000 0.18319  0.21344  0.02654  Biso   1.000  H
  H252     1.0000 0.52610  0.36264  0.78351  Biso   1.000  H
  H253     1.0000 0.30191  0.45887  0.16825  Biso   1.000  H
  H254     1.0000 0.16226  0.25392  0.50587  Biso   1.000  H
  H255     1.0000 0.51987  0.11848  0.28645  Biso   1.000  H
  H256     1.0000 0.80233  0.49057  0.38271  Biso   1.000  H
  H257     1.0000 0.67575  0.26532  0.00129  Biso   1.000  H
  H258     1.0000 0.02703  0.13154  0.24955  Biso   1.000  H
  H259     1.0000 0.26816  0.99265  0.15975  Biso   1.000  H
  H260     1.0000 0.39780  0.75298  0.51056  Biso   1.000  H
  H261     1.0000 0.04327  0.63148  0.29236  Biso   1.000  H
  H262     1.0000 0.76492  0.00581  0.37933  Biso   1.000  H
  H263     1.0000 0.88372  0.76066  0.01962  Biso   1.000  H
  H264     1.0000 0.53659  0.61959  0.25503  Biso   1.000  H
  H265     1.0000 0.03334  0.22091  0.87216  Biso   1.000  H
  H266     1.0000 0.89853  0.99172  0.25432  Biso   1.000  H
  H267     1.0000 0.25618  0.83267  0.01617  Biso   1.000  H
  H268     1.0000 0.52704  0.23057  0.65034  Biso   1.000  H
  H269     1.0000 0.39626  0.97230  0.29123  Biso   1.000  H
  H270     1.0000 0.76498  0.84882  0.51157  Biso   1.000  H
  H271     1.0000 0.50765  0.72840  0.88423  Biso   1.000  H
  H272     1.0000 0.67410  0.49542  0.25471  Biso   1.000  H
  H273     1.0000 0.30440  0.34088  0.02020  Biso   1.000  H
  H274     1.0000 0.03174  0.72568  0.66745  Biso   1.000  H
  H275     1.0000 0.17053  0.45760  0.28684  Biso   1.000  H
  H276     1.0000 0.79343  0.35140  0.51654  Biso   1.000  H
  H277     1.0000 0.02082  0.76020  0.16752  Biso   1.000  H
  H278     1.0000 0.17198  0.99703  0.78605  Biso   1.000  H
  H279     1.0000 0.80423  0.13484  0.00873  Biso   1.000  H
  H280     1.0000 0.53085  0.75084  0.38994  Biso   1.000  H
  H281     1.0000 0.67945  0.01417  0.75280  Biso   1.000  H
  H282     1.0000 0.29578  0.12321  0.50479  Biso   1.000  H
  H283     1.0000 0.52828  0.24940  0.15124  Biso   1.000  H
  H284     1.0000 0.38190  0.48271  0.79317  Biso   1.000  H
  H285     1.0000 0.75856  0.63952  0.03560  Biso   1.000  H
  H286     1.0000 0.01644  0.26198  0.37332  Biso   1.000  H
  H287     1.0000 0.89015  0.49585  0.75725  Biso   1.000  H
  H288     1.0000 0.26534  0.62528  0.49188  Biso   1.000  H
  H289     1.0000 0.12804  0.21533  0.02817  Biso   1.000  H
  H290     1.0000 0.03242  0.07736  0.24917  Biso   1.000  H
  H291     1.0000 0.26342  0.99187  0.10223  Biso   1.000  H
  H292     1.0000 0.60873  0.21994  0.53940  Biso   1.000  H
  H293     1.0000 0.52046  0.05997  0.28876  Biso   1.000  H
  H294     1.0000 0.76287  0.00213  0.43323  Biso   1.000  H
  H295     1.0000 0.43610  0.71523  0.04866  Biso   1.000  H
  H296     1.0000 0.53385  0.56356  0.25162  Biso   1.000  H
  H297     1.0000 0.30177  0.46780  0.11284  Biso   1.000  H
  H298     1.0000 0.94770  0.71375  0.52159  Biso   1.000  H
  H299     1.0000 0.03246  0.57736  0.29201  Biso   1.000  H
  H300     1.0000 0.80692  0.49170  0.43740  Biso   1.000  H
  H301     1.0000 0.93579  0.76087  0.02250  Biso   1.000  H
  H302     1.0000 0.04899  0.90426  0.79963  Biso   1.000  H
  H303     1.0000 0.80073  0.97061  0.93345  Biso   1.000  H
  H304     1.0000 0.45238  0.75790  0.51694  Biso   1.000  H
  H305     1.0000 0.52744  0.90872  0.76075  Biso   1.000  H
  H306     1.0000 0.30668  0.98206  0.60713  Biso   1.000  H
  H307     1.0000 0.62427  0.26346  0.00520  Biso   1.000  H
  H308     1.0000 0.52590  0.41751  0.79005  Biso   1.000  H
  H309     1.0000 0.75331  0.47934  0.93692  Biso   1.000  H
  H310     1.0000 0.10999  0.25999  0.50579  Biso   1.000  H
  H311     1.0000 0.00735  0.41079  0.74566  Biso   1.000  H
  H312     1.0000 0.26506  0.48255  0.61021  Biso   1.000  H
  H313     1.0000 0.25575  0.96948  0.92517  Biso   1.000  H
  H314     1.0000 0.94209  0.21850  0.99297  Biso   1.000  H
  H315     1.0000 0.02309  0.90150  0.25477  Biso   1.000  H
  H316     1.0000 0.75852  0.98986  0.61359  Biso   1.000  H
  H317     1.0000 0.42873  0.21080  0.50490  Biso   1.000  H
  H318     1.0000 0.53724  0.88412  0.29650  Biso   1.000  H
  H319     1.0000 0.30388  0.47021  0.93646  Biso   1.000  H
  H320     1.0000 0.61138  0.71958  0.04023  Biso   1.000  H
  H321     1.0000 0.52882  0.38630  0.24407  Biso   1.000  H
  H322     1.0000 0.80031  0.48460  0.61648  Biso   1.000  H
  H323     1.0000 0.13214  0.71713  0.52149  Biso   1.000  H
  H324     1.0000 0.99876  0.40053  0.28948  Biso   1.000  H
  H325     1.0000 0.80115  0.00386  0.12010  Biso   1.000  H
  H326     1.0000 0.11246  0.76419  0.03261  Biso   1.000  H
  H327     1.0000 0.00994  0.08106  0.78787  Biso   1.000  H
  H328     1.0000 0.30585  0.97876  0.42697  Biso   1.000  H
  H329     1.0000 0.63180  0.76232  0.54865  Biso   1.000  H
  H330     1.0000 0.54130  0.09468  0.74410  Biso   1.000  H
  H331     1.0000 0.76246  0.49570  0.11727  Biso   1.000  H
  H332     1.0000 0.44401  0.25555  0.02059  Biso   1.000  H
  H333     1.0000 0.52571  0.59448  0.79121  Biso   1.000  H
  H334     1.0000 0.25732  0.47233  0.42852  Biso   1.000  H
  H335     1.0000 0.93427  0.26557  0.53920  Biso   1.000  H
  H336     1.0000 0.04034  0.58408  0.75055  Biso   1.000  H
  H337     1.0000 0.03448  0.22242  0.92624  Biso   1.000  H
  H338     1.0000 0.95054  0.99108  0.25165  Biso   1.000  H
  H339     1.0000 0.25999  0.88742  0.01101  Biso   1.000  H
  H340     1.0000 0.51497  0.22357  0.59627  Biso   1.000  H
  H341     1.0000 0.44693  0.96626  0.29393  Biso   1.000  H
  H342     1.0000 0.76044  0.90352  0.51188  Biso   1.000  H
  H343     1.0000 0.51087  0.72537  0.94128  Biso   1.000  H
  H344     1.0000 0.62074  0.49134  0.25138  Biso   1.000  H
  H345     1.0000 0.30363  0.39522  0.01614  Biso   1.000  H
  H346     1.0000 0.02382  0.72187  0.61270  Biso   1.000  H
  H347     1.0000 0.11783  0.46838  0.28756  Biso   1.000  H
  H348     1.0000 0.79715  0.40428  0.51864  Biso   1.000  H
  H349     1.0000 0.02297  0.76391  0.11253  Biso   1.000  H
  H350     1.0000 0.11563  0.00227  0.78830  Biso   1.000  H
  H351     1.0000 0.80581  0.08310  0.01923  Biso   1.000  H
  H352     1.0000 0.53368  0.75729  0.44418  Biso   1.000  H
  H353     1.0000 0.62311  0.01701  0.75094  Biso   1.000  H
  H354     1.0000 0.29843  0.06529  0.50420  Biso   1.000  H
  H355     1.0000 0.53125  0.25272  0.09715  Biso   1.000  H
  H356     1.0000 0.43233  0.50175  0.79140  Biso   1.000  H
  H357     1.0000 0.75707  0.58461  0.03504  Biso   1.000  H
  H358     1.0000 0.01719  0.26349  0.42914  Biso   1.000  H
  H359     1.0000 0.94124  0.50536  0.75670  Biso   1.000  H
  H360     1.0000 0.26464  0.57172  0.50173  Biso   1.000  H
  H361     1.0000 0.04301  0.71213  0.43645  Biso   1.000  H
  H362     1.0000 0.43907  0.00425  0.75413  Biso   1.000  H
  H363     1.0000 0.76273  0.40125  0.01098  Biso   1.000  H
  H364     1.0000 0.53014  0.70870  0.12104  Biso   1.000  H
  H365     1.0000 0.93724  0.99956  0.79673  Biso   1.000  H
  H366     1.0000 0.25643  0.38949  0.50688  Biso   1.000  H
  H367     1.0000 0.53007  0.20834  0.42245  Biso   1.000  H
  H368     1.0000 0.12370  0.47872  0.74884  Biso   1.000  H
  H369     1.0000 0.79759  0.90606  0.04046  Biso   1.000  H
  H370     1.0000 0.03481  0.21769  0.10866  Biso   1.000  H
  H371     1.0000 0.61869  0.50882  0.79340  Biso   1.000  H
  H372     1.0000 0.30508  0.89099  0.52273  Biso   1.000  H
  H373     1.0000 0.01529  0.26726  0.61019  Biso   1.000  H
  H374     1.0000 0.62697  0.98517  0.29233  Biso   1.000  H
  H375     1.0000 0.29996  0.57165  0.02269  Biso   1.000  H
  H376     1.0000 0.52729  0.26621  0.91533  Biso   1.000  H
  H377     1.0000 0.12878  0.99320  0.24851  Biso   1.000  H
  H378     1.0000 0.80615  0.58099  0.51421  Biso   1.000  H
  H379     1.0000 0.52410  0.76841  0.62087  Biso   1.000  H
  H380     1.0000 0.93532  0.50177  0.28990  Biso   1.000  H
  H381     1.0000 0.25965  0.07081  0.00257  Biso   1.000  H
  H382     1.0000 0.02302  0.76807  0.93705  Biso   1.000  H
  H383     1.0000 0.44588  0.45471  0.24911  Biso   1.000  H
  H384     1.0000 0.75214  0.08340  0.54006  Biso   1.000  H
  H385     1.0000 0.25486  0.43188  0.35159  Biso   1.000  H
  H386     1.0000 0.30633  0.15549  0.46596  Biso   1.000  H
  H387     1.0000 0.49416  0.30371  0.23777  Biso   1.000  H
  H388     1.0000 0.70773  0.46251  0.25134  Biso   1.000  H
  H389     1.0000 0.85905  0.21807  0.03004  Biso   1.000  H
  H390     1.0000 0.98825  0.26406  0.34325  Biso   1.000  H
  H391     1.0000 0.31030  0.95015  0.34123  Biso   1.000  H
  H392     1.0000 0.21255  0.71179  0.46745  Biso   1.000  H
  H393     1.0000 0.99653  0.76714  0.20202  Biso   1.000  H
  H394     1.0000 0.80957  0.96333  0.20007  Biso   1.000  H
  H395     1.0000 0.74860  0.67240  0.07160  Biso   1.000  H
  H396     1.0000 0.56063  0.80289  0.30815  Biso   1.000  H
  H397     1.0000 0.80613  0.51677  0.70182  Biso   1.000  H
  H398     1.0000 0.77203  0.82223  0.54700  Biso   1.000  H
  H399     1.0000 0.55777  0.68305  0.81408  Biso   1.000  H
  H400     1.0000 0.29381  0.48814  0.85458  Biso   1.000  H
  H401     1.0000 0.24162  0.79737  0.97792  Biso   1.000  H
  H402     1.0000 0.07434  0.67746  0.74156  Biso   1.000  H
  H403     1.0000 0.75158  0.96018  0.70402  Biso   1.000  H
  H404     1.0000 0.79240  0.32527  0.55360  Biso   1.000  H
  H405     1.0000 0.99590  0.22351  0.84448  Biso   1.000  H
  H406     1.0000 0.25288  0.02010  0.84453  Biso   1.000  H
  H407     1.0000 0.30920  0.31093  0.98614  Biso   1.000  H
  H408     1.0000 0.50679  0.17308  0.73585  Biso   1.000  H
  H409     1.0000 0.30983  0.43264  0.19505  Biso   1.000  H
  H410     1.0000 0.19602  0.25401  0.47428  Biso   1.000  H
  H411     1.0000 0.49077  0.19702  0.33521  Biso   1.000  H
  H412     1.0000 0.85297  0.46876  0.30416  Biso   1.000  H
  H413     1.0000 0.70725  0.27349  0.96622  Biso   1.000  H
  H414     1.0000 0.98618  0.21168  0.19328  Biso   1.000  H
  H415     1.0000 0.21542  0.95504  0.23620  Biso   1.000  H
  H416     1.0000 0.36525  0.76165  0.47485  Biso   1.000  H
  H417     1.0000 0.00640  0.66003  0.29557  Biso   1.000  H
  H418     1.0000 0.76375  0.96777  0.35296  Biso   1.000  H
  H419     1.0000 0.85517  0.75873  0.04770  Biso   1.000  H
  H420     1.0000 0.50306  0.64661  0.25435  Biso   1.000  H
  H421     1.0000 0.75861  0.51321  0.85042  Biso   1.000  H
  H422     1.0000 0.81237  0.66118  0.54388  Biso   1.000  H
  H423     1.0000 0.54869  0.76925  0.70270  Biso   1.000  H
  H424     1.0000 0.20711  0.50363  0.74715  Biso   1.000  H
  H425     1.0000 0.35531  0.70834  0.00289  Biso   1.000  H
  H426     1.0000 0.06340  0.76671  0.85488  Biso   1.000  H
  H427     1.0000 0.79775  0.01115  0.85938  Biso   1.000  H
  H428     1.0000 0.74766  0.17158  0.57269  Biso   1.000  H
  H429     1.0000 0.04653  0.32284  0.74250  Biso   1.000  H
  H430     1.0000 0.36021  0.96302  0.75151  Biso   1.000  H
  H431     1.0000 0.20514  0.21241  0.98541  Biso   1.000  H
  H432     1.0000 0.49136  0.28382  0.83325  Biso   1.000  H
  H433     1.0000 0.30181  0.01391  0.68946  Biso   1.000  H
  H434     1.0000 0.75435  0.31029  0.04151  Biso   1.000  H
  H435     1.0000 0.07319  0.70620  0.34654  Biso   1.000  H
  H436     1.0000 0.85395  0.96633  0.79500  Biso   1.000  H
  H437     1.0000 0.24795  0.30325  0.53753  Biso   1.000  H
  H438     1.0000 0.56330  0.70415  0.20604  Biso   1.000  H
  H439     1.0000 0.25576  0.43516  0.69749  Biso   1.000  H
  H440     1.0000 0.79222  0.82243  0.00816  Biso   1.000  H
  H441     1.0000 0.55805  0.14891  0.28711  Biso   1.000  H
  H442     1.0000 0.69444  0.46371  0.79868  Biso   1.000  H
  H443     1.0000 0.30881  0.80507  0.53903  Biso   1.000  H
  H444     1.0000 0.05581  0.16545  0.24234  Biso   1.000  H
  H445     1.0000 0.71133  0.02377  0.29652  Biso   1.000  H
  H446     1.0000 0.29770  0.65945  0.05782  Biso   1.000  H
  H447     1.0000 0.98200  0.27164  0.69589  Biso   1.000  H
  H448     1.0000 0.26191  0.02602  0.19380  Biso   1.000  H
  H449     1.0000 0.86421  0.72198  0.49428  Biso   1.000  H
  H450     1.0000 0.55971  0.32922  0.78876  Biso   1.000  H
  H451     1.0000 0.80189  0.53301  0.35106  Biso   1.000  H
  H452     1.0000 0.26264  0.15416  0.03511  Biso   1.000  H
  H453     1.0000 0.48926  0.82557  0.75438  Biso   1.000  H
  H454     1.0000 0.35845  0.49388  0.25279  Biso   1.000  H
  H455     1.0000 0.69102  0.22263  0.51152  Biso   1.000  H
  H456     1.0000 0.01223  0.82479  0.79526  Biso   1.000  H
  H457     1.0000 0.70766  0.76606  0.50252  Biso   1.000  H
  H458     1.0000 0.47642  0.72302  0.84861  Biso   1.000  H
  H459     1.0000 0.85837  0.45462  0.75555  Biso   1.000  H
  H460     1.0000 0.21073  0.77207  0.06720  Biso   1.000  H
  H461     1.0000 0.99969  0.71624  0.70086  Biso   1.000  H
  H462     1.0000 0.36112  0.45166  0.79660  Biso   1.000  H
  H463     1.0000 0.84751  0.26039  0.50474  Biso   1.000  H
  H464     1.0000 0.04243  0.16615  0.78079  Biso   1.000  H
  H465     1.0000 0.71304  0.04170  0.74057  Biso   1.000  H
  H466     1.0000 0.35280  0.25882  0.05791  Biso   1.000  H
  H467     1.0000 0.55632  0.22914  0.68015  Biso   1.000  H
  H468     1.0000 0.20611  0.95353  0.78781  Biso   1.000  H
  H469     1.0000 0.34920  0.20419  0.53868  Biso   1.000  H
  H470     1.0000 0.56214  0.25675  0.18882  Biso   1.000  H
  H471     1.0000 0.20782  0.49246  0.29457  Biso   1.000  H
  H472     1.0000 0.80358  0.16066  0.97576  Biso   1.000  H
  H473     1.0000 0.03688  0.32096  0.28629  Biso   1.000  H
  H474     1.0000 0.75049  0.53148  0.20234  Biso   1.000  H
  H475     1.0000 0.26390  0.65582  0.52766  Biso   1.000  H
  H476     1.0000 0.06040  0.81624  0.25013  Biso   1.000  H
  H477     1.0000 0.36875  0.00985  0.29295  Biso   1.000  H
  H478     1.0000 0.70135  0.71257  0.00025  Biso   1.000  H
  H479     1.0000 0.50391  0.75007  0.35928  Biso   1.000  H
  H480     1.0000 0.86705  0.01919  0.25107  Biso   1.000  H
  N1       1.0000 0.69773  0.17143  0.53776  Biso   1.000  N
  N2       1.0000 0.53460  0.65180  0.20501  Biso   1.000  N
  N3       1.0000 0.21011  0.47498  0.69541  Biso   1.000  N
  N4       1.0000 0.21174  0.15941  0.01207  Biso   1.000  N
  N5       1.0000 0.04135  0.66219  0.34478  Biso   1.000  N
  N6       1.0000 0.70319  0.49085  0.84726  Biso   1.000  N
  N7       1.0000 0.86138  0.66737  0.51924  Biso   1.000  N
  N8       1.0000 0.02408  0.16341  0.19438  Biso   1.000  N
  N9       1.0000 0.35578  0.99135  0.69561  Biso   1.000  N
  N10      1.0000 0.34953  0.66102  0.03389  Biso   1.000  N
  N11      1.0000 0.52451  0.15081  0.33600  Biso   1.000  N
  N12      1.0000 0.85248  0.98923  0.84967  Biso   1.000  N
  N13      1.0000 0.36025  0.80607  0.51408  Biso   1.000  N
  N14      1.0000 0.52689  0.32712  0.83539  Biso   1.000  N
  N15      1.0000 0.85247  0.50053  0.34835  Biso   1.000  N
  N16      1.0000 0.84881  0.81540  0.03194  Biso   1.000  N
  N17      1.0000 0.01540  0.32120  0.69611  Biso   1.000  N
  N18      1.0000 0.35451  0.46693  0.20167  Biso   1.000  N
  N19      1.0000 0.20271  0.30506  0.50699  Biso   1.000  N
  N20      1.0000 0.03455  0.81797  0.85088  Biso   1.000  N
  N21      1.0000 0.71278  0.99420  0.34588  Biso   1.000  N
  N22      1.0000 0.70853  0.31705  0.00240  Biso   1.000  N
  N23      1.0000 0.52604  0.82441  0.70636  Biso   1.000  N
  N24      1.0000 0.21390  0.98947  0.19322  Biso   1.000  N
  N25      1.0000 0.85633  0.48871  0.70249  Biso   1.000  N
  N26      1.0000 0.71422  0.81657  0.52833  Biso   1.000  N
  N27      1.0000 0.51286  0.67715  0.85086  Biso   1.000  N
  N28      1.0000 0.35126  0.47772  0.84737  Biso   1.000  N
  N29      1.0000 0.20224  0.80944  0.02281  Biso   1.000  N
  N30      1.0000 0.03496  0.67080  0.69993  Biso   1.000  N
  N31      1.0000 0.70805  0.00133  0.69875  Biso   1.000  N
  N32      1.0000 0.84587  0.31576  0.52891  Biso   1.000  N
  N33      1.0000 0.02237  0.16938  0.83958  Biso   1.000  N
  N34      1.0000 0.20388  0.98448  0.83893  Biso   1.000  N
  N35      1.0000 0.35645  0.30806  0.01966  Biso   1.000  N
  N36      1.0000 0.53070  0.17650  0.68723  Biso   1.000  N
  N37      1.0000 0.20426  0.46643  0.34310  Biso   1.000  N
  N38      1.0000 0.34769  0.15433  0.50480  Biso   1.000  N
  N39      1.0000 0.52908  0.30157  0.18773  Biso   1.000  N
  N40      1.0000 0.70721  0.49336  0.20106  Biso   1.000  N
  N41      1.0000 0.85728  0.16751  0.00218  Biso   1.000  N
  N42      1.0000 0.00952  0.31525  0.33987  Biso   1.000  N
  N43      1.0000 0.36105  0.97483  0.34122  Biso   1.000  N
  N44      1.0000 0.21324  0.66057  0.49930  Biso   1.000  N
  N45      1.0000 0.02808  0.81350  0.20289  Biso   1.000  N
  N46      1.0000 0.86096  0.99390  0.20089  Biso   1.000  N
  N47      1.0000 0.70268  0.67098  0.03959  Biso   1.000  N
  N48      1.0000 0.53228  0.80229  0.35609  Biso   1.000  N
  O1       1.0000 0.37104  0.52588  0.02927  Biso   1.000  O
  O2       1.0000 0.02780  0.33525  0.55878  Biso   1.000  O
  O3       1.0000 0.57902  0.98104  0.36561  Biso   1.000  O
  O4       1.0000 0.87590  0.53543  0.52829  Biso   1.000  O
  O5       1.0000 0.52817  0.33494  0.97000  Biso   1.000  O
  O6       1.0000 0.07998  0.98572  0.17686  Biso   1.000  O
  O7       1.0000 0.18622  0.02425  0.01149  Biso   1.000  O
  O8       1.0000 0.53502  0.83863  0.57314  Biso   1.000  O
  O9       1.0000 0.98837  0.49068  0.36010  Biso   1.000  O
  O10      1.0000 0.68283  0.03447  0.52638  Biso   1.000  O
  O11      1.0000 0.01414  0.84086  0.98681  Biso   1.000  O
  O12      1.0000 0.48828  0.48165  0.17772  Biso   1.000  O
  O13      1.0000 0.69025  0.45076  0.02086  Biso   1.000  O
  O14      1.0000 0.04357  0.64019  0.48239  Biso   1.000  O
  O15      1.0000 0.48856  0.00595  0.68187  Biso   1.000  O
  O16      1.0000 0.18821  0.44187  0.52073  Biso   1.000  O
  O17      1.0000 0.52953  0.63956  0.06883  Biso   1.000  O
  O18      1.0000 0.98884  0.99391  0.86970  Biso   1.000  O
  O19      1.0000 0.87291  0.94948  0.03234  Biso   1.000  O
  O20      1.0000 0.52599  0.14251  0.47222  Biso   1.000  O
  O21      1.0000 0.07323  0.48551  0.67423  Biso   1.000  O
  O22      1.0000 0.37624  0.93993  0.52752  Biso   1.000  O
  O23      1.0000 0.03408  0.14498  0.05753  Biso   1.000  O
  O24      1.0000 0.56776  0.50414  0.86723  Biso   1.000  O
  O25      1.0000 0.99633  0.99035  0.17895  Biso   1.000  O
  O26      1.0000 0.18997  0.94293  0.01806  Biso   1.000  O
  O27      1.0000 0.03432  0.14958  0.97532  Biso   1.000  O
  O28      1.0000 0.49456  0.96957  0.36628  Biso   1.000  O
  O29      1.0000 0.68763  0.94944  0.51432  Biso   1.000  O
  O30      1.0000 0.51654  0.14808  0.55396  Biso   1.000  O
  O31      1.0000 0.57280  0.47942  0.17790  Biso   1.000  O
  O32      1.0000 0.37271  0.44344  0.02168  Biso   1.000  O
  O33      1.0000 0.51789  0.65296  0.98526  Biso   1.000  O
  O34      1.0000 0.07222  0.48222  0.36234  Biso   1.000  O
  O35      1.0000 0.87160  0.44920  0.52807  Biso   1.000  O
  O36      1.0000 0.03283  0.64650  0.56702  Biso   1.000  O
  O37      1.0000 0.06972  0.99181  0.86236  Biso   1.000  O
  O38      1.0000 0.87963  0.03205  0.02450  Biso   1.000  O
  O39      1.0000 0.02624  0.83739  0.06896  Biso   1.000  O
  O40      1.0000 0.57049  0.99322  0.68041  Biso   1.000  O
  O41      1.0000 0.37202  0.02102  0.50653  Biso   1.000  O
  O42      1.0000 0.53363  0.83437  0.48883  Biso   1.000  O
  O43      1.0000 0.48601  0.49704  0.86279  Biso   1.000  O
  O44      1.0000 0.68471  0.53649  0.03105  Biso   1.000  O
  O45      1.0000 0.53386  0.32700  0.05356  Biso   1.000  O
  O46      1.0000 0.99002  0.50138  0.68166  Biso   1.000  O
  O47      1.0000 0.19212  0.52760  0.51755  Biso   1.000  O
  O48      1.0000 0.01649  0.33458  0.47837  Biso   1.000  O
  O49      1.0000 0.03687  0.94660  0.18270  Biso   1.000  O
  O50      1.0000 0.18532  0.98303  0.97477  Biso   1.000  O
  O51      1.0000 0.99159  0.15022  0.01575  Biso   1.000  O
  O52      1.0000 0.54358  0.93625  0.36792  Biso   1.000  O
  O53      1.0000 0.68893  0.98835  0.56432  Biso   1.000  O
  O54      1.0000 0.48282  0.14010  0.50719  Biso   1.000  O
  O55      1.0000 0.53161  0.43574  0.17469  Biso   1.000  O
  O56      1.0000 0.37364  0.48683  0.98126  Biso   1.000  O
  O57      1.0000 0.56795  0.64775  0.02122  Biso   1.000  O
  O58      1.0000 0.03250  0.44662  0.35824  Biso   1.000  O
  O59      1.0000 0.87168  0.48875  0.56658  Biso   1.000  O
  O60      1.0000 0.08254  0.64724  0.52744  Biso   1.000  O
  O61      1.0000 0.02938  0.03651  0.86243  Biso   1.000  O
  O62      1.0000 0.87258  0.99506  0.06915  Biso   1.000  O
  O63      1.0000 0.06777  0.83857  0.02120  Biso   1.000  O
  O64      1.0000 0.53311  0.03980  0.67600  Biso   1.000  O
  O65      1.0000 0.37679  0.97310  0.47813  Biso   1.000  O
  O66      1.0000 0.57805  0.83292  0.53310  Biso   1.000  O
  O67      1.0000 0.52228  0.54295  0.86113  Biso   1.000  O
  O68      1.0000 0.68769  0.48731  0.06629  Biso   1.000  O
  O69      1.0000 0.48961  0.32958  0.01435  Biso   1.000  O
  O70      1.0000 0.03526  0.53800  0.67940  Biso   1.000  O
  O71      1.0000 0.18381  0.48125  0.47837  Biso   1.000  O
  O72      1.0000 0.98279  0.33706  0.52460  Biso   1.000  O
  O73      1.0000 0.02329  0.45615  0.67220  Biso   1.000  O
  O74      1.0000 0.68820  0.99349  0.47929  Biso   1.000  O
  O75      1.0000 0.48543  0.64384  0.03414  Biso   1.000  O
  O76      1.0000 0.53436  0.45902  0.86416  Biso   1.000  O
  O77      1.0000 0.19042  0.98446  0.05710  Biso   1.000  O
  O78      1.0000 0.99718  0.64289  0.51725  Biso   1.000  O
  O79      1.0000 0.52516  0.95364  0.68322  Biso   1.000  O
  O80      1.0000 0.87902  0.49329  0.48448  Biso   1.000  O
  O81      1.0000 0.07457  0.14842  0.01682  Biso   1.000  O
  O82      1.0000 0.02772  0.95399  0.86694  Biso   1.000  O
  O83      1.0000 0.37283  0.48200  0.06759  Biso   1.000  O
  O84      1.0000 0.56484  0.14288  0.51626  Biso   1.000  O
  O85      1.0000 0.03279  0.52911  0.36530  Biso   1.000  O
  O86      1.0000 0.37735  0.99006  0.55877  Biso   1.000  O
  O87      1.0000 0.57223  0.33522  0.00670  Biso   1.000  O
  O88      1.0000 0.52855  0.52046  0.17713  Biso   1.000  O
  O89      1.0000 0.87175  0.98482  0.98557  Biso   1.000  O
  O90      1.0000 0.06587  0.33782  0.51025  Biso   1.000  O
  O91      1.0000 0.52656  0.01807  0.36218  Biso   1.000  O
  O92      1.0000 0.19333  0.48810  0.56136  Biso   1.000  O
  O93      1.0000 0.98196  0.83622  0.03224  Biso   1.000  O
  O94      1.0000 0.03965  0.02905  0.17717  Biso   1.000  O
  O95      1.0000 0.68290  0.49473  0.98433  Biso   1.000  O
  O96      1.0000 0.49294  0.83479  0.52930  Biso   1.000  O
  O97      1.0000 0.47915  0.18827  0.50619  Biso   1.000  O
  O98      1.0000 0.52722  0.43330  0.22310  Biso   1.000  O
  O99      1.0000 0.23189  0.48182  0.47799  Biso   1.000  O
  O100     1.0000 0.99103  0.19865  0.01156  Biso   1.000  O
  O101     1.0000 0.02411  0.44596  0.31113  Biso   1.000  O
  O102     1.0000 0.73518  0.49292  0.06560  Biso   1.000  O
  O103     1.0000 0.07997  0.69419  0.53088  Biso   1.000  O
  O104     1.0000 0.03364  0.94881  0.23147  Biso   1.000  O
  O105     1.0000 0.32863  0.97257  0.47783  Biso   1.000  O
  O106     1.0000 0.56515  0.69614  0.02774  Biso   1.000  O
  O107     1.0000 0.54479  0.93123  0.31681  Biso   1.000  O
  O108     1.0000 0.82293  0.99827  0.06782  Biso   1.000  O
  O109     1.0000 0.58091  0.78531  0.53397  Biso   1.000  O
  O110     1.0000 0.52415  0.54481  0.81245  Biso   1.000  O
  O111     1.0000 0.82391  0.49346  0.56709  Biso   1.000  O
  O112     1.0000 0.06396  0.79077  0.02039  Biso   1.000  O
  O113     1.0000 0.03897  0.53647  0.72802  Biso   1.000  O
  O114     1.0000 0.32653  0.48512  0.98190  Biso   1.000  O
  O115     1.0000 0.98315  0.28921  0.53121  Biso   1.000  O
  O116     1.0000 0.02344  0.03435  0.81219  Biso   1.000  O
  O117     1.0000 0.73686  0.98613  0.56522  Biso   1.000  O
  O118     1.0000 0.49099  0.28224  0.00683  Biso   1.000  O
  O119     1.0000 0.52823  0.04339  0.72259  Biso   1.000  O
  O120     1.0000 0.23308  0.97612  0.97296  Biso   1.000  O
  O121     1.0000 0.07559  0.48699  0.72273  Biso   1.000  O
  O122     1.0000 0.72996  0.03617  0.52999  Biso   1.000  O
  O123     1.0000 0.52968  0.68846  0.07181  Biso   1.000  O
  O124     1.0000 0.56782  0.50783  0.81748  Biso   1.000  O
  O125     1.0000 0.23567  0.02524  0.00682  Biso   1.000  O
  O126     1.0000 0.04814  0.68829  0.48161  Biso   1.000  O
  O127     1.0000 0.48685  0.00413  0.73089  Biso   1.000  O
  O128     1.0000 0.82753  0.53533  0.52639  Biso   1.000  O
  O129     1.0000 0.03066  0.19385  0.05910  Biso   1.000  O
  O130     1.0000 0.98629  0.99206  0.82096  Biso   1.000  O
  O131     1.0000 0.32414  0.52638  0.02159  Biso   1.000  O
  O132     1.0000 0.52100  0.19078  0.46939  Biso   1.000  O
  O133     1.0000 0.98618  0.49393  0.31092  Biso   1.000  O
  O134     1.0000 0.32854  0.93981  0.53412  Biso   1.000  O
  O135     1.0000 0.53393  0.28658  0.96580  Biso   1.000  O
  O136     1.0000 0.48790  0.47954  0.22675  Biso   1.000  O
  O137     1.0000 0.82578  0.95241  0.02937  Biso   1.000  O
  O138     1.0000 0.03202  0.28672  0.56207  Biso   1.000  O
  O139     1.0000 0.57912  0.97691  0.31694  Biso   1.000  O
  O140     1.0000 0.23675  0.44014  0.51891  Biso   1.000  O
  O141     1.0000 0.01821  0.79258  0.98416  Biso   1.000  O
  O142     1.0000 0.08053  0.98899  0.22620  Biso   1.000  O
  O143     1.0000 0.73846  0.45002  0.01867  Biso   1.000  O
  O144     1.0000 0.53627  0.78899  0.57389  Biso   1.000  O
  O145     1.0000 0.57210  0.47806  0.22590  Biso   1.000  O
  O146     1.0000 0.24190  0.52502  0.51555  Biso   1.000  O
  O147     1.0000 0.51716  0.19623  0.55315  Biso   1.000  O
  O148     1.0000 0.06790  0.48624  0.31496  Biso   1.000  O
  O149     1.0000 0.73403  0.53744  0.02747  Biso   1.000  O
  O150     1.0000 0.03841  0.19822  0.97427  Biso   1.000  O
  O151     1.0000 0.99561  0.99162  0.22755  Biso   1.000  O
  O152     1.0000 0.32454  0.02012  0.51151  Biso   1.000  O
  O153     1.0000 0.03104  0.69578  0.56418  Biso   1.000  O
  O154     1.0000 0.49674  0.96617  0.31673  Biso   1.000  O
  O155     1.0000 0.83194  0.03417  0.02126  Biso   1.000  O
  O156     1.0000 0.51867  0.70147  0.99012  Biso   1.000  O
  O157     1.0000 0.48353  0.49808  0.81525  Biso   1.000  O
  O158     1.0000 0.82279  0.45322  0.52282  Biso   1.000  O
  O159     1.0000 0.54038  0.78559  0.49065  Biso   1.000  O
  O160     1.0000 0.99345  0.50438  0.73136  Biso   1.000  O
  O161     1.0000 0.32546  0.44103  0.02458  Biso   1.000  O
  O162     1.0000 0.03013  0.78741  0.06511  Biso   1.000  O
  O163     1.0000 0.06750  0.99401  0.81376  Biso   1.000  O
  O164     1.0000 0.73703  0.95217  0.51911  Biso   1.000  O
  O165     1.0000 0.01044  0.28644  0.47905  Biso   1.000  O
  O166     1.0000 0.57295  0.00231  0.72979  Biso   1.000  O
  O167     1.0000 0.23889  0.94108  0.01909  Biso   1.000  O
  O168     1.0000 0.53498  0.27843  0.05070  Biso   1.000  O
  O169     1.0000 0.04294  0.03232  0.22649  Biso   1.000  O
  O170     1.0000 0.23811  0.98858  0.05732  Biso   1.000  O
  O171     1.0000 0.07783  0.19668  0.01963  Biso   1.000  O
  O172     1.0000 0.52528  0.01402  0.31388  Biso   1.000  O
  O173     1.0000 0.73768  0.99803  0.48196  Biso   1.000  O
  O174     1.0000 0.56053  0.19180  0.51683  Biso   1.000  O
  O175     1.0000 0.52890  0.51920  0.22722  Biso   1.000  O
  O176     1.0000 0.32407  0.48129  0.06663  Biso   1.000  O
  O177     1.0000 0.48310  0.69341  0.03439  Biso   1.000  O
  O178     1.0000 0.03116  0.52904  0.31682  Biso   1.000  O
  O179     1.0000 0.83154  0.49639  0.48344  Biso   1.000  O
  O180     1.0000 0.99683  0.69059  0.51796  Biso   1.000  O
  O181     1.0000 0.02911  0.95129  0.81782  Biso   1.000  O
  O182     1.0000 0.82338  0.98926  0.98432  Biso   1.000  O
  O183     1.0000 0.98324  0.78723  0.02917  Biso   1.000  O
  O184     1.0000 0.53305  0.96302  0.73048  Biso   1.000  O
  O185     1.0000 0.32823  0.98910  0.56151  Biso   1.000  O
  O186     1.0000 0.49665  0.78510  0.52838  Biso   1.000  O
  O187     1.0000 0.52869  0.46077  0.81514  Biso   1.000  O
  O188     1.0000 0.73038  0.49987  0.98276  Biso   1.000  O
  O189     1.0000 0.57412  0.28692  0.00801  Biso   1.000  O
  O190     1.0000 0.02685  0.45717  0.72116  Biso   1.000  O
  O191     1.0000 0.24226  0.48850  0.56167  Biso   1.000  O
  O192     1.0000 0.06336  0.28852  0.50944  Biso   1.000  O
