data_image0
_cell_length_a       47.4878
_cell_length_b       46.6208
_cell_length_c       46.6196
_cell_angle_alpha    90
_cell_angle_beta     90
_cell_angle_gamma    90

_symmetry_space_group_name_H-M    "P 1"
_symmetry_int_tables_number       1

loop_
  _symmetry_equiv_pos_as_xyz
  'x, y, z'

loop_
  _atom_site_label
  _atom_site_occupancy
  _atom_site_fract_x
  _atom_site_fract_y
  _atom_site_fract_z
  _atom_site_thermal_displace_type
  _atom_site_B_iso_or_equiv
  _atom_site_type_symbol
  C1       1.0000 0.53904  0.97916  0.31707  Biso   1.000  C
  C2       1.0000 0.32397  0.54988  0.01783  Biso   1.000  C
  C3       1.0000 0.99696  0.31808  0.56421  Biso   1.000  C
  C4       1.0000 0.04092  0.99823  0.18769  Biso   1.000  C
  C5       1.0000 0.81836  0.55362  0.50430  Biso   1.000  C
  C6       1.0000 0.50906  0.31282  0.94847  Biso   1.000  C
  C7       1.0000 0.94516  0.49480  0.32203  Biso   1.000  C
  C8       1.0000 0.17269  0.05277  0.01689  Biso   1.000  C
  C9       1.0000 0.49883  0.81605  0.56568  Biso   1.000  C
  C10      1.0000 0.44676  0.48869  0.19059  Biso   1.000  C
  C11      1.0000 0.67685  0.05360  0.49890  Biso   1.000  C
  C12      1.0000 0.99551  0.81246  0.94583  Biso   1.000  C
  C13      1.0000 0.45061  0.01055  0.68999  Biso   1.000  C
  C14      1.0000 0.68334  0.44315  0.00183  Biso   1.000  C
  C15      1.0000 0.00345  0.67377  0.44396  Biso   1.000  C
  C16      1.0000 0.95254  0.00133  0.82345  Biso   1.000  C
  C17      1.0000 0.18148  0.44337  0.50611  Biso   1.000  C
  C18      1.0000 0.50184  0.67176  0.06742  Biso   1.000  C
  C19      1.0000 0.05899  0.49910  0.68360  Biso   1.000  C
  C20      1.0000 0.81600  0.94275  0.99653  Biso   1.000  C
  C21      1.0000 0.50694  0.17540  0.44158  Biso   1.000  C
  C22      1.0000 0.55890  0.50423  0.81923  Biso   1.000  C
  C23      1.0000 0.32070  0.93870  0.51793  Biso   1.000  C
  C24      1.0000 0.00917  0.18188  0.05971  Biso   1.000  C
  C25      1.0000 0.32206  0.04849  0.51736  Biso   1.000  C
  C26      1.0000 0.50519  0.31276  0.05881  Biso   1.000  C
  C27      1.0000 0.05340  0.49042  0.32597  Biso   1.000  C
  C28      1.0000 0.82373  0.04781  0.99851  Biso   1.000  C
  C29      1.0000 0.00191  0.31712  0.45458  Biso   1.000  C
  C30      1.0000 0.55430  0.48786  0.18902  Biso   1.000  C
  C31      1.0000 0.18225  0.55155  0.50292  Biso   1.000  C
  C32      1.0000 0.99714  0.81653  0.05205  Biso   1.000  C
  C33      1.0000 0.43226  0.98798  0.32623  Biso   1.000  C
  C34      1.0000 0.68015  0.54771  0.00259  Biso   1.000  C
  C35      1.0000 0.50702  0.80908  0.45714  Biso   1.000  C
  C36      1.0000 0.93493  0.99166  0.17774  Biso   1.000  C
  C37      1.0000 0.67225  0.94744  0.48548  Biso   1.000  C
  C38      1.0000 0.49569  0.67686  0.95904  Biso   1.000  C
  C39      1.0000 0.94917  0.49686  0.68565  Biso   1.000  C
  C40      1.0000 0.17267  0.94458  0.01807  Biso   1.000  C
  C41      1.0000 0.99953  0.67526  0.55422  Biso   1.000  C
  C42      1.0000 0.44812  0.50092  0.82614  Biso   1.000  C
  C43      1.0000 0.81658  0.44426  0.50437  Biso   1.000  C
  C44      1.0000 0.99627  0.17891  0.95456  Biso   1.000  C
  C45      1.0000 0.55952  0.99901  0.67881  Biso   1.000  C
  C46      1.0000 0.32900  0.44107  0.00450  Biso   1.000  C
  C47      1.0000 0.49410  0.18546  0.54965  Biso   1.000  C
  C48      1.0000 0.05996  0.99155  0.83435  Biso   1.000  C
  C49      1.0000 0.00935  0.05206  0.82822  Biso   1.000  C
  C50      1.0000 0.81199  0.99654  0.04685  Biso   1.000  C
  C51      1.0000 0.05231  0.81437  0.99967  Biso   1.000  C
  C52      1.0000 0.50994  0.06116  0.68156  Biso   1.000  C
  C53      1.0000 0.32062  0.99093  0.46252  Biso   1.000  C
  C54      1.0000 0.55701  0.81141  0.51322  Biso   1.000  C
  C55      1.0000 0.49775  0.55471  0.82546  Biso   1.000  C
  C56      1.0000 0.67631  0.49266  0.05700  Biso   1.000  C
  C57      1.0000 0.45295  0.31218  0.00095  Biso   1.000  C
  C58      1.0000 0.00641  0.55281  0.68104  Biso   1.000  C
  C59      1.0000 0.18224  0.49692  0.44879  Biso   1.000  C
  C60      1.0000 0.94318  0.31884  0.50192  Biso   1.000  C
  C61      1.0000 0.99114  0.94132  0.18365  Biso   1.000  C
  C62      1.0000 0.17751  0.00300  0.96509  Biso   1.000  C
  C63      1.0000 0.94889  0.17631  0.00724  Biso   1.000  C
  C64      1.0000 0.48160  0.92900  0.32725  Biso   1.000  C
  C65      1.0000 0.68204  0.99485  0.54658  Biso   1.000  C
  C66      1.0000 0.44821  0.17122  0.49187  Biso   1.000  C
  C67      1.0000 0.50011  0.43594  0.19094  Biso   1.000  C
  C68      1.0000 0.32165  0.50530  0.95516  Biso   1.000  C
  C69      1.0000 0.55194  0.67725  0.01045  Biso   1.000  C
  C70      1.0000 0.99519  0.43818  0.32396  Biso   1.000  C
  C71      1.0000 0.81946  0.50552  0.55774  Biso   1.000  C
  C72      1.0000 0.05643  0.67576  0.50488  Biso   1.000  C
  C73      1.0000 0.00069  0.54422  0.31834  Biso   1.000  C
  C74      1.0000 0.32306  0.99330  0.57117  Biso   1.000  C
  C75      1.0000 0.56404  0.31428  0.00308  Biso   1.000  C
  C76      1.0000 0.50242  0.54099  0.19046  Biso   1.000  C
  C77      1.0000 0.81886  0.00226  0.94034  Biso   1.000  C
  C78      1.0000 0.05428  0.32310  0.51231  Biso   1.000  C
  C79      1.0000 0.48765  0.03755  0.32297  Biso   1.000  C
  C80      1.0000 0.18451  0.49945  0.55931  Biso   1.000  C
  C81      1.0000 0.94190  0.81227  0.00062  Biso   1.000  C
  C82      1.0000 0.98643  0.05166  0.18189  Biso   1.000  C
  C83      1.0000 0.68356  0.49838  0.94647  Biso   1.000  C
  C84      1.0000 0.44705  0.81039  0.50820  Biso   1.000  C
  C85      1.0000 0.01021  0.44417  0.68480  Biso   1.000  C
  C86      1.0000 0.66955  0.00821  0.43721  Biso   1.000  C
  C87      1.0000 0.44608  0.67369  0.01696  Biso   1.000  C
  C88      1.0000 0.50503  0.44607  0.82480  Biso   1.000  C
  C89      1.0000 0.17236  0.99559  0.07263  Biso   1.000  C
  C90      1.0000 0.94744  0.67479  0.50033  Biso   1.000  C
  C91      1.0000 0.50355  0.95140  0.68520  Biso   1.000  C
  C92      1.0000 0.81907  0.49444  0.44834  Biso   1.000  C
  C93      1.0000 0.05493  0.18495  0.99520  Biso   1.000  C
  C94      1.0000 0.00401  0.94142  0.82689  Biso   1.000  C
  C95      1.0000 0.32227  0.48962  0.06331  Biso   1.000  C
  C96      1.0000 0.55278  0.18295  0.49867  Biso   1.000  C
  C97      1.0000 0.67683  0.08551  0.50202  Biso   1.000  C
  C98      1.0000 0.50501  0.67129  0.09979  Biso   1.000  C
  C99      1.0000 0.09091  0.49927  0.68381  Biso   1.000  C
  C100     1.0000 0.17308  0.08316  0.00832  Biso   1.000  C
  C101     1.0000 0.00065  0.67487  0.41163  Biso   1.000  C
  C102     1.0000 0.59133  0.50384  0.81661  Biso   1.000  C
  C103     1.0000 0.81715  0.58541  0.50726  Biso   1.000  C
  C104     1.0000 0.01287  0.18069  0.09161  Biso   1.000  C
  C105     1.0000 0.41837  0.01133  0.69268  Biso   1.000  C
  C106     1.0000 0.32214  0.58253  0.01738  Biso   1.000  C
  C107     1.0000 0.50627  0.17244  0.40987  Biso   1.000  C
  C108     1.0000 0.92136  0.00445  0.81844  Biso   1.000  C
  C109     1.0000 0.32061  0.90734  0.52121  Biso   1.000  C
  C110     1.0000 0.51114  0.31407  0.91663  Biso   1.000  C
  C111     1.0000 0.91364  0.49281  0.32188  Biso   1.000  C
  C112     1.0000 0.81418  0.91006  0.00193  Biso   1.000  C
  C113     1.0000 0.99646  0.31784  0.59450  Biso   1.000  C
  C114     1.0000 0.41430  0.48867  0.19181  Biso   1.000  C
  C115     1.0000 0.18136  0.41069  0.51210  Biso   1.000  C
  C116     1.0000 0.98817  0.81524  0.91575  Biso   1.000  C
  C117     1.0000 0.57177  0.97998  0.31433  Biso   1.000  C
  C118     1.0000 0.68529  0.41007  0.00533  Biso   1.000  C
  C119     1.0000 0.49696  0.81930  0.59870  Biso   1.000  C
  C120     1.0000 0.07159  0.99191  0.19106  Biso   1.000  C
  C121     1.0000 0.81096  0.99941  0.07922  Biso   1.000  C
  C122     1.0000 0.08438  0.81675  0.99527  Biso   1.000  C
  C123     1.0000 0.00854  0.08386  0.82778  Biso   1.000  C
  C124     1.0000 0.31720  0.99361  0.43202  Biso   1.000  C
  C125     1.0000 0.58850  0.81446  0.51102  Biso   1.000  C
  C126     1.0000 0.51237  0.09267  0.67917  Biso   1.000  C
  C127     1.0000 0.67562  0.49045  0.08975  Biso   1.000  C
  C128     1.0000 0.42082  0.31199  0.99687  Biso   1.000  C
  C129     1.0000 0.49172  0.58534  0.82497  Biso   1.000  C
  C130     1.0000 0.18222  0.49532  0.41603  Biso   1.000  C
  C131     1.0000 0.91146  0.31843  0.49636  Biso   1.000  C
  C132     1.0000 0.99942  0.58344  0.68006  Biso   1.000  C
  C133     1.0000 0.18040  0.00101  0.93234  Biso   1.000  C
  C134     1.0000 0.91698  0.17651  0.00653  Biso   1.000  C
  C135     1.0000 0.99222  0.90890  0.18217  Biso   1.000  C
  C136     1.0000 0.68398  0.99219  0.57862  Biso   1.000  C
  C137     1.0000 0.41601  0.17000  0.49374  Biso   1.000  C
  C138     1.0000 0.48080  0.89628  0.32900  Biso   1.000  C
  C139     1.0000 0.32006  0.50823  0.92334  Biso   1.000  C
  C140     1.0000 0.58493  0.67672  0.00825  Biso   1.000  C
  C141     1.0000 0.49522  0.40521  0.18895  Biso   1.000  C
  C142     1.0000 0.82265  0.51268  0.58961  Biso   1.000  C
  C143     1.0000 0.08706  0.67673  0.50908  Biso   1.000  C
  C144     1.0000 0.99769  0.40675  0.32512  Biso   1.000  C
  C145     1.0000 0.32017  0.48779  0.09502  Biso   1.000  C
  C146     1.0000 0.08551  0.32019  0.51516  Biso   1.000  C
  C147     1.0000 0.48669  0.07066  0.32329  Biso   1.000  C
  C148     1.0000 0.81802  0.49464  0.41674  Biso   1.000  C
  C149     1.0000 0.59503  0.31596  0.00148  Biso   1.000  C
  C150     1.0000 0.99185  0.08342  0.18193  Biso   1.000  C
  C151     1.0000 0.17025  0.99359  0.10394  Biso   1.000  C
  C152     1.0000 0.41483  0.80992  0.50887  Biso   1.000  C
  C153     1.0000 0.00079  0.57620  0.31916  Biso   1.000  C
  C154     1.0000 0.66614  0.01175  0.40466  Biso   1.000  C
  C155     1.0000 0.91065  0.81202  0.00346  Biso   1.000  C
  C156     1.0000 0.49893  0.57225  0.19092  Biso   1.000  C
  C157     1.0000 0.68294  0.50260  0.91385  Biso   1.000  C
  C158     1.0000 0.91504  0.67512  0.50321  Biso   1.000  C
  C159     1.0000 0.50723  0.91855  0.68816  Biso   1.000  C
  C160     1.0000 0.18469  0.50128  0.59159  Biso   1.000  C
  C161     1.0000 0.41279  0.67406  0.01608  Biso   1.000  C
  C162     1.0000 0.99996  0.90925  0.82572  Biso   1.000  C
  C163     1.0000 0.82235  0.00536  0.90990  Biso   1.000  C
  C164     1.0000 0.58413  0.18344  0.50117  Biso   1.000  C
  C165     1.0000 0.01483  0.41221  0.68527  Biso   1.000  C
  C166     1.0000 0.32350  0.99356  0.60271  Biso   1.000  C
  C167     1.0000 0.08595  0.18398  0.98924  Biso   1.000  C
  C168     1.0000 0.51009  0.41235  0.82171  Biso   1.000  C
  C169     1.0000 0.99954  0.81594  0.08414  Biso   1.000  C
  C170     1.0000 0.09164  0.99503  0.83322  Biso   1.000  C
  C171     1.0000 0.82322  0.07972  0.99967  Biso   1.000  C
  C172     1.0000 0.50973  0.80598  0.42468  Biso   1.000  C
  C173     1.0000 0.59095  0.99381  0.67679  Biso   1.000  C
  C174     1.0000 0.32219  0.08084  0.51926  Biso   1.000  C
  C175     1.0000 0.50687  0.31238  0.09012  Biso   1.000  C
  C176     1.0000 0.41639  0.50074  0.82914  Biso   1.000  C
  C177     1.0000 0.67900  0.57965  0.99913  Biso   1.000  C
  C178     1.0000 0.00300  0.31586  0.42186  Biso   1.000  C
  C179     1.0000 0.91670  0.49977  0.68509  Biso   1.000  C
  C180     1.0000 0.18482  0.58355  0.50195  Biso   1.000  C
  C181     1.0000 0.99340  0.17715  0.92279  Biso   1.000  C
  C182     1.0000 0.90217  0.99050  0.17790  Biso   1.000  C
  C183     1.0000 0.17243  0.91246  0.02038  Biso   1.000  C
  C184     1.0000 0.49289  0.18651  0.58106  Biso   1.000  C
  C185     1.0000 0.40069  0.99192  0.32799  Biso   1.000  C
  C186     1.0000 0.67356  0.91464  0.48277  Biso   1.000  C
  C187     1.0000 0.49401  0.67817  0.92646  Biso   1.000  C
  C188     1.0000 0.58678  0.48728  0.19056  Biso   1.000  C
  C189     1.0000 0.32693  0.40864  0.00653  Biso   1.000  C
  C190     1.0000 0.99912  0.67639  0.58596  Biso   1.000  C
  C191     1.0000 0.08554  0.48698  0.32526  Biso   1.000  C
  C192     1.0000 0.81554  0.41278  0.50346  Biso   1.000  C
  C193     1.0000 0.85056  0.00742  0.89498  Biso   1.000  C
  C194     1.0000 0.89518  0.83958  0.00565  Biso   1.000  C
  C195     1.0000 0.00069  0.89252  0.85195  Biso   1.000  C
  C196     1.0000 0.35064  0.99695  0.61847  Biso   1.000  C
  C197     1.0000 0.40099  0.83734  0.51603  Biso   1.000  C
  C198     1.0000 0.50562  0.90107  0.66254  Biso   1.000  C
  C199     1.0000 0.65671  0.49826  0.89647  Biso   1.000  C
  C200     1.0000 0.61016  0.34369  0.00121  Biso   1.000  C
  C201     1.0000 0.51171  0.39551  0.84953  Biso   1.000  C
  C202     1.0000 0.15712  0.49735  0.60717  Biso   1.000  C
  C203     1.0000 0.10202  0.34666  0.51540  Biso   1.000  C
  C204     1.0000 0.01379  0.39546  0.65912  Biso   1.000  C
  C205     1.0000 0.14306  0.99141  0.11919  Biso   1.000  C
  C206     1.0000 0.10063  0.15646  0.98706  Biso   1.000  C
  C207     1.0000 0.99609  0.10042  0.15646  Biso   1.000  C
  C208     1.0000 0.63821  0.00538  0.39143  Biso   1.000  C
  C209     1.0000 0.60014  0.15572  0.50284  Biso   1.000  C
  C210     1.0000 0.49587  0.08811  0.34906  Biso   1.000  C
  C211     1.0000 0.34714  0.49038  0.11121  Biso   1.000  C
  C212     1.0000 0.39710  0.64796  0.01281  Biso   1.000  C
  C213     1.0000 0.50451  0.58722  0.16285  Biso   1.000  C
  C214     1.0000 0.84513  0.49514  0.39998  Biso   1.000  C
  C215     1.0000 0.89785  0.64901  0.50727  Biso   1.000  C
  C216     1.0000 0.99594  0.59356  0.34600  Biso   1.000  C
  C217     1.0000 0.10684  0.99575  0.85955  Biso   1.000  C
  C218     1.0000 0.84990  0.09497  0.00322  Biso   1.000  C
  C219     1.0000 0.99654  0.84284  0.10142  Biso   1.000  C
  C220     1.0000 0.60628  0.99168  0.64838  Biso   1.000  C
  C221     1.0000 0.34916  0.09619  0.51533  Biso   1.000  C
  C222     1.0000 0.50236  0.83129  0.40775  Biso   1.000  C
  C223     1.0000 0.40083  0.50314  0.85669  Biso   1.000  C
  C224     1.0000 0.65188  0.59686  0.00101  Biso   1.000  C
  C225     1.0000 0.50562  0.33999  0.10651  Biso   1.000  C
  C226     1.0000 0.90159  0.50241  0.65766  Biso   1.000  C
  C227     1.0000 0.15956  0.60077  0.50884  Biso   1.000  C
  C228     1.0000 0.99615  0.34294  0.40515  Biso   1.000  C
  C229     1.0000 0.88691  0.99201  0.15011  Biso   1.000  C
  C230     1.0000 0.14501  0.89576  0.01905  Biso   1.000  C
  C231     1.0000 0.99771  0.15129  0.90689  Biso   1.000  C
  C232     1.0000 0.38724  0.99044  0.35632  Biso   1.000  C
  C233     1.0000 0.64840  0.89749  0.48894  Biso   1.000  C
  C234     1.0000 0.49758  0.15930  0.59758  Biso   1.000  C
  C235     1.0000 0.60122  0.48759  0.16212  Biso   1.000  C
  C236     1.0000 0.35336  0.39128  0.00365  Biso   1.000  C
  C237     1.0000 0.49721  0.65287  0.90829  Biso   1.000  C
  C238     1.0000 0.10292  0.48987  0.35131  Biso   1.000  C
  C239     1.0000 0.84258  0.39637  0.50225  Biso   1.000  C
  C240     1.0000 0.00089  0.65072  0.60216  Biso   1.000  C
  C241     1.0000 0.60656  0.49811  0.84362  Biso   1.000  C
  C242     1.0000 0.84447  0.60086  0.50968  Biso   1.000  C
  C243     1.0000 0.50103  0.84697  0.61331  Biso   1.000  C
  C244     1.0000 0.10751  0.49600  0.65749  Biso   1.000  C
  C245     1.0000 0.34933  0.59866  0.01834  Biso   1.000  C
  C246     1.0000 0.99132  0.84191  0.90050  Biso   1.000  C
  C247     1.0000 0.90360  0.00927  0.84452  Biso   1.000  C
  C248     1.0000 0.64975  0.10222  0.50069  Biso   1.000  C
  C249     1.0000 0.00031  0.34379  0.60981  Biso   1.000  C
  C250     1.0000 0.40050  0.00614  0.66720  Biso   1.000  C
  C251     1.0000 0.14796  0.10162  0.00401  Biso   1.000  C
  C252     1.0000 0.51104  0.34238  0.90162  Biso   1.000  C
  C253     1.0000 0.39843  0.49105  0.16429  Biso   1.000  C
  C254     1.0000 0.15462  0.39644  0.51704  Biso   1.000  C
  C255     1.0000 0.50243  0.14476  0.39517  Biso   1.000  C
  C256     1.0000 0.89695  0.49614  0.34888  Biso   1.000  C
  C257     1.0000 0.65905  0.39379  0.00772  Biso   1.000  C
  C258     1.0000 0.00680  0.15345  0.10576  Biso   1.000  C
  C259     1.0000 0.09017  0.98844  0.16551  Biso   1.000  C
  C260     1.0000 0.34836  0.89208  0.52179  Biso   1.000  C
  C261     1.0000 0.99898  0.64780  0.39632  Biso   1.000  C
  C262     1.0000 0.58748  0.99001  0.33991  Biso   1.000  C
  C263     1.0000 0.84151  0.89378  0.00372  Biso   1.000  C
  C264     1.0000 0.50760  0.64249  0.11393  Biso   1.000  C
  C265     1.0000 0.00768  0.10144  0.85481  Biso   1.000  C
  C266     1.0000 0.83680  0.99742  0.09724  Biso   1.000  C
  C267     1.0000 0.09753  0.84241  0.00851  Biso   1.000  C
  C268     1.0000 0.50906  0.10765  0.65178  Biso   1.000  C
  C269     1.0000 0.34244  0.99173  0.41223  Biso   1.000  C
  C270     1.0000 0.60013  0.84229  0.50404  Biso   1.000  C
  C271     1.0000 0.49559  0.60214  0.85310  Biso   1.000  C
  C272     1.0000 0.64848  0.48631  0.10665  Biso   1.000  C
  C273     1.0000 0.40278  0.33812  0.99811  Biso   1.000  C
  C274     1.0000 0.00051  0.59989  0.65315  Biso   1.000  C
  C275     1.0000 0.15451  0.49380  0.39996  Biso   1.000  C
  C276     1.0000 0.89317  0.34385  0.49502  Biso   1.000  C
  C277     1.0000 0.99240  0.89313  0.15593  Biso   1.000  C
  C278     1.0000 0.15483  0.99877  0.91492  Biso   1.000  C
  C279     1.0000 0.90367  0.14687  0.00616  Biso   1.000  C
  C280     1.0000 0.48790  0.88320  0.35717  Biso   1.000  C
  C281     1.0000 0.65747  0.99109  0.59566  Biso   1.000  C
  C282     1.0000 0.39987  0.14327  0.50044  Biso   1.000  C
  C283     1.0000 0.49742  0.39024  0.16090  Biso   1.000  C
  C284     1.0000 0.34627  0.50839  0.90714  Biso   1.000  C
  C285     1.0000 0.60232  0.65033  0.00672  Biso   1.000  C
  C286     1.0000 0.99681  0.39049  0.35260  Biso   1.000  C
  C287     1.0000 0.84852  0.50874  0.60549  Biso   1.000  C
  C288     1.0000 0.10447  0.65087  0.51126  Biso   1.000  C
  C289     1.0000 0.34803  0.86023  0.52284  Biso   1.000  C
  C290     1.0000 0.51544  0.34264  0.86995  Biso   1.000  C
  C291     1.0000 0.86701  0.48988  0.34743  Biso   1.000  C
  C292     1.0000 0.84289  0.86290  0.00140  Biso   1.000  C
  C293     1.0000 0.00456  0.34285  0.64012  Biso   1.000  C
  C294     1.0000 0.36728  0.48652  0.16360  Biso   1.000  C
  C295     1.0000 0.15526  0.36475  0.51450  Biso   1.000  C
  C296     1.0000 0.98804  0.84156  0.86877  Biso   1.000  C
  C297     1.0000 0.61846  0.99457  0.33848  Biso   1.000  C
  C298     1.0000 0.66227  0.36296  0.00481  Biso   1.000  C
  C299     1.0000 0.50331  0.84657  0.64525  Biso   1.000  C
  C300     1.0000 0.12180  0.98746  0.16957  Biso   1.000  C
  C301     1.0000 0.65141  0.13334  0.50080  Biso   1.000  C
  C302     1.0000 0.50787  0.64059  0.14545  Biso   1.000  C
  C303     1.0000 0.13852  0.49681  0.65988  Biso   1.000  C
  C304     1.0000 0.15153  0.13186  0.99671  Biso   1.000  C
  C305     1.0000 0.99758  0.64774  0.36447  Biso   1.000  C
  C306     1.0000 0.63770  0.50026  0.84312  Biso   1.000  C
  C307     1.0000 0.84592  0.63117  0.50701  Biso   1.000  C
  C308     1.0000 0.00667  0.15220  0.13817  Biso   1.000  C
  C309     1.0000 0.37047  0.00156  0.67057  Biso   1.000  C
  C310     1.0000 0.34610  0.62916  0.01784  Biso   1.000  C
  C311     1.0000 0.50271  0.14207  0.36326  Biso   1.000  C
  C312     1.0000 0.87286  0.00871  0.84292  Biso   1.000  C
  C313     1.0000 0.15608  0.49226  0.36968  Biso   1.000  C
  C314     1.0000 0.36922  0.14656  0.50511  Biso   1.000  C
  C315     1.0000 0.49926  0.35786  0.16037  Biso   1.000  C
  C316     1.0000 0.65252  0.48559  0.13772  Biso   1.000  C
  C317     1.0000 0.87198  0.14820  0.00445  Biso   1.000  C
  C318     1.0000 0.99930  0.35874  0.35095  Biso   1.000  C
  C319     1.0000 0.33624  0.98975  0.38196  Biso   1.000  C
  C320     1.0000 0.13652  0.65340  0.51159  Biso   1.000  C
  C321     1.0000 0.99374  0.86191  0.15600  Biso   1.000  C
  C322     1.0000 0.83366  0.99543  0.12891  Biso   1.000  C
  C323     1.0000 0.63314  0.65063  0.00506  Biso   1.000  C
  C324     1.0000 0.49385  0.85167  0.35638  Biso   1.000  C
  C325     1.0000 0.84886  0.50871  0.63697  Biso   1.000  C
  C326     1.0000 0.63133  0.84378  0.49794  Biso   1.000  C
  C327     1.0000 0.49504  0.63310  0.85496  Biso   1.000  C
  C328     1.0000 0.34506  0.50465  0.87657  Biso   1.000  C
  C329     1.0000 0.12828  0.84346  0.01056  Biso   1.000  C
  C330     1.0000 0.99576  0.63171  0.65415  Biso   1.000  C
  C331     1.0000 0.65835  0.99267  0.62692  Biso   1.000  C
  C332     1.0000 0.86132  0.34230  0.49715  Biso   1.000  C
  C333     1.0000 0.00672  0.13306  0.85316  Biso   1.000  C
  C334     1.0000 0.15829  0.99604  0.88381  Biso   1.000  C
  C335     1.0000 0.37115  0.33764  0.99751  Biso   1.000  C
  C336     1.0000 0.50496  0.13862  0.65074  Biso   1.000  C
  C337     1.0000 0.65858  0.49864  0.86494  Biso   1.000  C
  C338     1.0000 0.86767  0.65126  0.50385  Biso   1.000  C
  C339     1.0000 0.50429  0.86933  0.66546  Biso   1.000  C
  C340     1.0000 0.15965  0.49655  0.63841  Biso   1.000  C
  C341     1.0000 0.36716  0.65037  0.01506  Biso   1.000  C
  C342     1.0000 0.99196  0.86305  0.84898  Biso   1.000  C
  C343     1.0000 0.85035  0.00808  0.86383  Biso   1.000  C
  C344     1.0000 0.63128  0.15549  0.49904  Biso   1.000  C
  C345     1.0000 0.01040  0.36447  0.66090  Biso   1.000  C
  C346     1.0000 0.34904  0.99838  0.64940  Biso   1.000  C
  C347     1.0000 0.13136  0.15446  0.99100  Biso   1.000  C
  C348     1.0000 0.51438  0.36500  0.84850  Biso   1.000  C
  C349     1.0000 0.34626  0.48567  0.14188  Biso   1.000  C
  C350     1.0000 0.13362  0.34382  0.51350  Biso   1.000  C
  C351     1.0000 0.49819  0.11880  0.34471  Biso   1.000  C
  C352     1.0000 0.84564  0.48990  0.36836  Biso   1.000  C
  C353     1.0000 0.64205  0.34199  0.00060  Biso   1.000  C
  C354     1.0000 0.00250  0.13033  0.15884  Biso   1.000  C
  C355     1.0000 0.14411  0.98898  0.14975  Biso   1.000  C
  C356     1.0000 0.36898  0.83739  0.51945  Biso   1.000  C
  C357     1.0000 0.99846  0.62526  0.34379  Biso   1.000  C
  C358     1.0000 0.63847  0.00070  0.35895  Biso   1.000  C
  C359     1.0000 0.86485  0.84089  0.00245  Biso   1.000  C
  C360     1.0000 0.50519  0.61816  0.16496  Biso   1.000  C
  C361     1.0000 0.00244  0.15447  0.87524  Biso   1.000  C
  C362     1.0000 0.85504  0.99293  0.15099  Biso   1.000  C
  C363     1.0000 0.14822  0.86562  0.01507  Biso   1.000  C
  C364     1.0000 0.50149  0.16085  0.62887  Biso   1.000  C
  C365     1.0000 0.35545  0.98883  0.35762  Biso   1.000  C
  C366     1.0000 0.65124  0.86622  0.49121  Biso   1.000  C
  C367     1.0000 0.49506  0.65403  0.87730  Biso   1.000  C
  C368     1.0000 0.63247  0.48588  0.16062  Biso   1.000  C
  C369     1.0000 0.35126  0.35935  0.00139  Biso   1.000  C
  C370     1.0000 0.99760  0.65317  0.63303  Biso   1.000  C
  C371     1.0000 0.13427  0.48993  0.34898  Biso   1.000  C
  C372     1.0000 0.84070  0.36397  0.50094  Biso   1.000  C
  C373     1.0000 0.99695  0.84113  0.13305  Biso   1.000  C
  C374     1.0000 0.13824  0.99398  0.85997  Biso   1.000  C
  C375     1.0000 0.85048  0.12541  0.00298  Biso   1.000  C
  C376     1.0000 0.50102  0.83110  0.37770  Biso   1.000  C
  C377     1.0000 0.63735  0.99312  0.64907  Biso   1.000  C
  C378     1.0000 0.34743  0.12657  0.51068  Biso   1.000  C
  C379     1.0000 0.50153  0.33745  0.13786  Biso   1.000  C
  C380     1.0000 0.36868  0.50516  0.85658  Biso   1.000  C
  C381     1.0000 0.65395  0.62795  0.00241  Biso   1.000  C
  C382     1.0000 0.00004  0.33925  0.37405  Biso   1.000  C
  C383     1.0000 0.87088  0.50728  0.65803  Biso   1.000  C
  C384     1.0000 0.15858  0.63238  0.50920  Biso   1.000  C
  C385     1.0000 0.18062  0.14651  0.99814  Biso   1.000  C
  C386     1.0000 0.01207  0.17875  0.15535  Biso   1.000  C
  C387     1.0000 0.13438  0.98639  0.19801  Biso   1.000  C
  C388     1.0000 0.67734  0.14784  0.49998  Biso   1.000  C
  C389     1.0000 0.50211  0.16830  0.34548  Biso   1.000  C
  C390     1.0000 0.63358  0.99136  0.31044  Biso   1.000  C
  C391     1.0000 0.31851  0.64410  0.01835  Biso   1.000  C
  C392     1.0000 0.50691  0.66733  0.16191  Biso   1.000  C
  C393     1.0000 0.35159  0.47967  0.19002  Biso   1.000  C
  C394     1.0000 0.81909  0.64794  0.50332  Biso   1.000  C
  C395     1.0000 0.99833  0.67452  0.34890  Biso   1.000  C
  C396     1.0000 0.85208  0.48659  0.32062  Biso   1.000  C
  C397     1.0000 0.81650  0.84710  0.00023  Biso   1.000  C
  C398     1.0000 0.98220  0.81531  0.85279  Biso   1.000  C
  C399     1.0000 0.85751  0.00680  0.81566  Biso   1.000  C
  C400     1.0000 0.32076  0.84573  0.52120  Biso   1.000  C
  C401     1.0000 0.50124  0.82051  0.66171  Biso   1.000  C
  C402     1.0000 0.35628  0.00114  0.69749  Biso   1.000  C
  C403     1.0000 0.68943  0.34831  0.00253  Biso   1.000  C
  C404     1.0000 0.51660  0.31553  0.85357  Biso   1.000  C
  C405     1.0000 0.65444  0.50623  0.81876  Biso   1.000  C
  C406     1.0000 0.18154  0.34873  0.51216  Biso   1.000  C
  C407     1.0000 0.00234  0.31574  0.65629  Biso   1.000  C
  C408     1.0000 0.15316  0.50023  0.68613  Biso   1.000  C
  C409     1.0000 0.15581  0.99161  0.83470  Biso   1.000  C
  C410     1.0000 0.82391  0.14071  0.00234  Biso   1.000  C
  C411     1.0000 0.99885  0.81406  0.14763  Biso   1.000  C
  C412     1.0000 0.65281  0.99526  0.67557  Biso   1.000  C
  C413     1.0000 0.31963  0.14323  0.51322  Biso   1.000  C
  C414     1.0000 0.50542  0.80425  0.36265  Biso   1.000  C
  C415     1.0000 0.35196  0.50431  0.82975  Biso   1.000  C
  C416     1.0000 0.68105  0.64250  0.00221  Biso   1.000  C
  C417     1.0000 0.50038  0.31022  0.15173  Biso   1.000  C
  C418     1.0000 0.85479  0.51128  0.68598  Biso   1.000  C
  C419     1.0000 0.18541  0.64769  0.50978  Biso   1.000  C
  C420     1.0000 0.00642  0.31115  0.35896  Biso   1.000  C
  C421     1.0000 0.83909  0.99299  0.17831  Biso   1.000  C
  C422     1.0000 0.17618  0.84971  0.01602  Biso   1.000  C
  C423     1.0000 0.99768  0.18172  0.85948  Biso   1.000  C
  C424     1.0000 0.33679  0.98980  0.33280  Biso   1.000  C
  C425     1.0000 0.67903  0.85076  0.48680  Biso   1.000  C
  C426     1.0000 0.50155  0.18844  0.64277  Biso   1.000  C
  C427     1.0000 0.64961  0.48546  0.18648  Biso   1.000  C
  C428     1.0000 0.32385  0.34646  0.00286  Biso   1.000  C
  C429     1.0000 0.49260  0.68164  0.86229  Biso   1.000  C
  C430     1.0000 0.14782  0.48661  0.32176  Biso   1.000  C
  C431     1.0000 0.81315  0.34913  0.49974  Biso   1.000  C
  C432     1.0000 0.99250  0.68126  0.64870  Biso   1.000  C
  C433     1.0000 0.00646  0.14832  0.82643  Biso   1.000  C
  C434     1.0000 0.80676  0.99595  0.14345  Biso   1.000  C
  C435     1.0000 0.14549  0.81854  0.00618  Biso   1.000  C
  C436     1.0000 0.50830  0.15565  0.67675  Biso   1.000  C
  C437     1.0000 0.30682  0.99081  0.36981  Biso   1.000  C
  C438     1.0000 0.64878  0.81735  0.49886  Biso   1.000  C
  C439     1.0000 0.49298  0.64924  0.82914  Biso   1.000  C
  C440     1.0000 0.68068  0.48546  0.15184  Biso   1.000  C
  C441     1.0000 0.35478  0.31136  0.99637  Biso   1.000  C
  C442     1.0000 0.99155  0.64727  0.68085  Biso   1.000  C
  C443     1.0000 0.18242  0.49281  0.35369  Biso   1.000  C
  C444     1.0000 0.84617  0.31562  0.49730  Biso   1.000  C
  C445     1.0000 0.99674  0.84572  0.18259  Biso   1.000  C
  C446     1.0000 0.18568  0.99237  0.87035  Biso   1.000  C
  C447     1.0000 0.85619  0.17575  0.00602  Biso   1.000  C
  C448     1.0000 0.49449  0.83525  0.32978  Biso   1.000  C
  C449     1.0000 0.68606  0.99258  0.64170  Biso   1.000  C
  C450     1.0000 0.35390  0.17345  0.50173  Biso   1.000  C
  C451     1.0000 0.49500  0.34135  0.18633  Biso   1.000  C
  C452     1.0000 0.31852  0.50291  0.86133  Biso   1.000  C
  C453     1.0000 0.64761  0.67730  0.00341  Biso   1.000  C
  C454     1.0000 0.00348  0.34247  0.32457  Biso   1.000  C
  C455     1.0000 0.82340  0.51538  0.65297  Biso   1.000  C
  C456     1.0000 0.15104  0.68000  0.51249  Biso   1.000  C
  C457     1.0000 0.99982  0.63988  0.31630  Biso   1.000  C
  C458     1.0000 0.32190  0.99671  0.66528  Biso   1.000  C
  C459     1.0000 0.65816  0.31547  0.00045  Biso   1.000  C
  C460     1.0000 0.50259  0.63299  0.19209  Biso   1.000  C
  C461     1.0000 0.82409  0.00760  0.84632  Biso   1.000  C
  C462     1.0000 0.14928  0.31650  0.51156  Biso   1.000  C
  C463     1.0000 0.49357  0.13252  0.31667  Biso   1.000  C
  C464     1.0000 0.18596  0.49968  0.65388  Biso   1.000  C
  C465     1.0000 0.84881  0.81355  0.00097  Biso   1.000  C
  C466     1.0000 0.00337  0.14381  0.18650  Biso   1.000  C
  C467     1.0000 0.68567  0.50731  0.85250  Biso   1.000  C
  C468     1.0000 0.35243  0.81083  0.51712  Biso   1.000  C
  C469     1.0000 0.01253  0.34930  0.68765  Biso   1.000  C
  C470     1.0000 0.66460  0.00383  0.34258  Biso   1.000  C
  C471     1.0000 0.35006  0.67770  0.01436  Biso   1.000  C
  C472     1.0000 0.51663  0.34982  0.82218  Biso   1.000  C
  C473     1.0000 0.16909  0.98961  0.16742  Biso   1.000  C
  C474     1.0000 0.85156  0.67862  0.50101  Biso   1.000  C
  C475     1.0000 0.50497  0.85462  0.69275  Biso   1.000  C
  C476     1.0000 0.81972  0.48585  0.35208  Biso   1.000  C
  C477     1.0000 0.14929  0.18014  0.99083  Biso   1.000  C
  C478     1.0000 0.98545  0.84933  0.82200  Biso   1.000  C
  C479     1.0000 0.32026  0.47788  0.15638  Biso   1.000  C
  C480     1.0000 0.64684  0.18127  0.49670  Biso   1.000  C
  C481     1.0000 0.36766  0.78294  0.51465  Biso   1.000  C
  C482     1.0000 0.51391  0.36428  0.79439  Biso   1.000  C
  C483     1.0000 0.79207  0.48429  0.36817  Biso   1.000  C
  C484     1.0000 0.86412  0.78653  0.99922  Biso   1.000  C
  C485     1.0000 0.01637  0.36704  0.71416  Biso   1.000  C
  C486     1.0000 0.29387  0.47538  0.14022  Biso   1.000  C
  C487     1.0000 0.13242  0.29159  0.51371  Biso   1.000  C
  C488     1.0000 0.98501  0.86766  0.79499  Biso   1.000  C
  C489     1.0000 0.69050  0.01295  0.35565  Biso   1.000  C
  C490     1.0000 0.64192  0.28857  0.00272  Biso   1.000  C
  C491     1.0000 0.50675  0.87362  0.71856  Biso   1.000  C
  C492     1.0000 0.19633  0.99067  0.15252  Biso   1.000  C
  C493     1.0000 0.63118  0.20864  0.49928  Biso   1.000  C
  C494     1.0000 0.49737  0.61804  0.21929  Biso   1.000  C
  C495     1.0000 0.21252  0.50254  0.63633  Biso   1.000  C
  C496     1.0000 0.13545  0.20828  0.98796  Biso   1.000  C
  C497     1.0000 0.00156  0.62182  0.28903  Biso   1.000  C
  C498     1.0000 0.71218  0.51316  0.86925  Biso   1.000  C
  C499     1.0000 0.86797  0.70515  0.50084  Biso   1.000  C
  C500     1.0000 0.99649  0.12841  0.21289  Biso   1.000  C
  C501     1.0000 0.29593  0.99149  0.65013  Biso   1.000  C
  C502     1.0000 0.36657  0.70408  0.01386  Biso   1.000  C
  C503     1.0000 0.48368  0.11499  0.29238  Biso   1.000  C
  C504     1.0000 0.79654  0.00496  0.86110  Biso   1.000  C
  C505     1.0000 0.63944  0.51040  0.79132  Biso   1.000  C
  C506     1.0000 0.79147  0.63306  0.49939  Biso   1.000  C
  C507     1.0000 0.49726  0.79383  0.64577  Biso   1.000  C
  C508     1.0000 0.13722  0.49985  0.71225  Biso   1.000  C
  C509     1.0000 0.29235  0.62600  0.02059  Biso   1.000  C
  C510     1.0000 0.97777  0.78883  0.86825  Biso   1.000  C
  C511     1.0000 0.87560  0.00219  0.78941  Biso   1.000  C
  C512     1.0000 0.70520  0.13178  0.50008  Biso   1.000  C
  C513     1.0000 0.99861  0.28902  0.64020  Biso   1.000  C
  C514     1.0000 0.37226  0.00953  0.72393  Biso   1.000  C
  C515     1.0000 0.20613  0.12772  0.00316  Biso   1.000  C
  C516     1.0000 0.51677  0.28828  0.86796  Biso   1.000  C
  C517     1.0000 0.36754  0.47616  0.21681  Biso   1.000  C
  C518     1.0000 0.20919  0.36377  0.50971  Biso   1.000  C
  C519     1.0000 0.50850  0.19619  0.35883  Biso   1.000  C
  C520     1.0000 0.86770  0.48302  0.29465  Biso   1.000  C
  C521     1.0000 0.71518  0.36468  0.00060  Biso   1.000  C
  C522     1.0000 0.02042  0.20495  0.14184  Biso   1.000  C
  C523     1.0000 0.11623  0.98896  0.22333  Biso   1.000  C
  C524     1.0000 0.29380  0.86226  0.51859  Biso   1.000  C
  C525     1.0000 0.99669  0.70273  0.36463  Biso   1.000  C
  C526     1.0000 0.61866  0.97948  0.28466  Biso   1.000  C
  C527     1.0000 0.78774  0.86228  0.99944  Biso   1.000  C
  C528     1.0000 0.50947  0.69487  0.14726  Biso   1.000  C
  C529     1.0000 0.79600  0.12702  0.00012  Biso   1.000  C
  C530     1.0000 0.00166  0.78714  0.13007  Biso   1.000  C
  C531     1.0000 0.14056  0.99097  0.80635  Biso   1.000  C
  C532     1.0000 0.29300  0.12896  0.52211  Biso   1.000  C
  C533     1.0000 0.51530  0.77947  0.37760  Biso   1.000  C
  C534     1.0000 0.63773  0.99397  0.70262  Biso   1.000  C
  C535     1.0000 0.70746  0.62456  0.99599  Biso   1.000  C
  C536     1.0000 0.50109  0.28362  0.13532  Biso   1.000  C
  C537     1.0000 0.36766  0.50328  0.80243  Biso   1.000  C
  C538     1.0000 0.21235  0.63005  0.50705  Biso   1.000  C
  C539     1.0000 0.01293  0.28588  0.37633  Biso   1.000  C
  C540     1.0000 0.87169  0.51121  0.71283  Biso   1.000  C
  C541     1.0000 0.20238  0.86646  0.02234  Biso   1.000  C
  C542     1.0000 0.99332  0.20858  0.87701  Biso   1.000  C
  C543     1.0000 0.85510  0.99134  0.20518  Biso   1.000  C
  C544     1.0000 0.70380  0.86935  0.48091  Biso   1.000  C
  C545     1.0000 0.49663  0.21506  0.62634  Biso   1.000  C
  C546     1.0000 0.35021  0.99122  0.30424  Biso   1.000  C
  C547     1.0000 0.29804  0.36367  0.00728  Biso   1.000  C
  C548     1.0000 0.49153  0.70806  0.88060  Biso   1.000  C
  C549     1.0000 0.63528  0.48641  0.21510  Biso   1.000  C
  C550     1.0000 0.78656  0.36738  0.49974  Biso   1.000  C
  C551     1.0000 0.99248  0.70833  0.63204  Biso   1.000  C
  C552     1.0000 0.12972  0.48266  0.29625  Biso   1.000  C
  C553     1.0000 0.00757  0.13157  0.79957  Biso   1.000  C
  C554     1.0000 0.78016  0.00061  0.12503  Biso   1.000  C
  C555     1.0000 0.13403  0.79325  0.99182  Biso   1.000  C
  C556     1.0000 0.51465  0.14147  0.70403  Biso   1.000  C
  C557     1.0000 0.28270  0.99152  0.39042  Biso   1.000  C
  C558     1.0000 0.63728  0.78982  0.50872  Biso   1.000  C
  C559     1.0000 0.48981  0.63449  0.80183  Biso   1.000  C
  C560     1.0000 0.70732  0.48586  0.13513  Biso   1.000  C
  C561     1.0000 0.37214  0.28436  0.99267  Biso   1.000  C
  C562     1.0000 0.98891  0.62953  0.70735  Biso   1.000  C
  C563     1.0000 0.21090  0.49662  0.36875  Biso   1.000  C
  C564     1.0000 0.86367  0.28800  0.49668  Biso   1.000  C
  C565     1.0000 0.99893  0.86281  0.21006  Biso   1.000  C
  C566     1.0000 0.21177  0.99386  0.88873  Biso   1.000  C
  C567     1.0000 0.87059  0.20287  0.00804  Biso   1.000  C
  C568     1.0000 0.48431  0.84814  0.30151  Biso   1.000  C
  C569     1.0000 0.71346  0.99054  0.62608  Biso   1.000  C
  C570     1.0000 0.36943  0.19953  0.49636  Biso   1.000  C
  C571     1.0000 0.48939  0.35609  0.21420  Biso   1.000  C
  C572     1.0000 0.29053  0.50586  0.87650  Biso   1.000  C
  C573     1.0000 0.63159  0.70466  0.00475  Biso   1.000  C
  C574     1.0000 0.99995  0.35990  0.29817  Biso   1.000  C
  C575     1.0000 0.79631  0.51743  0.63690  Biso   1.000  C
  C576     1.0000 0.13315  0.70657  0.51714  Biso   1.000  C
  C577     1.0000 0.29245  0.48063  0.10900  Biso   1.000  C
  C578     1.0000 0.10165  0.29307  0.51572  Biso   1.000  C
  C579     1.0000 0.47906  0.08433  0.29620  Biso   1.000  C
  C580     1.0000 0.79100  0.49163  0.39930  Biso   1.000  C
  C581     1.0000 0.61029  0.28875  0.00269  Biso   1.000  C
  C582     1.0000 0.99071  0.09769  0.21025  Biso   1.000  C
  C583     1.0000 0.19713  0.99361  0.12062  Biso   1.000  C
  C584     1.0000 0.39874  0.78369  0.50955  Biso   1.000  C
  C585     1.0000 0.00247  0.58989  0.29146  Biso   1.000  C
  C586     1.0000 0.69183  0.01598  0.38681  Biso   1.000  C
  C587     1.0000 0.89515  0.78458  0.00077  Biso   1.000  C
  C588     1.0000 0.49497  0.58595  0.21887  Biso   1.000  C
  C589     1.0000 0.71055  0.51020  0.90017  Biso   1.000  C
  C590     1.0000 0.89859  0.70194  0.49901  Biso   1.000  C
  C591     1.0000 0.50754  0.90398  0.71597  Biso   1.000  C
  C592     1.0000 0.21198  0.50146  0.60510  Biso   1.000  C
  C593     1.0000 0.39783  0.70224  0.01630  Biso   1.000  C
  C594     1.0000 0.99505  0.89717  0.79767  Biso   1.000  C
  C595     1.0000 0.79613  0.00306  0.89233  Biso   1.000  C
  C596     1.0000 0.60071  0.20927  0.50237  Biso   1.000  C
  C597     1.0000 0.01771  0.39834  0.71429  Biso   1.000  C
  C598     1.0000 0.29703  0.99204  0.61927  Biso   1.000  C
  C599     1.0000 0.10392  0.20913  0.98712  Biso   1.000  C
  C600     1.0000 0.51106  0.39621  0.79493  Biso   1.000  C
  C601     1.0000 0.20899  0.99808  0.91936  Biso   1.000  C
  C602     1.0000 0.90168  0.20356  0.00562  Biso   1.000  C
  C603     1.0000 0.99725  0.89443  0.20923  Biso   1.000  C
  C604     1.0000 0.71161  0.99200  0.59387  Biso   1.000  C
  C605     1.0000 0.40055  0.19811  0.49112  Biso   1.000  C
  C606     1.0000 0.47734  0.87839  0.30156  Biso   1.000  C
  C607     1.0000 0.29111  0.50963  0.90880  Biso   1.000  C
  C608     1.0000 0.59960  0.70413  0.00811  Biso   1.000  C
  C609     1.0000 0.49102  0.38712  0.21551  Biso   1.000  C
  C610     1.0000 0.79558  0.51635  0.60541  Biso   1.000  C
  C611     1.0000 0.10139  0.70421  0.51381  Biso   1.000  C
  C612     1.0000 0.99744  0.39076  0.29749  Biso   1.000  C
  C613     1.0000 0.78173  0.00188  0.09203  Biso   1.000  C
  C614     1.0000 0.10351  0.79358  0.98454  Biso   1.000  C
  C615     1.0000 0.00879  0.09909  0.80097  Biso   1.000  C
  C616     1.0000 0.28786  0.99419  0.42090  Biso   1.000  C
  C617     1.0000 0.60610  0.78928  0.51638  Biso   1.000  C
  C618     1.0000 0.51445  0.11042  0.70496  Biso   1.000  C
  C619     1.0000 0.70413  0.48833  0.10449  Biso   1.000  C
  C620     1.0000 0.40424  0.28493  0.99253  Biso   1.000  C
  C621     1.0000 0.48673  0.60316  0.80019  Biso   1.000  C
  C622     1.0000 0.21130  0.49628  0.40028  Biso   1.000  C
  C623     1.0000 0.89582  0.28939  0.49798  Biso   1.000  C
  C624     1.0000 0.99237  0.59772  0.70731  Biso   1.000  C
  C625     1.0000 0.99053  0.20639  0.90842  Biso   1.000  C
  C626     1.0000 0.88654  0.98996  0.20428  Biso   1.000  C
  C627     1.0000 0.20088  0.89836  0.02423  Biso   1.000  C
  C628     1.0000 0.49258  0.21547  0.59493  Biso   1.000  C
  C629     1.0000 0.38167  0.99403  0.30214  Biso   1.000  C
  C630     1.0000 0.70096  0.90052  0.47708  Biso   1.000  C
  C631     1.0000 0.49274  0.70539  0.91202  Biso   1.000  C
  C632     1.0000 0.60397  0.48535  0.21679  Biso   1.000  C
  C633     1.0000 0.29916  0.39489  0.00869  Biso   1.000  C
  C634     1.0000 0.99828  0.70515  0.60015  Biso   1.000  C
  C635     1.0000 0.09884  0.48362  0.29725  Biso   1.000  C
  C636     1.0000 0.78912  0.39827  0.50335  Biso   1.000  C
  C637     1.0000 0.00307  0.78770  0.09851  Biso   1.000  C
  C638     1.0000 0.10891  0.99446  0.80700  Biso   1.000  C
  C639     1.0000 0.79638  0.09483  0.99797  Biso   1.000  C
  C640     1.0000 0.51623  0.77926  0.40892  Biso   1.000  C
  C641     1.0000 0.60712  0.99322  0.70337  Biso   1.000  C
  C642     1.0000 0.29382  0.09630  0.52361  Biso   1.000  C
  C643     1.0000 0.50444  0.28459  0.10467  Biso   1.000  C
  C644     1.0000 0.39966  0.50076  0.80218  Biso   1.000  C
  C645     1.0000 0.70567  0.59347  0.99506  Biso   1.000  C
  C646     1.0000 0.01040  0.28746  0.40853  Biso   1.000  C
  C647     1.0000 0.90198  0.50440  0.71165  Biso   1.000  C
  C648     1.0000 0.21176  0.59827  0.50012  Biso   1.000  C
  C649     1.0000 0.99728  0.70205  0.39615  Biso   1.000  C
  C650     1.0000 0.40425  0.01352  0.72104  Biso   1.000  C
  C651     1.0000 0.71308  0.39606  0.00067  Biso   1.000  C
  C652     1.0000 0.50801  0.69796  0.11562  Biso   1.000  C
  C653     1.0000 0.90676  0.00023  0.79013  Biso   1.000  C
  C654     1.0000 0.20817  0.39447  0.50748  Biso   1.000  C
  C655     1.0000 0.50981  0.19718  0.39085  Biso   1.000  C
  C656     1.0000 0.10676  0.50033  0.71194  Biso   1.000  C
  C657     1.0000 0.78644  0.89367  0.00005  Biso   1.000  C
  C658     1.0000 0.02110  0.20620  0.11104  Biso   1.000  C
  C659     1.0000 0.60827  0.50725  0.79049  Biso   1.000  C
  C660     1.0000 0.29380  0.89312  0.52202  Biso   1.000  C
  C661     1.0000 0.99611  0.29006  0.60920  Biso   1.000  C
  C662     1.0000 0.58809  0.97463  0.28763  Biso   1.000  C
  C663     1.0000 0.29365  0.59579  0.01998  Biso   1.000  C
  C664     1.0000 0.51463  0.28745  0.90012  Biso   1.000  C
  C665     1.0000 0.08514  0.99144  0.21922  Biso   1.000  C
  C666     1.0000 0.79068  0.60228  0.50278  Biso   1.000  C
  C667     1.0000 0.49482  0.79266  0.61402  Biso   1.000  C
  C668     1.0000 0.89971  0.48387  0.29488  Biso   1.000  C
  C669     1.0000 0.20305  0.09698  0.00506  Biso   1.000  C
  C670     1.0000 0.98206  0.78839  0.89899  Biso   1.000  C
  C671     1.0000 0.39821  0.48322  0.21824  Biso   1.000  C
  C672     1.0000 0.70383  0.10035  0.50306  Biso   1.000  C
  C673     1.0000 0.20335  0.98941  0.82356  Biso   1.000  C
  C674     1.0000 0.81062  0.18757  0.00564  Biso   1.000  C
  C675     1.0000 0.00173  0.79855  0.19521  Biso   1.000  C
  C676     1.0000 0.70094  0.99553  0.68945  Biso   1.000  C
  C677     1.0000 0.30850  0.19016  0.50723  Biso   1.000  C
  C678     1.0000 0.50251  0.78979  0.31460  Biso   1.000  C
  C679     1.0000 0.30422  0.50390  0.81382  Biso   1.000  C
  C680     1.0000 0.69442  0.68962  0.99931  Biso   1.000  C
  C681     1.0000 0.49621  0.29541  0.19731  Biso   1.000  C
  C682     1.0000 0.80868  0.51720  0.69852  Biso   1.000  C
  C683     1.0000 0.19503  0.69633  0.51129  Biso   1.000  C
  C684     1.0000 0.01442  0.29529  0.31197  Biso   1.000  C
  C685     1.0000 0.79089  0.99734  0.18982  Biso   1.000  C
  C686     1.0000 0.19085  0.80407  0.00895  Biso   1.000  C
  C687     1.0000 0.00309  0.19474  0.81330  Biso   1.000  C
  C688     1.0000 0.28898  0.99187  0.32499  Biso   1.000  C
  C689     1.0000 0.69823  0.80557  0.49008  Biso   1.000  C
  C690     1.0000 0.50310  0.20165  0.68928  Biso   1.000  C
  C691     1.0000 0.69608  0.48317  0.19812  Biso   1.000  C
  C692     1.0000 0.30832  0.29961  0.99767  Biso   1.000  C
  C693     1.0000 0.49416  0.69694  0.81595  Biso   1.000  C
  C694     1.0000 0.19375  0.48146  0.30718  Biso   1.000  C
  C695     1.0000 0.80001  0.30099  0.49852  Biso   1.000  C
  C696     1.0000 0.98842  0.69362  0.69489  Biso   1.000  C
  C697     1.0000 0.68074  0.99919  0.29718  Biso   1.000  C
  C698     1.0000 0.30181  0.69119  0.01376  Biso   1.000  C
  C699     1.0000 0.00682  0.30252  0.70309  Biso   1.000  C
  C700     1.0000 0.17854  0.98817  0.21469  Biso   1.000  C
  C701     1.0000 0.80649  0.69670  0.50059  Biso   1.000  C
  C702     1.0000 0.51542  0.30422  0.80585  Biso   1.000  C
  C703     1.0000 0.80649  0.48504  0.30454  Biso   1.000  C
  C704     1.0000 0.19663  0.19114  0.99324  Biso   1.000  C
  C705     1.0000 0.50383  0.80624  0.70761  Biso   1.000  C
  C706     1.0000 0.30416  0.47455  0.20215  Biso   1.000  C
  C707     1.0000 0.69417  0.19398  0.49798  Biso   1.000  C
  C708     1.0000 0.97981  0.80307  0.80516  Biso   1.000  C
  C709     1.0000 0.31072  0.99701  0.71455  Biso   1.000  C
  C710     1.0000 0.70593  0.30306  0.00330  Biso   1.000  C
  C711     1.0000 0.00176  0.68554  0.29935  Biso   1.000  C
  C712     1.0000 0.80951  0.00769  0.79975  Biso   1.000  C
  C713     1.0000 0.19727  0.30224  0.51120  Biso   1.000  C
  C714     1.0000 0.50025  0.67812  0.20792  Biso   1.000  C
  C715     1.0000 0.19967  0.50098  0.70145  Biso   1.000  C
  C716     1.0000 0.80271  0.79953  0.99876  Biso   1.000  C
  C717     1.0000 0.49402  0.17899  0.29966  Biso   1.000  C
  C718     1.0000 0.70011  0.51317  0.80565  Biso   1.000  C
  C719     1.0000 0.30551  0.79889  0.51528  Biso   1.000  C
  C720     1.0000 0.01147  0.19209  0.20001  Biso   1.000  C
  C721     1.0000 0.51477  0.79306  0.28481  Biso   1.000  C
  C722     1.0000 0.30723  0.51937  0.78600  Biso   1.000  C
  C723     1.0000 0.77269  0.30633  0.51492  Biso   1.000  C
  C724     1.0000 0.98666  0.77130  0.19141  Biso   1.000  C
  C725     1.0000 0.78392  0.53456  0.69536  Biso   1.000  C
  C726     1.0000 0.28084  0.30404  0.98116  Biso   1.000  C
  C727     1.0000 0.00537  0.26537  0.31605  Biso   1.000  C
  C728     1.0000 0.22897  0.00712  0.82608  Biso   1.000  C
  C729     1.0000 0.72633  0.81177  0.50470  Biso   1.000  C
  C730     1.0000 0.47674  0.29572  0.22226  Biso   1.000  C
  C731     1.0000 0.72853  0.97889  0.68809  Biso   1.000  C
  C732     1.0000 0.22136  0.80833  0.00017  Biso   1.000  C
  C733     1.0000 0.48781  0.19725  0.71681  Biso   1.000  C
  C734     1.0000 0.69546  0.46230  0.22187  Biso   1.000  C
  C735     1.0000 0.19144  0.72242  0.49357  Biso   1.000  C
  C736     1.0000 0.98235  0.21999  0.81358  Biso   1.000  C
  C737     1.0000 0.22129  0.46692  0.31321  Biso   1.000  C
  C738     1.0000 0.72125  0.68611  0.01656  Biso   1.000  C
  C739     1.0000 0.00933  0.69437  0.71909  Biso   1.000  C
  C740     1.0000 0.76322  0.98459  0.18377  Biso   1.000  C
  C741     1.0000 0.27977  0.18553  0.49649  Biso   1.000  C
  C742     1.0000 0.51165  0.69451  0.78965  Biso   1.000  C
  C743     1.0000 0.26449  0.97318  0.32821  Biso   1.000  C
  C744     1.0000 0.81258  0.21153  0.02494  Biso   1.000  C
  C745     1.0000 0.01698  0.71175  0.30606  Biso   1.000  C
  C746     1.0000 0.28086  0.00788  0.71125  Biso   1.000  C
  C747     1.0000 0.73171  0.30490  0.01982  Biso   1.000  C
  C748     1.0000 0.52435  0.69993  0.20918  Biso   1.000  C
  C749     1.0000 0.81248  0.98916  0.77346  Biso   1.000  C
  C750     1.0000 0.22138  0.30097  0.53123  Biso   1.000  C
  C751     1.0000 0.50557  0.17508  0.26993  Biso   1.000  C
  C752     1.0000 0.22937  0.48745  0.69878  Biso   1.000  C
  C753     1.0000 0.77911  0.80078  0.97819  Biso   1.000  C
  C754     1.0000 0.02738  0.18667  0.22648  Biso   1.000  C
  C755     1.0000 0.70128  0.49588  0.77813  Biso   1.000  C
  C756     1.0000 0.27772  0.80542  0.52852  Biso   1.000  C
  C757     1.0000 0.98515  0.27887  0.70201  Biso   1.000  C
  C758     1.0000 0.67420  0.00973  0.26819  Biso   1.000  C
  C759     1.0000 0.27656  0.69006  0.03206  Biso   1.000  C
  C760     1.0000 0.53133  0.30687  0.77880  Biso   1.000  C
  C761     1.0000 0.19814  0.01199  0.21897  Biso   1.000  C
  C762     1.0000 0.81261  0.72264  0.48398  Biso   1.000  C
  C763     1.0000 0.49070  0.81090  0.73544  Biso   1.000  C
  C764     1.0000 0.78048  0.50321  0.30720  Biso   1.000  C
  C765     1.0000 0.21900  0.18986  0.01408  Biso   1.000  C
  C766     1.0000 0.96686  0.80895  0.77706  Biso   1.000  C
  C767     1.0000 0.30349  0.49120  0.22948  Biso   1.000  C
  C768     1.0000 0.69191  0.22034  0.48259  Biso   1.000  C
  C769     1.0000 0.47579  0.72257  0.81697  Biso   1.000  C
  C770     1.0000 0.80917  0.49766  0.72371  Biso   1.000  C
  C771     1.0000 0.69444  0.77729  0.47603  Biso   1.000  C
  C772     1.0000 0.96720  0.71742  0.69231  Biso   1.000  C
  C773     1.0000 0.27698  0.48789  0.81695  Biso   1.000  C
  C774     1.0000 0.18597  0.77565  0.02152  Biso   1.000  C
  C775     1.0000 0.02381  0.19246  0.78991  Biso   1.000  C
  C776     1.0000 0.69529  0.01368  0.71552  Biso   1.000  C
  C777     1.0000 0.80499  0.27302  0.48412  Biso   1.000  C
  C778     1.0000 0.51572  0.23093  0.68355  Biso   1.000  C
  C779     1.0000 0.20328  0.96871  0.79958  Biso   1.000  C
  C780     1.0000 0.31067  0.27265  0.01310  Biso   1.000  C
  C781     1.0000 0.51415  0.26975  0.19414  Biso   1.000  C
  C782     1.0000 0.19032  0.49043  0.27696  Biso   1.000  C
  C783     1.0000 0.31267  0.21999  0.51885  Biso   1.000  C
  C784     1.0000 0.02766  0.30352  0.28327  Biso   1.000  C
  C785     1.0000 0.72150  0.50130  0.19647  Biso   1.000  C
  C786     1.0000 0.78556  0.18824  0.98673  Biso   1.000  C
  C787     1.0000 0.01871  0.80239  0.22163  Biso   1.000  C
  C788     1.0000 0.28804  0.01004  0.29930  Biso   1.000  C
  C789     1.0000 0.22255  0.69251  0.52582  Biso   1.000  C
  C790     1.0000 0.49020  0.76094  0.32045  Biso   1.000  C
  C791     1.0000 0.79403  0.00957  0.22012  Biso   1.000  C
  C792     1.0000 0.69235  0.71565  0.98165  Biso   1.000  C
  C793     1.0000 0.48372  0.20810  0.30624  Biso   1.000  C
  C794     1.0000 0.28015  0.45635  0.19627  Biso   1.000  C
  C795     1.0000 0.19412  0.27704  0.49174  Biso   1.000  C
  C796     1.0000 0.00064  0.22161  0.19589  Biso   1.000  C
  C797     1.0000 0.80838  0.46734  0.27790  Biso   1.000  C
  C798     1.0000 0.70340  0.27637  0.98569  Biso   1.000  C
  C799     1.0000 0.98849  0.68245  0.27161  Biso   1.000  C
  C800     1.0000 0.18225  0.96513  0.23656  Biso   1.000  C
  C801     1.0000 0.30773  0.77399  0.49695  Biso   1.000  C
  C802     1.0000 0.47698  0.67970  0.22954  Biso   1.000  C
  C803     1.0000 0.71020  0.98764  0.30338  Biso   1.000  C
  C804     1.0000 0.80552  0.77457  0.01577  Biso   1.000  C
  C805     1.0000 0.51840  0.77857  0.70358  Biso   1.000  C
  C806     1.0000 0.72236  0.53396  0.80901  Biso   1.000  C
  C807     1.0000 0.77794  0.69848  0.51727  Biso   1.000  C
  C808     1.0000 0.99479  0.77596  0.80972  Biso   1.000  C
  C809     1.0000 0.19293  0.51537  0.72939  Biso   1.000  C
  C810     1.0000 0.30284  0.71536  0.99470  Biso   1.000  C
  C811     1.0000 0.02648  0.30261  0.72807  Biso   1.000  C
  C812     1.0000 0.78318  0.02439  0.80447  Biso   1.000  C
  C813     1.0000 0.71975  0.19079  0.51580  Biso   1.000  C
  C814     1.0000 0.49499  0.28189  0.80738  Biso   1.000  C
  C815     1.0000 0.31874  0.98240  0.74130  Biso   1.000  C
  C816     1.0000 0.19885  0.21308  0.97140  Biso   1.000  C
  C817     1.0000 0.98433  0.23999  0.79160  Biso   1.000  C
  C818     1.0000 0.74127  0.98356  0.20410  Biso   1.000  C
  C819     1.0000 0.24109  0.78607  0.99813  Biso   1.000  C
  C820     1.0000 0.48942  0.21816  0.73825  Biso   1.000  C
  C821     1.0000 0.24234  0.97158  0.30813  Biso   1.000  C
  C822     1.0000 0.74839  0.79140  0.50711  Biso   1.000  C
  C823     1.0000 0.51532  0.71768  0.77161  Biso   1.000  C
  C824     1.0000 0.71608  0.46224  0.24315  Biso   1.000  C
  C825     1.0000 0.25934  0.28359  0.98251  Biso   1.000  C
  C826     1.0000 0.00849  0.71737  0.73787  Biso   1.000  C
  C827     1.0000 0.24169  0.46219  0.29211  Biso   1.000  C
  C828     1.0000 0.75244  0.28404  0.51397  Biso   1.000  C
  C829     1.0000 0.98486  0.75222  0.21307  Biso   1.000  C
  C830     1.0000 0.25110  0.00487  0.80644  Biso   1.000  C
  C831     1.0000 0.79302  0.23328  0.02440  Biso   1.000  C
  C832     1.0000 0.51214  0.77066  0.26508  Biso   1.000  C
  C833     1.0000 0.74854  0.98214  0.70979  Biso   1.000  C
  C834     1.0000 0.25693  0.20620  0.50062  Biso   1.000  C
  C835     1.0000 0.47874  0.27477  0.24377  Biso   1.000  C
  C836     1.0000 0.28565  0.51983  0.76524  Biso   1.000  C
  C837     1.0000 0.74148  0.70889  0.01482  Biso   1.000  C
  C838     1.0000 0.00951  0.24601  0.29228  Biso   1.000  C
  C839     1.0000 0.76194  0.53497  0.71615  Biso   1.000  C
  C840     1.0000 0.21180  0.74404  0.49341  Biso   1.000  C
  C841     1.0000 0.22483  0.96847  0.77877  Biso   1.000  C
  C842     1.0000 0.76503  0.21108  0.98733  Biso   1.000  C
  C843     1.0000 0.01853  0.78086  0.24289  Biso   1.000  C
  C844     1.0000 0.71487  0.01414  0.73782  Biso   1.000  C
  C845     1.0000 0.28993  0.23971  0.52119  Biso   1.000  C
  C846     1.0000 0.48911  0.73904  0.30022  Biso   1.000  C
  C847     1.0000 0.25489  0.49041  0.79589  Biso   1.000  C
  C848     1.0000 0.71306  0.73632  0.98073  Biso   1.000  C
  C849     1.0000 0.51536  0.24865  0.21505  Biso   1.000  C
  C850     1.0000 0.78810  0.49896  0.74434  Biso   1.000  C
  C851     1.0000 0.24333  0.71321  0.52366  Biso   1.000  C
  C852     1.0000 0.03017  0.28400  0.26133  Biso   1.000  C
  C853     1.0000 0.77160  0.00820  0.24001  Biso   1.000  C
  C854     1.0000 0.20822  0.75419  0.02191  Biso   1.000  C
  C855     1.0000 0.02542  0.21508  0.77051  Biso   1.000  C
  C856     1.0000 0.26551  0.00787  0.27937  Biso   1.000  C
  C857     1.0000 0.71752  0.75826  0.47679  Biso   1.000  C
  C858     1.0000 0.51667  0.24972  0.70685  Biso   1.000  C
  C859     1.0000 0.74303  0.49900  0.21781  Biso   1.000  C
  C860     1.0000 0.28916  0.25226  0.01213  Biso   1.000  C
  C861     1.0000 0.47794  0.74471  0.79577  Biso   1.000  C
  C862     1.0000 0.21105  0.48360  0.25624  Biso   1.000  C
  C863     1.0000 0.78445  0.25133  0.48483  Biso   1.000  C
  C864     1.0000 0.96698  0.73926  0.71401  Biso   1.000  C
  C865     1.0000 0.72181  0.50054  0.75777  Biso   1.000  C
  C866     1.0000 0.79292  0.74505  0.48205  Biso   1.000  C
  C867     1.0000 0.48952  0.78997  0.75688  Biso   1.000  C
  C868     1.0000 0.24888  0.49018  0.72130  Biso   1.000  C
  C869     1.0000 0.25631  0.71168  0.03223  Biso   1.000  C
  C870     1.0000 0.96762  0.78666  0.75611  Biso   1.000  C
  C871     1.0000 0.79138  0.99021  0.75252  Biso   1.000  C
  C872     1.0000 0.71290  0.24155  0.48188  Biso   1.000  C
  C873     1.0000 0.98700  0.25807  0.72348  Biso   1.000  C
  C874     1.0000 0.26066  0.00287  0.73268  Biso   1.000  C
  C875     1.0000 0.23997  0.21157  0.01634  Biso   1.000  C
  C876     1.0000 0.53102  0.28457  0.75753  Biso   1.000  C
  C877     1.0000 0.28217  0.48770  0.24942  Biso   1.000  C
  C878     1.0000 0.24190  0.27804  0.53267  Biso   1.000  C
  C879     1.0000 0.50696  0.19830  0.25009  Biso   1.000  C
  C880     1.0000 0.75805  0.50183  0.28653  Biso   1.000  C
  C881     1.0000 0.75162  0.28194  0.02303  Biso   1.000  C
  C882     1.0000 0.03211  0.20860  0.24618  Biso   1.000  C
  C883     1.0000 0.21747  0.01425  0.24193  Biso   1.000  C
  C884     1.0000 0.25618  0.78581  0.52429  Biso   1.000  C
  C885     1.0000 0.01755  0.73394  0.28589  Biso   1.000  C
  C886     1.0000 0.69562  0.00685  0.24637  Biso   1.000  C
  C887     1.0000 0.76009  0.77804  0.97581  Biso   1.000  C
  C888     1.0000 0.52398  0.71951  0.23202  Biso   1.000  C
  C889     1.0000 0.73118  0.98768  0.28228  Biso   1.000  C
  C890     1.0000 0.28092  0.73611  0.99370  Biso   1.000  C
  C891     1.0000 0.02543  0.28221  0.74895  Biso   1.000  C
  C892     1.0000 0.20450  0.96607  0.25673  Biso   1.000  C
  C893     1.0000 0.75783  0.72110  0.51288  Biso   1.000  C
  C894     1.0000 0.49136  0.26065  0.78507  Biso   1.000  C
  C895     1.0000 0.78728  0.46793  0.25698  Biso   1.000  C
  C896     1.0000 0.22092  0.23407  0.97271  Biso   1.000  C
  C897     1.0000 0.51771  0.75762  0.72521  Biso   1.000  C
  C898     1.0000 0.25780  0.45447  0.21698  Biso   1.000  C
  C899     1.0000 0.74046  0.21222  0.51765  Biso   1.000  C
  C900     1.0000 0.99280  0.75415  0.78862  Biso   1.000  C
  C901     1.0000 0.29743  0.98007  0.76313  Biso   1.000  C
  C902     1.0000 0.72494  0.25583  0.98510  Biso   1.000  C
  C903     1.0000 0.99106  0.70570  0.25291  Biso   1.000  C
  C904     1.0000 0.76104  0.02248  0.78301  Biso   1.000  C
  C905     1.0000 0.21363  0.25351  0.49427  Biso   1.000  C
  C906     1.0000 0.47807  0.70103  0.25060  Biso   1.000  C
  C907     1.0000 0.21394  0.51732  0.75154  Biso   1.000  C
  C908     1.0000 0.78502  0.75347  0.01459  Biso   1.000  C
  C909     1.0000 0.48871  0.23141  0.28695  Biso   1.000  C
  C910     1.0000 0.74416  0.53738  0.78805  Biso   1.000  C
  C911     1.0000 0.28531  0.75479  0.49359  Biso   1.000  C
  C912     1.0000 0.00312  0.24236  0.21739  Biso   1.000  C
  C913     1.0000 0.76548  0.51912  0.74141  Biso   1.000  C
  C914     1.0000 0.74341  0.76561  0.49121  Biso   1.000  C
  C915     1.0000 0.49838  0.74228  0.77404  Biso   1.000  C
  C916     1.0000 0.26008  0.50611  0.77017  Biso   1.000  C
  C917     1.0000 0.23472  0.75907  0.00981  Biso   1.000  C
  C918     1.0000 0.98655  0.73896  0.73646  Biso   1.000  C
  C919     1.0000 0.74158  0.99997  0.73537  Biso   1.000  C
  C920     1.0000 0.75863  0.25782  0.49986  Biso   1.000  C
  C921     1.0000 0.00488  0.23861  0.77028  Biso   1.000  C
  C922     1.0000 0.24825  0.98651  0.78178  Biso   1.000  C
  C923     1.0000 0.26336  0.25758  0.99721  Biso   1.000  C
  C924     1.0000 0.50493  0.24452  0.73359  Biso   1.000  C
  C925     1.0000 0.23549  0.46814  0.26370  Biso   1.000  C
  C926     1.0000 0.26233  0.23356  0.51134  Biso   1.000  C
  C927     1.0000 0.49693  0.25038  0.23961  Biso   1.000  C
  C928     1.0000 0.73872  0.48229  0.24142  Biso   1.000  C
  C929     1.0000 0.77021  0.23483  0.00467  Biso   1.000  C
  C930     1.0000 0.02234  0.25548  0.26654  Biso   1.000  C
  C931     1.0000 0.24285  0.98877  0.28341  Biso   1.000  C
  C932     1.0000 0.23751  0.73906  0.51013  Biso   1.000  C
  C933     1.0000 0.00125  0.75607  0.23804  Biso   1.000  C
  C934     1.0000 0.74664  0.99398  0.23236  Biso   1.000  C
  C935     1.0000 0.73825  0.73339  0.99701  Biso   1.000  C
  C936     1.0000 0.49899  0.74465  0.27216  Biso   1.000  C
  C937     1.0000 0.74795  0.25755  0.00456  Biso   1.000  C
  C938     1.0000 0.00303  0.73228  0.25926  Biso   1.000  C
  C939     1.0000 0.26851  0.98772  0.75798  Biso   1.000  C
  C940     1.0000 0.23833  0.25450  0.51344  Biso   1.000  C
  C941     1.0000 0.50005  0.72023  0.24996  Biso   1.000  C
  C942     1.0000 0.76489  0.00427  0.75765  Biso   1.000  C
  C943     1.0000 0.76216  0.75503  0.99443  Biso   1.000  C
  C944     1.0000 0.49820  0.22579  0.25924  Biso   1.000  C
  C945     1.0000 0.24060  0.50679  0.74564  Biso   1.000  C
  C946     1.0000 0.26084  0.76066  0.50872  Biso   1.000  C
  C947     1.0000 0.02067  0.23595  0.24177  Biso   1.000  C
  C948     1.0000 0.74397  0.51926  0.76395  Biso   1.000  C
  C949     1.0000 0.25706  0.73459  0.01207  Biso   1.000  C
  C950     1.0000 0.00728  0.25966  0.74598  Biso   1.000  C
  C951     1.0000 0.72351  0.99592  0.25364  Biso   1.000  C
  C952     1.0000 0.76524  0.74389  0.49414  Biso   1.000  C
  C953     1.0000 0.50977  0.26242  0.76086  Biso   1.000  C
  C954     1.0000 0.22142  0.99052  0.25923  Biso   1.000  C
  C955     1.0000 0.24295  0.23309  0.99478  Biso   1.000  C
  C956     1.0000 0.50328  0.76408  0.75167  Biso   1.000  C
  C957     1.0000 0.76218  0.48445  0.26197  Biso   1.000  C
  C958     1.0000 0.73680  0.23686  0.49954  Biso   1.000  C
  C959     1.0000 0.98118  0.76015  0.76124  Biso   1.000  C
  C960     1.0000 0.26060  0.46934  0.24261  Biso   1.000  C
  Cu1      1.0000 0.00478  0.49636  0.65624  Biso   1.000  Cu
  Cu2      1.0000 0.64865  0.00190  0.49482  Biso   1.000  Cu
  Cu3      1.0000 0.50059  0.64655  0.01131  Biso   1.000  Cu
  Cu4      1.0000 0.50404  0.50269  0.85155  Biso   1.000  Cu
  Cu5      1.0000 0.14410  0.99817  0.01774  Biso   1.000  Cu
  Cu6      1.0000 0.00098  0.64726  0.49974  Biso   1.000  Cu
  Cu7      1.0000 0.50342  0.00578  0.65764  Biso   1.000  Cu
  Cu8      1.0000 0.84604  0.49781  0.50213  Biso   1.000  Cu
  Cu9      1.0000 0.00314  0.15406  0.00697  Biso   1.000  Cu
  Cu10     1.0000 0.00613  0.99677  0.85516  Biso   1.000  Cu
  Cu11     1.0000 0.35162  0.49759  0.00966  Biso   1.000  Cu
  Cu12     1.0000 0.50180  0.15207  0.49864  Biso   1.000  Cu
  Cu13     1.0000 0.99935  0.49213  0.34871  Biso   1.000  Cu
  Cu14     1.0000 0.34864  0.99334  0.51524  Biso   1.000  Cu
  Cu15     1.0000 0.50680  0.33855  0.00445  Biso   1.000  Cu
  Cu16     1.0000 0.50000  0.48831  0.16226  Biso   1.000  Cu
  Cu17     1.0000 0.84243  0.99402  0.99438  Biso   1.000  Cu
  Cu18     1.0000 0.99589  0.34681  0.50753  Biso   1.000  Cu
  Cu19     1.0000 0.48778  0.98410  0.35066  Biso   1.000  Cu
  Cu20     1.0000 0.15298  0.49680  0.50424  Biso   1.000  Cu
  Cu21     1.0000 0.99670  0.84108  0.00213  Biso   1.000  Cu
  Cu22     1.0000 0.99009  0.99551  0.15402  Biso   1.000  Cu
  Cu23     1.0000 0.65414  0.49425  0.00170  Biso   1.000  Cu
  Cu24     1.0000 0.50056  0.83713  0.51113  Biso   1.000  Cu
  Cu25     1.0000 0.19788  0.99809  0.01989  Biso   1.000  Cu
  Cu26     1.0000 0.00055  0.20987  0.00715  Biso   1.000  Cu
  Cu27     1.0000 0.98574  0.99809  0.21026  Biso   1.000  Cu
  Cu28     1.0000 0.70337  0.99963  0.49015  Biso   1.000  Cu
  Cu29     1.0000 0.49799  0.20672  0.49241  Biso   1.000  Cu
  Cu30     1.0000 0.48127  0.97999  0.29529  Biso   1.000  Cu
  Cu31     1.0000 0.29884  0.49706  0.01115  Biso   1.000  Cu
  Cu32     1.0000 0.49780  0.70253  0.01387  Biso   1.000  Cu
  Cu33     1.0000 0.50037  0.48638  0.21784  Biso   1.000  Cu
  Cu34     1.0000 0.79149  0.49767  0.50450  Biso   1.000  Cu
  Cu35     1.0000 0.00208  0.70115  0.49857  Biso   1.000  Cu
  Cu36     1.0000 0.99875  0.48981  0.29362  Biso   1.000  Cu
  Cu37     1.0000 0.79046  0.99618  0.99179  Biso   1.000  Cu
  Cu38     1.0000 0.99837  0.78597  0.99772  Biso   1.000  Cu
  Cu39     1.0000 0.00841  0.99569  0.80144  Biso   1.000  Cu
  Cu40     1.0000 0.29520  0.99263  0.51747  Biso   1.000  Cu
  Cu41     1.0000 0.50430  0.78213  0.51226  Biso   1.000  Cu
  Cu42     1.0000 0.50499  0.00820  0.71171  Biso   1.000  Cu
  Cu43     1.0000 0.70842  0.49566  0.00270  Biso   1.000  Cu
  Cu44     1.0000 0.50729  0.28544  0.00132  Biso   1.000  Cu
  Cu45     1.0000 0.49969  0.50043  0.79623  Biso   1.000  Cu
  Cu46     1.0000 0.20775  0.49529  0.50321  Biso   1.000  Cu
  Cu47     1.0000 0.99938  0.29256  0.50771  Biso   1.000  Cu
  Cu48     1.0000 0.00693  0.50006  0.70988  Biso   1.000  Cu
  H1       1.0000 0.23577  0.79059  0.53464  Biso   1.000  H
  H2       1.0000 0.54826  0.28117  0.74347  Biso   1.000  H
  H3       1.0000 0.74110  0.51857  0.28762  Biso   1.000  H
  H4       1.0000 0.74611  0.77738  0.95754  Biso   1.000  H
  H5       1.0000 0.97201  0.24022  0.72539  Biso   1.000  H
  H6       1.0000 0.27941  0.49731  0.26983  Biso   1.000  H
  H7       1.0000 0.25779  0.27938  0.55019  Biso   1.000  H
  H8       1.0000 0.95703  0.79185  0.73662  Biso   1.000  H
  H9       1.0000 0.69062  0.01493  0.22437  Biso   1.000  H
  H10      1.0000 0.77002  0.28497  0.03811  Biso   1.000  H
  H11      1.0000 0.48395  0.79702  0.77811  Biso   1.000  H
  H12      1.0000 0.23089  0.03326  0.24412  Biso   1.000  H
  H13      1.0000 0.70902  0.25816  0.46622  Biso   1.000  H
  H14      1.0000 0.54067  0.73501  0.23445  Biso   1.000  H
  H15      1.0000 0.27063  0.48126  0.72160  Biso   1.000  H
  H16      1.0000 0.25423  0.20825  0.03454  Biso   1.000  H
  H17      1.0000 0.03236  0.75291  0.29163  Biso   1.000  H
  H18      1.0000 0.72050  0.48779  0.73848  Biso   1.000  H
  H19      1.0000 0.79651  0.76506  0.46863  Biso   1.000  H
  H20      1.0000 0.04589  0.20231  0.26411  Biso   1.000  H
  H21      1.0000 0.23809  0.00876  0.73075  Biso   1.000  H
  H22      1.0000 0.23806  0.71001  0.04699  Biso   1.000  H
  H23      1.0000 0.51352  0.19395  0.22717  Biso   1.000  H
  H24      1.0000 0.79954  0.98128  0.73247  Biso   1.000  H
  H25      1.0000 0.27061  0.01763  0.80788  Biso   1.000  H
  H26      1.0000 0.79390  0.25206  0.03864  Biso   1.000  H
  H27      1.0000 0.97037  0.73398  0.21236  Biso   1.000  H
  H28      1.0000 0.76810  0.96847  0.70878  Biso   1.000  H
  H29      1.0000 0.23515  0.20027  0.49449  Biso   1.000  H
  H30      1.0000 0.51680  0.77624  0.24228  Biso   1.000  H
  H31      1.0000 0.28808  0.53361  0.74646  Biso   1.000  H
  H32      1.0000 0.75954  0.70749  0.03119  Biso   1.000  H
  H33      1.0000 0.46290  0.27320  0.26190  Biso   1.000  H
  H34      1.0000 0.74531  0.55058  0.71557  Biso   1.000  H
  H35      1.0000 0.20905  0.76434  0.48090  Biso   1.000  H
  H36      1.0000 0.00031  0.22492  0.29300  Biso   1.000  H
  H37      1.0000 0.72084  0.97145  0.20028  Biso   1.000  H
  H38      1.0000 0.26122  0.79202  0.98783  Biso   1.000  H
  H39      1.0000 0.96957  0.25929  0.79108  Biso   1.000  H
  H40      1.0000 0.22119  0.96141  0.31204  Biso   1.000  H
  H41      1.0000 0.76610  0.79351  0.52102  Biso   1.000  H
  H42      1.0000 0.47760  0.21235  0.75850  Biso   1.000  H
  H43      1.0000 0.71496  0.44830  0.26255  Biso   1.000  H
  H44      1.0000 0.23830  0.28851  0.97263  Biso   1.000  H
  H45      1.0000 0.53339  0.71638  0.75574  Biso   1.000  H
  H46      1.0000 0.26173  0.44950  0.29819  Biso   1.000  H
  H47      1.0000 0.73234  0.28361  0.52446  Biso   1.000  H
  H48      1.0000 0.02330  0.71496  0.75593  Biso   1.000  H
  H49      1.0000 0.20772  0.49090  0.23447  Biso   1.000  H
  H50      1.0000 0.29297  0.26264  0.52657  Biso   1.000  H
  H51      1.0000 0.53215  0.23297  0.21518  Biso   1.000  H
  H52      1.0000 0.76225  0.51263  0.21823  Biso   1.000  H
  H53      1.0000 0.74601  0.20852  0.97519  Biso   1.000  H
  H54      1.0000 0.03834  0.29062  0.24005  Biso   1.000  H
  H55      1.0000 0.26764  0.01629  0.25733  Biso   1.000  H
  H56      1.0000 0.26376  0.71091  0.53589  Biso   1.000  H
  H57      1.0000 0.03045  0.78673  0.26228  Biso   1.000  H
  H58      1.0000 0.77503  0.01508  0.26173  Biso   1.000  H
  H59      1.0000 0.70739  0.75755  0.96929  Biso   1.000  H
  H60      1.0000 0.48175  0.71803  0.30870  Biso   1.000  H
  H61      1.0000 0.78925  0.48541  0.76271  Biso   1.000  H
  H62      1.0000 0.71705  0.73758  0.46459  Biso   1.000  H
  H63      1.0000 0.46280  0.76458  0.79905  Biso   1.000  H
  H64      1.0000 0.23219  0.48345  0.79897  Biso   1.000  H
  H65      1.0000 0.20347  0.73284  0.03022  Biso   1.000  H
  H66      1.0000 0.94862  0.75609  0.71292  Biso   1.000  H
  H67      1.0000 0.70893  0.02845  0.75530  Biso   1.000  H
  H68      1.0000 0.78912  0.23121  0.47379  Biso   1.000  H
  H69      1.0000 0.04185  0.21500  0.75442  Biso   1.000  H
  H70      1.0000 0.22209  0.95693  0.75895  Biso   1.000  H
  H71      1.0000 0.29182  0.23160  0.02344  Biso   1.000  H
  H72      1.0000 0.52848  0.27013  0.70337  Biso   1.000  H
  H73      1.0000 0.76010  0.55429  0.79267  Biso   1.000  H
  H74      1.0000 0.73694  0.71922  0.52392  Biso   1.000  H
  H75      1.0000 0.53055  0.73754  0.72198  Biso   1.000  H
  H76      1.0000 0.21110  0.52689  0.77240  Biso   1.000  H
  H77      1.0000 0.28503  0.75407  0.97921  Biso   1.000  H
  H78      1.0000 0.99818  0.73064  0.79207  Biso   1.000  H
  H79      1.0000 0.74211  0.03627  0.78800  Biso   1.000  H
  H80      1.0000 0.75584  0.21085  0.53462  Biso   1.000  H
  H81      1.0000 0.04086  0.28528  0.76765  Biso   1.000  H
  H82      1.0000 0.30418  0.97111  0.78480  Biso   1.000  H
  H83      1.0000 0.22537  0.24944  0.95674  Biso   1.000  H
  H84      1.0000 0.47483  0.24427  0.78671  Biso   1.000  H
  H85      1.0000 0.24125  0.43972  0.21015  Biso   1.000  H
  H86      1.0000 0.21228  0.23647  0.47898  Biso   1.000  H
  H87      1.0000 0.48307  0.25337  0.29493  Biso   1.000  H
  H88      1.0000 0.78764  0.45627  0.23825  Biso   1.000  H
  H89      1.0000 0.72201  0.23731  0.97073  Biso   1.000  H
  H90      1.0000 0.99071  0.26221  0.21606  Biso   1.000  H
  H91      1.0000 0.20788  0.94693  0.26924  Biso   1.000  H
  H92      1.0000 0.28658  0.73844  0.47687  Biso   1.000  H
  H93      1.0000 0.98098  0.70207  0.23200  Biso   1.000  H
  H94      1.0000 0.75305  0.97874  0.28724  Biso   1.000  H
  H95      1.0000 0.78803  0.73654  0.03026  Biso   1.000  H
  H96      1.0000 0.46000  0.70655  0.26430  Biso   1.000  H
  H97      1.0000 0.87020  0.01009  0.90687  Biso   1.000  H
  H98      1.0000 0.90958  0.85715  0.00775  Biso   1.000  H
  H99      1.0000 0.00751  0.90115  0.87287  Biso   1.000  H
  H100     1.0000 0.37221  0.99728  0.60878  Biso   1.000  H
  H101     1.0000 0.41207  0.85752  0.52048  Biso   1.000  H
  H102     1.0000 0.50630  0.91143  0.64085  Biso   1.000  H
  H103     1.0000 0.63626  0.49752  0.90740  Biso   1.000  H
  H104     1.0000 0.60013  0.36551  0.00262  Biso   1.000  H
  H105     1.0000 0.51030  0.40891  0.86891  Biso   1.000  H
  H106     1.0000 0.13747  0.49327  0.59672  Biso   1.000  H
  H107     1.0000 0.09410  0.36878  0.51450  Biso   1.000  H
  H108     1.0000 0.01246  0.40542  0.63829  Biso   1.000  H
  H109     1.0000 0.12270  0.99294  0.10804  Biso   1.000  H
  H110     1.0000 0.08696  0.13726  0.98746  Biso   1.000  H
  H111     1.0000 0.99541  0.09138  0.13522  Biso   1.000  H
  H112     1.0000 0.61818  0.00243  0.40323  Biso   1.000  H
  H113     1.0000 0.59030  0.13451  0.50584  Biso   1.000  H
  H114     1.0000 0.50119  0.07877  0.37036  Biso   1.000  H
  H115     1.0000 0.36896  0.49793  0.10257  Biso   1.000  H
  H116     1.0000 0.40673  0.62668  0.00965  Biso   1.000  H
  H117     1.0000 0.50658  0.57548  0.14293  Biso   1.000  H
  H118     1.0000 0.86297  0.50322  0.41187  Biso   1.000  H
  H119     1.0000 0.90961  0.62941  0.51172  Biso   1.000  H
  H120     1.0000 0.99230  0.58415  0.36849  Biso   1.000  H
  H121     1.0000 0.09505  0.99899  0.88172  Biso   1.000  H
  H122     1.0000 0.87196  0.08420  0.00275  Biso   1.000  H
  H123     1.0000 0.99478  0.86406  0.09056  Biso   1.000  H
  H124     1.0000 0.59364  0.98821  0.62979  Biso   1.000  H
  H125     1.0000 0.36996  0.08618  0.51675  Biso   1.000  H
  H126     1.0000 0.50134  0.85263  0.41856  Biso   1.000  H
  H127     1.0000 0.41015  0.50295  0.87710  Biso   1.000  H
  H128     1.0000 0.62985  0.58603  0.00286  Biso   1.000  H
  H129     1.0000 0.50711  0.36033  0.09401  Biso   1.000  H
  H130     1.0000 0.91531  0.50233  0.63770  Biso   1.000  H
  H131     1.0000 0.13962  0.58973  0.51077  Biso   1.000  H
  H132     1.0000 0.99104  0.36250  0.41699  Biso   1.000  H
  H133     1.0000 0.89949  0.98913  0.12893  Biso   1.000  H
  H134     1.0000 0.12185  0.90321  0.01794  Biso   1.000  H
  H135     1.0000 0.99782  0.12943  0.91577  Biso   1.000  H
  H136     1.0000 0.39781  0.98633  0.37775  Biso   1.000  H
  H137     1.0000 0.62662  0.90773  0.49267  Biso   1.000  H
  H138     1.0000 0.49867  0.13863  0.58582  Biso   1.000  H
  H139     1.0000 0.58815  0.48705  0.14360  Biso   1.000  H
  H140     1.0000 0.37466  0.40074  0.00311  Biso   1.000  H
  H141     1.0000 0.50516  0.63285  0.91861  Biso   1.000  H
  H142     1.0000 0.09317  0.49130  0.37339  Biso   1.000  H
  H143     1.0000 0.86422  0.40735  0.50332  Biso   1.000  H
  H144     1.0000 0.00251  0.62944  0.59338  Biso   1.000  H
  H145     1.0000 0.59547  0.49158  0.86325  Biso   1.000  H
  H146     1.0000 0.86400  0.58906  0.51333  Biso   1.000  H
  H147     1.0000 0.50438  0.86739  0.60002  Biso   1.000  H
  H148     1.0000 0.09908  0.49392  0.63583  Biso   1.000  H
  H149     1.0000 0.37060  0.58927  0.01605  Biso   1.000  H
  H150     1.0000 0.99678  0.86264  0.91032  Biso   1.000  H
  H151     1.0000 0.91546  0.01196  0.86339  Biso   1.000  H
  H152     1.0000 0.62895  0.09143  0.50067  Biso   1.000  H
  H153     1.0000 0.99943  0.36380  0.59900  Biso   1.000  H
  H154     1.0000 0.40927  0.00495  0.64550  Biso   1.000  H
  H155     1.0000 0.12682  0.09156  0.00584  Biso   1.000  H
  H156     1.0000 0.50527  0.36300  0.91347  Biso   1.000  H
  H157     1.0000 0.40854  0.49754  0.14460  Biso   1.000  H
  H158     1.0000 0.13433  0.40825  0.51866  Biso   1.000  H
  H159     1.0000 0.49733  0.12631  0.40728  Biso   1.000  H
  H160     1.0000 0.90774  0.50296  0.36907  Biso   1.000  H
  H161     1.0000 0.63752  0.40484  0.01087  Biso   1.000  H
  H162     1.0000 0.99838  0.13404  0.09521  Biso   1.000  H
  H163     1.0000 0.08260  0.98849  0.14322  Biso   1.000  H
  H164     1.0000 0.36820  0.90355  0.52152  Biso   1.000  H
  H165     1.0000 0.00089  0.62689  0.40813  Biso   1.000  H
  H166     1.0000 0.57701  0.99415  0.36057  Biso   1.000  H
  H167     1.0000 0.86151  0.90717  0.00539  Biso   1.000  H
  H168     1.0000 0.50538  0.62249  0.10178  Biso   1.000  H
  H169     1.0000 0.00731  0.09104  0.87581  Biso   1.000  H
  H170     1.0000 0.85775  0.99432  0.08743  Biso   1.000  H
  H171     1.0000 0.08366  0.86120  0.01343  Biso   1.000  H
  H172     1.0000 0.51237  0.09664  0.63117  Biso   1.000  H
  H173     1.0000 0.36466  0.99302  0.42044  Biso   1.000  H
  H174     1.0000 0.58820  0.86130  0.50479  Biso   1.000  H
  H175     1.0000 0.49759  0.58998  0.87381  Biso   1.000  H
  H176     1.0000 0.62573  0.48480  0.09514  Biso   1.000  H
  H177     1.0000 0.41320  0.35810  0.00374  Biso   1.000  H
  H178     1.0000 0.00290  0.58932  0.63295  Biso   1.000  H
  H179     1.0000 0.13316  0.49643  0.41058  Biso   1.000  H
  H180     1.0000 0.90175  0.36481  0.49254  Biso   1.000  H
  H181     1.0000 0.99000  0.90354  0.13574  Biso   1.000  H
  H182     1.0000 0.13269  0.00019  0.92198  Biso   1.000  H
  H183     1.0000 0.91462  0.12561  0.00449  Biso   1.000  H
  H184     1.0000 0.48763  0.89478  0.37811  Biso   1.000  H
  H185     1.0000 0.63731  0.99045  0.58420  Biso   1.000  H
  H186     1.0000 0.40973  0.12296  0.50290  Biso   1.000  H
  H187     1.0000 0.49948  0.40265  0.14166  Biso   1.000  H
  H188     1.0000 0.36572  0.51380  0.91999  Biso   1.000  H
  H189     1.0000 0.59032  0.62978  0.00688  Biso   1.000  H
  H190     1.0000 0.99610  0.40154  0.37320  Biso   1.000  H
  H191     1.0000 0.86956  0.50508  0.59554  Biso   1.000  H
  H192     1.0000 0.09312  0.63022  0.51019  Biso   1.000  H
  H193     1.0000 0.27359  0.85231  0.51374  Biso   1.000  H
  H194     1.0000 0.51970  0.26854  0.85728  Biso   1.000  H
  H195     1.0000 0.85526  0.48167  0.27493  Biso   1.000  H
  H196     1.0000 0.76764  0.84999  0.99933  Biso   1.000  H
  H197     1.0000 0.99930  0.26685  0.65046  Biso   1.000  H
  H198     1.0000 0.35592  0.46671  0.23447  Biso   1.000  H
  H199     1.0000 0.22915  0.35346  0.50948  Biso   1.000  H
  H200     1.0000 0.97064  0.76818  0.85797  Biso   1.000  H
  H201     1.0000 0.63097  0.97193  0.26555  Biso   1.000  H
  H202     1.0000 0.73734  0.35431  0.99931  Biso   1.000  H
  H203     1.0000 0.49421  0.77337  0.65516  Biso   1.000  H
  H204     1.0000 0.12691  0.98859  0.24565  Biso   1.000  H
  H205     1.0000 0.72666  0.14077  0.50084  Biso   1.000  H
  H206     1.0000 0.51152  0.71417  0.16223  Biso   1.000  H
  H207     1.0000 0.14710  0.49743  0.73310  Biso   1.000  H
  H208     1.0000 0.22838  0.13584  0.00669  Biso   1.000  H
  H209     1.0000 0.99664  0.72352  0.35251  Biso   1.000  H
  H210     1.0000 0.65193  0.51589  0.77089  Biso   1.000  H
  H211     1.0000 0.77109  0.64572  0.49503  Biso   1.000  H
  H212     1.0000 0.02621  0.22543  0.15296  Biso   1.000  H
  H213     1.0000 0.36253  0.01185  0.74485  Biso   1.000  H
  H214     1.0000 0.27044  0.63547  0.02278  Biso   1.000  H
  H215     1.0000 0.50737  0.21382  0.34454  Biso   1.000  H
  H216     1.0000 0.86495  0.00228  0.76730  Biso   1.000  H
  H217     1.0000 0.22909  0.50294  0.35617  Biso   1.000  H
  H218     1.0000 0.35792  0.21977  0.49512  Biso   1.000  H
  H219     1.0000 0.48355  0.34672  0.23421  Biso   1.000  H
  H220     1.0000 0.72763  0.48444  0.14658  Biso   1.000  H
  H221     1.0000 0.86018  0.22354  0.00682  Biso   1.000  H
  H222     1.0000 0.00055  0.35057  0.27702  Biso   1.000  H
  H223     1.0000 0.26201  0.98761  0.38123  Biso   1.000  H
  H224     1.0000 0.14303  0.72626  0.52410  Biso   1.000  H
  H225     1.0000 0.99941  0.85016  0.23009  Biso   1.000  H
  H226     1.0000 0.75787  0.00360  0.13273  Biso   1.000  H
  H227     1.0000 0.64210  0.72555  0.00168  Biso   1.000  H
  H228     1.0000 0.48302  0.83607  0.28222  Biso   1.000  H
  H229     1.0000 0.77570  0.52286  0.64636  Biso   1.000  H
  H230     1.0000 0.65107  0.77054  0.51006  Biso   1.000  H
  H231     1.0000 0.48693  0.64717  0.78263  Biso   1.000  H
  H232     1.0000 0.26957  0.51071  0.86496  Biso   1.000  H
  H233     1.0000 0.14792  0.77557  0.98552  Biso   1.000  H
  H234     1.0000 0.98586  0.64033  0.72825  Biso   1.000  H
  H235     1.0000 0.73425  0.98752  0.63737  Biso   1.000  H
  H236     1.0000 0.85442  0.26731  0.50115  Biso   1.000  H
  H237     1.0000 0.00763  0.14203  0.77814  Biso   1.000  H
  H238     1.0000 0.23264  0.98981  0.87857  Biso   1.000  H
  H239     1.0000 0.36293  0.26404  0.98803  Biso   1.000  H
  H240     1.0000 0.51724  0.15549  0.72314  Biso   1.000  H
  H241     1.0000 0.73041  0.52089  0.85945  Biso   1.000  H
  H242     1.0000 0.85652  0.72714  0.50053  Biso   1.000  H
  H243     1.0000 0.50910  0.86206  0.73985  Biso   1.000  H
  H244     1.0000 0.23364  0.50327  0.64630  Biso   1.000  H
  H245     1.0000 0.35493  0.72360  0.00872  Biso   1.000  H
  H246     1.0000 0.98374  0.85857  0.77353  Biso   1.000  H
  H247     1.0000 0.77615  0.00340  0.85080  Biso   1.000  H
  H248     1.0000 0.64340  0.22937  0.50008  Biso   1.000  H
  H249     1.0000 0.01626  0.35587  0.73585  Biso   1.000  H
  H250     1.0000 0.27706  0.98890  0.66147  Biso   1.000  H
  H251     1.0000 0.15011  0.22689  0.98621  Biso   1.000  H
  H252     1.0000 0.51403  0.35300  0.77362  Biso   1.000  H
  H253     1.0000 0.27346  0.47219  0.15259  Biso   1.000  H
  H254     1.0000 0.14358  0.27076  0.51419  Biso   1.000  H
  H255     1.0000 0.47991  0.12526  0.27152  Biso   1.000  H
  H256     1.0000 0.77242  0.47744  0.35776  Biso   1.000  H
  H257     1.0000 0.65325  0.26764  0.00570  Biso   1.000  H
  H258     1.0000 0.00059  0.13828  0.23383  Biso   1.000  H
  H259     1.0000 0.21723  0.98761  0.16462  Biso   1.000  H
  H260     1.0000 0.35662  0.76140  0.51806  Biso   1.000  H
  H261     1.0000 0.99896  0.63132  0.26748  Biso   1.000  H
  H262     1.0000 0.71069  0.01644  0.34432  Biso   1.000  H
  H263     1.0000 0.85090  0.76721  0.99485  Biso   1.000  H
  H264     1.0000 0.49452  0.63008  0.23982  Biso   1.000  H
  H265     1.0000 0.99318  0.23100  0.86740  Biso   1.000  H
  H266     1.0000 0.84276  0.99100  0.22473  Biso   1.000  H
  H267     1.0000 0.22257  0.85537  0.02292  Biso   1.000  H
  H268     1.0000 0.49522  0.23595  0.63777  Biso   1.000  H
  H269     1.0000 0.33795  0.99078  0.28464  Biso   1.000  H
  H270     1.0000 0.72387  0.85773  0.47668  Biso   1.000  H
  H271     1.0000 0.48915  0.72943  0.87226  Biso   1.000  H
  H272     1.0000 0.64567  0.48579  0.23661  Biso   1.000  H
  H273     1.0000 0.27609  0.35484  0.00745  Biso   1.000  H
  H274     1.0000 0.99016  0.72995  0.64183  Biso   1.000  H
  H275     1.0000 0.13668  0.47712  0.27346  Biso   1.000  H
  H276     1.0000 0.76495  0.35833  0.50166  Biso   1.000  H
  H277     1.0000 0.00318  0.76648  0.14074  Biso   1.000  H
  H278     1.0000 0.15416  0.99075  0.78652  Biso   1.000  H
  H279     1.0000 0.77538  0.13645  0.99978  Biso   1.000  H
  H280     1.0000 0.52067  0.76015  0.36459  Biso   1.000  H
  H281     1.0000 0.64793  0.99062  0.72261  Biso   1.000  H
  H282     1.0000 0.27216  0.14041  0.52490  Biso   1.000  H
  H283     1.0000 0.49843  0.26299  0.14660  Biso   1.000  H
  H284     1.0000 0.35695  0.50423  0.78121  Biso   1.000  H
  H285     1.0000 0.72896  0.63392  0.99241  Biso   1.000  H
  H286     1.0000 0.01773  0.26482  0.36611  Biso   1.000  H
  H287     1.0000 0.86144  0.51500  0.73424  Biso   1.000  H
  H288     1.0000 0.23294  0.64056  0.50595  Biso   1.000  H
  H289     1.0000 0.09385  0.23032  0.98813  Biso   1.000  H
  H290     1.0000 0.98935  0.08520  0.22879  Biso   1.000  H
  H291     1.0000 0.21682  0.99807  0.10926  Biso   1.000  H
  H292     1.0000 0.58911  0.22908  0.50336  Biso   1.000  H
  H293     1.0000 0.47139  0.07144  0.27781  Biso   1.000  H
  H294     1.0000 0.71273  0.02244  0.39642  Biso   1.000  H
  H295     1.0000 0.41079  0.72210  0.01645  Biso   1.000  H
  H296     1.0000 0.49149  0.57251  0.23822  Biso   1.000  H
  H297     1.0000 0.27358  0.47701  0.09650  Biso   1.000  H
  H298     1.0000 0.91054  0.72155  0.49878  Biso   1.000  H
  H299     1.0000 0.00390  0.57723  0.27077  Biso   1.000  H
  H300     1.0000 0.76915  0.49553  0.40752  Biso   1.000  H
  H301     1.0000 0.90669  0.76507  0.99790  Biso   1.000  H
  H302     1.0000 0.99810  0.90864  0.77772  Biso   1.000  H
  H303     1.0000 0.77429  0.99928  0.90269  Biso   1.000  H
  H304     1.0000 0.41166  0.76375  0.50580  Biso   1.000  H
  H305     1.0000 0.51234  0.91829  0.73490  Biso   1.000  H
  H306     1.0000 0.27816  0.98998  0.60551  Biso   1.000  H
  H307     1.0000 0.60007  0.26832  0.00221  Biso   1.000  H
  H308     1.0000 0.50640  0.40497  0.77344  Biso   1.000  H
  H309     1.0000 0.73057  0.51357  0.91124  Biso   1.000  H
  H310     1.0000 0.09157  0.27333  0.51782  Biso   1.000  H
  H311     1.0000 0.02003  0.41082  0.73388  Biso   1.000  H
  H312     1.0000 0.23095  0.50448  0.59123  Biso   1.000  H
  H313     1.0000 0.22812  0.99951  0.93394  Biso   1.000  H
  H314     1.0000 0.91309  0.22343  0.00188  Biso   1.000  H
  H315     1.0000 0.99819  0.90630  0.23000  Biso   1.000  H
  H316     1.0000 0.73223  0.98935  0.58156  Biso   1.000  H
  H317     1.0000 0.41317  0.21792  0.48598  Biso   1.000  H
  H318     1.0000 0.46991  0.88919  0.28170  Biso   1.000  H
  H319     1.0000 0.27098  0.51219  0.92207  Biso   1.000  H
  H320     1.0000 0.58570  0.72327  0.00722  Biso   1.000  H
  H321     1.0000 0.48481  0.39746  0.23695  Biso   1.000  H
  H322     1.0000 0.77536  0.51838  0.59349  Biso   1.000  H
  H323     1.0000 0.08970  0.72421  0.51943  Biso   1.000  H
  H324     1.0000 0.99233  0.40082  0.27655  Biso   1.000  H
  H325     1.0000 0.76226  0.00400  0.08143  Biso   1.000  H
  H326     1.0000 0.09651  0.77572  0.97265  Biso   1.000  H
  H327     1.0000 0.00930  0.08627  0.78117  Biso   1.000  H
  H328     1.0000 0.27061  0.99398  0.43786  Biso   1.000  H
  H329     1.0000 0.59714  0.76940  0.52472  Biso   1.000  H
  H330     1.0000 0.51844  0.10021  0.72474  Biso   1.000  H
  H331     1.0000 0.72567  0.48841  0.09335  Biso   1.000  H
  H332     1.0000 0.41533  0.26462  0.99042  Biso   1.000  H
  H333     1.0000 0.48280  0.59304  0.77967  Biso   1.000  H
  H334     1.0000 0.23016  0.50011  0.41337  Biso   1.000  H
  H335     1.0000 0.90756  0.26849  0.49443  Biso   1.000  H
  H336     1.0000 0.98901  0.58697  0.72656  Biso   1.000  H
  H337     1.0000 0.98580  0.22612  0.92098  Biso   1.000  H
  H338     1.0000 0.89802  0.98779  0.22471  Biso   1.000  H
  H339     1.0000 0.21959  0.91169  0.02708  Biso   1.000  H
  H340     1.0000 0.48763  0.23605  0.58491  Biso   1.000  H
  H341     1.0000 0.39110  0.99782  0.27939  Biso   1.000  H
  H342     1.0000 0.71916  0.91360  0.46897  Biso   1.000  H
  H343     1.0000 0.49150  0.72598  0.92478  Biso   1.000  H
  H344     1.0000 0.59406  0.48010  0.23650  Biso   1.000  H
  H345     1.0000 0.27764  0.40690  0.00848  Biso   1.000  H
  H346     1.0000 0.99930  0.72474  0.58622  Biso   1.000  H
  H347     1.0000 0.08584  0.47987  0.27807  Biso   1.000  H
  H348     1.0000 0.77068  0.41296  0.50648  Biso   1.000  H
  H349     1.0000 0.00519  0.76807  0.08501  Biso   1.000  H
  H350     1.0000 0.09956  0.99611  0.78500  Biso   1.000  H
  H351     1.0000 0.77659  0.08212  0.99671  Biso   1.000  H
  H352     1.0000 0.52407  0.76110  0.42085  Biso   1.000  H
  H353     1.0000 0.59578  0.98637  0.72347  Biso   1.000  H
  H354     1.0000 0.27353  0.08668  0.52922  Biso   1.000  H
  H355     1.0000 0.50359  0.26421  0.09243  Biso   1.000  H
  H356     1.0000 0.41147  0.49775  0.78182  Biso   1.000  H
  H357     1.0000 0.72547  0.57859  0.98949  Biso   1.000  H
  H358     1.0000 0.01644  0.26888  0.42232  Biso   1.000  H
  H359     1.0000 0.91255  0.50215  0.73215  Biso   1.000  H
  H360     1.0000 0.23166  0.58644  0.49508  Biso   1.000  H
  H361     1.0000 0.99551  0.72263  0.40896  Biso   1.000  H
  H362     1.0000 0.41735  0.01776  0.74011  Biso   1.000  H
  H363     1.0000 0.73296  0.40796  0.99883  Biso   1.000  H
  H364     1.0000 0.50949  0.71900  0.10507  Biso   1.000  H
  H365     1.0000 0.91929  0.99780  0.76917  Biso   1.000  H
  H366     1.0000 0.22780  0.40565  0.50358  Biso   1.000  H
  H367     1.0000 0.51355  0.21857  0.40057  Biso   1.000  H
  H368     1.0000 0.09530  0.49868  0.73233  Biso   1.000  H
  H369     1.0000 0.76551  0.90339  0.99792  Biso   1.000  H
  H370     1.0000 0.02702  0.22657  0.09954  Biso   1.000  H
  H371     1.0000 0.59746  0.50908  0.77014  Biso   1.000  H
  H372     1.0000 0.27409  0.90669  0.52346  Biso   1.000  H
  H373     1.0000 0.99506  0.26922  0.59756  Biso   1.000  H
  H374     1.0000 0.57818  0.96504  0.26802  Biso   1.000  H
  H375     1.0000 0.27367  0.58433  0.01991  Biso   1.000  H
  H376     1.0000 0.51152  0.26654  0.91191  Biso   1.000  H
  H377     1.0000 0.07347  0.99010  0.23998  Biso   1.000  H
  H378     1.0000 0.77083  0.59077  0.50101  Biso   1.000  H
  H379     1.0000 0.49125  0.77332  0.60217  Biso   1.000  H
  H380     1.0000 0.91178  0.48264  0.27387  Biso   1.000  H
  H381     1.0000 0.22391  0.08613  0.00673  Biso   1.000  H
  H382     1.0000 0.97774  0.76785  0.90875  Biso   1.000  H
  H383     1.0000 0.40868  0.48254  0.23927  Biso   1.000  H
  H384     1.0000 0.72302  0.08667  0.50234  Biso   1.000  H
  H385     1.0000 0.22416  0.45699  0.33498  Biso   1.000  H
  H386     1.0000 0.27383  0.16509  0.48735  Biso   1.000  H
  H387     1.0000 0.45927  0.31128  0.22433  Biso   1.000  H
  H388     1.0000 0.67704  0.44784  0.22456  Biso   1.000  H
  H389     1.0000 0.83055  0.21198  0.04007  Biso   1.000  H
  H390     1.0000 0.99314  0.25999  0.33375  Biso   1.000  H
  H391     1.0000 0.26363  0.95632  0.34376  Biso   1.000  H
  H392     1.0000 0.17300  0.72367  0.47930  Biso   1.000  H
  H393     1.0000 0.97385  0.76719  0.17043  Biso   1.000  H
  H394     1.0000 0.75912  0.97459  0.16334  Biso   1.000  H
  H395     1.0000 0.72342  0.67079  0.03290  Biso   1.000  H
  H396     1.0000 0.52569  0.81306  0.27831  Biso   1.000  H
  H397     1.0000 0.78358  0.55098  0.67901  Biso   1.000  H
  H398     1.0000 0.72884  0.83156  0.51610  Biso   1.000  H
  H399     1.0000 0.52398  0.67377  0.78668  Biso   1.000  H
  H400     1.0000 0.32683  0.53200  0.78084  Biso   1.000  H
  H401     1.0000 0.22668  0.82923  0.99040  Biso   1.000  H
  H402     1.0000 0.02473  0.67730  0.72150  Biso   1.000  H
  H403     1.0000 0.73241  0.96347  0.67058  Biso   1.000  H
  H404     1.0000 0.76875  0.32643  0.52808  Biso   1.000  H
  H405     1.0000 0.96758  0.22141  0.83125  Biso   1.000  H
  H406     1.0000 0.23002  0.02514  0.84218  Biso   1.000  H
  H407     1.0000 0.27650  0.32391  0.96949  Biso   1.000  H
  H408     1.0000 0.47627  0.17732  0.72103  Biso   1.000  H
  H409     1.0000 0.27846  0.44153  0.17816  Biso   1.000  H
  H410     1.0000 0.17610  0.27383  0.47731  Biso   1.000  H
  H411     1.0000 0.47525  0.21117  0.32819  Biso   1.000  H
  H412     1.0000 0.82547  0.45170  0.27765  Biso   1.000  H
  H413     1.0000 0.68856  0.27409  0.96840  Biso   1.000  H
  H414     1.0000 0.98870  0.23123  0.17740  Biso   1.000  H
  H415     1.0000 0.16694  0.94703  0.23666  Biso   1.000  H
  H416     1.0000 0.32728  0.77143  0.48345  Biso   1.000  H
  H417     1.0000 0.97580  0.66457  0.26459  Biso   1.000  H
  H418     1.0000 0.71724  0.97736  0.32370  Biso   1.000  H
  H419     1.0000 0.82081  0.77303  0.03180  Biso   1.000  H
  H420     1.0000 0.45888  0.66485  0.22883  Biso   1.000  H
  H421     1.0000 0.72203  0.54699  0.82740  Biso   1.000  H
  H422     1.0000 0.77374  0.68129  0.53415  Biso   1.000  H
  H423     1.0000 0.53112  0.77196  0.68591  Biso   1.000  H
  H424     1.0000 0.17113  0.52796  0.73332  Biso   1.000  H
  H425     1.0000 0.32088  0.71745  0.98015  Biso   1.000  H
  H426     1.0000 0.00520  0.76821  0.82817  Biso   1.000  H
  H427     1.0000 0.78288  0.03957  0.82233  Biso   1.000  H
  H428     1.0000 0.71785  0.17332  0.53033  Biso   1.000  H
  H429     1.0000 0.04409  0.31927  0.73027  Biso   1.000  H
  H430     1.0000 0.33917  0.97409  0.74708  Biso   1.000  H
  H431     1.0000 0.18538  0.21323  0.95073  Biso   1.000  H
  H432     1.0000 0.48179  0.28174  0.82773  Biso   1.000  H
  H433     1.0000 0.27409  0.02159  0.69319  Biso   1.000  H
  H434     1.0000 0.73479  0.32507  0.03179  Biso   1.000  H
  H435     1.0000 0.03066  0.71624  0.32418  Biso   1.000  H
  H436     1.0000 0.83134  0.97555  0.76945  Biso   1.000  H
  H437     1.0000 0.22578  0.32042  0.54390  Biso   1.000  H
  H438     1.0000 0.54420  0.70091  0.19404  Biso   1.000  H
  H439     1.0000 0.23198  0.47285  0.68017  Biso   1.000  H
  H440     1.0000 0.77735  0.81868  0.96378  Biso   1.000  H
  H441     1.0000 0.51207  0.15378  0.26182  Biso   1.000  H
  H442     1.0000 0.68314  0.48117  0.77282  Biso   1.000  H
  H443     1.0000 0.27228  0.82546  0.53994  Biso   1.000  H
  H444     1.0000 0.03834  0.16579  0.23077  Biso   1.000  H
  H445     1.0000 0.65426  0.02201  0.26192  Biso   1.000  H
  H446     1.0000 0.27383  0.67294  0.04769  Biso   1.000  H
  H447     1.0000 0.96880  0.27830  0.68624  Biso   1.000  H
  H448     1.0000 0.19706  0.03010  0.20306  Biso   1.000  H
  H449     1.0000 0.83358  0.72324  0.47186  Biso   1.000  H
  H450     1.0000 0.54862  0.32276  0.77723  Biso   1.000  H
  H451     1.0000 0.77599  0.51926  0.32410  Biso   1.000  H
  H452     1.0000 0.21876  0.17430  0.03229  Biso   1.000  H
  H453     1.0000 0.47981  0.83192  0.74118  Biso   1.000  H
  H454     1.0000 0.32095  0.50457  0.23812  Biso   1.000  H
  H455     1.0000 0.67329  0.22437  0.46845  Biso   1.000  H
  H456     1.0000 0.95515  0.82790  0.77161  Biso   1.000  H
  H457     1.0000 0.67632  0.77017  0.46374  Biso   1.000  H
  H458     1.0000 0.46069  0.72403  0.83396  Biso   1.000  H
  H459     1.0000 0.82611  0.48129  0.72654  Biso   1.000  H
  H460     1.0000 0.16493  0.76987  0.02999  Biso   1.000  H
  H461     1.0000 0.95208  0.71934  0.67440  Biso   1.000  H
  H462     1.0000 0.27433  0.47333  0.83487  Biso   1.000  H
  H463     1.0000 0.82465  0.26796  0.47126  Biso   1.000  H
  H464     1.0000 0.04195  0.17660  0.78870  Biso   1.000  H
  H465     1.0000 0.67574  0.02791  0.71710  Biso   1.000  H
  H466     1.0000 0.32880  0.26724  0.02851  Biso   1.000  H
  H467     1.0000 0.52795  0.23770  0.66502  Biso   1.000  H
  H468     1.0000 0.18707  0.95215  0.79615  Biso   1.000  H
  H469     1.0000 0.33424  0.22537  0.53055  Biso   1.000  H
  H470     1.0000 0.53060  0.26715  0.17724  Biso   1.000  H
  H471     1.0000 0.17001  0.50228  0.27318  Biso   1.000  H
  H472     1.0000 0.78324  0.17069  0.97223  Biso   1.000  H
  H473     1.0000 0.03541  0.32533  0.28085  Biso   1.000  H
  H474     1.0000 0.72191  0.51573  0.17756  Biso   1.000  H
  H475     1.0000 0.22787  0.67309  0.53819  Biso   1.000  H
  H476     1.0000 0.03385  0.82041  0.22594  Biso   1.000  H
  H477     1.0000 0.30435  0.02334  0.29423  Biso   1.000  H
  H478     1.0000 0.67258  0.72018  0.97026  Biso   1.000  H
  H479     1.0000 0.48139  0.75570  0.34167  Biso   1.000  H
  H480     1.0000 0.81338  0.02260  0.22454  Biso   1.000  H
  N1       1.0000 0.67329  0.17580  0.49844  Biso   1.000  N
  N2       1.0000 0.50342  0.66033  0.18774  Biso   1.000  N
  N3       1.0000 0.18083  0.50134  0.68175  Biso   1.000  N
  N4       1.0000 0.17627  0.17352  0.99328  Biso   1.000  N
  N5       1.0000 1.00000  0.66773  0.32076  Biso   1.000  N
  N6       1.0000 0.68126  0.50894  0.82489  Biso   1.000  N
  N7       1.0000 0.82449  0.67531  0.50220  Biso   1.000  N
  N8       1.0000 0.00814  0.17163  0.18204  Biso   1.000  N
  N9       1.0000 0.32855  0.99870  0.69256  Biso   1.000  N
  N10      1.0000 0.32206  0.67199  0.01563  Biso   1.000  N
  N11      1.0000 0.49553  0.16049  0.31966  Biso   1.000  N
  N12      1.0000 0.82963  0.00743  0.81898  Biso   1.000  N
  N13      1.0000 0.32515  0.81819  0.51846  Biso   1.000  N
  N14      1.0000 0.51626  0.32296  0.82702  Biso   1.000  N
  N15      1.0000 0.82502  0.48564  0.32558  Biso   1.000  N
  N16      1.0000 0.82119  0.81995  0.99998  Biso   1.000  N
  N17      1.0000 0.00707  0.32154  0.68326  Biso   1.000  N
  N18      1.0000 0.32521  0.47701  0.18431  Biso   1.000  N
  N19      1.0000 0.17678  0.32150  0.51237  Biso   1.000  N
  N20      1.0000 0.98035  0.82224  0.82621  Biso   1.000  N
  N21      1.0000 0.66030  0.99797  0.31573  Biso   1.000  N
  N22      1.0000 0.68497  0.32126  0.00239  Biso   1.000  N
  N23      1.0000 0.50346  0.82706  0.68860  Biso   1.000  N
  N24      1.0000 0.16125  0.98825  0.19361  Biso   1.000  N
  N25      1.0000 0.82878  0.51511  0.67994  Biso   1.000  N
  N26      1.0000 0.67623  0.82296  0.49146  Biso   1.000  N
  N27      1.0000 0.49351  0.67703  0.83470  Biso   1.000  N
  N28      1.0000 0.32455  0.50317  0.83343  Biso   1.000  N
  N29      1.0000 0.17201  0.82366  0.01207  Biso   1.000  N
  N30      1.0000 0.99125  0.67529  0.67527  Biso   1.000  N
  N31      1.0000 0.68097  0.99358  0.67019  Biso   1.000  N
  N32      1.0000 0.81908  0.32136  0.49839  Biso   1.000  N
  N33      1.0000 0.00216  0.17550  0.83232  Biso   1.000  N
  N34      1.0000 0.18294  0.99059  0.84267  Biso   1.000  N
  N35      1.0000 0.32793  0.31870  0.99971  Biso   1.000  N
  N36      1.0000 0.50428  0.18249  0.67027  Biso   1.000  N
  N37      1.0000 0.17497  0.48792  0.32647  Biso   1.000  N
  N38      1.0000 0.32624  0.16892  0.50827  Biso   1.000  N
  N39      1.0000 0.49604  0.31471  0.17910  Biso   1.000  N
  N40      1.0000 0.67623  0.48382  0.17870  Biso   1.000  N
  N41      1.0000 0.82953  0.16779  0.00462  Biso   1.000  N
  N42      1.0000 0.00801  0.31513  0.33122  Biso   1.000  N
  N43      1.0000 0.31050  0.99044  0.34223  Biso   1.000  N
  N44      1.0000 0.17800  0.67557  0.51243  Biso   1.000  N
  N45      1.0000 0.99892  0.81794  0.17592  Biso   1.000  N
  N46      1.0000 0.81092  0.99564  0.17171  Biso   1.000  N
  N47      1.0000 0.67519  0.67055  0.00144  Biso   1.000  N
  N48      1.0000 0.50104  0.80856  0.33540  Biso   1.000  N
  O1       1.0000 0.34849  0.53754  0.01503  Biso   1.000  O
  O2       1.0000 0.99298  0.34246  0.55130  Biso   1.000  O
  O3       1.0000 0.52837  0.97930  0.34125  Biso   1.000  O
  O4       1.0000 0.84329  0.54098  0.50574  Biso   1.000  O
  O5       1.0000 0.51094  0.33554  0.96353  Biso   1.000  O
  O6       1.0000 0.03074  0.99708  0.16242  Biso   1.000  O
  O7       1.0000 0.14859  0.04080  0.01559  Biso   1.000  O
  O8       1.0000 0.49692  0.83907  0.55209  Biso   1.000  O
  O9       1.0000 0.95751  0.49756  0.34595  Biso   1.000  O
  O10      1.0000 0.65175  0.04281  0.50202  Biso   1.000  O
  O11      1.0000 0.99614  0.83615  0.95992  Biso   1.000  O
  O12      1.0000 0.45732  0.49176  0.16619  Biso   1.000  O
  O13      1.0000 0.65832  0.45515  0.00113  Biso   1.000  O
  O14      1.0000 0.00543  0.64887  0.45587  Biso   1.000  O
  O15      1.0000 0.46152  0.00603  0.66569  Biso   1.000  O
  O16      1.0000 0.15710  0.45524  0.50590  Biso   1.000  O
  O17      1.0000 0.50082  0.64782  0.05417  Biso   1.000  O
  O18      1.0000 0.96346  0.00070  0.84846  Biso   1.000  O
  O19      1.0000 0.84127  0.95288  0.99534  Biso   1.000  O
  O20      1.0000 0.50758  0.15273  0.45610  Biso   1.000  O
  O21      1.0000 0.04578  0.49591  0.66070  Biso   1.000  O
  O22      1.0000 0.34541  0.95233  0.51287  Biso   1.000  O
  O23      1.0000 0.00800  0.15714  0.04789  Biso   1.000  O
  O24      1.0000 0.54875  0.50174  0.84523  Biso   1.000  O
  O25      1.0000 0.94780  0.99344  0.15408  Biso   1.000  O
  O26      1.0000 0.14785  0.95709  0.01524  Biso   1.000  O
  O27      1.0000 0.99845  0.15410  0.96527  Biso   1.000  O
  O28      1.0000 0.44584  0.99133  0.35012  Biso   1.000  O
  O29      1.0000 0.64919  0.96133  0.48916  Biso   1.000  O
  O30      1.0000 0.49798  0.16016  0.54043  Biso   1.000  O
  O31      1.0000 0.54241  0.48522  0.16444  Biso   1.000  O
  O32      1.0000 0.35227  0.45424  0.00327  Biso   1.000  O
  O33      1.0000 0.49561  0.65163  0.97016  Biso   1.000  O
  O34      1.0000 0.04058  0.48817  0.34893  Biso   1.000  O
  O35      1.0000 0.84097  0.45552  0.50397  Biso   1.000  O
  O36      1.0000 0.00111  0.65045  0.54259  Biso   1.000  O
  O37      1.0000 0.04742  0.99401  0.85875  Biso   1.000  O
  O38      1.0000 0.84757  0.03437  0.99727  Biso   1.000  O
  O39      1.0000 0.99661  0.84170  0.04104  Biso   1.000  O
  O40      1.0000 0.54602  0.00225  0.65521  Biso   1.000  O
  O41      1.0000 0.34688  0.03670  0.51512  Biso   1.000  O
  O42      1.0000 0.50172  0.83369  0.46808  Biso   1.000  O
  O43      1.0000 0.46155  0.50360  0.84991  Biso   1.000  O
  O44      1.0000 0.65633  0.53589  0.00197  Biso   1.000  O
  O45      1.0000 0.50520  0.33711  0.04743  Biso   1.000  O
  O46      1.0000 0.96074  0.49478  0.66049  Biso   1.000  O
  O47      1.0000 0.15778  0.54036  0.50317  Biso   1.000  O
  O48      1.0000 0.00031  0.34150  0.46733  Biso   1.000  O
  O49      1.0000 0.98973  0.95259  0.15930  Biso   1.000  O
  O50      1.0000 0.15182  0.00399  0.97593  Biso   1.000  O
  O51      1.0000 0.96181  0.15146  0.00819  Biso   1.000  O
  O52      1.0000 0.48453  0.94300  0.35016  Biso   1.000  O
  O53      1.0000 0.65760  0.99641  0.53518  Biso   1.000  O
  O54      1.0000 0.46196  0.14819  0.49487  Biso   1.000  O
  O55      1.0000 0.49689  0.44833  0.16631  Biso   1.000  O
  O56      1.0000 0.34603  0.50748  0.96725  Biso   1.000  O
  O57      1.0000 0.54035  0.65289  0.01021  Biso   1.000  O
  O58      1.0000 0.99419  0.45028  0.34805  Biso   1.000  O
  O59      1.0000 0.84311  0.50065  0.54469  Biso   1.000  O
  O60      1.0000 0.04498  0.65157  0.50379  Biso   1.000  O
  O61      1.0000 0.01060  0.04052  0.85298  Biso   1.000  O
  O62      1.0000 0.83665  0.99203  0.03544  Biso   1.000  O
  O63      1.0000 0.03831  0.83848  0.00045  Biso   1.000  O
  O64      1.0000 0.50860  0.04788  0.65815  Biso   1.000  O
  O65      1.0000 0.34605  0.99056  0.47247  Biso   1.000  O
  O66      1.0000 0.54320  0.83584  0.51202  Biso   1.000  O
  O67      1.0000 0.50513  0.54297  0.84950  Biso   1.000  O
  O68      1.0000 0.65166  0.49256  0.04527  Biso   1.000  O
  O69      1.0000 0.46527  0.33608  0.00190  Biso   1.000  O
  O70      1.0000 0.00766  0.53876  0.65775  Biso   1.000  O
  O71      1.0000 0.15875  0.49631  0.46259  Biso   1.000  O
  O72      1.0000 0.95334  0.34431  0.50401  Biso   1.000  O
  O73      1.0000 0.00759  0.45561  0.66000  Biso   1.000  O
  O74      1.0000 0.64662  0.00900  0.45230  Biso   1.000  O
  O75      1.0000 0.45795  0.64906  0.01748  Biso   1.000  O
  O76      1.0000 0.50690  0.45926  0.84902  Biso   1.000  O
  O77      1.0000 0.14843  0.99842  0.05995  Biso   1.000  O
  O78      1.0000 0.95899  0.65073  0.49979  Biso   1.000  O
  O79      1.0000 0.50361  0.96204  0.66075  Biso   1.000  O
  O80      1.0000 0.84363  0.49752  0.46067  Biso   1.000  O
  O81      1.0000 0.04319  0.16085  0.99740  Biso   1.000  O
  O82      1.0000 0.00712  0.95516  0.85067  Biso   1.000  O
  O83      1.0000 0.34580  0.49476  0.05188  Biso   1.000  O
  O84      1.0000 0.54167  0.15916  0.50373  Biso   1.000  O
  O85      1.0000 0.00234  0.53301  0.34329  Biso   1.000  O
  O86      1.0000 0.34749  0.99260  0.55771  Biso   1.000  O
  O87      1.0000 0.55002  0.33805  0.00522  Biso   1.000  O
  O88      1.0000 0.50452  0.52938  0.16541  Biso   1.000  O
  O89      1.0000 0.84233  0.99991  0.95395  Biso   1.000  O
  O90      1.0000 0.04277  0.34733  0.51172  Biso   1.000  O
  O91      1.0000 0.49320  0.02608  0.34725  Biso   1.000  O
  O92      1.0000 0.15982  0.49849  0.54748  Biso   1.000  O
  O93      1.0000 0.95291  0.83692  0.00008  Biso   1.000  O
  O94      1.0000 0.98893  0.03884  0.15818  Biso   1.000  O
  O95      1.0000 0.65844  0.49630  0.95828  Biso   1.000  O
  O96      1.0000 0.45769  0.83481  0.50965  Biso   1.000  O
  O97      1.0000 0.45838  0.19606  0.49110  Biso   1.000  O
  O98      1.0000 0.50427  0.44599  0.21511  Biso   1.000  O
  O99      1.0000 0.20567  0.49551  0.46091  Biso   1.000  O
  O100     1.0000 0.96093  0.19994  0.00920  Biso   1.000  O
  O101     1.0000 0.99830  0.44917  0.29936  Biso   1.000  O
  O102     1.0000 0.70068  0.49507  0.04558  Biso   1.000  O
  O103     1.0000 0.04334  0.69922  0.50502  Biso   1.000  O
  O104     1.0000 0.99149  0.95441  0.20817  Biso   1.000  O
  O105     1.0000 0.29678  0.99120  0.47623  Biso   1.000  O
  O106     1.0000 0.53817  0.70113  0.01408  Biso   1.000  O
  O107     1.0000 0.48020  0.94089  0.30285  Biso   1.000  O
  O108     1.0000 0.78930  0.99916  0.03205  Biso   1.000  O
  O109     1.0000 0.54728  0.78539  0.51487  Biso   1.000  O
  O110     1.0000 0.49680  0.54063  0.80241  Biso   1.000  O
  O111     1.0000 0.79488  0.50455  0.54576  Biso   1.000  O
  O112     1.0000 0.04075  0.78995  0.99893  Biso   1.000  O
  O113     1.0000 0.00639  0.54132  0.70601  Biso   1.000  O
  O114     1.0000 0.29969  0.49931  0.96998  Biso   1.000  O
  O115     1.0000 0.95713  0.29599  0.50597  Biso   1.000  O
  O116     1.0000 0.00982  0.03871  0.80327  Biso   1.000  O
  O117     1.0000 0.70475  0.99487  0.53166  Biso   1.000  O
  O118     1.0000 0.46535  0.28814  0.00307  Biso   1.000  O
  O119     1.0000 0.50964  0.05072  0.70617  Biso   1.000  O
  O120     1.0000 0.20041  0.00012  0.97915  Biso   1.000  O
  O121     1.0000 0.04807  0.50247  0.70752  Biso   1.000  O
  O122     1.0000 0.70164  0.04106  0.49588  Biso   1.000  O
  O123     1.0000 0.50159  0.69681  0.05674  Biso   1.000  O
  O124     1.0000 0.54302  0.50671  0.79617  Biso   1.000  O
  O125     1.0000 0.19536  0.03975  0.02490  Biso   1.000  O
  O126     1.0000 0.00288  0.69749  0.45747  Biso   1.000  O
  O127     1.0000 0.46398  0.01138  0.71330  Biso   1.000  O
  O128     1.0000 0.79475  0.53951  0.50047  Biso   1.000  O
  O129     1.0000 0.00633  0.20651  0.04823  Biso   1.000  O
  O130     1.0000 0.96755  0.99813  0.80081  Biso   1.000  O
  O131     1.0000 0.29968  0.53853  0.01794  Biso   1.000  O
  O132     1.0000 0.50384  0.20085  0.45191  Biso   1.000  O
  O133     1.0000 0.95831  0.49224  0.29823  Biso   1.000  O
  O134     1.0000 0.29583  0.95144  0.51922  Biso   1.000  O
  O135     1.0000 0.50869  0.28815  0.95877  Biso   1.000  O
  O136     1.0000 0.45976  0.48706  0.21443  Biso   1.000  O
  O137     1.0000 0.79207  0.95542  0.99358  Biso   1.000  O
  O138     1.0000 0.00017  0.29474  0.55039  Biso   1.000  O
  O139     1.0000 0.52449  0.97991  0.29416  Biso   1.000  O
  O140     1.0000 0.20496  0.45496  0.50122  Biso   1.000  O
  O141     1.0000 0.00009  0.78737  0.95485  Biso   1.000  O
  O142     1.0000 0.02705  0.00180  0.21036  Biso   1.000  O
  O143     1.0000 0.70753  0.45559  0.99958  Biso   1.000  O
  O144     1.0000 0.50094  0.79155  0.55251  Biso   1.000  O
  O145     1.0000 0.54122  0.48904  0.21355  Biso   1.000  O
  O146     1.0000 0.20603  0.53766  0.50203  Biso   1.000  O
  O147     1.0000 0.49375  0.20814  0.53567  Biso   1.000  O
  O148     1.0000 0.04175  0.49053  0.30079  Biso   1.000  O
  O149     1.0000 0.70400  0.53669  0.00552  Biso   1.000  O
  O150     1.0000 0.99540  0.20312  0.96716  Biso   1.000  O
  O151     1.0000 0.94617  0.99204  0.20239  Biso   1.000  O
  O152     1.0000 0.29849  0.03570  0.51782  Biso   1.000  O
  O153     1.0000 0.99781  0.69953  0.54144  Biso   1.000  O
  O154     1.0000 0.44137  0.98178  0.30167  Biso   1.000  O
  O155     1.0000 0.79948  0.03782  0.99627  Biso   1.000  O
  O156     1.0000 0.49503  0.70045  0.97250  Biso   1.000  O
  O157     1.0000 0.45793  0.49657  0.80118  Biso   1.000  O
  O158     1.0000 0.79211  0.45602  0.50687  Biso   1.000  O
  O159     1.0000 0.50838  0.78570  0.46984  Biso   1.000  O
  O160     1.0000 0.96211  0.49877  0.70971  Biso   1.000  O
  O161     1.0000 0.30514  0.45444  0.00558  Biso   1.000  O
  O162     1.0000 0.99819  0.79199  0.04058  Biso   1.000  O
  O163     1.0000 0.04843  0.98927  0.80930  Biso   1.000  O
  O164     1.0000 0.69650  0.95859  0.48199  Biso   1.000  O
  O165     1.0000 0.99986  0.29339  0.46637  Biso   1.000  O
  O166     1.0000 0.54969  0.00243  0.70394  Biso   1.000  O
  O167     1.0000 0.19755  0.95649  0.01833  Biso   1.000  O
  O168     1.0000 0.50372  0.28951  0.04520  Biso   1.000  O
  O169     1.0000 0.98125  0.03913  0.20503  Biso   1.000  O
  O170     1.0000 0.19635  0.99282  0.06044  Biso   1.000  O
  O171     1.0000 0.04212  0.20968  0.00010  Biso   1.000  O
  O172     1.0000 0.47774  0.02437  0.30077  Biso   1.000  O
  O173     1.0000 0.69528  0.00386  0.44749  Biso   1.000  O
  O174     1.0000 0.53856  0.20633  0.49548  Biso   1.000  O
  O175     1.0000 0.50154  0.52833  0.21522  Biso   1.000  O
  O176     1.0000 0.29872  0.48922  0.05027  Biso   1.000  O
  O177     1.0000 0.45648  0.69948  0.01974  Biso   1.000  O
  O178     1.0000 0.99761  0.53054  0.29550  Biso   1.000  O
  O179     1.0000 0.79561  0.49345  0.46092  Biso   1.000  O
  O180     1.0000 0.95970  0.69921  0.49799  Biso   1.000  O
  O181     1.0000 0.00313  0.95469  0.80327  Biso   1.000  O
  O182     1.0000 0.79365  0.00053  0.95095  Biso   1.000  O
  O183     1.0000 0.95603  0.78799  0.99786  Biso   1.000  O
  O184     1.0000 0.50303  0.96598  0.70787  Biso   1.000  O
  O185     1.0000 0.29957  0.99281  0.55815  Biso   1.000  O
  O186     1.0000 0.46211  0.78710  0.50749  Biso   1.000  O
  O187     1.0000 0.50018  0.45826  0.80078  Biso   1.000  O
  O188     1.0000 0.70763  0.49688  0.96040  Biso   1.000  O
  O189     1.0000 0.55274  0.29001  0.00367  Biso   1.000  O
  O190     1.0000 0.00953  0.45763  0.70848  Biso   1.000  O
  O191     1.0000 0.20832  0.49727  0.54524  Biso   1.000  O
  O192     1.0000 0.04129  0.29959  0.50920  Biso   1.000  O
