data_image0
_cell_length_a       46.8477
_cell_length_b       46.5031
_cell_length_c       46.4532
_cell_angle_alpha    90
_cell_angle_beta     90
_cell_angle_gamma    90

_symmetry_space_group_name_H-M    "P 1"
_symmetry_int_tables_number       1

loop_
  _symmetry_equiv_pos_as_xyz
  'x, y, z'

loop_
  _atom_site_label
  _atom_site_occupancy
  _atom_site_fract_x
  _atom_site_fract_y
  _atom_site_fract_z
  _atom_site_thermal_displace_type
  _atom_site_B_iso_or_equiv
  _atom_site_type_symbol
  C1       1.0000 0.56818  0.98613  0.34490  Biso   1.000  C
  C2       1.0000 0.32160  0.55629  0.03355  Biso   1.000  C
  C3       1.0000 0.99759  0.30322  0.58975  Biso   1.000  C
  C4       1.0000 0.07219  0.98999  0.19736  Biso   1.000  C
  C5       1.0000 0.81881  0.53421  0.52431  Biso   1.000  C
  C6       1.0000 0.49193  0.31462  0.97708  Biso   1.000  C
  C7       1.0000 0.95762  0.48805  0.34242  Biso   1.000  C
  C8       1.0000 0.17519  0.05086  0.00455  Biso   1.000  C
  C9       1.0000 0.51249  0.79930  0.56874  Biso   1.000  C
  C10      1.0000 0.45923  0.47215  0.20516  Biso   1.000  C
  C11      1.0000 0.67659  0.04104  0.52943  Biso   1.000  C
  C12      1.0000 0.01547  0.80930  0.96153  Biso   1.000  C
  C13      1.0000 0.43772  0.98603  0.69504  Biso   1.000  C
  C14      1.0000 0.67463  0.42168  0.01189  Biso   1.000  C
  C15      1.0000 0.99879  0.66916  0.46173  Biso   1.000  C
  C16      1.0000 0.93248  0.98187  0.84423  Biso   1.000  C
  C17      1.0000 0.17924  0.43308  0.52101  Biso   1.000  C
  C18      1.0000 0.50540  0.66100  0.07000  Biso   1.000  C
  C19      1.0000 0.04103  0.48973  0.70571  Biso   1.000  C
  C20      1.0000 0.82747  0.92285  0.03488  Biso   1.000  C
  C21      1.0000 0.50181  0.16917  0.47083  Biso   1.000  C
  C22      1.0000 0.54007  0.48080  0.84563  Biso   1.000  C
  C23      1.0000 0.32307  0.93052  0.50205  Biso   1.000  C
  C24      1.0000 0.98524  0.16338  0.08636  Biso   1.000  C
  C25      1.0000 0.31861  0.03899  0.50557  Biso   1.000  C
  C26      1.0000 0.48582  0.30622  0.08737  Biso   1.000  C
  C27      1.0000 0.06717  0.48143  0.33959  Biso   1.000  C
  C28      1.0000 0.82079  0.03080  0.04091  Biso   1.000  C
  C29      1.0000 0.00668  0.30333  0.48074  Biso   1.000  C
  C30      1.0000 0.56412  0.49658  0.20091  Biso   1.000  C
  C31      1.0000 0.17814  0.54200  0.52922  Biso   1.000  C
  C32      1.0000 0.00297  0.80640  0.06873  Biso   1.000  C
  C33      1.0000 0.46000  0.99196  0.33518  Biso   1.000  C
  C34      1.0000 0.68566  0.53206  0.02882  Biso   1.000  C
  C35      1.0000 0.49764  0.80610  0.46090  Biso   1.000  C
  C36      1.0000 0.96288  0.97808  0.21062  Biso   1.000  C
  C37      1.0000 0.67810  0.93304  0.53878  Biso   1.000  C
  C38      1.0000 0.51759  0.67040  0.96081  Biso   1.000  C
  C39      1.0000 0.93063  0.49083  0.70617  Biso   1.000  C
  C40      1.0000 0.18907  0.94480  0.01356  Biso   1.000  C
  C41      1.0000 0.00388  0.66515  0.57093  Biso   1.000  C
  C42      1.0000 0.43187  0.48906  0.83948  Biso   1.000  C
  C43      1.0000 0.82047  0.42866  0.51480  Biso   1.000  C
  C44      1.0000 0.99728  0.16384  0.97858  Biso   1.000  C
  C45      1.0000 0.54532  0.98166  0.70850  Biso   1.000  C
  C46      1.0000 0.31569  0.44666  0.02921  Biso   1.000  C
  C47      1.0000 0.50096  0.17005  0.58191  Biso   1.000  C
  C48      1.0000 0.04111  0.99931  0.83442  Biso   1.000  C
  C49      1.0000 0.98088  0.04683  0.84331  Biso   1.000  C
  C50      1.0000 0.82828  0.97083  0.09130  Biso   1.000  C
  C51      1.0000 0.06417  0.81342  0.01673  Biso   1.000  C
  C52      1.0000 0.49242  0.03818  0.70350  Biso   1.000  C
  C53      1.0000 0.32505  0.98656  0.45133  Biso   1.000  C
  C54      1.0000 0.55953  0.80332  0.50840  Biso   1.000  C
  C55      1.0000 0.48749  0.53767  0.83892  Biso   1.000  C
  C56      1.0000 0.68535  0.47260  0.07076  Biso   1.000  C
  C57      1.0000 0.43241  0.31111  0.03054  Biso   1.000  C
  C58      1.0000 0.98461  0.54661  0.70514  Biso   1.000  C
  C59      1.0000 0.18508  0.49073  0.47204  Biso   1.000  C
  C60      1.0000 0.94554  0.30525  0.53022  Biso   1.000  C
  C61      1.0000 0.02372  0.93235  0.19677  Biso   1.000  C
  C62      1.0000 0.17446  0.99285  0.95035  Biso   1.000  C
  C63      1.0000 0.93607  0.16558  0.02698  Biso   1.000  C
  C64      1.0000 0.51274  0.93281  0.33674  Biso   1.000  C
  C65      1.0000 0.67674  0.99184  0.58830  Biso   1.000  C
  C66      1.0000 0.44542  0.16934  0.52490  Biso   1.000  C
  C67      1.0000 0.52010  0.43505  0.20480  Biso   1.000  C
  C68      1.0000 0.31392  0.50190  0.97724  Biso   1.000  C
  C69      1.0000 0.56567  0.66599  0.01923  Biso   1.000  C
  C70      1.0000 0.01363  0.43099  0.34764  Biso   1.000  C
  C71      1.0000 0.81118  0.47662  0.57781  Biso   1.000  C
  C72      1.0000 0.05393  0.66860  0.51623  Biso   1.000  C
  C73      1.0000 0.00934  0.54198  0.34074  Biso   1.000  C
  C74      1.0000 0.31815  0.98060  0.55884  Biso   1.000  C
  C75      1.0000 0.54351  0.30464  0.03472  Biso   1.000  C
  C76      1.0000 0.50014  0.54082  0.20460  Biso   1.000  C
  C77      1.0000 0.81460  0.98045  0.98250  Biso   1.000  C
  C78      1.0000 0.05527  0.30500  0.53978  Biso   1.000  C
  C79      1.0000 0.51935  0.04011  0.34143  Biso   1.000  C
  C80      1.0000 0.17025  0.48229  0.58090  Biso   1.000  C
  C81      1.0000 0.95615  0.80418  0.00883  Biso   1.000  C
  C82      1.0000 0.00650  0.03913  0.21340  Biso   1.000  C
  C83      1.0000 0.67788  0.48552  0.96365  Biso   1.000  C
  C84      1.0000 0.45226  0.80326  0.52224  Biso   1.000  C
  C85      1.0000 0.98031  0.43666  0.70818  Biso   1.000  C
  C86      1.0000 0.67941  0.97457  0.48157  Biso   1.000  C
  C87      1.0000 0.45721  0.67274  0.00734  Biso   1.000  C
  C88      1.0000 0.48304  0.43033  0.84505  Biso   1.000  C
  C89      1.0000 0.18503  0.99856  0.06137  Biso   1.000  C
  C90      1.0000 0.94468  0.66248  0.52069  Biso   1.000  C
  C91      1.0000 0.49234  0.92971  0.69879  Biso   1.000  C
  C92      1.0000 0.82571  0.48919  0.46891  Biso   1.000  C
  C93      1.0000 0.04596  0.17089  0.03400  Biso   1.000  C
  C94      1.0000 0.99252  0.94004  0.83993  Biso   1.000  C
  C95      1.0000 0.32575  0.50099  0.08937  Biso   1.000  C
  C96      1.0000 0.55422  0.17017  0.52661  Biso   1.000  C
  C97      1.0000 0.67875  0.07180  0.52439  Biso   1.000  C
  C98      1.0000 0.49765  0.66122  0.10106  Biso   1.000  C
  C99      1.0000 0.07257  0.48579  0.70568  Biso   1.000  C
  C100     1.0000 0.17366  0.08322  0.00870  Biso   1.000  C
  C101     1.0000 0.99987  0.67129  0.42939  Biso   1.000  C
  C102     1.0000 0.57270  0.48105  0.84381  Biso   1.000  C
  C103     1.0000 0.81671  0.56601  0.51945  Biso   1.000  C
  C104     1.0000 0.98050  0.16397  0.11814  Biso   1.000  C
  C105     1.0000 0.40553  0.99243  0.69179  Biso   1.000  C
  C106     1.0000 0.32497  0.58825  0.03572  Biso   1.000  C
  C107     1.0000 0.50104  0.16661  0.43960  Biso   1.000  C
  C108     1.0000 0.90082  0.98005  0.84953  Biso   1.000  C
  C109     1.0000 0.32506  0.89841  0.50045  Biso   1.000  C
  C110     1.0000 0.50108  0.31363  0.94599  Biso   1.000  C
  C111     1.0000 0.92502  0.48722  0.34323  Biso   1.000  C
  C112     1.0000 0.83009  0.89078  0.03622  Biso   1.000  C
  C113     1.0000 0.00088  0.30675  0.62080  Biso   1.000  C
  C114     1.0000 0.42770  0.46534  0.20495  Biso   1.000  C
  C115     1.0000 0.18063  0.40089  0.51600  Biso   1.000  C
  C116     1.0000 0.01836  0.81128  0.92920  Biso   1.000  C
  C117     1.0000 0.60020  0.98762  0.34723  Biso   1.000  C
  C118     1.0000 0.67338  0.38982  0.01260  Biso   1.000  C
  C119     1.0000 0.50851  0.80026  0.60117  Biso   1.000  C
  C120     1.0000 0.10300  0.98345  0.19359  Biso   1.000  C
  C121     1.0000 0.83121  0.97274  0.12387  Biso   1.000  C
  C122     1.0000 0.09698  0.81551  0.01770  Biso   1.000  C
  C123     1.0000 0.98134  0.07913  0.84343  Biso   1.000  C
  C124     1.0000 0.32629  0.98210  0.41854  Biso   1.000  C
  C125     1.0000 0.59226  0.80462  0.50640  Biso   1.000  C
  C126     1.0000 0.49656  0.07060  0.70498  Biso   1.000  C
  C127     1.0000 0.68780  0.47485  0.10280  Biso   1.000  C
  C128     1.0000 0.39916  0.31200  0.02698  Biso   1.000  C
  C129     1.0000 0.48206  0.56905  0.83996  Biso   1.000  C
  C130     1.0000 0.18718  0.49006  0.43883  Biso   1.000  C
  C131     1.0000 0.91372  0.30665  0.53594  Biso   1.000  C
  C132     1.0000 0.99213  0.57895  0.70411  Biso   1.000  C
  C133     1.0000 0.17257  0.99165  0.91791  Biso   1.000  C
  C134     1.0000 0.90429  0.16203  0.02782  Biso   1.000  C
  C135     1.0000 0.02632  0.89868  0.19674  Biso   1.000  C
  C136     1.0000 0.67684  0.98751  0.62152  Biso   1.000  C
  C137     1.0000 0.41327  0.16735  0.52502  Biso   1.000  C
  C138     1.0000 0.51341  0.90098  0.33522  Biso   1.000  C
  C139     1.0000 0.31240  0.49463  0.94579  Biso   1.000  C
  C140     1.0000 0.59624  0.66532  0.01688  Biso   1.000  C
  C141     1.0000 0.52426  0.40288  0.20443  Biso   1.000  C
  C142     1.0000 0.80772  0.47701  0.61071  Biso   1.000  C
  C143     1.0000 0.08506  0.66773  0.52401  Biso   1.000  C
  C144     1.0000 0.01179  0.39918  0.34980  Biso   1.000  C
  C145     1.0000 0.32723  0.49700  0.12090  Biso   1.000  C
  C146     1.0000 0.08792  0.30556  0.53971  Biso   1.000  C
  C147     1.0000 0.51766  0.07335  0.34085  Biso   1.000  C
  C148     1.0000 0.82915  0.48774  0.43690  Biso   1.000  C
  C149     1.0000 0.57543  0.30298  0.03689  Biso   1.000  C
  C150     1.0000 0.00229  0.07179  0.21438  Biso   1.000  C
  C151     1.0000 0.18949  0.98810  0.09161  Biso   1.000  C
  C152     1.0000 0.41984  0.80375  0.51382  Biso   1.000  C
  C153     1.0000 0.00925  0.57305  0.33778  Biso   1.000  C
  C154     1.0000 0.67987  0.96353  0.45088  Biso   1.000  C
  C155     1.0000 0.92419  0.80168  0.00737  Biso   1.000  C
  C156     1.0000 0.49704  0.57360  0.20351  Biso   1.000  C
  C157     1.0000 0.67498  0.48023  0.93267  Biso   1.000  C
  C158     1.0000 0.91263  0.66211  0.52104  Biso   1.000  C
  C159     1.0000 0.48715  0.89830  0.69651  Biso   1.000  C
  C160     1.0000 0.17016  0.47933  0.61286  Biso   1.000  C
  C161     1.0000 0.42510  0.67232  0.00431  Biso   1.000  C
  C162     1.0000 0.99639  0.90874  0.83770  Biso   1.000  C
  C163     1.0000 0.81134  0.97920  0.95077  Biso   1.000  C
  C164     1.0000 0.58639  0.17013  0.52788  Biso   1.000  C
  C165     1.0000 0.98298  0.40572  0.71012  Biso   1.000  C
  C166     1.0000 0.31498  0.97564  0.59075  Biso   1.000  C
  C167     1.0000 0.07747  0.17303  0.03754  Biso   1.000  C
  C168     1.0000 0.48156  0.39827  0.84523  Biso   1.000  C
  C169     1.0000 0.00225  0.80570  0.10085  Biso   1.000  C
  C170     1.0000 0.07265  0.99912  0.83137  Biso   1.000  C
  C171     1.0000 0.81562  0.06263  0.03454  Biso   1.000  C
  C172     1.0000 0.49984  0.80472  0.42808  Biso   1.000  C
  C173     1.0000 0.57661  0.98611  0.71106  Biso   1.000  C
  C174     1.0000 0.31928  0.07020  0.50758  Biso   1.000  C
  C175     1.0000 0.48551  0.30732  0.11904  Biso   1.000  C
  C176     1.0000 0.39976  0.49212  0.84149  Biso   1.000  C
  C177     1.0000 0.68721  0.56507  0.02808  Biso   1.000  C
  C178     1.0000 0.00834  0.30218  0.44771  Biso   1.000  C
  C179     1.0000 0.89862  0.48612  0.70627  Biso   1.000  C
  C180     1.0000 0.17908  0.57343  0.53082  Biso   1.000  C
  C181     1.0000 0.99931  0.16508  0.94630  Biso   1.000  C
  C182     1.0000 0.93169  0.97875  0.21194  Biso   1.000  C
  C183     1.0000 0.18941  0.91291  0.01782  Biso   1.000  C
  C184     1.0000 0.50081  0.17092  0.61430  Biso   1.000  C
  C185     1.0000 0.42857  0.98967  0.33234  Biso   1.000  C
  C186     1.0000 0.67903  0.90092  0.53496  Biso   1.000  C
  C187     1.0000 0.51280  0.66846  0.92881  Biso   1.000  C
  C188     1.0000 0.59649  0.49376  0.20146  Biso   1.000  C
  C189     1.0000 0.31087  0.41458  0.02649  Biso   1.000  C
  C190     1.0000 0.00674  0.66723  0.60356  Biso   1.000  C
  C191     1.0000 0.09937  0.47416  0.34078  Biso   1.000  C
  C192     1.0000 0.81939  0.39699  0.51545  Biso   1.000  C
  C193     1.0000 0.83688  0.97749  0.93199  Biso   1.000  C
  C194     1.0000 0.90780  0.82759  0.01381  Biso   1.000  C
  C195     1.0000 0.99904  0.89119  0.86465  Biso   1.000  C
  C196     1.0000 0.34075  0.98092  0.60889  Biso   1.000  C
  C197     1.0000 0.40236  0.83128  0.51279  Biso   1.000  C
  C198     1.0000 0.49273  0.88358  0.66911  Biso   1.000  C
  C199     1.0000 0.64702  0.48284  0.91860  Biso   1.000  C
  C200     1.0000 0.59253  0.32923  0.02933  Biso   1.000  C
  C201     1.0000 0.48548  0.38373  0.87314  Biso   1.000  C
  C202     1.0000 0.14246  0.48267  0.62745  Biso   1.000  C
  C203     1.0000 0.10317  0.33255  0.53266  Biso   1.000  C
  C204     1.0000 0.98604  0.38811  0.68427  Biso   1.000  C
  C205     1.0000 0.16438  0.98871  0.11058  Biso   1.000  C
  C206     1.0000 0.09350  0.14701  0.03300  Biso   1.000  C
  C207     1.0000 0.99794  0.08583  0.18731  Biso   1.000  C
  C208     1.0000 0.65618  0.96574  0.43057  Biso   1.000  C
  C209     1.0000 0.60272  0.14213  0.52781  Biso   1.000  C
  C210     1.0000 0.51563  0.08841  0.36889  Biso   1.000  C
  C211     1.0000 0.35519  0.48886  0.13211  Biso   1.000  C
  C212     1.0000 0.40648  0.64706  0.00819  Biso   1.000  C
  C213     1.0000 0.50072  0.58967  0.17580  Biso   1.000  C
  C214     1.0000 0.85694  0.48804  0.42060  Biso   1.000  C
  C215     1.0000 0.89564  0.63447  0.51809  Biso   1.000  C
  C216     1.0000 0.00377  0.59181  0.36253  Biso   1.000  C
  C217     1.0000 0.09043  0.99802  0.85674  Biso   1.000  C
  C218     1.0000 0.84206  0.08055  0.03418  Biso   1.000  C
  C219     1.0000 0.00833  0.83277  0.11729  Biso   1.000  C
  C220     1.0000 0.59534  0.99080  0.68600  Biso   1.000  C
  C221     1.0000 0.34601  0.08704  0.50817  Biso   1.000  C
  C222     1.0000 0.50290  0.83156  0.41319  Biso   1.000  C
  C223     1.0000 0.38577  0.49281  0.86959  Biso   1.000  C
  C224     1.0000 0.66124  0.58392  0.02903  Biso   1.000  C
  C225     1.0000 0.49872  0.33302  0.13148  Biso   1.000  C
  C226     1.0000 0.88353  0.48511  0.67889  Biso   1.000  C
  C227     1.0000 0.15207  0.58998  0.53172  Biso   1.000  C
  C228     1.0000 0.01159  0.33015  0.43328  Biso   1.000  C
  C229     1.0000 0.91341  0.98081  0.18693  Biso   1.000  C
  C230     1.0000 0.16189  0.89602  0.01827  Biso   1.000  C
  C231     1.0000 0.99401  0.14011  0.92778  Biso   1.000  C
  C232     1.0000 0.41034  0.98991  0.35752  Biso   1.000  C
  C233     1.0000 0.65405  0.88361  0.52863  Biso   1.000  C
  C234     1.0000 0.49955  0.14264  0.62860  Biso   1.000  C
  C235     1.0000 0.61174  0.48669  0.17400  Biso   1.000  C
  C236     1.0000 0.33599  0.39674  0.02610  Biso   1.000  C
  C237     1.0000 0.50700  0.64023  0.91495  Biso   1.000  C
  C238     1.0000 0.11562  0.47630  0.36881  Biso   1.000  C
  C239     1.0000 0.84605  0.38068  0.51932  Biso   1.000  C
  C240     1.0000 0.00310  0.64092  0.62035  Biso   1.000  C
  C241     1.0000 0.59008  0.47858  0.86928  Biso   1.000  C
  C242     1.0000 0.84273  0.58225  0.51644  Biso   1.000  C
  C243     1.0000 0.50485  0.82831  0.61635  Biso   1.000  C
  C244     1.0000 0.08954  0.48746  0.67769  Biso   1.000  C
  C245     1.0000 0.35369  0.60056  0.03129  Biso   1.000  C
  C246     1.0000 0.01478  0.83771  0.91578  Biso   1.000  C
  C247     1.0000 0.88597  0.97757  0.87780  Biso   1.000  C
  C248     1.0000 0.65301  0.08819  0.52446  Biso   1.000  C
  C249     1.0000 0.99632  0.33391  0.63625  Biso   1.000  C
  C250     1.0000 0.39036  0.99289  0.66449  Biso   1.000  C
  C251     1.0000 0.14657  0.09746  0.01629  Biso   1.000  C
  C252     1.0000 0.49306  0.33777  0.92863  Biso   1.000  C
  C253     1.0000 0.40959  0.47487  0.17984  Biso   1.000  C
  C254     1.0000 0.15311  0.38500  0.51915  Biso   1.000  C
  C255     1.0000 0.50673  0.13959  0.42306  Biso   1.000  C
  C256     1.0000 0.90864  0.48832  0.37005  Biso   1.000  C
  C257     1.0000 0.64640  0.37473  0.01678  Biso   1.000  C
  C258     1.0000 0.98710  0.13820  0.13393  Biso   1.000  C
  C259     1.0000 0.11751  0.98535  0.16575  Biso   1.000  C
  C260     1.0000 0.35167  0.88138  0.50372  Biso   1.000  C
  C261     1.0000 0.00263  0.64433  0.41314  Biso   1.000  C
  C262     1.0000 0.61150  0.97716  0.37430  Biso   1.000  C
  C263     1.0000 0.85603  0.87613  0.02741  Biso   1.000  C
  C264     1.0000 0.49995  0.63658  0.11912  Biso   1.000  C
  C265     1.0000 0.98137  0.09327  0.87295  Biso   1.000  C
  C266     1.0000 0.85971  0.97495  0.13766  Biso   1.000  C
  C267     1.0000 0.11268  0.84224  0.01754  Biso   1.000  C
  C268     1.0000 0.49961  0.08770  0.67876  Biso   1.000  C
  C269     1.0000 0.35448  0.98545  0.40480  Biso   1.000  C
  C270     1.0000 0.60687  0.83189  0.51560  Biso   1.000  C
  C271     1.0000 0.48812  0.58599  0.86563  Biso   1.000  C
  C272     1.0000 0.66128  0.47716  0.11963  Biso   1.000  C
  C273     1.0000 0.38547  0.34143  0.02768  Biso   1.000  C
  C274     1.0000 0.99539  0.59291  0.67722  Biso   1.000  C
  C275     1.0000 0.16263  0.48577  0.42069  Biso   1.000  C
  C276     1.0000 0.89725  0.33209  0.53189  Biso   1.000  C
  C277     1.0000 0.01991  0.88392  0.16974  Biso   1.000  C
  C278     1.0000 0.14472  0.99192  0.90269  Biso   1.000  C
  C279     1.0000 0.88980  0.13431  0.03227  Biso   1.000  C
  C280     1.0000 0.51144  0.88471  0.36330  Biso   1.000  C
  C281     1.0000 0.64994  0.98710  0.63665  Biso   1.000  C
  C282     1.0000 0.39743  0.14121  0.51716  Biso   1.000  C
  C283     1.0000 0.51870  0.38603  0.17781  Biso   1.000  C
  C284     1.0000 0.33690  0.49711  0.92560  Biso   1.000  C
  C285     1.0000 0.61243  0.63893  0.02086  Biso   1.000  C
  C286     1.0000 0.01474  0.38423  0.37821  Biso   1.000  C
  C287     1.0000 0.83411  0.48456  0.62726  Biso   1.000  C
  C288     1.0000 0.10128  0.63993  0.52562  Biso   1.000  C
  C289     1.0000 0.34927  0.85012  0.50657  Biso   1.000  C
  C290     1.0000 0.49461  0.33405  0.89702  Biso   1.000  C
  C291     1.0000 0.87697  0.49172  0.36686  Biso   1.000  C
  C292     1.0000 0.85588  0.84458  0.02323  Biso   1.000  C
  C293     1.0000 0.99850  0.33384  0.66690  Biso   1.000  C
  C294     1.0000 0.37940  0.47048  0.18138  Biso   1.000  C
  C295     1.0000 0.15569  0.35383  0.52314  Biso   1.000  C
  C296     1.0000 0.01444  0.83902  0.88352  Biso   1.000  C
  C297     1.0000 0.64282  0.97184  0.37612  Biso   1.000  C
  C298     1.0000 0.64662  0.34358  0.02159  Biso   1.000  C
  C299     1.0000 0.49756  0.82906  0.64788  Biso   1.000  C
  C300     1.0000 0.14961  0.98311  0.16580  Biso   1.000  C
  C301     1.0000 0.65425  0.12030  0.52498  Biso   1.000  C
  C302     1.0000 0.49461  0.64061  0.15087  Biso   1.000  C
  C303     1.0000 0.11993  0.48441  0.68031  Biso   1.000  C
  C304     1.0000 0.14552  0.12781  0.02328  Biso   1.000  C
  C305     1.0000 0.00203  0.64481  0.38225  Biso   1.000  C
  C306     1.0000 0.62176  0.48045  0.86672  Biso   1.000  C
  C307     1.0000 0.84093  0.61383  0.51658  Biso   1.000  C
  C308     1.0000 0.98550  0.13822  0.16710  Biso   1.000  C
  C309     1.0000 0.35916  0.98992  0.66305  Biso   1.000  C
  C310     1.0000 0.35604  0.63142  0.02517  Biso   1.000  C
  C311     1.0000 0.50979  0.13910  0.39199  Biso   1.000  C
  C312     1.0000 0.85463  0.97533  0.87760  Biso   1.000  C
  C313     1.0000 0.16692  0.48047  0.39060  Biso   1.000  C
  C314     1.0000 0.36561  0.14059  0.51793  Biso   1.000  C
  C315     1.0000 0.51133  0.35480  0.18202  Biso   1.000  C
  C316     1.0000 0.66300  0.48628  0.14924  Biso   1.000  C
  C317     1.0000 0.85855  0.13468  0.03538  Biso   1.000  C
  C318     1.0000 0.01280  0.35250  0.37825  Biso   1.000  C
  C319     1.0000 0.35586  0.98359  0.37338  Biso   1.000  C
  C320     1.0000 0.13151  0.64375  0.52824  Biso   1.000  C
  C321     1.0000 0.02025  0.85120  0.16942  Biso   1.000  C
  C322     1.0000 0.86037  0.97638  0.16939  Biso   1.000  C
  C323     1.0000 0.64448  0.63674  0.02126  Biso   1.000  C
  C324     1.0000 0.50680  0.85379  0.36113  Biso   1.000  C
  C325     1.0000 0.83238  0.48122  0.65853  Biso   1.000  C
  C326     1.0000 0.63777  0.83020  0.52150  Biso   1.000  C
  C327     1.0000 0.48927  0.61718  0.86402  Biso   1.000  C
  C328     1.0000 0.33238  0.49181  0.89487  Biso   1.000  C
  C329     1.0000 0.14297  0.84227  0.01963  Biso   1.000  C
  C330     1.0000 0.00220  0.62397  0.67666  Biso   1.000  C
  C331     1.0000 0.64951  0.98291  0.66831  Biso   1.000  C
  C332     1.0000 0.86581  0.32934  0.53095  Biso   1.000  C
  C333     1.0000 0.98876  0.12371  0.87305  Biso   1.000  C
  C334     1.0000 0.14436  0.99334  0.87140  Biso   1.000  C
  C335     1.0000 0.35485  0.34298  0.02940  Biso   1.000  C
  C336     1.0000 0.50273  0.11830  0.68053  Biso   1.000  C
  C337     1.0000 0.64492  0.48218  0.88716  Biso   1.000  C
  C338     1.0000 0.86306  0.63456  0.51878  Biso   1.000  C
  C339     1.0000 0.49252  0.85087  0.67027  Biso   1.000  C
  C340     1.0000 0.14109  0.48181  0.65863  Biso   1.000  C
  C341     1.0000 0.37639  0.65189  0.01590  Biso   1.000  C
  C342     1.0000 0.00712  0.86012  0.86271  Biso   1.000  C
  C343     1.0000 0.83476  0.97467  0.90131  Biso   1.000  C
  C344     1.0000 0.63387  0.14295  0.52595  Biso   1.000  C
  C345     1.0000 0.99380  0.35679  0.68699  Biso   1.000  C
  C346     1.0000 0.33920  0.98528  0.63992  Biso   1.000  C
  C347     1.0000 0.12477  0.14799  0.02960  Biso   1.000  C
  C348     1.0000 0.49011  0.35284  0.87342  Biso   1.000  C
  C349     1.0000 0.35618  0.47752  0.16139  Biso   1.000  C
  C350     1.0000 0.13511  0.33157  0.53115  Biso   1.000  C
  C351     1.0000 0.51348  0.11952  0.36920  Biso   1.000  C
  C352     1.0000 0.85501  0.49049  0.38810  Biso   1.000  C
  C353     1.0000 0.62468  0.32490  0.02797  Biso   1.000  C
  C354     1.0000 0.98902  0.11633  0.18792  Biso   1.000  C
  C355     1.0000 0.16753  0.98469  0.14099  Biso   1.000  C
  C356     1.0000 0.37119  0.82909  0.51041  Biso   1.000  C
  C357     1.0000 0.00270  0.62298  0.36038  Biso   1.000  C
  C358     1.0000 0.66159  0.96635  0.39931  Biso   1.000  C
  C359     1.0000 0.87620  0.82264  0.01759  Biso   1.000  C
  C360     1.0000 0.49718  0.62149  0.17463  Biso   1.000  C
  C361     1.0000 0.99413  0.14261  0.89661  Biso   1.000  C
  C362     1.0000 0.88328  0.97649  0.18949  Biso   1.000  C
  C363     1.0000 0.16418  0.86446  0.02070  Biso   1.000  C
  C364     1.0000 0.50346  0.14102  0.66016  Biso   1.000  C
  C365     1.0000 0.37961  0.98566  0.35502  Biso   1.000  C
  C366     1.0000 0.65793  0.85254  0.52796  Biso   1.000  C
  C367     1.0000 0.49595  0.63951  0.88385  Biso   1.000  C
  C368     1.0000 0.64253  0.48984  0.17267  Biso   1.000  C
  C369     1.0000 0.33307  0.36519  0.02743  Biso   1.000  C
  C370     1.0000 0.00554  0.64285  0.65272  Biso   1.000  C
  C371     1.0000 0.14623  0.47678  0.36740  Biso   1.000  C
  C372     1.0000 0.84443  0.35102  0.52511  Biso   1.000  C
  C373     1.0000 0.01477  0.83104  0.14766  Biso   1.000  C
  C374     1.0000 0.12135  0.99471  0.85171  Biso   1.000  C
  C375     1.0000 0.83915  0.11145  0.03663  Biso   1.000  C
  C376     1.0000 0.50488  0.83093  0.38128  Biso   1.000  C
  C377     1.0000 0.62628  0.98464  0.68807  Biso   1.000  C
  C378     1.0000 0.34441  0.11856  0.51378  Biso   1.000  C
  C379     1.0000 0.50342  0.33292  0.16243  Biso   1.000  C
  C380     1.0000 0.35319  0.49223  0.87231  Biso   1.000  C
  C381     1.0000 0.66474  0.61477  0.02470  Biso   1.000  C
  C382     1.0000 0.01014  0.33019  0.40104  Biso   1.000  C
  C383     1.0000 0.85305  0.48213  0.68015  Biso   1.000  C
  C384     1.0000 0.15272  0.62160  0.53056  Biso   1.000  C
  C385     1.0000 0.17272  0.14578  0.02183  Biso   1.000  C
  C386     1.0000 0.97931  0.16452  0.18209  Biso   1.000  C
  C387     1.0000 0.16822  0.97870  0.19097  Biso   1.000  C
  C388     1.0000 0.68107  0.13470  0.52540  Biso   1.000  C
  C389     1.0000 0.50713  0.16619  0.37730  Biso   1.000  C
  C390     1.0000 0.66234  0.97509  0.35177  Biso   1.000  C
  C391     1.0000 0.33154  0.65046  0.02940  Biso   1.000  C
  C392     1.0000 0.48800  0.66780  0.16339  Biso   1.000  C
  C393     1.0000 0.36536  0.46076  0.20731  Biso   1.000  C
  C394     1.0000 0.81358  0.62902  0.51877  Biso   1.000  C
  C395     1.0000 0.00206  0.67164  0.36535  Biso   1.000  C
  C396     1.0000 0.86238  0.49387  0.33880  Biso   1.000  C
  C397     1.0000 0.82949  0.82717  0.02698  Biso   1.000  C
  C398     1.0000 0.02069  0.81355  0.86545  Biso   1.000  C
  C399     1.0000 0.83638  0.97491  0.85176  Biso   1.000  C
  C400     1.0000 0.32239  0.83447  0.50476  Biso   1.000  C
  C401     1.0000 0.49654  0.80166  0.66460  Biso   1.000  C
  C402     1.0000 0.34204  0.98648  0.69032  Biso   1.000  C
  C403     1.0000 0.67338  0.32666  0.02267  Biso   1.000  C
  C404     1.0000 0.50143  0.30694  0.88358  Biso   1.000  C
  C405     1.0000 0.63551  0.48104  0.83873  Biso   1.000  C
  C406     1.0000 0.18232  0.33822  0.52247  Biso   1.000  C
  C407     1.0000 0.00500  0.30963  0.68449  Biso   1.000  C
  C408     1.0000 0.13457  0.48252  0.70734  Biso   1.000  C
  C409     1.0000 0.13552  0.99753  0.82345  Biso   1.000  C
  C410     1.0000 0.81039  0.12429  0.03534  Biso   1.000  C
  C411     1.0000 0.01459  0.80338  0.16223  Biso   1.000  C
  C412     1.0000 0.63909  0.97840  0.71534  Biso   1.000  C
  C413     1.0000 0.31737  0.13410  0.51485  Biso   1.000  C
  C414     1.0000 0.49983  0.80589  0.36542  Biso   1.000  C
  C415     1.0000 0.33567  0.48889  0.84577  Biso   1.000  C
  C416     1.0000 0.69313  0.62807  0.02061  Biso   1.000  C
  C417     1.0000 0.49996  0.30832  0.18030  Biso   1.000  C
  C418     1.0000 0.83712  0.47976  0.70696  Biso   1.000  C
  C419     1.0000 0.18125  0.63616  0.53012  Biso   1.000  C
  C420     1.0000 0.00500  0.30477  0.38391  Biso   1.000  C
  C421     1.0000 0.86887  0.97253  0.21750  Biso   1.000  C
  C422     1.0000 0.19218  0.85028  0.02350  Biso   1.000  C
  C423     1.0000 0.99971  0.17005  0.88330  Biso   1.000  C
  C424     1.0000 0.36653  0.98056  0.32674  Biso   1.000  C
  C425     1.0000 0.68369  0.83701  0.53392  Biso   1.000  C
  C426     1.0000 0.50635  0.16697  0.67721  Biso   1.000  C
  C427     1.0000 0.65938  0.49568  0.19942  Biso   1.000  C
  C428     1.0000 0.30577  0.35148  0.03106  Biso   1.000  C
  C429     1.0000 0.49479  0.66624  0.86683  Biso   1.000  C
  C430     1.0000 0.16404  0.47285  0.34181  Biso   1.000  C
  C431     1.0000 0.81823  0.33384  0.52367  Biso   1.000  C
  C432     1.0000 0.00753  0.67083  0.66683  Biso   1.000  C
  C433     1.0000 0.99472  0.14004  0.84716  Biso   1.000  C
  C434     1.0000 0.83469  0.97101  0.18672  Biso   1.000  C
  C435     1.0000 0.16084  0.81651  0.02110  Biso   1.000  C
  C436     1.0000 0.50539  0.13335  0.70810  Biso   1.000  C
  C437     1.0000 0.33168  0.97724  0.35595  Biso   1.000  C
  C438     1.0000 0.65429  0.80331  0.52258  Biso   1.000  C
  C439     1.0000 0.48192  0.63203  0.83742  Biso   1.000  C
  C440     1.0000 0.69084  0.48637  0.16508  Biso   1.000  C
  C441     1.0000 0.33788  0.31667  0.03160  Biso   1.000  C
  C442     1.0000 0.00392  0.64085  0.70298  Biso   1.000  C
  C443     1.0000 0.19513  0.48014  0.37659  Biso   1.000  C
  C444     1.0000 0.85080  0.30302  0.53476  Biso   1.000  C
  C445     1.0000 0.02230  0.83544  0.19595  Biso   1.000  C
  C446     1.0000 0.17104  0.99428  0.85488  Biso   1.000  C
  C447     1.0000 0.84057  0.16034  0.03358  Biso   1.000  C
  C448     1.0000 0.50202  0.84061  0.33351  Biso   1.000  C
  C449     1.0000 0.67582  0.97862  0.68370  Biso   1.000  C
  C450     1.0000 0.34978  0.16697  0.52329  Biso   1.000  C
  C451     1.0000 0.51182  0.34086  0.20976  Biso   1.000  C
  C452     1.0000 0.30492  0.48651  0.88204  Biso   1.000  C
  C453     1.0000 0.66106  0.66243  0.01806  Biso   1.000  C
  C454     1.0000 0.00775  0.33609  0.35131  Biso   1.000  C
  C455     1.0000 0.80563  0.47534  0.67311  Biso   1.000  C
  C456     1.0000 0.14737  0.67034  0.52776  Biso   1.000  C
  C457     1.0000 0.00405  0.63718  0.33273  Biso   1.000  C
  C458     1.0000 0.31184  0.98232  0.65461  Biso   1.000  C
  C459     1.0000 0.63838  0.29641  0.03184  Biso   1.000  C
  C460     1.0000 0.48793  0.63766  0.20019  Biso   1.000  C
  C461     1.0000 0.80655  0.97487  0.88718  Biso   1.000  C
  C462     1.0000 0.15074  0.30579  0.53415  Biso   1.000  C
  C463     1.0000 0.51506  0.13609  0.34167  Biso   1.000  C
  C464     1.0000 0.16741  0.47931  0.67589  Biso   1.000  C
  C465     1.0000 0.86201  0.79523  0.01748  Biso   1.000  C
  C466     1.0000 0.98655  0.13230  0.21508  Biso   1.000  C
  C467     1.0000 0.67033  0.48085  0.86971  Biso   1.000  C
  C468     1.0000 0.35507  0.80163  0.50964  Biso   1.000  C
  C469     1.0000 0.99699  0.34379  0.71504  Biso   1.000  C
  C470     1.0000 0.68988  0.96456  0.38762  Biso   1.000  C
  C471     1.0000 0.36388  0.68118  0.01724  Biso   1.000  C
  C472     1.0000 0.49316  0.33523  0.84715  Biso   1.000  C
  C473     1.0000 0.19567  0.98011  0.15268  Biso   1.000  C
  C474     1.0000 0.84804  0.66240  0.52082  Biso   1.000  C
  C475     1.0000 0.48778  0.83385  0.69588  Biso   1.000  C
  C476     1.0000 0.82850  0.49328  0.37149  Biso   1.000  C
  C477     1.0000 0.14030  0.17597  0.03138  Biso   1.000  C
  C478     1.0000 0.00957  0.84532  0.83499  Biso   1.000  C
  C479     1.0000 0.33058  0.47269  0.17919  Biso   1.000  C
  C480     1.0000 0.64894  0.16869  0.52604  Biso   1.000  C
  C481     1.0000 0.37224  0.77437  0.50773  Biso   1.000  C
  C482     1.0000 0.48720  0.35100  0.81929  Biso   1.000  C
  C483     1.0000 0.80196  0.49280  0.38903  Biso   1.000  C
  C484     1.0000 0.87913  0.76978  0.01069  Biso   1.000  C
  C485     1.0000 0.99345  0.36177  0.74093  Biso   1.000  C
  C486     1.0000 0.30218  0.48155  0.16869  Biso   1.000  C
  C487     1.0000 0.13458  0.27982  0.54338  Biso   1.000  C
  C488     1.0000 0.00671  0.86150  0.80927  Biso   1.000  C
  C489     1.0000 0.71486  0.95852  0.40719  Biso   1.000  C
  C490     1.0000 0.61933  0.27263  0.04135  Biso   1.000  C
  C491     1.0000 0.48164  0.85168  0.72242  Biso   1.000  C
  C492     1.0000 0.22089  0.97585  0.13417  Biso   1.000  C
  C493     1.0000 0.63394  0.19665  0.52795  Biso   1.000  C
  C494     1.0000 0.48709  0.62275  0.22743  Biso   1.000  C
  C495     1.0000 0.19600  0.47866  0.66191  Biso   1.000  C
  C496     1.0000 0.12314  0.20241  0.03616  Biso   1.000  C
  C497     1.0000 0.01053  0.61790  0.30757  Biso   1.000  C
  C498     1.0000 0.69871  0.47726  0.88321  Biso   1.000  C
  C499     1.0000 0.86378  0.68961  0.52351  Biso   1.000  C
  C500     1.0000 0.99410  0.11818  0.24192  Biso   1.000  C
  C501     1.0000 0.28495  0.97716  0.63691  Biso   1.000  C
  C502     1.0000 0.38117  0.70548  0.00870  Biso   1.000  C
  C503     1.0000 0.51589  0.12065  0.31368  Biso   1.000  C
  C504     1.0000 0.78144  0.97766  0.90534  Biso   1.000  C
  C505     1.0000 0.61860  0.48351  0.81257  Biso   1.000  C
  C506     1.0000 0.78748  0.61249  0.51667  Biso   1.000  C
  C507     1.0000 0.50275  0.77393  0.64960  Biso   1.000  C
  C508     1.0000 0.11831  0.48044  0.73548  Biso   1.000  C
  C509     1.0000 0.30295  0.63856  0.03864  Biso   1.000  C
  C510     1.0000 0.02767  0.78706  0.88040  Biso   1.000  C
  C511     1.0000 0.85183  0.97412  0.82457  Biso   1.000  C
  C512     1.0000 0.70829  0.11812  0.52443  Biso   1.000  C
  C513     1.0000 0.01370  0.28326  0.66908  Biso   1.000  C
  C514     1.0000 0.35679  0.99143  0.71798  Biso   1.000  C
  C515     1.0000 0.20023  0.13093  0.01165  Biso   1.000  C
  C516     1.0000 0.51186  0.28257  0.90260  Biso   1.000  C
  C517     1.0000 0.38240  0.44905  0.23185  Biso   1.000  C
  C518     1.0000 0.20839  0.35370  0.51519  Biso   1.000  C
  C519     1.0000 0.49997  0.19412  0.39219  Biso   1.000  C
  C520     1.0000 0.88082  0.49146  0.31328  Biso   1.000  C
  C521     1.0000 0.70091  0.34234  0.01601  Biso   1.000  C
  C522     1.0000 0.97174  0.19042  0.16534  Biso   1.000  C
  C523     1.0000 0.15238  0.97989  0.21953  Biso   1.000  C
  C524     1.0000 0.29587  0.85212  0.49790  Biso   1.000  C
  C525     1.0000 0.99827  0.69873  0.38240  Biso   1.000  C
  C526     1.0000 0.64973  0.98663  0.32549  Biso   1.000  C
  C527     1.0000 0.80304  0.84203  0.03659  Biso   1.000  C
  C528     1.0000 0.48444  0.69221  0.14449  Biso   1.000  C
  C529     1.0000 0.78396  0.10672  0.03430  Biso   1.000  C
  C530     1.0000 0.00712  0.77649  0.14585  Biso   1.000  C
  C531     1.0000 0.11698  0.99913  0.79805  Biso   1.000  C
  C532     1.0000 0.29090  0.11906  0.51265  Biso   1.000  C
  C533     1.0000 0.49786  0.77744  0.38086  Biso   1.000  C
  C534     1.0000 0.62131  0.97474  0.74119  Biso   1.000  C
  C535     1.0000 0.71969  0.60920  0.01665  Biso   1.000  C
  C536     1.0000 0.48822  0.28265  0.16636  Biso   1.000  C
  C537     1.0000 0.35142  0.48907  0.81791  Biso   1.000  C
  C538     1.0000 0.20784  0.62033  0.52979  Biso   1.000  C
  C539     1.0000 0.00235  0.27638  0.39726  Biso   1.000  C
  C540     1.0000 0.85132  0.48304  0.73411  Biso   1.000  C
  C541     1.0000 0.21821  0.86737  0.02521  Biso   1.000  C
  C542     1.0000 0.00270  0.19559  0.90155  Biso   1.000  C
  C543     1.0000 0.88722  0.97166  0.24376  Biso   1.000  C
  C544     1.0000 0.70929  0.85377  0.53865  Biso   1.000  C
  C545     1.0000 0.50831  0.19614  0.66294  Biso   1.000  C
  C546     1.0000 0.38446  0.98239  0.30064  Biso   1.000  C
  C547     1.0000 0.27953  0.37075  0.03217  Biso   1.000  C
  C548     1.0000 0.50325  0.69471  0.88075  Biso   1.000  C
  C549     1.0000 0.64587  0.50016  0.22781  Biso   1.000  C
  C550     1.0000 0.79097  0.34887  0.51608  Biso   1.000  C
  C551     1.0000 0.01276  0.69696  0.64932  Biso   1.000  C
  C552     1.0000 0.14902  0.46565  0.31475  Biso   1.000  C
  C553     1.0000 0.99021  0.12647  0.81806  Biso   1.000  C
  C554     1.0000 0.80620  0.97069  0.17417  Biso   1.000  C
  C555     1.0000 0.14535  0.78857  0.02241  Biso   1.000  C
  C556     1.0000 0.50443  0.11482  0.73557  Biso   1.000  C
  C557     1.0000 0.30304  0.97368  0.37017  Biso   1.000  C
  C558     1.0000 0.64111  0.77577  0.51195  Biso   1.000  C
  C559     1.0000 0.47265  0.61532  0.81319  Biso   1.000  C
  C560     1.0000 0.71685  0.48153  0.14902  Biso   1.000  C
  C561     1.0000 0.35200  0.28797  0.03364  Biso   1.000  C
  C562     1.0000 0.00042  0.62549  0.73132  Biso   1.000  C
  C563     1.0000 0.21973  0.48805  0.39477  Biso   1.000  C
  C564     1.0000 0.86655  0.27913  0.54489  Biso   1.000  C
  C565     1.0000 0.02896  0.85050  0.22338  Biso   1.000  C
  C566     1.0000 0.19864  0.99510  0.86935  Biso   1.000  C
  C567     1.0000 0.85406  0.18848  0.02904  Biso   1.000  C
  C568     1.0000 0.50553  0.85554  0.30607  Biso   1.000  C
  C569     1.0000 0.70512  0.97870  0.67033  Biso   1.000  C
  C570     1.0000 0.36483  0.19277  0.52848  Biso   1.000  C
  C571     1.0000 0.52277  0.35851  0.23599  Biso   1.000  C
  C572     1.0000 0.28091  0.48058  0.90185  Biso   1.000  C
  C573     1.0000 0.64539  0.69045  0.01687  Biso   1.000  C
  C574     1.0000 0.00490  0.35081  0.32362  Biso   1.000  C
  C575     1.0000 0.77979  0.46756  0.65496  Biso   1.000  C
  C576     1.0000 0.13101  0.69716  0.52457  Biso   1.000  C
  C577     1.0000 0.30202  0.49345  0.13913  Biso   1.000  C
  C578     1.0000 0.10343  0.27902  0.54825  Biso   1.000  C
  C579     1.0000 0.51899  0.08997  0.31412  Biso   1.000  C
  C580     1.0000 0.80217  0.49009  0.42007  Biso   1.000  C
  C581     1.0000 0.58808  0.27541  0.04292  Biso   1.000  C
  C582     1.0000 0.00213  0.08768  0.24195  Biso   1.000  C
  C583     1.0000 0.21829  0.98100  0.10321  Biso   1.000  C
  C584     1.0000 0.40375  0.77545  0.50933  Biso   1.000  C
  C585     1.0000 0.01353  0.58654  0.30964  Biso   1.000  C
  C586     1.0000 0.70843  0.95790  0.43816  Biso   1.000  C
  C587     1.0000 0.91046  0.77313  0.00557  Biso   1.000  C
  C588     1.0000 0.49170  0.59118  0.22972  Biso   1.000  C
  C589     1.0000 0.70120  0.47479  0.91497  Biso   1.000  C
  C590     1.0000 0.89582  0.68982  0.52535  Biso   1.000  C
  C591     1.0000 0.47991  0.88329  0.72178  Biso   1.000  C
  C592     1.0000 0.19692  0.47758  0.62996  Biso   1.000  C
  C593     1.0000 0.41122  0.70056  0.00088  Biso   1.000  C
  C594     1.0000 0.00044  0.89339  0.81046  Biso   1.000  C
  C595     1.0000 0.78314  0.97906  0.93734  Biso   1.000  C
  C596     1.0000 0.60207  0.19736  0.52931  Biso   1.000  C
  C597     1.0000 0.98444  0.39111  0.73807  Biso   1.000  C
  C598     1.0000 0.28688  0.97303  0.60638  Biso   1.000  C
  C599     1.0000 0.09232  0.20132  0.03987  Biso   1.000  C
  C600     1.0000 0.48196  0.38175  0.81758  Biso   1.000  C
  C601     1.0000 0.19863  0.99330  0.90026  Biso   1.000  C
  C602     1.0000 0.88664  0.18874  0.02406  Biso   1.000  C
  C603     1.0000 0.03095  0.88222  0.22381  Biso   1.000  C
  C604     1.0000 0.70538  0.98367  0.63731  Biso   1.000  C
  C605     1.0000 0.39631  0.19395  0.52998  Biso   1.000  C
  C606     1.0000 0.51089  0.88609  0.30732  Biso   1.000  C
  C607     1.0000 0.28407  0.48597  0.93393  Biso   1.000  C
  C608     1.0000 0.61274  0.69181  0.01660  Biso   1.000  C
  C609     1.0000 0.52755  0.38943  0.23308  Biso   1.000  C
  C610     1.0000 0.78087  0.46885  0.62369  Biso   1.000  C
  C611     1.0000 0.10020  0.69508  0.52252  Biso   1.000  C
  C612     1.0000 0.00716  0.38211  0.32255  Biso   1.000  C
  C613     1.0000 0.80495  0.97071  0.14272  Biso   1.000  C
  C614     1.0000 0.11394  0.78911  0.02141  Biso   1.000  C
  C615     1.0000 0.98530  0.09559  0.81702  Biso   1.000  C
  C616     1.0000 0.30042  0.97459  0.40114  Biso   1.000  C
  C617     1.0000 0.60889  0.77613  0.50400  Biso   1.000  C
  C618     1.0000 0.49929  0.08429  0.73333  Biso   1.000  C
  C619     1.0000 0.71583  0.47610  0.11757  Biso   1.000  C
  C620     1.0000 0.38259  0.28544  0.03119  Biso   1.000  C
  C621     1.0000 0.47105  0.58359  0.81425  Biso   1.000  C
  C622     1.0000 0.21543  0.49058  0.42590  Biso   1.000  C
  C623     1.0000 0.89758  0.28015  0.54436  Biso   1.000  C
  C624     1.0000 0.99553  0.59474  0.73205  Biso   1.000  C
  C625     1.0000 0.00461  0.19277  0.93244  Biso   1.000  C
  C626     1.0000 0.91783  0.97419  0.23982  Biso   1.000  C
  C627     1.0000 0.21757  0.89852  0.02297  Biso   1.000  C
  C628     1.0000 0.50354  0.19819  0.63080  Biso   1.000  C
  C629     1.0000 0.41568  0.98863  0.30250  Biso   1.000  C
  C630     1.0000 0.70639  0.88656  0.54027  Biso   1.000  C
  C631     1.0000 0.51297  0.69514  0.91107  Biso   1.000  C
  C632     1.0000 0.61378  0.50171  0.22777  Biso   1.000  C
  C633     1.0000 0.28247  0.40172  0.02852  Biso   1.000  C
  C634     1.0000 0.01252  0.69515  0.61662  Biso   1.000  C
  C635     1.0000 0.11650  0.46819  0.31395  Biso   1.000  C
  C636     1.0000 0.79158  0.38033  0.51223  Biso   1.000  C
  C637     1.0000 0.00158  0.77796  0.11548  Biso   1.000  C
  C638     1.0000 0.08522  0.99756  0.80117  Biso   1.000  C
  C639     1.0000 0.78701  0.07525  0.03608  Biso   1.000  C
  C640     1.0000 0.49860  0.77715  0.41206  Biso   1.000  C
  C641     1.0000 0.59060  0.97901  0.73829  Biso   1.000  C
  C642     1.0000 0.29064  0.08725  0.50781  Biso   1.000  C
  C643     1.0000 0.47907  0.28275  0.13578  Biso   1.000  C
  C644     1.0000 0.38297  0.49149  0.81528  Biso   1.000  C
  C645     1.0000 0.71614  0.57738  0.01924  Biso   1.000  C
  C646     1.0000 0.00457  0.27526  0.42932  Biso   1.000  C
  C647     1.0000 0.88158  0.48752  0.73338  Biso   1.000  C
  C648     1.0000 0.20775  0.58863  0.53069  Biso   1.000  C
  C649     1.0000 0.99840  0.69864  0.41356  Biso   1.000  C
  C650     1.0000 0.38902  0.99370  0.71822  Biso   1.000  C
  C651     1.0000 0.70089  0.37364  0.01090  Biso   1.000  C
  C652     1.0000 0.48869  0.68963  0.11295  Biso   1.000  C
  C653     1.0000 0.88304  0.97964  0.82308  Biso   1.000  C
  C654     1.0000 0.20915  0.38583  0.51402  Biso   1.000  C
  C655     1.0000 0.49688  0.19419  0.42374  Biso   1.000  C
  C656     1.0000 0.08580  0.48233  0.73387  Biso   1.000  C
  C657     1.0000 0.80317  0.87344  0.04180  Biso   1.000  C
  C658     1.0000 0.97124  0.18926  0.13425  Biso   1.000  C
  C659     1.0000 0.58802  0.48180  0.81557  Biso   1.000  C
  C660     1.0000 0.29547  0.88388  0.49653  Biso   1.000  C
  C661     1.0000 0.01174  0.28154  0.63742  Biso   1.000  C
  C662     1.0000 0.61823  0.99328  0.32346  Biso   1.000  C
  C663     1.0000 0.30073  0.60755  0.04016  Biso   1.000  C
  C664     1.0000 0.51376  0.28737  0.93476  Biso   1.000  C
  C665     1.0000 0.12067  0.98069  0.22015  Biso   1.000  C
  C666     1.0000 0.78772  0.58033  0.51860  Biso   1.000  C
  C667     1.0000 0.50674  0.77233  0.61732  Biso   1.000  C
  C668     1.0000 0.91058  0.48654  0.31450  Biso   1.000  C
  C669     1.0000 0.20042  0.10000  0.00634  Biso   1.000  C
  C670     1.0000 0.02518  0.78481  0.91249  Biso   1.000  C
  C671     1.0000 0.41410  0.44933  0.22814  Biso   1.000  C
  C672     1.0000 0.70707  0.08701  0.52345  Biso   1.000  C
  C673     1.0000 0.18276  0.99526  0.80794  Biso   1.000  C
  C674     1.0000 0.79306  0.17047  0.03655  Biso   1.000  C
  C675     1.0000 0.02064  0.78711  0.20776  Biso   1.000  C
  C676     1.0000 0.68365  0.96973  0.73096  Biso   1.000  C
  C677     1.0000 0.30105  0.17963  0.52249  Biso   1.000  C
  C678     1.0000 0.49409  0.79351  0.31810  Biso   1.000  C
  C679     1.0000 0.28950  0.48188  0.83594  Biso   1.000  C
  C680     1.0000 0.70877  0.67275  0.01662  Biso   1.000  C
  C681     1.0000 0.50635  0.29406  0.22622  Biso   1.000  C
  C682     1.0000 0.78818  0.47527  0.71684  Biso   1.000  C
  C683     1.0000 0.19484  0.68285  0.52536  Biso   1.000  C
  C684     1.0000 0.00187  0.28981  0.33633  Biso   1.000  C
  C685     1.0000 0.82387  0.96905  0.23635  Biso   1.000  C
  C686     1.0000 0.20853  0.80475  0.02455  Biso   1.000  C
  C687     1.0000 0.00066  0.18766  0.83689  Biso   1.000  C
  C688     1.0000 0.32146  0.97493  0.30889  Biso   1.000  C
  C689     1.0000 0.69873  0.78876  0.52980  Biso   1.000  C
  C690     1.0000 0.51121  0.17715  0.72596  Biso   1.000  C
  C691     1.0000 0.70811  0.49204  0.21083  Biso   1.000  C
  C692     1.0000 0.29159  0.30482  0.03241  Biso   1.000  C
  C693     1.0000 0.48324  0.67874  0.82068  Biso   1.000  C
  C694     1.0000 0.21103  0.47312  0.33166  Biso   1.000  C
  C695     1.0000 0.80305  0.29014  0.53591  Biso   1.000  C
  C696     1.0000 0.01030  0.69017  0.71311  Biso   1.000  C
  C697     1.0000 0.70984  0.96971  0.34227  Biso   1.000  C
  C698     1.0000 0.31856  0.69777  0.02522  Biso   1.000  C
  C699     1.0000 0.00554  0.29916  0.73216  Biso   1.000  C
  C700     1.0000 0.21526  0.97130  0.19743  Biso   1.000  C
  C701     1.0000 0.80049  0.67523  0.52201  Biso   1.000  C
  C702     1.0000 0.50523  0.28834  0.83725  Biso   1.000  C
  C703     1.0000 0.81603  0.49427  0.32300  Biso   1.000  C
  C704     1.0000 0.18560  0.19350  0.02705  Biso   1.000  C
  C705     1.0000 0.48491  0.78679  0.70952  Biso   1.000  C
  C706     1.0000 0.32046  0.45672  0.22578  Biso   1.000  C
  C707     1.0000 0.69639  0.18024  0.52827  Biso   1.000  C
  C708     1.0000 0.01986  0.79825  0.82054  Biso   1.000  C
  C709     1.0000 0.29306  0.98494  0.69958  Biso   1.000  C
  C710     1.0000 0.68419  0.27957  0.02980  Biso   1.000  C
  C711     1.0000 0.00763  0.68210  0.31870  Biso   1.000  C
  C712     1.0000 0.78779  0.97048  0.84196  Biso   1.000  C
  C713     1.0000 0.19634  0.29090  0.52600  Biso   1.000  C
  C714     1.0000 0.48314  0.68541  0.21163  Biso   1.000  C
  C715     1.0000 0.18067  0.47954  0.72375  Biso   1.000  C
  C716     1.0000 0.81682  0.77990  0.02246  Biso   1.000  C
  C717     1.0000 0.51069  0.18227  0.33087  Biso   1.000  C
  C718     1.0000 0.68114  0.47751  0.82210  Biso   1.000  C
  C719     1.0000 0.30707  0.78756  0.51064  Biso   1.000  C
  C720     1.0000 0.98252  0.18054  0.22896  Biso   1.000  C
  C721     1.0000 0.47534  0.80085  0.29362  Biso   1.000  C
  C722     1.0000 0.29344  0.46621  0.80761  Biso   1.000  C
  C723     1.0000 0.77399  0.29615  0.54754  Biso   1.000  C
  C724     1.0000 0.03442  0.75970  0.20030  Biso   1.000  C
  C725     1.0000 0.75780  0.48462  0.71076  Biso   1.000  C
  C726     1.0000 0.26539  0.30763  0.05016  Biso   1.000  C
  C727     1.0000 0.97449  0.27379  0.33424  Biso   1.000  C
  C728     1.0000 0.20853  0.97629  0.81268  Biso   1.000  C
  C729     1.0000 0.69206  0.76040  0.54085  Biso   1.000  C
  C730     1.0000 0.49727  0.30056  0.25671  Biso   1.000  C
  C731     1.0000 0.70676  0.94950  0.72887  Biso   1.000  C
  C732     1.0000 0.23441  0.80779  0.00723  Biso   1.000  C
  C733     1.0000 0.49467  0.17479  0.75228  Biso   1.000  C
  C734     1.0000 0.70372  0.47776  0.23850  Biso   1.000  C
  C735     1.0000 0.19339  0.70227  0.50101  Biso   1.000  C
  C736     1.0000 0.98542  0.21554  0.84321  Biso   1.000  C
  C737     1.0000 0.23932  0.46165  0.34232  Biso   1.000  C
  C738     1.0000 0.73310  0.66868  0.03600  Biso   1.000  C
  C739     1.0000 0.02791  0.68600  0.73940  Biso   1.000  C
  C740     1.0000 0.79843  0.94977  0.23406  Biso   1.000  C
  C741     1.0000 0.27676  0.17949  0.50076  Biso   1.000  C
  C742     1.0000 0.48872  0.67143  0.79039  Biso   1.000  C
  C743     1.0000 0.32718  0.95881  0.28087  Biso   1.000  C
  C744     1.0000 0.79661  0.19825  0.05004  Biso   1.000  C
  C745     1.0000 0.02286  0.70987  0.32341  Biso   1.000  C
  C746     1.0000 0.26597  0.99962  0.69308  Biso   1.000  C
  C747     1.0000 0.71304  0.28599  0.04255  Biso   1.000  C
  C748     1.0000 0.49796  0.71371  0.20691  Biso   1.000  C
  C749     1.0000 0.76034  0.95545  0.84841  Biso   1.000  C
  C750     1.0000 0.22619  0.29649  0.53539  Biso   1.000  C
  C751     1.0000 0.53118  0.18301  0.30679  Biso   1.000  C
  C752     1.0000 0.20317  0.45837  0.72215  Biso   1.000  C
  C753     1.0000 0.78906  0.78458  0.00772  Biso   1.000  C
  C754     1.0000 0.99561  0.20840  0.21986  Biso   1.000  C
  C755     1.0000 0.67626  0.45816  0.79744  Biso   1.000  C
  C756     1.0000 0.30974  0.75994  0.52853  Biso   1.000  C
  C757     1.0000 0.98555  0.29992  0.75671  Biso   1.000  C
  C758     1.0000 0.73868  0.97761  0.34945  Biso   1.000  C
  C759     1.0000 0.29798  0.69967  0.04873  Biso   1.000  C
  C760     1.0000 0.51927  0.29396  0.80831  Biso   1.000  C
  C761     1.0000 0.24185  0.98737  0.19386  Biso   1.000  C
  C762     1.0000 0.80542  0.70150  0.50594  Biso   1.000  C
  C763     1.0000 0.47248  0.75956  0.70410  Biso   1.000  C
  C764     1.0000 0.79082  0.47514  0.32274  Biso   1.000  C
  C765     1.0000 0.21507  0.18705  0.03851  Biso   1.000  C
  C766     1.0000 0.99828  0.79854  0.79749  Biso   1.000  C
  C767     1.0000 0.32770  0.46261  0.25696  Biso   1.000  C
  C768     1.0000 0.69273  0.20839  0.51368  Biso   1.000  C
  C769     1.0000 0.47697  0.70887  0.82666  Biso   1.000  C
  C770     1.0000 0.79562  0.46276  0.74519  Biso   1.000  C
  C771     1.0000 0.72654  0.79188  0.51637  Biso   1.000  C
  C772     1.0000 0.99589  0.71841  0.70817  Biso   1.000  C
  C773     1.0000 0.25935  0.49555  0.84083  Biso   1.000  C
  C774     1.0000 0.20456  0.77958  0.04335  Biso   1.000  C
  C775     1.0000 0.01616  0.18267  0.81024  Biso   1.000  C
  C776     1.0000 0.67935  0.98439  0.75922  Biso   1.000  C
  C777     1.0000 0.80863  0.26041  0.52415  Biso   1.000  C
  C778     1.0000 0.53099  0.20238  0.72324  Biso   1.000  C
  C779     1.0000 0.18024  0.01023  0.78032  Biso   1.000  C
  C780     1.0000 0.29312  0.27687  0.01553  Biso   1.000  C
  C781     1.0000 0.51827  0.26523  0.21979  Biso   1.000  C
  C782     1.0000 0.20870  0.47710  0.29948  Biso   1.000  C
  C783     1.0000 0.30004  0.20170  0.54527  Biso   1.000  C
  C784     1.0000 0.02475  0.28456  0.31475  Biso   1.000  C
  C785     1.0000 0.73599  0.50645  0.20478  Biso   1.000  C
  C786     1.0000 0.76696  0.16748  0.01846  Biso   1.000  C
  C787     1.0000 0.00609  0.79070  0.23541  Biso   1.000  C
  C788     1.0000 0.29218  0.98851  0.31123  Biso   1.000  C
  C789     1.0000 0.21844  0.68651  0.54802  Biso   1.000  C
  C790     1.0000 0.51040  0.76471  0.31758  Biso   1.000  C
  C791     1.0000 0.82619  0.98538  0.26361  Biso   1.000  C
  C792     1.0000 0.70758  0.69683  0.99614  Biso   1.000  C
  C793     1.0000 0.49045  0.20541  0.33170  Biso   1.000  C
  C794     1.0000 0.29093  0.44607  0.21999  Biso   1.000  C
  C795     1.0000 0.18978  0.26388  0.51340  Biso   1.000  C
  C796     1.0000 0.97468  0.17686  0.25963  Biso   1.000  C
  C797     1.0000 0.81800  0.51505  0.29919  Biso   1.000  C
  C798     1.0000 0.67778  0.25067  0.01936  Biso   1.000  C
  C799     1.0000 0.99520  0.67745  0.28821  Biso   1.000  C
  C800     1.0000 0.21227  0.95135  0.22142  Biso   1.000  C
  C801     1.0000 0.27985  0.79000  0.49574  Biso   1.000  C
  C802     1.0000 0.46411  0.68399  0.23701  Biso   1.000  C
  C803     1.0000 0.70545  0.95888  0.31298  Biso   1.000  C
  C804     1.0000 0.82198  0.75306  0.03649  Biso   1.000  C
  C805     1.0000 0.49355  0.79237  0.73921  Biso   1.000  C
  C806     1.0000 0.70898  0.49084  0.82472  Biso   1.000  C
  C807     1.0000 0.77414  0.66991  0.53985  Biso   1.000  C
  C808     1.0000 0.04263  0.77680  0.81925  Biso   1.000  C
  C809     1.0000 0.17726  0.49819  0.74863  Biso   1.000  C
  C810     1.0000 0.31482  0.71877  0.00109  Biso   1.000  C
  C811     1.0000 0.02734  0.27628  0.73315  Biso   1.000  C
  C812     1.0000 0.79023  0.98442  0.81367  Biso   1.000  C
  C813     1.0000 0.72309  0.17538  0.54425  Biso   1.000  C
  C814     1.0000 0.49634  0.25842  0.84453  Biso   1.000  C
  C815     1.0000 0.29504  0.96907  0.72628  Biso   1.000  C
  C816     1.0000 0.18046  0.22464  0.01750  Biso   1.000  C
  C817     1.0000 0.98741  0.23753  0.82314  Biso   1.000  C
  C818     1.0000 0.77827  0.94746  0.25584  Biso   1.000  C
  C819     1.0000 0.25688  0.78696  0.01055  Biso   1.000  C
  C820     1.0000 0.49871  0.19508  0.77461  Biso   1.000  C
  C821     1.0000 0.30795  0.95648  0.25792  Biso   1.000  C
  C822     1.0000 0.71037  0.73684  0.53741  Biso   1.000  C
  C823     1.0000 0.48758  0.69100  0.76772  Biso   1.000  C
  C824     1.0000 0.72635  0.47808  0.25852  Biso   1.000  C
  C825     1.0000 0.24458  0.28595  0.04871  Biso   1.000  C
  C826     1.0000 0.03318  0.70824  0.75870  Biso   1.000  C
  C827     1.0000 0.25973  0.45255  0.32161  Biso   1.000  C
  C828     1.0000 0.75431  0.27315  0.54884  Biso   1.000  C
  C829     1.0000 0.03505  0.73752  0.22110  Biso   1.000  C
  C830     1.0000 0.22688  0.97141  0.78997  Biso   1.000  C
  C831     1.0000 0.77623  0.22079  0.04732  Biso   1.000  C
  C832     1.0000 0.46986  0.77960  0.27320  Biso   1.000  C
  C833     1.0000 0.72466  0.94801  0.75280  Biso   1.000  C
  C834     1.0000 0.25649  0.20104  0.50181  Biso   1.000  C
  C835     1.0000 0.50190  0.27987  0.27704  Biso   1.000  C
  C836     1.0000 0.27178  0.46508  0.78739  Biso   1.000  C
  C837     1.0000 0.75565  0.68945  0.03579  Biso   1.000  C
  C838     1.0000 0.97141  0.25429  0.31066  Biso   1.000  C
  C839     1.0000 0.73584  0.48044  0.73173  Biso   1.000  C
  C840     1.0000 0.21754  0.72072  0.49665  Biso   1.000  C
  C841     1.0000 0.20179  0.00719  0.76049  Biso   1.000  C
  C842     1.0000 0.74714  0.18981  0.01653  Biso   1.000  C
  C843     1.0000 0.00793  0.76879  0.25628  Biso   1.000  C
  C844     1.0000 0.69713  0.98133  0.78220  Biso   1.000  C
  C845     1.0000 0.27852  0.22340  0.54488  Biso   1.000  C
  C846     1.0000 0.50259  0.74411  0.29590  Biso   1.000  C
  C847     1.0000 0.23809  0.49034  0.81961  Biso   1.000  C
  C848     1.0000 0.73073  0.71588  0.99521  Biso   1.000  C
  C849     1.0000 0.52218  0.24562  0.24137  Biso   1.000  C
  C850     1.0000 0.77258  0.45930  0.76464  Biso   1.000  C
  C851     1.0000 0.23849  0.70710  0.54302  Biso   1.000  C
  C852     1.0000 0.01979  0.26212  0.29258  Biso   1.000  C
  C853     1.0000 0.80421  0.98408  0.28382  Biso   1.000  C
  C854     1.0000 0.22739  0.75709  0.04462  Biso   1.000  C
  C855     1.0000 0.01752  0.20488  0.79002  Biso   1.000  C
  C856     1.0000 0.27277  0.98232  0.28784  Biso   1.000  C
  C857     1.0000 0.74424  0.76750  0.51409  Biso   1.000  C
  C858     1.0000 0.53014  0.22417  0.74553  Biso   1.000  C
  C859     1.0000 0.75644  0.50695  0.22676  Biso   1.000  C
  C860     1.0000 0.27276  0.25534  0.01638  Biso   1.000  C
  C861     1.0000 0.47728  0.73008  0.80507  Biso   1.000  C
  C862     1.0000 0.23133  0.46854  0.28033  Biso   1.000  C
  C863     1.0000 0.78646  0.24022  0.52306  Biso   1.000  C
  C864     1.0000 0.00405  0.74091  0.72755  Biso   1.000  C
  C865     1.0000 0.69812  0.45271  0.77732  Biso   1.000  C
  C866     1.0000 0.78179  0.72096  0.50636  Biso   1.000  C
  C867     1.0000 0.47298  0.73723  0.72443  Biso   1.000  C
  C868     1.0000 0.22331  0.45846  0.74457  Biso   1.000  C
  C869     1.0000 0.27490  0.71882  0.04828  Biso   1.000  C
  C870     1.0000 0.99738  0.77821  0.77576  Biso   1.000  C
  C871     1.0000 0.73798  0.95203  0.82807  Biso   1.000  C
  C872     1.0000 0.71275  0.22940  0.51769  Biso   1.000  C
  C873     1.0000 0.98535  0.27730  0.77725  Biso   1.000  C
  C874     1.0000 0.24239  0.00100  0.71375  Biso   1.000  C
  C875     1.0000 0.23450  0.20940  0.04026  Biso   1.000  C
  C876     1.0000 0.52410  0.27105  0.78827  Biso   1.000  C
  C877     1.0000 0.30598  0.46071  0.27701  Biso   1.000  C
  C878     1.0000 0.24546  0.27299  0.53391  Biso   1.000  C
  C879     1.0000 0.53346  0.20500  0.28763  Biso   1.000  C
  C880     1.0000 0.77224  0.47430  0.30004  Biso   1.000  C
  C881     1.0000 0.73234  0.26455  0.04498  Biso   1.000  C
  C882     1.0000 0.99573  0.22991  0.24107  Biso   1.000  C
  C883     1.0000 0.26378  0.98585  0.21462  Biso   1.000  C
  C884     1.0000 0.28901  0.73842  0.52987  Biso   1.000  C
  C885     1.0000 0.02978  0.72701  0.29967  Biso   1.000  C
  C886     1.0000 0.76185  0.97388  0.32990  Biso   1.000  C
  C887     1.0000 0.76794  0.76346  0.00719  Biso   1.000  C
  C888     1.0000 0.49595  0.73706  0.22608  Biso   1.000  C
  C889     1.0000 0.72701  0.95830  0.29190  Biso   1.000  C
  C890     1.0000 0.29335  0.73935  0.00182  Biso   1.000  C
  C891     1.0000 0.02734  0.25571  0.75513  Biso   1.000  C
  C892     1.0000 0.23634  0.94909  0.23885  Biso   1.000  C
  C893     1.0000 0.75409  0.69287  0.54210  Biso   1.000  C
  C894     1.0000 0.50254  0.23797  0.82247  Biso   1.000  C
  C895     1.0000 0.79590  0.51527  0.27757  Biso   1.000  C
  C896     1.0000 0.20060  0.24546  0.02138  Biso   1.000  C
  C897     1.0000 0.49146  0.77129  0.76001  Biso   1.000  C
  C898     1.0000 0.27108  0.44268  0.24232  Biso   1.000  C
  C899     1.0000 0.74296  0.19750  0.54544  Biso   1.000  C
  C900     1.0000 0.04185  0.75612  0.79554  Biso   1.000  C
  C901     1.0000 0.27282  0.97136  0.74604  Biso   1.000  C
  C902     1.0000 0.69851  0.22906  0.02277  Biso   1.000  C
  C903     1.0000 0.00096  0.69817  0.26569  Biso   1.000  C
  C904     1.0000 0.76836  0.98018  0.79393  Biso   1.000  C
  C905     1.0000 0.20975  0.24084  0.51280  Biso   1.000  C
  C906     1.0000 0.46301  0.70785  0.25544  Biso   1.000  C
  C907     1.0000 0.19794  0.49672  0.77001  Biso   1.000  C
  C908     1.0000 0.80015  0.73202  0.03475  Biso   1.000  C
  C909     1.0000 0.49312  0.22762  0.31176  Biso   1.000  C
  C910     1.0000 0.72951  0.48831  0.80233  Biso   1.000  C
  C911     1.0000 0.25944  0.76859  0.49806  Biso   1.000  C
  C912     1.0000 0.97964  0.19944  0.27935  Biso   1.000  C
  C913     1.0000 0.74455  0.46827  0.75766  Biso   1.000  C
  C914     1.0000 0.73578  0.74074  0.52294  Biso   1.000  C
  C915     1.0000 0.48196  0.72140  0.77534  Biso   1.000  C
  C916     1.0000 0.24368  0.47590  0.79257  Biso   1.000  C
  C917     1.0000 0.25239  0.76305  0.02898  Biso   1.000  C
  C918     1.0000 0.02004  0.73574  0.75236  Biso   1.000  C
  C919     1.0000 0.72062  0.96362  0.77827  Biso   1.000  C
  C920     1.0000 0.76072  0.24611  0.53544  Biso   1.000  C
  C921     1.0000 0.00548  0.23139  0.79789  Biso   1.000  C
  C922     1.0000 0.22503  0.98864  0.76465  Biso   1.000  C
  C923     1.0000 0.24957  0.26017  0.03320  Biso   1.000  C
  C924     1.0000 0.51460  0.22039  0.77024  Biso   1.000  C
  C925     1.0000 0.25567  0.45609  0.29241  Biso   1.000  C
  C926     1.0000 0.25864  0.22219  0.52349  Biso   1.000  C
  C927     1.0000 0.51384  0.25253  0.26918  Biso   1.000  C
  C928     1.0000 0.75148  0.49264  0.25312  Biso   1.000  C
  C929     1.0000 0.75021  0.21499  0.03341  Biso   1.000  C
  C930     1.0000 0.99327  0.24853  0.29163  Biso   1.000  C
  C931     1.0000 0.28080  0.96677  0.26187  Biso   1.000  C
  C932     1.0000 0.23978  0.72352  0.51766  Biso   1.000  C
  C933     1.0000 0.02119  0.74302  0.24766  Biso   1.000  C
  C934     1.0000 0.77856  0.96721  0.27977  Biso   1.000  C
  C935     1.0000 0.75233  0.71424  0.01603  Biso   1.000  C
  C936     1.0000 0.48133  0.75240  0.27615  Biso   1.000  C
  C937     1.0000 0.72700  0.23705  0.03168  Biso   1.000  C
  C938     1.0000 0.01938  0.72096  0.27213  Biso   1.000  C
  C939     1.0000 0.24618  0.98561  0.73967  Biso   1.000  C
  C940     1.0000 0.23730  0.24573  0.52189  Biso   1.000  C
  C941     1.0000 0.47847  0.73267  0.25016  Biso   1.000  C
  C942     1.0000 0.74292  0.96469  0.80051  Biso   1.000  C
  C943     1.0000 0.77372  0.73725  0.01861  Biso   1.000  C
  C944     1.0000 0.51432  0.22820  0.28901  Biso   1.000  C
  C945     1.0000 0.22095  0.47562  0.76921  Biso   1.000  C
  C946     1.0000 0.26455  0.74349  0.51340  Biso   1.000  C
  C947     1.0000 0.98941  0.22585  0.27018  Biso   1.000  C
  C948     1.0000 0.72366  0.46787  0.78084  Biso   1.000  C
  C949     1.0000 0.27405  0.74000  0.02624  Biso   1.000  C
  C950     1.0000 0.00567  0.25444  0.77622  Biso   1.000  C
  C951     1.0000 0.75608  0.96559  0.30149  Biso   1.000  C
  C952     1.0000 0.75826  0.71683  0.52474  Biso   1.000  C
  C953     1.0000 0.51397  0.24337  0.79474  Biso   1.000  C
  C954     1.0000 0.26065  0.96723  0.23736  Biso   1.000  C
  C955     1.0000 0.22767  0.23839  0.03213  Biso   1.000  C
  C956     1.0000 0.48210  0.74346  0.75276  Biso   1.000  C
  C957     1.0000 0.77418  0.49460  0.27716  Biso   1.000  C
  C958     1.0000 0.73750  0.22462  0.53505  Biso   1.000  C
  C959     1.0000 0.02001  0.75712  0.77470  Biso   1.000  C
  C960     1.0000 0.27806  0.45232  0.27111  Biso   1.000  C
  Cu1      1.0000 0.98401  0.49206  0.67813  Biso   1.000  Cu
  Cu2      1.0000 0.64997  0.98713  0.53423  Biso   1.000  Cu
  Cu3      1.0000 0.51066  0.64248  0.01416  Biso   1.000  Cu
  Cu4      1.0000 0.48769  0.48543  0.87096  Biso   1.000  Cu
  Cu5      1.0000 0.15392  0.99595  0.00856  Biso   1.000  Cu
  Cu6      1.0000 0.00189  0.63825  0.51517  Biso   1.000  Cu
  Cu7      1.0000 0.49433  0.98482  0.67585  Biso   1.000  Cu
  Cu8      1.0000 0.84685  0.48122  0.52485  Biso   1.000  Cu
  Cu9      1.0000 0.99221  0.13739  0.02981  Biso   1.000  Cu
  Cu10     1.0000 0.98840  0.99348  0.86767  Biso   1.000  Cu
  Cu11     1.0000 0.34748  0.49953  0.02901  Biso   1.000  Cu
  Cu12     1.0000 0.50020  0.14192  0.52623  Biso   1.000  Cu
  Cu13     1.0000 0.01385  0.48928  0.36857  Biso   1.000  Cu
  Cu14     1.0000 0.34757  0.98638  0.50620  Biso   1.000  Cu
  Cu15     1.0000 0.48867  0.33626  0.03353  Biso   1.000  Cu
  Cu16     1.0000 0.50964  0.48709  0.17370  Biso   1.000  Cu
  Cu17     1.0000 0.84853  0.97893  0.03390  Biso   1.000  Cu
  Cu18     1.0000 0.00005  0.33035  0.53419  Biso   1.000  Cu
  Cu19     1.0000 0.51181  0.98862  0.36611  Biso   1.000  Cu
  Cu20     1.0000 0.15015  0.48785  0.52394  Biso   1.000  Cu
  Cu21     1.0000 0.00818  0.83333  0.01619  Biso   1.000  Cu
  Cu22     1.0000 0.01380  0.98713  0.17819  Biso   1.000  Cu
  Cu23     1.0000 0.65210  0.47924  0.02109  Biso   1.000  Cu
  Cu24     1.0000 0.50408  0.82783  0.51731  Biso   1.000  Cu
  Cu25     1.0000 0.20699  0.99940  0.00155  Biso   1.000  Cu
  Cu26     1.0000 0.98897  0.19201  0.03177  Biso   1.000  Cu
  Cu27     1.0000 0.01940  0.98592  0.23122  Biso   1.000  Cu
  Cu28     1.0000 0.70556  0.98709  0.53638  Biso   1.000  Cu
  Cu29     1.0000 0.50069  0.19508  0.52546  Biso   1.000  Cu
  Cu30     1.0000 0.51687  0.98797  0.31200  Biso   1.000  Cu
  Cu31     1.0000 0.29404  0.50275  0.03440  Biso   1.000  Cu
  Cu32     1.0000 0.51210  0.69574  0.01566  Biso   1.000  Cu
  Cu33     1.0000 0.51457  0.48932  0.23155  Biso   1.000  Cu
  Cu34     1.0000 0.79205  0.48137  0.51980  Biso   1.000  Cu
  Cu35     1.0000 0.99789  0.69196  0.51813  Biso   1.000  Cu
  Cu36     1.0000 0.01135  0.48302  0.31438  Biso   1.000  Cu
  Cu37     1.0000 0.79656  0.97490  0.03932  Biso   1.000  Cu
  Cu38     1.0000 0.01147  0.77919  0.01235  Biso   1.000  Cu
  Cu39     1.0000 0.98621  0.99102  0.81311  Biso   1.000  Cu
  Cu40     1.0000 0.29343  0.98309  0.50345  Biso   1.000  Cu
  Cu41     1.0000 0.50516  0.77454  0.51400  Biso   1.000  Cu
  Cu42     1.0000 0.48983  0.98334  0.72930  Biso   1.000  Cu
  Cu43     1.0000 0.70722  0.47629  0.01635  Biso   1.000  Cu
  Cu44     1.0000 0.48623  0.28114  0.03243  Biso   1.000  Cu
  Cu45     1.0000 0.48495  0.48220  0.81672  Biso   1.000  Cu
  Cu46     1.0000 0.20420  0.48761  0.52843  Biso   1.000  Cu
  Cu47     1.0000 0.00156  0.27519  0.53467  Biso   1.000  Cu
  Cu48     1.0000 0.98404  0.49334  0.73392  Biso   1.000  Cu
  H1       1.0000 0.29131  0.71883  0.54217  Biso   1.000  H
  H2       1.0000 0.53332  0.27723  0.76717  Biso   1.000  H
  H3       1.0000 0.75484  0.45655  0.30118  Biso   1.000  H
  H4       1.0000 0.74691  0.76600  0.99578  Biso   1.000  H
  H5       1.0000 0.96902  0.27715  0.79477  Biso   1.000  H
  H6       1.0000 0.31033  0.46669  0.29865  Biso   1.000  H
  H7       1.0000 0.26801  0.27555  0.53771  Biso   1.000  H
  H8       1.0000 0.97729  0.78047  0.76295  Biso   1.000  H
  H9       1.0000 0.78318  0.97695  0.33880  Biso   1.000  H
  H10      1.0000 0.75057  0.27075  0.05914  Biso   1.000  H
  H11      1.0000 0.46411  0.71586  0.72030  Biso   1.000  H
  H12      1.0000 0.28433  0.99834  0.21693  Biso   1.000  H
  H13      1.0000 0.71040  0.24988  0.50697  Biso   1.000  H
  H14      1.0000 0.50877  0.75587  0.22518  Biso   1.000  H
  H15      1.0000 0.24254  0.44432  0.74289  Biso   1.000  H
  H16      1.0000 0.25757  0.20491  0.05058  Biso   1.000  H
  H17      1.0000 0.04489  0.74457  0.30279  Biso   1.000  H
  H18      1.0000 0.69442  0.43937  0.75842  Biso   1.000  H
  H19      1.0000 0.78440  0.73944  0.49178  Biso   1.000  H
  H20      1.0000 0.00312  0.25097  0.23410  Biso   1.000  H
  H21      1.0000 0.22266  0.01065  0.70733  Biso   1.000  H
  H22      1.0000 0.25805  0.71801  0.06450  Biso   1.000  H
  H23      1.0000 0.54938  0.20491  0.26935  Biso   1.000  H
  H24      1.0000 0.71889  0.93900  0.83299  Biso   1.000  H
  H25      1.0000 0.24486  0.95543  0.79494  Biso   1.000  H
  H26      1.0000 0.78051  0.24005  0.06199  Biso   1.000  H
  H27      1.0000 0.04460  0.71605  0.21857  Biso   1.000  H
  H28      1.0000 0.74273  0.93312  0.75201  Biso   1.000  H
  H29      1.0000 0.24042  0.20013  0.48405  Biso   1.000  H
  H30      1.0000 0.45559  0.78629  0.25318  Biso   1.000  H
  H31      1.0000 0.27754  0.45279  0.76756  Biso   1.000  H
  H32      1.0000 0.77296  0.68497  0.05111  Biso   1.000  H
  H33      1.0000 0.49510  0.28591  0.29890  Biso   1.000  H
  H34      1.0000 0.71454  0.48674  0.72704  Biso   1.000  H
  H35      1.0000 0.21889  0.73171  0.47748  Biso   1.000  H
  H36      1.0000 0.95059  0.24336  0.30801  Biso   1.000  H
  H37      1.0000 0.76101  0.93238  0.25463  Biso   1.000  H
  H38      1.0000 0.27803  0.79152  0.00281  Biso   1.000  H
  H39      1.0000 0.97804  0.25830  0.83133  Biso   1.000  H
  H40      1.0000 0.31247  0.94359  0.23858  Biso   1.000  H
  H41      1.0000 0.69840  0.71539  0.54092  Biso   1.000  H
  H42      1.0000 0.48354  0.19237  0.79333  Biso   1.000  H
  H43      1.0000 0.72468  0.46388  0.27683  Biso   1.000  H
  H44      1.0000 0.22531  0.28589  0.06131  Biso   1.000  H
  H45      1.0000 0.49282  0.68371  0.74445  Biso   1.000  H
  H46      1.0000 0.27856  0.43967  0.32879  Biso   1.000  H
  H47      1.0000 0.73068  0.27600  0.55565  Biso   1.000  H
  H48      1.0000 0.04858  0.70478  0.77702  Biso   1.000  H
  H49      1.0000 0.22739  0.47132  0.25750  Biso   1.000  H
  H50      1.0000 0.28096  0.23777  0.56439  Biso   1.000  H
  H51      1.0000 0.53521  0.22531  0.23578  Biso   1.000  H
  H52      1.0000 0.77664  0.51914  0.22180  Biso   1.000  H
  H53      1.0000 0.72791  0.18572  0.00232  Biso   1.000  H
  H54      1.0000 0.03654  0.25365  0.27859  Biso   1.000  H
  H55      1.0000 0.25061  0.99159  0.28905  Biso   1.000  H
  H56      1.0000 0.25389  0.70984  0.56130  Biso   1.000  H
  H57      1.0000 0.99631  0.77285  0.27704  Biso   1.000  H
  H58      1.0000 0.80346  0.00023  0.30060  Biso   1.000  H
  H59      1.0000 0.73107  0.73093  0.97674  Biso   1.000  H
  H60      1.0000 0.51186  0.72263  0.29502  Biso   1.000  H
  H61      1.0000 0.77501  0.44848  0.78547  Biso   1.000  H
  H62      1.0000 0.76571  0.77114  0.50368  Biso   1.000  H
  H63      1.0000 0.47480  0.75319  0.80917  Biso   1.000  H
  H64      1.0000 0.21518  0.49804  0.82253  Biso   1.000  H
  H65      1.0000 0.22406  0.73936  0.05955  Biso   1.000  H
  H66      1.0000 0.99738  0.76245  0.71891  Biso   1.000  H
  H67      1.0000 0.69210  0.99237  0.80308  Biso   1.000  H
  H68      1.0000 0.78963  0.21958  0.51245  Biso   1.000  H
  H69      1.0000 0.03176  0.20048  0.77155  Biso   1.000  H
  H70      1.0000 0.20064  0.02060  0.74182  Biso   1.000  H
  H71      1.0000 0.27359  0.23474  0.00305  Biso   1.000  H
  H72      1.0000 0.54297  0.24453  0.74224  Biso   1.000  H
  H73      1.0000 0.74897  0.50049  0.80419  Biso   1.000  H
  H74      1.0000 0.73468  0.69081  0.55585  Biso   1.000  H
  H75      1.0000 0.49709  0.77785  0.78218  Biso   1.000  H
  H76      1.0000 0.19321  0.51345  0.78657  Biso   1.000  H
  H77      1.0000 0.29265  0.75411  0.98334  Biso   1.000  H
  H78      1.0000 0.06062  0.74185  0.79472  Biso   1.000  H
  H79      1.0000 0.76985  0.98916  0.77208  Biso   1.000  H
  H80      1.0000 0.76301  0.19440  0.55549  Biso   1.000  H
  H81      1.0000 0.04395  0.23955  0.75318  Biso   1.000  H
  H82      1.0000 0.27349  0.95777  0.76619  Biso   1.000  H
  H83      1.0000 0.19761  0.26821  0.01632  Biso   1.000  H
  H84      1.0000 0.49879  0.21519  0.82696  Biso   1.000  H
  H85      1.0000 0.25024  0.43062  0.24023  Biso   1.000  H
  H86      1.0000 0.20364  0.21996  0.50583  Biso   1.000  H
  H87      1.0000 0.47499  0.24222  0.30959  Biso   1.000  H
  H88      1.0000 0.79858  0.53437  0.26310  Biso   1.000  H
  H89      1.0000 0.69140  0.20687  0.01926  Biso   1.000  H
  H90      1.0000 0.97576  0.19483  0.30181  Biso   1.000  H
  H91      1.0000 0.23601  0.93209  0.25599  Biso   1.000  H
  H92      1.0000 0.23927  0.77217  0.48672  Biso   1.000  H
  H93      1.0000 0.99146  0.69708  0.24383  Biso   1.000  H
  H94      1.0000 0.72100  0.95330  0.26932  Biso   1.000  H
  H95      1.0000 0.80728  0.70983  0.04132  Biso   1.000  H
  H96      1.0000 0.44880  0.70609  0.27468  Biso   1.000  H
  H97      1.0000 0.85827  0.97669  0.94181  Biso   1.000  H
  H98      1.0000 0.91971  0.84758  0.01103  Biso   1.000  H
  H99      1.0000 0.99959  0.90162  0.88691  Biso   1.000  H
  H100     1.0000 0.36179  0.97935  0.59959  Biso   1.000  H
  H101     1.0000 0.41118  0.85292  0.51400  Biso   1.000  H
  H102     1.0000 0.49933  0.89391  0.64793  Biso   1.000  H
  H103     1.0000 0.62761  0.48638  0.93144  Biso   1.000  H
  H104     1.0000 0.58000  0.34997  0.02470  Biso   1.000  H
  H105     1.0000 0.48497  0.39665  0.89282  Biso   1.000  H
  H106     1.0000 0.12232  0.48657  0.61514  Biso   1.000  H
  H107     1.0000 0.09145  0.35357  0.52516  Biso   1.000  H
  H108     1.0000 0.98535  0.39804  0.66268  Biso   1.000  H
  H109     1.0000 0.14221  0.99473  0.10105  Biso   1.000  H
  H110     1.0000 0.08460  0.12531  0.03072  Biso   1.000  H
  H111     1.0000 0.00062  0.07504  0.16520  Biso   1.000  H
  H112     1.0000 0.63350  0.97062  0.43708  Biso   1.000  H
  H113     1.0000 0.59125  0.12159  0.52756  Biso   1.000  H
  H114     1.0000 0.51703  0.07598  0.38848  Biso   1.000  H
  H115     1.0000 0.37568  0.49297  0.11836  Biso   1.000  H
  H116     1.0000 0.41369  0.62455  0.01108  Biso   1.000  H
  H117     1.0000 0.50607  0.57830  0.15641  Biso   1.000  H
  H118     1.0000 0.87782  0.48990  0.43129  Biso   1.000  H
  H119     1.0000 0.90792  0.61477  0.51555  Biso   1.000  H
  H120     1.0000 0.00097  0.58185  0.38418  Biso   1.000  H
  H121     1.0000 0.08237  0.99780  0.87901  Biso   1.000  H
  H122     1.0000 0.86403  0.07116  0.03341  Biso   1.000  H
  H123     1.0000 0.00683  0.85497  0.10592  Biso   1.000  H
  H124     1.0000 0.58768  0.99909  0.66557  Biso   1.000  H
  H125     1.0000 0.36704  0.07651  0.50809  Biso   1.000  H
  H126     1.0000 0.50404  0.85160  0.42692  Biso   1.000  H
  H127     1.0000 0.40035  0.49451  0.88855  Biso   1.000  H
  H128     1.0000 0.64012  0.57602  0.03381  Biso   1.000  H
  H129     1.0000 0.50651  0.34922  0.11680  Biso   1.000  H
  H130     1.0000 0.89065  0.48854  0.65748  Biso   1.000  H
  H131     1.0000 0.13145  0.57824  0.53445  Biso   1.000  H
  H132     1.0000 0.01670  0.34947  0.44649  Biso   1.000  H
  H133     1.0000 0.92315  0.98376  0.16622  Biso   1.000  H
  H134     1.0000 0.14129  0.90690  0.01451  Biso   1.000  H
  H135     1.0000 0.98968  0.11929  0.93750  Biso   1.000  H
  H136     1.0000 0.42019  0.99241  0.37816  Biso   1.000  H
  H137     1.0000 0.63334  0.89286  0.52160  Biso   1.000  H
  H138     1.0000 0.49561  0.12277  0.61662  Biso   1.000  H
  H139     1.0000 0.59800  0.48074  0.15504  Biso   1.000  H
  H140     1.0000 0.35861  0.40521  0.02626  Biso   1.000  H
  H141     1.0000 0.50759  0.61891  0.92617  Biso   1.000  H
  H142     1.0000 0.10339  0.47983  0.38858  Biso   1.000  H
  H143     1.0000 0.86680  0.39329  0.51986  Biso   1.000  H
  H144     1.0000 0.99692  0.62097  0.61198  Biso   1.000  H
  H145     1.0000 0.58177  0.47743  0.89067  Biso   1.000  H
  H146     1.0000 0.86370  0.57052  0.51764  Biso   1.000  H
  H147     1.0000 0.51056  0.84739  0.60299  Biso   1.000  H
  H148     1.0000 0.07817  0.48546  0.65743  Biso   1.000  H
  H149     1.0000 0.37318  0.58535  0.03162  Biso   1.000  H
  H150     1.0000 0.01394  0.85693  0.92874  Biso   1.000  H
  H151     1.0000 0.89858  0.97814  0.89898  Biso   1.000  H
  H152     1.0000 0.63202  0.07790  0.52202  Biso   1.000  H
  H153     1.0000 0.98995  0.35336  0.62385  Biso   1.000  H
  H154     1.0000 0.40356  0.99567  0.64429  Biso   1.000  H
  H155     1.0000 0.12669  0.08520  0.01414  Biso   1.000  H
  H156     1.0000 0.49057  0.35965  0.93728  Biso   1.000  H
  H157     1.0000 0.42036  0.48246  0.16056  Biso   1.000  H
  H158     1.0000 0.13329  0.39600  0.52202  Biso   1.000  H
  H159     1.0000 0.50797  0.11975  0.43518  Biso   1.000  H
  H160     1.0000 0.91738  0.48731  0.39149  Biso   1.000  H
  H161     1.0000 0.62609  0.38598  0.01974  Biso   1.000  H
  H162     1.0000 0.99458  0.11796  0.12246  Biso   1.000  H
  H163     1.0000 0.10565  0.98948  0.14557  Biso   1.000  H
  H164     1.0000 0.37335  0.89153  0.50262  Biso   1.000  H
  H165     1.0000 0.00481  0.62373  0.42340  Biso   1.000  H
  H166     1.0000 0.59955  0.97609  0.39391  Biso   1.000  H
  H167     1.0000 0.87620  0.88710  0.02773  Biso   1.000  H
  H168     1.0000 0.50389  0.61540  0.10844  Biso   1.000  H
  H169     1.0000 0.97580  0.08241  0.89386  Biso   1.000  H
  H170     1.0000 0.87813  0.97482  0.12461  Biso   1.000  H
  H171     1.0000 0.10042  0.86126  0.01277  Biso   1.000  H
  H172     1.0000 0.49881  0.07938  0.65726  Biso   1.000  H
  H173     1.0000 0.37349  0.98962  0.41863  Biso   1.000  H
  H174     1.0000 0.59610  0.85234  0.51658  Biso   1.000  H
  H175     1.0000 0.49483  0.57420  0.88573  Biso   1.000  H
  H176     1.0000 0.63995  0.47106  0.11048  Biso   1.000  H
  H177     1.0000 0.40007  0.36091  0.02623  Biso   1.000  H
  H178     1.0000 0.98868  0.58212  0.65722  Biso   1.000  H
  H179     1.0000 0.14112  0.48598  0.43134  Biso   1.000  H
  H180     1.0000 0.90809  0.35340  0.53213  Biso   1.000  H
  H181     1.0000 0.01826  0.89613  0.14959  Biso   1.000  H
  H182     1.0000 0.12544  0.99087  0.91619  Biso   1.000  H
  H183     1.0000 0.90460  0.11606  0.03479  Biso   1.000  H
  H184     1.0000 0.51567  0.89454  0.38510  Biso   1.000  H
  H185     1.0000 0.63042  0.99143  0.62583  Biso   1.000  H
  H186     1.0000 0.40836  0.12115  0.51264  Biso   1.000  H
  H187     1.0000 0.51747  0.39530  0.15606  Biso   1.000  H
  H188     1.0000 0.35807  0.50225  0.93473  Biso   1.000  H
  H189     1.0000 0.59991  0.61962  0.02581  Biso   1.000  H
  H190     1.0000 0.01506  0.39544  0.39957  Biso   1.000  H
  H191     1.0000 0.85327  0.49013  0.61249  Biso   1.000  H
  H192     1.0000 0.09113  0.61923  0.52462  Biso   1.000  H
  H193     1.0000 0.27392  0.84342  0.49653  Biso   1.000  H
  H194     1.0000 0.52175  0.26190  0.89408  Biso   1.000  H
  H195     1.0000 0.87283  0.49096  0.29096  Biso   1.000  H
  H196     1.0000 0.78415  0.82838  0.04336  Biso   1.000  H
  H197     1.0000 0.02044  0.26555  0.68145  Biso   1.000  H
  H198     1.0000 0.37207  0.43819  0.25017  Biso   1.000  H
  H199     1.0000 0.23060  0.34526  0.51361  Biso   1.000  H
  H200     1.0000 0.03156  0.76641  0.86864  Biso   1.000  H
  H201     1.0000 0.65991  0.99444  0.30576  Biso   1.000  H
  H202     1.0000 0.72156  0.33221  0.01939  Biso   1.000  H
  H203     1.0000 0.50042  0.75386  0.65968  Biso   1.000  H
  H204     1.0000 0.16362  0.98055  0.23997  Biso   1.000  H
  H205     1.0000 0.72842  0.12764  0.52179  Biso   1.000  H
  H206     1.0000 0.47861  0.71267  0.15521  Biso   1.000  H
  H207     1.0000 0.13050  0.47697  0.75561  Biso   1.000  H
  H208     1.0000 0.21912  0.14255  0.00716  Biso   1.000  H
  H209     1.0000 0.99649  0.72028  0.37218  Biso   1.000  H
  H210     1.0000 0.62882  0.48391  0.78988  Biso   1.000  H
  H211     1.0000 0.76596  0.62267  0.51582  Biso   1.000  H
  H212     1.0000 0.96474  0.20966  0.17609  Biso   1.000  H
  H213     1.0000 0.34382  0.99718  0.73713  Biso   1.000  H
  H214     1.0000 0.28265  0.65005  0.04242  Biso   1.000  H
  H215     1.0000 0.50020  0.21582  0.38291  Biso   1.000  H
  H216     1.0000 0.84021  0.96808  0.80593  Biso   1.000  H
  H217     1.0000 0.24137  0.48887  0.38556  Biso   1.000  H
  H218     1.0000 0.35625  0.21440  0.53317  Biso   1.000  H
  H219     1.0000 0.52679  0.34937  0.25710  Biso   1.000  H
  H220     1.0000 0.73909  0.48280  0.15883  Biso   1.000  H
  H221     1.0000 0.84309  0.20985  0.03033  Biso   1.000  H
  H222     1.0000 0.00155  0.33627  0.30497  Biso   1.000  H
  H223     1.0000 0.28478  0.96717  0.35638  Biso   1.000  H
  H224     1.0000 0.13858  0.71864  0.52003  Biso   1.000  H
  H225     1.0000 0.03197  0.83938  0.24303  Biso   1.000  H
  H226     1.0000 0.78677  0.96828  0.18730  Biso   1.000  H
  H227     1.0000 0.66002  0.70985  0.01643  Biso   1.000  H
  H228     1.0000 0.50394  0.84370  0.28518  Biso   1.000  H
  H229     1.0000 0.76032  0.46009  0.66420  Biso   1.000  H
  H230     1.0000 0.65358  0.75530  0.50714  Biso   1.000  H
  H231     1.0000 0.46708  0.62506  0.79289  Biso   1.000  H
  H232     1.0000 0.26066  0.47013  0.89407  Biso   1.000  H
  H233     1.0000 0.15734  0.76861  0.02210  Biso   1.000  H
  H234     1.0000 0.99945  0.63930  0.75108  Biso   1.000  H
  H235     1.0000 0.72564  0.97833  0.68215  Biso   1.000  H
  H236     1.0000 0.85391  0.26140  0.55271  Biso   1.000  H
  H237     1.0000 0.99270  0.13668  0.79636  Biso   1.000  H
  H238     1.0000 0.21962  0.99949  0.85902  Biso   1.000  H
  H239     1.0000 0.33820  0.26961  0.03825  Biso   1.000  H
  H240     1.0000 0.50664  0.12530  0.75759  Biso   1.000  H
  H241     1.0000 0.71754  0.47453  0.86811  Biso   1.000  H
  H242     1.0000 0.85449  0.71122  0.52759  Biso   1.000  H
  H243     1.0000 0.47401  0.84204  0.74171  Biso   1.000  H
  H244     1.0000 0.21629  0.47791  0.67359  Biso   1.000  H
  H245     1.0000 0.37181  0.72708  0.00805  Biso   1.000  H
  H246     1.0000 0.01027  0.85114  0.78945  Biso   1.000  H
  H247     1.0000 0.75985  0.97854  0.89454  Biso   1.000  H
  H248     1.0000 0.64616  0.21692  0.53073  Biso   1.000  H
  H249     1.0000 0.99594  0.35311  0.76210  Biso   1.000  H
  H250     1.0000 0.26462  0.97663  0.64804  Biso   1.000  H
  H251     1.0000 0.13450  0.22313  0.03338  Biso   1.000  H
  H252     1.0000 0.48717  0.33769  0.79860  Biso   1.000  H
  H253     1.0000 0.28285  0.48244  0.18153  Biso   1.000  H
  H254     1.0000 0.14355  0.25883  0.54453  Biso   1.000  H
  H255     1.0000 0.51572  0.13165  0.29290  Biso   1.000  H
  H256     1.0000 0.78035  0.49594  0.37953  Biso   1.000  H
  H257     1.0000 0.63018  0.25161  0.04743  Biso   1.000  H
  H258     1.0000 0.99422  0.13045  0.26200  Biso   1.000  H
  H259     1.0000 0.24218  0.97037  0.14341  Biso   1.000  H
  H260     1.0000 0.36131  0.75392  0.50249  Biso   1.000  H
  H261     1.0000 0.01678  0.62997  0.28725  Biso   1.000  H
  H262     1.0000 0.73698  0.95618  0.40070  Biso   1.000  H
  H263     1.0000 0.86927  0.74863  0.00722  Biso   1.000  H
  H264     1.0000 0.48394  0.63465  0.24795  Biso   1.000  H
  H265     1.0000 0.00581  0.21686  0.89167  Biso   1.000  H
  H266     1.0000 0.87771  0.96763  0.26623  Biso   1.000  H
  H267     1.0000 0.23959  0.85711  0.02734  Biso   1.000  H
  H268     1.0000 0.51140  0.21613  0.67499  Biso   1.000  H
  H269     1.0000 0.37448  0.97962  0.28012  Biso   1.000  H
  H270     1.0000 0.72943  0.84413  0.54271  Biso   1.000  H
  H271     1.0000 0.50439  0.71361  0.86798  Biso   1.000  H
  H272     1.0000 0.65843  0.50602  0.24681  Biso   1.000  H
  H273     1.0000 0.25809  0.36238  0.03782  Biso   1.000  H
  H274     1.0000 0.01898  0.71828  0.65804  Biso   1.000  H
  H275     1.0000 0.16315  0.45827  0.29786  Biso   1.000  H
  H276     1.0000 0.77076  0.33686  0.51346  Biso   1.000  H
  H277     1.0000 0.00567  0.75369  0.15430  Biso   1.000  H
  H278     1.0000 0.12568  0.00246  0.77636  Biso   1.000  H
  H279     1.0000 0.76252  0.11689  0.03610  Biso   1.000  H
  H280     1.0000 0.49688  0.75691  0.36718  Biso   1.000  H
  H281     1.0000 0.63119  0.96836  0.76130  Biso   1.000  H
  H282     1.0000 0.26978  0.13001  0.51430  Biso   1.000  H
  H283     1.0000 0.48459  0.26187  0.17757  Biso   1.000  H
  H284     1.0000 0.34178  0.48494  0.79761  Biso   1.000  H
  H285     1.0000 0.73953  0.61913  0.00812  Biso   1.000  H
  H286     1.0000 0.99674  0.25837  0.38290  Biso   1.000  H
  H287     1.0000 0.83951  0.48148  0.75389  Biso   1.000  H
  H288     1.0000 0.22885  0.63171  0.52802  Biso   1.000  H
  H289     1.0000 0.08026  0.22094  0.04114  Biso   1.000  H
  H290     1.0000 0.00752  0.07647  0.26263  Biso   1.000  H
  H291     1.0000 0.23545  0.97712  0.08731  Biso   1.000  H
  H292     1.0000 0.59142  0.21887  0.52904  Biso   1.000  H
  H293     1.0000 0.52001  0.07748  0.29281  Biso   1.000  H
  H294     1.0000 0.72718  0.95819  0.45316  Biso   1.000  H
  H295     1.0000 0.42385  0.71868  0.99383  Biso   1.000  H
  H296     1.0000 0.49250  0.58171  0.25102  Biso   1.000  H
  H297     1.0000 0.28275  0.50441  0.13137  Biso   1.000  H
  H298     1.0000 0.90578  0.71013  0.53221  Biso   1.000  H
  H299     1.0000 0.02172  0.57201  0.29156  Biso   1.000  H
  H300     1.0000 0.78141  0.48860  0.42987  Biso   1.000  H
  H301     1.0000 0.92225  0.75329  0.99635  Biso   1.000  H
  H302     1.0000 0.00041  0.90524  0.78978  Biso   1.000  H
  H303     1.0000 0.76341  0.98059  0.95025  Biso   1.000  H
  H304     1.0000 0.41261  0.75422  0.50886  Biso   1.000  H
  H305     1.0000 0.47404  0.89612  0.74270  Biso   1.000  H
  H306     1.0000 0.26916  0.96473  0.59376  Biso   1.000  H
  H307     1.0000 0.57401  0.25703  0.04886  Biso   1.000  H
  H308     1.0000 0.47932  0.39185  0.79632  Biso   1.000  H
  H309     1.0000 0.72212  0.47061  0.92638  Biso   1.000  H
  H310     1.0000 0.09081  0.26067  0.55678  Biso   1.000  H
  H311     1.0000 0.97560  0.40472  0.75591  Biso   1.000  H
  H312     1.0000 0.21840  0.47727  0.61980  Biso   1.000  H
  H313     1.0000 0.21887  0.99805  0.91276  Biso   1.000  H
  H314     1.0000 0.89800  0.20991  0.01940  Biso   1.000  H
  H315     1.0000 0.03248  0.89467  0.24507  Biso   1.000  H
  H316     1.0000 0.72612  0.98610  0.62590  Biso   1.000  H
  H317     1.0000 0.40669  0.21340  0.53622  Biso   1.000  H
  H318     1.0000 0.51314  0.89741  0.28779  Biso   1.000  H
  H319     1.0000 0.26590  0.48502  0.94818  Biso   1.000  H
  H320     1.0000 0.60246  0.71352  0.01636  Biso   1.000  H
  H321     1.0000 0.53235  0.40284  0.25232  Biso   1.000  H
  H322     1.0000 0.76085  0.46496  0.61022  Biso   1.000  H
  H323     1.0000 0.08959  0.71547  0.51772  Biso   1.000  H
  H324     1.0000 0.00746  0.39517  0.30208  Biso   1.000  H
  H325     1.0000 0.78398  0.97096  0.13067  Biso   1.000  H
  H326     1.0000 0.10086  0.76906  0.02199  Biso   1.000  H
  H327     1.0000 0.98230  0.08488  0.79606  Biso   1.000  H
  H328     1.0000 0.27947  0.97203  0.41184  Biso   1.000  H
  H329     1.0000 0.59897  0.75627  0.49567  Biso   1.000  H
  H330     1.0000 0.49969  0.07258  0.75331  Biso   1.000  H
  H331     1.0000 0.73552  0.47086  0.10613  Biso   1.000  H
  H332     1.0000 0.39262  0.26426  0.03214  Biso   1.000  H
  H333     1.0000 0.46434  0.57114  0.79517  Biso   1.000  H
  H334     1.0000 0.23201  0.49187  0.44127  Biso   1.000  H
  H335     1.0000 0.91010  0.26132  0.55125  Biso   1.000  H
  H336     1.0000 0.99330  0.58480  0.75334  Biso   1.000  H
  H337     1.0000 0.01066  0.21082  0.94560  Biso   1.000  H
  H338     1.0000 0.93135  0.97592  0.25996  Biso   1.000  H
  H339     1.0000 0.23864  0.90932  0.02394  Biso   1.000  H
  H340     1.0000 0.50454  0.21871  0.61992  Biso   1.000  H
  H341     1.0000 0.43049  0.99116  0.28421  Biso   1.000  H
  H342     1.0000 0.72591  0.89864  0.54511  Biso   1.000  H
  H343     1.0000 0.52003  0.71514  0.92041  Biso   1.000  H
  H344     1.0000 0.60288  0.50814  0.24731  Biso   1.000  H
  H345     1.0000 0.26445  0.41604  0.02614  Biso   1.000  H
  H346     1.0000 0.01343  0.71395  0.60257  Biso   1.000  H
  H347     1.0000 0.10604  0.46439  0.29358  Biso   1.000  H
  H348     1.0000 0.77114  0.39276  0.50698  Biso   1.000  H
  H349     1.0000 0.99767  0.75824  0.10200  Biso   1.000  H
  H350     1.0000 0.07046  0.00152  0.78388  Biso   1.000  H
  H351     1.0000 0.76801  0.06161  0.03631  Biso   1.000  H
  H352     1.0000 0.50052  0.75515  0.42278  Biso   1.000  H
  H353     1.0000 0.57696  0.97519  0.75657  Biso   1.000  H
  H354     1.0000 0.27030  0.07469  0.50779  Biso   1.000  H
  H355     1.0000 0.47364  0.26245  0.12392  Biso   1.000  H
  H356     1.0000 0.39258  0.49211  0.79343  Biso   1.000  H
  H357     1.0000 0.73566  0.56473  0.01315  Biso   1.000  H
  H358     1.0000 0.00206  0.25484  0.44070  Biso   1.000  H
  H359     1.0000 0.89359  0.49215  0.75423  Biso   1.000  H
  H360     1.0000 0.22689  0.57485  0.52829  Biso   1.000  H
  H361     1.0000 0.99497  0.71975  0.42533  Biso   1.000  H
  H362     1.0000 0.39975  0.99686  0.73977  Biso   1.000  H
  H363     1.0000 0.72213  0.38520  0.00957  Biso   1.000  H
  H364     1.0000 0.48564  0.70837  0.09867  Biso   1.000  H
  H365     1.0000 0.89110  0.98232  0.80149  Biso   1.000  H
  H366     1.0000 0.22755  0.39812  0.50531  Biso   1.000  H
  H367     1.0000 0.49199  0.21459  0.43504  Biso   1.000  H
  H368     1.0000 0.07282  0.48054  0.75400  Biso   1.000  H
  H369     1.0000 0.78301  0.88400  0.05095  Biso   1.000  H
  H370     1.0000 0.96455  0.20971  0.12449  Biso   1.000  H
  H371     1.0000 0.57569  0.48101  0.79667  Biso   1.000  H
  H372     1.0000 0.27517  0.89596  0.49352  Biso   1.000  H
  H373     1.0000 0.01777  0.26038  0.62617  Biso   1.000  H
  H374     1.0000 0.60927  0.00064  0.30209  Biso   1.000  H
  H375     1.0000 0.27915  0.59876  0.04511  Biso   1.000  H
  H376     1.0000 0.52148  0.27142  0.94871  Biso   1.000  H
  H377     1.0000 0.10786  0.98022  0.24026  Biso   1.000  H
  H378     1.0000 0.76706  0.56953  0.52402  Biso   1.000  H
  H379     1.0000 0.50810  0.75276  0.60440  Biso   1.000  H
  H380     1.0000 0.92131  0.48462  0.29346  Biso   1.000  H
  H381     1.0000 0.21998  0.08873  0.00064  Biso   1.000  H
  H382     1.0000 0.02741  0.76538  0.92371  Biso   1.000  H
  H383     1.0000 0.42897  0.43827  0.24300  Biso   1.000  H
  H384     1.0000 0.72719  0.07435  0.52265  Biso   1.000  H
  H385     1.0000 0.24379  0.45746  0.36525  Biso   1.000  H
  H386     1.0000 0.27428  0.16336  0.48180  Biso   1.000  H
  H387     1.0000 0.48914  0.32339  0.26487  Biso   1.000  H
  H388     1.0000 0.68289  0.46775  0.24140  Biso   1.000  H
  H389     1.0000 0.81537  0.20351  0.06346  Biso   1.000  H
  H390     1.0000 0.95537  0.27663  0.34785  Biso   1.000  H
  H391     1.0000 0.34777  0.94530  0.27815  Biso   1.000  H
  H392     1.0000 0.17556  0.70346  0.48561  Biso   1.000  H
  H393     1.0000 0.04861  0.75598  0.18048  Biso   1.000  H
  H394     1.0000 0.79627  0.93501  0.21394  Biso   1.000  H
  H395     1.0000 0.73323  0.65100  0.05060  Biso   1.000  H
  H396     1.0000 0.46154  0.82038  0.29189  Biso   1.000  H
  H397     1.0000 0.75301  0.49558  0.68983  Biso   1.000  H
  H398     1.0000 0.67118  0.75722  0.55151  Biso   1.000  H
  H399     1.0000 0.49716  0.64914  0.78604  Biso   1.000  H
  H400     1.0000 0.31357  0.45423  0.80390  Biso   1.000  H
  H401     1.0000 0.23840  0.82486  0.99056  Biso   1.000  H
  H402     1.0000 0.04259  0.66710  0.74318  Biso   1.000  H
  H403     1.0000 0.71466  0.93856  0.70954  Biso   1.000  H
  H404     1.0000 0.76558  0.31690  0.55647  Biso   1.000  H
  H405     1.0000 0.97207  0.22156  0.86371  Biso   1.000  H
  H406     1.0000 0.21013  0.96371  0.83158  Biso   1.000  H
  H407     1.0000 0.26162  0.32668  0.06429  Biso   1.000  H
  H408     1.0000 0.47787  0.15860  0.75649  Biso   1.000  H
  H409     1.0000 0.28409  0.44254  0.19725  Biso   1.000  H
  H410     1.0000 0.16881  0.25832  0.50209  Biso   1.000  H
  H411     1.0000 0.47042  0.20579  0.34407  Biso   1.000  H
  H412     1.0000 0.83393  0.53339  0.30043  Biso   1.000  H
  H413     1.0000 0.65451  0.24650  0.00955  Biso   1.000  H
  H414     1.0000 0.96554  0.15650  0.26882  Biso   1.000  H
  H415     1.0000 0.19186  0.93841  0.22517  Biso   1.000  H
  H416     1.0000 0.27405  0.80599  0.47883  Biso   1.000  H
  H417     1.0000 0.98111  0.65936  0.28146  Biso   1.000  H
  H418     1.0000 0.68441  0.95072  0.30612  Biso   1.000  H
  H419     1.0000 0.84295  0.74694  0.04673  Biso   1.000  H
  H420     1.0000 0.44951  0.66787  0.24277  Biso   1.000  H
  H421     1.0000 0.71091  0.50643  0.84272  Biso   1.000  H
  H422     1.0000 0.76846  0.65054  0.55281  Biso   1.000  H
  H423     1.0000 0.50363  0.81341  0.74626  Biso   1.000  H
  H424     1.0000 0.16251  0.51632  0.74680  Biso   1.000  H
  H425     1.0000 0.32920  0.71918  0.98157  Biso   1.000  H
  H426     1.0000 0.06080  0.77526  0.83330  Biso   1.000  H
  H427     1.0000 0.81024  0.99667  0.80824  Biso   1.000  H
  H428     1.0000 0.72791  0.15403  0.55405  Biso   1.000  H
  H429     1.0000 0.04214  0.27599  0.71542  Biso   1.000  H
  H430     1.0000 0.31297  0.95398  0.73012  Biso   1.000  H
  H431     1.0000 0.15919  0.23086  0.00751  Biso   1.000  H
  H432     1.0000 0.48802  0.25065  0.86433  Biso   1.000  H
  H433     1.0000 0.26080  0.01050  0.67298  Biso   1.000  H
  H434     1.0000 0.71764  0.30609  0.05443  Biso   1.000  H
  H435     1.0000 0.03121  0.71793  0.34676  Biso   1.000  H
  H436     1.0000 0.75998  0.94490  0.86889  Biso   1.000  H
  H437     1.0000 0.23178  0.31677  0.54697  Biso   1.000  H
  H438     1.0000 0.51116  0.71429  0.18889  Biso   1.000  H
  H439     1.0000 0.20358  0.44356  0.70442  Biso   1.000  H
  H440     1.0000 0.78170  0.80471  0.99578  Biso   1.000  H
  H441     1.0000 0.54655  0.16592  0.30473  Biso   1.000  H
  H442     1.0000 0.65583  0.44493  0.79601  Biso   1.000  H
  H443     1.0000 0.33012  0.75626  0.54035  Biso   1.000  H
  H444     1.0000 0.00504  0.21379  0.19770  Biso   1.000  H
  H445     1.0000 0.74469  0.98569  0.37007  Biso   1.000  H
  H446     1.0000 0.29794  0.68586  0.06786  Biso   1.000  H
  H447     1.0000 0.96776  0.31611  0.75654  Biso   1.000  H
  H448     1.0000 0.24563  0.00163  0.17561  Biso   1.000  H
  H449     1.0000 0.82343  0.70424  0.49102  Biso   1.000  H
  H450     1.0000 0.52378  0.31538  0.80284  Biso   1.000  H
  H451     1.0000 0.79093  0.45766  0.33666  Biso   1.000  H
  H452     1.0000 0.22094  0.16600  0.04801  Biso   1.000  H
  H453     1.0000 0.46421  0.75508  0.68159  Biso   1.000  H
  H454     1.0000 0.34759  0.47215  0.26551  Biso   1.000  H
  H455     1.0000 0.67445  0.21199  0.49844  Biso   1.000  H
  H456     1.0000 0.98116  0.81508  0.79921  Biso   1.000  H
  H457     1.0000 0.73575  0.81122  0.50764  Biso   1.000  H
  H458     1.0000 0.46911  0.71824  0.84806  Biso   1.000  H
  H459     1.0000 0.81545  0.45144  0.75019  Biso   1.000  H
  H460     1.0000 0.18592  0.77870  0.05658  Biso   1.000  H
  H461     1.0000 0.98192  0.72044  0.68856  Biso   1.000  H
  H462     1.0000 0.25623  0.50914  0.85975  Biso   1.000  H
  H463     1.0000 0.82936  0.25521  0.51499  Biso   1.000  H
  H464     1.0000 0.02895  0.16517  0.80654  Biso   1.000  H
  H465     1.0000 0.66227  0.00218  0.76252  Biso   1.000  H
  H466     1.0000 0.31162  0.27026  0.00200  Biso   1.000  H
  H467     1.0000 0.54468  0.20441  0.70461  Biso   1.000  H
  H468     1.0000 0.16240  0.02525  0.77678  Biso   1.000  H
  H469     1.0000 0.31584  0.20310  0.56324  Biso   1.000  H
  H470     1.0000 0.52794  0.25805  0.19949  Biso   1.000  H
  H471     1.0000 0.18922  0.48954  0.29369  Biso   1.000  H
  H472     1.0000 0.76352  0.14866  0.00336  Biso   1.000  H
  H473     1.0000 0.04797  0.29282  0.31775  Biso   1.000  H
  H474     1.0000 0.73876  0.52087  0.18589  Biso   1.000  H
  H475     1.0000 0.21698  0.67391  0.56908  Biso   1.000  H
  H476     1.0000 0.99566  0.81139  0.23991  Biso   1.000  H
  H477     1.0000 0.28316  0.00218  0.32982  Biso   1.000  H
  H478     1.0000 0.68905  0.69841  0.98195  Biso   1.000  H
  H479     1.0000 0.52638  0.75705  0.33467  Biso   1.000  H
  H480     1.0000 0.84337  0.00139  0.26746  Biso   1.000  H
  N1       1.0000 0.67653  0.16184  0.52702  Biso   1.000  N
  N2       1.0000 0.48583  0.66445  0.19339  Biso   1.000  N
  N3       1.0000 0.16182  0.48066  0.70330  Biso   1.000  N
  N4       1.0000 0.16784  0.17314  0.02675  Biso   1.000  N
  N5       1.0000 0.00271  0.66489  0.33832  Biso   1.000  N
  N6       1.0000 0.66309  0.48079  0.84339  Biso   1.000  N
  N7       1.0000 0.82034  0.65629  0.51919  Biso   1.000  N
  N8       1.0000 0.98237  0.15965  0.20907  Biso   1.000  N
  N9       1.0000 0.31556  0.98452  0.68292  Biso   1.000  N
  N10      1.0000 0.33758  0.67758  0.02493  Biso   1.000  N
  N11      1.0000 0.51122  0.16241  0.34933  Biso   1.000  N
  N12      1.0000 0.80946  0.97447  0.85923  Biso   1.000  N
  N13      1.0000 0.32710  0.80696  0.50819  Biso   1.000  N
  N14      1.0000 0.49944  0.30973  0.85538  Biso   1.000  N
  N15      1.0000 0.83457  0.49464  0.34358  Biso   1.000  N
  N16      1.0000 0.83530  0.80008  0.02127  Biso   1.000  N
  N17      1.0000 0.00324  0.31677  0.71144  Biso   1.000  N
  N18      1.0000 0.33747  0.46220  0.20421  Biso   1.000  N
  N19      1.0000 0.17737  0.31135  0.52801  Biso   1.000  N
  N20      1.0000 0.01764  0.81780  0.83886  Biso   1.000  N
  N21      1.0000 0.68843  0.96921  0.36011  Biso   1.000  N
  N22      1.0000 0.66610  0.29988  0.02794  Biso   1.000  N
  N23      1.0000 0.48870  0.80652  0.69090  Biso   1.000  N
  N24      1.0000 0.19406  0.97603  0.18008  Biso   1.000  N
  N25      1.0000 0.80970  0.47847  0.70041  Biso   1.000  N
  N26      1.0000 0.68042  0.80979  0.53078  Biso   1.000  N
  N27      1.0000 0.48674  0.65937  0.84109  Biso   1.000  N
  N28      1.0000 0.30989  0.48584  0.85391  Biso   1.000  N
  N29      1.0000 0.18802  0.82304  0.02283  Biso   1.000  N
  N30      1.0000 0.00748  0.66795  0.69539  Biso   1.000  N
  N31      1.0000 0.66737  0.97588  0.71039  Biso   1.000  N
  N32      1.0000 0.82312  0.30824  0.53197  Biso   1.000  N
  N33      1.0000 0.99842  0.16667  0.85524  Biso   1.000  N
  N34      1.0000 0.16305  0.99689  0.82816  Biso   1.000  N
  N35      1.0000 0.31100  0.32364  0.03143  Biso   1.000  N
  N36      1.0000 0.50873  0.16077  0.70355  Biso   1.000  N
  N37      1.0000 0.19011  0.47580  0.35010  Biso   1.000  N
  N38      1.0000 0.32231  0.16130  0.51976  Biso   1.000  N
  N39      1.0000 0.50531  0.31312  0.20687  Biso   1.000  N
  N40      1.0000 0.68744  0.49162  0.19193  Biso   1.000  N
  N41      1.0000 0.81320  0.15186  0.03612  Biso   1.000  N
  N42      1.0000 0.00563  0.30903  0.35592  Biso   1.000  N
  N43      1.0000 0.33922  0.97693  0.32951  Biso   1.000  N
  N44      1.0000 0.17456  0.66392  0.52796  Biso   1.000  N
  N45      1.0000 0.01926  0.80812  0.19030  Biso   1.000  N
  N46      1.0000 0.84123  0.97075  0.21490  Biso   1.000  N
  N47      1.0000 0.68773  0.65555  0.01885  Biso   1.000  N
  N48      1.0000 0.49717  0.81285  0.33769  Biso   1.000  N
  O1       1.0000 0.34475  0.54303  0.03386  Biso   1.000  O
  O2       1.0000 0.99430  0.32742  0.57669  Biso   1.000  O
  O3       1.0000 0.55364  0.98710  0.36754  Biso   1.000  O
  O4       1.0000 0.84230  0.52181  0.52912  Biso   1.000  O
  O5       1.0000 0.49081  0.33890  0.99056  Biso   1.000  O
  O6       1.0000 0.05591  0.99083  0.17556  Biso   1.000  O
  O7       1.0000 0.15061  0.03825  0.00591  Biso   1.000  O
  O8       1.0000 0.51677  0.82425  0.55825  Biso   1.000  O
  O9       1.0000 0.97265  0.49021  0.36588  Biso   1.000  O
  O10      1.0000 0.65130  0.03012  0.52950  Biso   1.000  O
  O11      1.0000 0.01218  0.83212  0.97529  Biso   1.000  O
  O12      1.0000 0.47051  0.47546  0.17983  Biso   1.000  O
  O13      1.0000 0.65212  0.43688  0.01464  Biso   1.000  O
  O14      1.0000 0.00126  0.64458  0.47288  Biso   1.000  O
  O15      1.0000 0.45161  0.98266  0.67250  Biso   1.000  O
  O16      1.0000 0.15377  0.44556  0.52115  Biso   1.000  O
  O17      1.0000 0.50354  0.63664  0.05626  Biso   1.000  O
  O18      1.0000 0.94680  0.98259  0.86798  Biso   1.000  O
  O19      1.0000 0.85087  0.93664  0.03225  Biso   1.000  O
  O20      1.0000 0.50269  0.14520  0.48447  Biso   1.000  O
  O21      1.0000 0.02756  0.48907  0.68199  Biso   1.000  O
  O22      1.0000 0.34732  0.94451  0.50144  Biso   1.000  O
  O23      1.0000 0.98702  0.13857  0.07428  Biso   1.000  O
  O24      1.0000 0.52922  0.48053  0.87080  Biso   1.000  O
  O25      1.0000 0.97269  0.98115  0.18485  Biso   1.000  O
  O26      1.0000 0.16435  0.95577  0.01460  Biso   1.000  O
  O27      1.0000 0.99708  0.13908  0.98962  Biso   1.000  O
  O28      1.0000 0.47050  0.99200  0.35947  Biso   1.000  O
  O29      1.0000 0.65276  0.94456  0.53774  Biso   1.000  O
  O30      1.0000 0.49929  0.14552  0.56919  Biso   1.000  O
  O31      1.0000 0.55093  0.49622  0.17604  Biso   1.000  O
  O32      1.0000 0.34097  0.45661  0.02857  Biso   1.000  O
  O33      1.0000 0.52043  0.64658  0.97328  Biso   1.000  O
  O34      1.0000 0.05611  0.48815  0.36410  Biso   1.000  O
  O35      1.0000 0.84462  0.44092  0.51574  Biso   1.000  O
  O36      1.0000 0.00429  0.63938  0.55782  Biso   1.000  O
  O37      1.0000 0.03004  0.99826  0.86007  Biso   1.000  O
  O38      1.0000 0.84647  0.02122  0.03976  Biso   1.000  O
  O39      1.0000 0.00211  0.83149  0.05791  Biso   1.000  O
  O40      1.0000 0.53563  0.98296  0.68227  Biso   1.000  O
  O41      1.0000 0.34341  0.02804  0.50695  Biso   1.000  O
  O42      1.0000 0.49695  0.83048  0.47526  Biso   1.000  O
  O43      1.0000 0.44575  0.48859  0.86362  Biso   1.000  O
  O44      1.0000 0.66035  0.52090  0.02849  Biso   1.000  O
  O45      1.0000 0.48726  0.33139  0.07509  Biso   1.000  O
  O46      1.0000 0.94265  0.49244  0.68080  Biso   1.000  O
  O47      1.0000 0.15291  0.53064  0.52444  Biso   1.000  O
  O48      1.0000 0.00628  0.32774  0.49408  Biso   1.000  O
  O49      1.0000 0.01816  0.94487  0.17316  Biso   1.000  O
  O50      1.0000 0.15098  0.99286  0.96451  Biso   1.000  O
  O51      1.0000 0.95069  0.14161  0.02672  Biso   1.000  O
  O52      1.0000 0.51188  0.94432  0.36211  Biso   1.000  O
  O53      1.0000 0.65260  0.99199  0.57546  Biso   1.000  O
  O54      1.0000 0.45867  0.14456  0.52367  Biso   1.000  O
  O55      1.0000 0.51718  0.44550  0.18005  Biso   1.000  O
  O56      1.0000 0.33917  0.50195  0.98788  Biso   1.000  O
  O57      1.0000 0.55262  0.64057  0.01783  Biso   1.000  O
  O58      1.0000 0.01388  0.44725  0.36970  Biso   1.000  O
  O59      1.0000 0.83742  0.47636  0.56787  Biso   1.000  O
  O60      1.0000 0.04331  0.64424  0.51698  Biso   1.000  O
  O61      1.0000 0.98037  0.03441  0.86669  Biso   1.000  O
  O62      1.0000 0.85161  0.97283  0.07614  Biso   1.000  O
  O63      1.0000 0.04983  0.83602  0.02279  Biso   1.000  O
  O64      1.0000 0.49301  0.02775  0.67859  Biso   1.000  O
  O65      1.0000 0.34957  0.98942  0.46316  Biso   1.000  O
  O66      1.0000 0.54708  0.82763  0.51072  Biso   1.000  O
  O67      1.0000 0.49098  0.52643  0.86345  Biso   1.000  O
  O68      1.0000 0.66007  0.47443  0.06046  Biso   1.000  O
  O69      1.0000 0.44671  0.33437  0.03184  Biso   1.000  O
  O70      1.0000 0.98129  0.53427  0.68006  Biso   1.000  O
  O71      1.0000 0.15891  0.49043  0.48227  Biso   1.000  O
  O72      1.0000 0.95838  0.32968  0.52669  Biso   1.000  O
  O73      1.0000 0.97999  0.44744  0.68317  Biso   1.000  O
  O74      1.0000 0.65466  0.98000  0.49130  Biso   1.000  O
  O75      1.0000 0.46931  0.64772  0.00538  Biso   1.000  O
  O76      1.0000 0.48021  0.44276  0.86954  Biso   1.000  O
  O77      1.0000 0.15957  0.00264  0.05140  Biso   1.000  O
  O78      1.0000 0.95888  0.63948  0.51763  Biso   1.000  O
  O79      1.0000 0.49602  0.94264  0.67525  Biso   1.000  O
  O80      1.0000 0.84983  0.48875  0.48368  Biso   1.000  O
  O81      1.0000 0.03423  0.14617  0.03302  Biso   1.000  O
  O82      1.0000 0.99405  0.95099  0.86426  Biso   1.000  O
  O83      1.0000 0.34758  0.50235  0.07289  Biso   1.000  O
  O84      1.0000 0.54213  0.14463  0.52696  Biso   1.000  O
  O85      1.0000 0.01362  0.53206  0.36676  Biso   1.000  O
  O86      1.0000 0.34331  0.98158  0.54858  Biso   1.000  O
  O87      1.0000 0.53101  0.32909  0.03829  Biso   1.000  O
  O88      1.0000 0.49837  0.52804  0.18038  Biso   1.000  O
  O89      1.0000 0.84025  0.98117  0.99219  Biso   1.000  O
  O90      1.0000 0.04194  0.32873  0.53995  Biso   1.000  O
  O91      1.0000 0.51664  0.02823  0.36627  Biso   1.000  O
  O92      1.0000 0.14690  0.48562  0.56683  Biso   1.000  O
  O93      1.0000 0.96731  0.82926  0.01111  Biso   1.000  O
  O94      1.0000 0.00739  0.02743  0.18784  Biso   1.000  O
  O95      1.0000 0.65534  0.48673  0.97889  Biso   1.000  O
  O96      1.0000 0.46368  0.82787  0.52647  Biso   1.000  O
  O97      1.0000 0.45584  0.19523  0.52596  Biso   1.000  O
  O98      1.0000 0.52038  0.44911  0.22988  Biso   1.000  O
  O99      1.0000 0.20801  0.49026  0.48625  Biso   1.000  O
  O100     1.0000 0.94613  0.19059  0.02772  Biso   1.000  O
  O101     1.0000 0.01307  0.44081  0.32177  Biso   1.000  O
  O102     1.0000 0.70929  0.46945  0.05730  Biso   1.000  O
  O103     1.0000 0.03916  0.69168  0.51306  Biso   1.000  O
  O104     1.0000 0.02577  0.94599  0.22169  Biso   1.000  O
  O105     1.0000 0.29997  0.98515  0.46157  Biso   1.000  O
  O106     1.0000 0.55201  0.68964  0.01991  Biso   1.000  O
  O107     1.0000 0.51133  0.94699  0.31229  Biso   1.000  O
  O108     1.0000 0.80350  0.96820  0.07980  Biso   1.000  O
  O109     1.0000 0.54674  0.77872  0.50613  Biso   1.000  O
  O110     1.0000 0.48580  0.52375  0.81645  Biso   1.000  O
  O111     1.0000 0.78766  0.47809  0.56168  Biso   1.000  O
  O112     1.0000 0.05305  0.78794  0.01114  Biso   1.000  O
  O113     1.0000 0.98396  0.53501  0.72953  Biso   1.000  O
  O114     1.0000 0.29065  0.50532  0.99050  Biso   1.000  O
  O115     1.0000 0.95876  0.28082  0.53194  Biso   1.000  O
  O116     1.0000 0.98148  0.03354  0.81922  Biso   1.000  O
  O117     1.0000 0.70138  0.99320  0.57756  Biso   1.000  O
  O118     1.0000 0.44495  0.28563  0.03163  Biso   1.000  O
  O119     1.0000 0.49014  0.02512  0.72768  Biso   1.000  O
  O120     1.0000 0.20027  0.99335  0.96126  Biso   1.000  O
  O121     1.0000 0.02883  0.49325  0.73012  Biso   1.000  O
  O122     1.0000 0.69966  0.02695  0.53205  Biso   1.000  O
  O123     1.0000 0.50651  0.68506  0.05533  Biso   1.000  O
  O124     1.0000 0.52706  0.48352  0.82099  Biso   1.000  O
  O125     1.0000 0.19959  0.03916  0.00115  Biso   1.000  O
  O126     1.0000 0.99433  0.69305  0.47595  Biso   1.000  O
  O127     1.0000 0.44812  0.98822  0.72003  Biso   1.000  O
  O128     1.0000 0.79417  0.52178  0.52342  Biso   1.000  O
  O129     1.0000 0.98628  0.18888  0.07404  Biso   1.000  O
  O130     1.0000 0.94336  0.98233  0.81862  Biso   1.000  O
  O131     1.0000 0.29602  0.54618  0.03447  Biso   1.000  O
  O132     1.0000 0.50142  0.19369  0.48254  Biso   1.000  O
  O133     1.0000 0.96991  0.48516  0.31773  Biso   1.000  O
  O134     1.0000 0.29753  0.94161  0.50419  Biso   1.000  O
  O135     1.0000 0.49014  0.29085  0.99021  Biso   1.000  O
  O136     1.0000 0.47247  0.47897  0.22845  Biso   1.000  O
  O137     1.0000 0.80226  0.93395  0.03542  Biso   1.000  O
  O138     1.0000 0.00036  0.27911  0.57810  Biso   1.000  O
  O139     1.0000 0.55730  0.98477  0.31984  Biso   1.000  O
  O140     1.0000 0.20222  0.44472  0.52717  Biso   1.000  O
  O141     1.0000 0.01627  0.78338  0.97069  Biso   1.000  O
  O142     1.0000 0.06082  0.99120  0.22387  Biso   1.000  O
  O143     1.0000 0.69992  0.43239  0.00756  Biso   1.000  O
  O144     1.0000 0.51486  0.77470  0.55640  Biso   1.000  O
  O145     1.0000 0.55280  0.49998  0.22575  Biso   1.000  O
  O146     1.0000 0.20200  0.52945  0.53343  Biso   1.000  O
  O147     1.0000 0.50133  0.19423  0.56875  Biso   1.000  O
  O148     1.0000 0.05464  0.48149  0.31584  Biso   1.000  O
  O149     1.0000 0.70928  0.51821  0.02699  Biso   1.000  O
  O150     1.0000 0.99544  0.18869  0.99116  Biso   1.000  O
  O151     1.0000 0.97871  0.97749  0.23338  Biso   1.000  O
  O152     1.0000 0.29405  0.02679  0.50515  Biso   1.000  O
  O153     1.0000 0.00173  0.68801  0.55845  Biso   1.000  O
  O154     1.0000 0.47519  0.98996  0.31129  Biso   1.000  O
  O155     1.0000 0.79956  0.01403  0.04115  Biso   1.000  O
  O156     1.0000 0.51687  0.69425  0.97417  Biso   1.000  O
  O157     1.0000 0.44344  0.48486  0.81459  Biso   1.000  O
  O158     1.0000 0.79627  0.44109  0.51191  Biso   1.000  O
  O159     1.0000 0.50027  0.78093  0.47332  Biso   1.000  O
  O160     1.0000 0.94172  0.49616  0.73167  Biso   1.000  O
  O161     1.0000 0.29335  0.46178  0.03221  Biso   1.000  O
  O162     1.0000 0.00358  0.78080  0.05527  Biso   1.000  O
  O163     1.0000 0.02655  0.99723  0.81127  Biso   1.000  O
  O164     1.0000 0.70225  0.94612  0.54240  Biso   1.000  O
  O165     1.0000 0.00592  0.27903  0.49256  Biso   1.000  O
  O166     1.0000 0.53225  0.97799  0.73259  Biso   1.000  O
  O167     1.0000 0.21225  0.95864  0.01029  Biso   1.000  O
  O168     1.0000 0.48751  0.28190  0.07410  Biso   1.000  O
  O169     1.0000 0.00908  0.02532  0.23679  Biso   1.000  O
  O170     1.0000 0.20798  0.00040  0.04686  Biso   1.000  O
  O171     1.0000 0.03103  0.19472  0.03502  Biso   1.000  O
  O172     1.0000 0.52215  0.02850  0.31615  Biso   1.000  O
  O173     1.0000 0.70383  0.97783  0.49521  Biso   1.000  O
  O174     1.0000 0.54117  0.19502  0.52606  Biso   1.000  O
  O175     1.0000 0.50560  0.52900  0.22902  Biso   1.000  O
  O176     1.0000 0.30083  0.50037  0.07793  Biso   1.000  O
  O177     1.0000 0.47013  0.69652  0.01091  Biso   1.000  O
  O178     1.0000 0.00880  0.52581  0.31710  Biso   1.000  O
  O179     1.0000 0.79963  0.48833  0.47726  Biso   1.000  O
  O180     1.0000 0.95602  0.68754  0.52142  Biso   1.000  O
  O181     1.0000 0.98962  0.95103  0.81529  Biso   1.000  O
  O182     1.0000 0.79176  0.97933  0.99833  Biso   1.000  O
  O183     1.0000 0.97013  0.78085  0.00839  Biso   1.000  O
  O184     1.0000 0.48872  0.94141  0.72439  Biso   1.000  O
  O185     1.0000 0.29423  0.98316  0.54536  Biso   1.000  O
  O186     1.0000 0.46474  0.77842  0.52125  Biso   1.000  O
  O187     1.0000 0.49008  0.44140  0.82203  Biso   1.000  O
  O188     1.0000 0.70305  0.48535  0.97399  Biso   1.000  O
  O189     1.0000 0.52912  0.28189  0.03242  Biso   1.000  O
  O190     1.0000 0.98119  0.45178  0.73152  Biso   1.000  O
  O191     1.0000 0.19476  0.48570  0.57012  Biso   1.000  O
  O192     1.0000 0.04359  0.27969  0.53843  Biso   1.000  O
