data_image0
_cell_length_a       47.5854
_cell_length_b       46.6454
_cell_length_c       46.527
_cell_angle_alpha    90
_cell_angle_beta     90
_cell_angle_gamma    90

_symmetry_space_group_name_H-M    "P 1"
_symmetry_int_tables_number       1

loop_
  _symmetry_equiv_pos_as_xyz
  'x, y, z'

loop_
  _atom_site_label
  _atom_site_occupancy
  _atom_site_fract_x
  _atom_site_fract_y
  _atom_site_fract_z
  _atom_site_thermal_displace_type
  _atom_site_B_iso_or_equiv
  _atom_site_type_symbol
  C1       1.0000 0.58242  0.98417  0.33860  Biso   1.000  C
  C2       1.0000 0.33153  0.54265  0.02221  Biso   1.000  C
  C3       1.0000 0.01244  0.30209  0.57681  Biso   1.000  C
  C4       1.0000 0.07622  0.98019  0.19917  Biso   1.000  C
  C5       1.0000 0.83761  0.53692  0.50149  Biso   1.000  C
  C6       1.0000 0.49486  0.30238  0.96796  Biso   1.000  C
  C7       1.0000 0.97038  0.46784  0.33353  Biso   1.000  C
  C8       1.0000 0.18697  0.04127  0.02183  Biso   1.000  C
  C9       1.0000 0.51371  0.80586  0.56938  Biso   1.000  C
  C10      1.0000 0.46973  0.48109  0.20218  Biso   1.000  C
  C11      1.0000 0.68738  0.03820  0.53769  Biso   1.000  C
  C12      1.0000 0.02081  0.80686  0.95918  Biso   1.000  C
  C13      1.0000 0.44474  0.98646  0.69250  Biso   1.000  C
  C14      1.0000 0.68523  0.42375  0.00332  Biso   1.000  C
  C15      1.0000 0.01317  0.66040  0.45870  Biso   1.000  C
  C16      1.0000 0.94413  0.98290  0.83932  Biso   1.000  C
  C17      1.0000 0.19989  0.43591  0.51759  Biso   1.000  C
  C18      1.0000 0.51243  0.66003  0.06554  Biso   1.000  C
  C19      1.0000 0.05203  0.47934  0.69681  Biso   1.000  C
  C20      1.0000 0.82909  0.92191  0.03259  Biso   1.000  C
  C21      1.0000 0.51360  0.16513  0.46442  Biso   1.000  C
  C22      1.0000 0.55224  0.48711  0.83374  Biso   1.000  C
  C23      1.0000 0.33393  0.92895  0.50975  Biso   1.000  C
  C24      1.0000 0.99808  0.16395  0.07717  Biso   1.000  C
  C25      1.0000 0.32700  0.03744  0.50452  Biso   1.000  C
  C26      1.0000 0.49994  0.30886  0.07715  Biso   1.000  C
  C27      1.0000 0.07430  0.49226  0.34146  Biso   1.000  C
  C28      1.0000 0.82845  0.03124  0.02568  Biso   1.000  C
  C29      1.0000 0.01133  0.30700  0.46802  Biso   1.000  C
  C30      1.0000 0.58043  0.48872  0.20094  Biso   1.000  C
  C31      1.0000 0.19776  0.54345  0.53518  Biso   1.000  C
  C32      1.0000 0.01009  0.80171  0.06513  Biso   1.000  C
  C33      1.0000 0.47437  0.99455  0.33296  Biso   1.000  C
  C34      1.0000 0.69223  0.52974  0.01147  Biso   1.000  C
  C35      1.0000 0.51778  0.81173  0.46052  Biso   1.000  C
  C36      1.0000 0.96783  0.98289  0.19754  Biso   1.000  C
  C37      1.0000 0.69436  0.93022  0.53163  Biso   1.000  C
  C38      1.0000 0.51693  0.66393  0.95726  Biso   1.000  C
  C39      1.0000 0.94471  0.48403  0.69395  Biso   1.000  C
  C40      1.0000 0.19435  0.93294  0.00279  Biso   1.000  C
  C41      1.0000 0.02450  0.66623  0.56479  Biso   1.000  C
  C42      1.0000 0.44477  0.46944  0.83958  Biso   1.000  C
  C43      1.0000 0.82971  0.42606  0.50967  Biso   1.000  C
  C44      1.0000 0.00820  0.16318  0.97067  Biso   1.000  C
  C45      1.0000 0.55382  0.97371  0.69940  Biso   1.000  C
  C46      1.0000 0.32297  0.43538  0.02765  Biso   1.000  C
  C47      1.0000 0.50092  0.16628  0.57469  Biso   1.000  C
  C48      1.0000 0.05297  0.99458  0.83754  Biso   1.000  C
  C49      1.0000 0.99270  0.04310  0.84042  Biso   1.000  C
  C50      1.0000 0.83214  0.97828  0.08460  Biso   1.000  C
  C51      1.0000 0.06990  0.80262  0.01603  Biso   1.000  C
  C52      1.0000 0.50940  0.03746  0.69732  Biso   1.000  C
  C53      1.0000 0.33752  0.98067  0.45061  Biso   1.000  C
  C54      1.0000 0.56950  0.80906  0.51376  Biso   1.000  C
  C55      1.0000 0.48878  0.53355  0.83574  Biso   1.000  C
  C56      1.0000 0.69382  0.47243  0.06016  Biso   1.000  C
  C57      1.0000 0.44468  0.30688  0.02273  Biso   1.000  C
  C58      1.0000 0.00341  0.53808  0.69374  Biso   1.000  C
  C59      1.0000 0.19925  0.49782  0.47475  Biso   1.000  C
  C60      1.0000 0.95654  0.30363  0.52613  Biso   1.000  C
  C61      1.0000 0.01935  0.92594  0.19586  Biso   1.000  C
  C62      1.0000 0.18997  0.99635  0.95898  Biso   1.000  C
  C63      1.0000 0.94648  0.16048  0.01780  Biso   1.000  C
  C64      1.0000 0.52529  0.93417  0.33585  Biso   1.000  C
  C65      1.0000 0.68851  0.97650  0.58534  Biso   1.000  C
  C66      1.0000 0.45487  0.16629  0.51195  Biso   1.000  C
  C67      1.0000 0.52946  0.43319  0.20257  Biso   1.000  C
  C68      1.0000 0.32048  0.48702  0.97223  Biso   1.000  C
  C69      1.0000 0.56990  0.66224  0.01137  Biso   1.000  C
  C70      1.0000 0.03418  0.42814  0.33946  Biso   1.000  C
  C71      1.0000 0.83104  0.48392  0.55960  Biso   1.000  C
  C72      1.0000 0.07375  0.66945  0.50763  Biso   1.000  C
  C73      1.0000 0.01299  0.53389  0.33421  Biso   1.000  C
  C74      1.0000 0.32727  0.98830  0.55821  Biso   1.000  C
  C75      1.0000 0.55378  0.30270  0.01450  Biso   1.000  C
  C76      1.0000 0.52368  0.54001  0.19617  Biso   1.000  C
  C77      1.0000 0.82742  0.96962  0.97613  Biso   1.000  C
  C78      1.0000 0.06661  0.30888  0.51894  Biso   1.000  C
  C79      1.0000 0.53212  0.04331  0.33474  Biso   1.000  C
  C80      1.0000 0.19603  0.48308  0.58285  Biso   1.000  C
  C81      1.0000 0.96068  0.80315  0.00593  Biso   1.000  C
  C82      1.0000 0.01388  0.03731  0.20203  Biso   1.000  C
  C83      1.0000 0.68639  0.48311  0.95284  Biso   1.000  C
  C84      1.0000 0.46203  0.80317  0.51113  Biso   1.000  C
  C85      1.0000 0.99640  0.42983  0.69636  Biso   1.000  C
  C86      1.0000 0.69162  0.98793  0.47915  Biso   1.000  C
  C87      1.0000 0.46182  0.66288  0.01229  Biso   1.000  C
  C88      1.0000 0.50583  0.42851  0.84363  Biso   1.000  C
  C89      1.0000 0.19155  0.97493  0.06487  Biso   1.000  C
  C90      1.0000 0.96345  0.66562  0.51929  Biso   1.000  C
  C91      1.0000 0.49199  0.92958  0.69733  Biso   1.000  C
  C92      1.0000 0.83286  0.47263  0.45190  Biso   1.000  C
  C93      1.0000 0.05616  0.16810  0.02418  Biso   1.000  C
  C94      1.0000 0.00242  0.93467  0.83694  Biso   1.000  C
  C95      1.0000 0.33319  0.48798  0.08365  Biso   1.000  C
  C96      1.0000 0.55980  0.16757  0.52781  Biso   1.000  C
  C97      1.0000 0.68521  0.06917  0.53519  Biso   1.000  C
  C98      1.0000 0.50740  0.66121  0.09774  Biso   1.000  C
  C99      1.0000 0.08363  0.47425  0.69854  Biso   1.000  C
  C100     1.0000 0.18585  0.07405  0.02590  Biso   1.000  C
  C101     1.0000 0.00861  0.66211  0.42655  Biso   1.000  C
  C102     1.0000 0.58515  0.48975  0.83251  Biso   1.000  C
  C103     1.0000 0.83799  0.56886  0.50052  Biso   1.000  C
  C104     1.0000 0.99717  0.16443  0.11013  Biso   1.000  C
  C105     1.0000 0.41326  0.99103  0.68828  Biso   1.000  C
  C106     1.0000 0.33221  0.57469  0.02049  Biso   1.000  C
  C107     1.0000 0.51652  0.16633  0.43206  Biso   1.000  C
  C108     1.0000 0.91245  0.97783  0.84139  Biso   1.000  C
  C109     1.0000 0.33594  0.89756  0.51959  Biso   1.000  C
  C110     1.0000 0.49139  0.30097  0.93596  Biso   1.000  C
  C111     1.0000 0.93867  0.46572  0.33130  Biso   1.000  C
  C112     1.0000 0.83025  0.88953  0.03109  Biso   1.000  C
  C113     1.0000 0.00902  0.30080  0.60890  Biso   1.000  C
  C114     1.0000 0.43682  0.48216  0.20396  Biso   1.000  C
  C115     1.0000 0.19716  0.40352  0.51361  Biso   1.000  C
  C116     1.0000 0.02017  0.80719  0.92761  Biso   1.000  C
  C117     1.0000 0.61373  0.98399  0.34099  Biso   1.000  C
  C118     1.0000 0.68412  0.39215  0.00030  Biso   1.000  C
  C119     1.0000 0.51311  0.80464  0.60200  Biso   1.000  C
  C120     1.0000 0.10756  0.97532  0.20073  Biso   1.000  C
  C121     1.0000 0.83357  0.98053  0.11721  Biso   1.000  C
  C122     1.0000 0.10194  0.80294  0.01136  Biso   1.000  C
  C123     1.0000 0.98737  0.07410  0.83993  Biso   1.000  C
  C124     1.0000 0.34092  0.97975  0.41853  Biso   1.000  C
  C125     1.0000 0.60054  0.80817  0.51907  Biso   1.000  C
  C126     1.0000 0.51000  0.06898  0.69883  Biso   1.000  C
  C127     1.0000 0.69868  0.47077  0.09128  Biso   1.000  C
  C128     1.0000 0.41433  0.30721  0.03164  Biso   1.000  C
  C129     1.0000 0.49120  0.56603  0.83444  Biso   1.000  C
  C130     1.0000 0.19814  0.50272  0.44338  Biso   1.000  C
  C131     1.0000 0.92453  0.30331  0.52716  Biso   1.000  C
  C132     1.0000 0.00438  0.57055  0.69339  Biso   1.000  C
  C133     1.0000 0.18562  0.99733  0.92686  Biso   1.000  C
  C134     1.0000 0.91599  0.15782  0.00945  Biso   1.000  C
  C135     1.0000 0.01515  0.89358  0.19336  Biso   1.000  C
  C136     1.0000 0.68732  0.96753  0.61587  Biso   1.000  C
  C137     1.0000 0.42300  0.16460  0.50750  Biso   1.000  C
  C138     1.0000 0.51921  0.90288  0.33297  Biso   1.000  C
  C139     1.0000 0.31932  0.48406  0.93935  Biso   1.000  C
  C140     1.0000 0.60196  0.66042  0.01171  Biso   1.000  C
  C141     1.0000 0.52736  0.40167  0.20303  Biso   1.000  C
  C142     1.0000 0.82794  0.47442  0.58884  Biso   1.000  C
  C143     1.0000 0.10607  0.67050  0.51063  Biso   1.000  C
  C144     1.0000 0.03912  0.39598  0.34146  Biso   1.000  C
  C145     1.0000 0.33538  0.48721  0.11587  Biso   1.000  C
  C146     1.0000 0.09916  0.30855  0.51612  Biso   1.000  C
  C147     1.0000 0.53087  0.07438  0.33523  Biso   1.000  C
  C148     1.0000 0.83453  0.46739  0.42086  Biso   1.000  C
  C149     1.0000 0.58566  0.30237  0.01530  Biso   1.000  C
  C150     1.0000 0.00853  0.06822  0.20249  Biso   1.000  C
  C151     1.0000 0.19352  0.97320  0.09642  Biso   1.000  C
  C152     1.0000 0.43059  0.80267  0.51595  Biso   1.000  C
  C153     1.0000 0.01462  0.56520  0.33155  Biso   1.000  C
  C154     1.0000 0.69726  0.98726  0.44685  Biso   1.000  C
  C155     1.0000 0.92810  0.80102  0.00654  Biso   1.000  C
  C156     1.0000 0.51689  0.57088  0.19656  Biso   1.000  C
  C157     1.0000 0.68404  0.49055  0.92212  Biso   1.000  C
  C158     1.0000 0.93101  0.66507  0.52024  Biso   1.000  C
  C159     1.0000 0.48736  0.89778  0.69724  Biso   1.000  C
  C160     1.0000 0.19210  0.47908  0.61403  Biso   1.000  C
  C161     1.0000 0.42950  0.66496  0.01944  Biso   1.000  C
  C162     1.0000 0.00191  0.90241  0.83702  Biso   1.000  C
  C163     1.0000 0.82441  0.97084  0.94452  Biso   1.000  C
  C164     1.0000 0.59267  0.16766  0.53331  Biso   1.000  C
  C165     1.0000 0.99175  0.39791  0.69767  Biso   1.000  C
  C166     1.0000 0.32385  0.99141  0.58965  Biso   1.000  C
  C167     1.0000 0.08878  0.16863  0.01919  Biso   1.000  C
  C168     1.0000 0.50390  0.39457  0.84496  Biso   1.000  C
  C169     1.0000 0.01651  0.79800  0.09562  Biso   1.000  C
  C170     1.0000 0.08470  0.99620  0.83610  Biso   1.000  C
  C171     1.0000 0.82667  0.06413  0.02245  Biso   1.000  C
  C172     1.0000 0.51569  0.80974  0.42875  Biso   1.000  C
  C173     1.0000 0.58496  0.96976  0.70300  Biso   1.000  C
  C174     1.0000 0.32714  0.06932  0.50435  Biso   1.000  C
  C175     1.0000 0.49661  0.30926  0.11072  Biso   1.000  C
  C176     1.0000 0.41241  0.46763  0.84244  Biso   1.000  C
  C177     1.0000 0.69390  0.56169  0.01026  Biso   1.000  C
  C178     1.0000 0.00987  0.30571  0.43669  Biso   1.000  C
  C179     1.0000 0.91311  0.48058  0.69365  Biso   1.000  C
  C180     1.0000 0.19848  0.57540  0.53459  Biso   1.000  C
  C181     1.0000 0.01040  0.16504  0.93906  Biso   1.000  C
  C182     1.0000 0.93586  0.98750  0.19865  Biso   1.000  C
  C183     1.0000 0.19510  0.90114  0.99982  Biso   1.000  C
  C184     1.0000 0.49909  0.16664  0.60672  Biso   1.000  C
  C185     1.0000 0.44257  0.99713  0.32963  Biso   1.000  C
  C186     1.0000 0.69620  0.89970  0.53310  Biso   1.000  C
  C187     1.0000 0.51846  0.66248  0.92516  Biso   1.000  C
  C188     1.0000 0.61176  0.48488  0.19796  Biso   1.000  C
  C189     1.0000 0.32032  0.40399  0.03029  Biso   1.000  C
  C190     1.0000 0.02735  0.66506  0.59769  Biso   1.000  C
  C191     1.0000 0.10606  0.49437  0.34398  Biso   1.000  C
  C192     1.0000 0.82899  0.39455  0.51535  Biso   1.000  C
  C193     1.0000 0.85013  0.97468  0.92572  Biso   1.000  C
  C194     1.0000 0.91028  0.82640  0.01324  Biso   1.000  C
  C195     1.0000 0.00345  0.88643  0.86363  Biso   1.000  C
  C196     1.0000 0.34897  0.99336  0.60739  Biso   1.000  C
  C197     1.0000 0.41555  0.82962  0.51646  Biso   1.000  C
  C198     1.0000 0.49211  0.88128  0.67023  Biso   1.000  C
  C199     1.0000 0.65643  0.49208  0.90801  Biso   1.000  C
  C200     1.0000 0.60144  0.32937  0.01208  Biso   1.000  C
  C201     1.0000 0.50079  0.37744  0.87044  Biso   1.000  C
  C202     1.0000 0.16307  0.47517  0.62706  Biso   1.000  C
  C203     1.0000 0.11493  0.33699  0.51515  Biso   1.000  C
  C204     1.0000 0.99403  0.38036  0.67178  Biso   1.000  C
  C205     1.0000 0.16805  0.97219  0.11509  Biso   1.000  C
  C206     1.0000 0.10398  0.14153  0.01917  Biso   1.000  C
  C207     1.0000 0.00488  0.08338  0.17587  Biso   1.000  C
  C208     1.0000 0.67231  0.98711  0.42733  Biso   1.000  C
  C209     1.0000 0.60793  0.13990  0.53343  Biso   1.000  C
  C210     1.0000 0.52863  0.08996  0.36318  Biso   1.000  C
  C211     1.0000 0.36415  0.48554  0.12887  Biso   1.000  C
  C212     1.0000 0.41210  0.63805  0.02256  Biso   1.000  C
  C213     1.0000 0.51461  0.58476  0.16846  Biso   1.000  C
  C214     1.0000 0.86371  0.46269  0.40684  Biso   1.000  C
  C215     1.0000 0.91513  0.63867  0.51329  Biso   1.000  C
  C216     1.0000 0.01300  0.58362  0.35842  Biso   1.000  C
  C217     1.0000 0.10233  0.99440  0.86190  Biso   1.000  C
  C218     1.0000 0.85264  0.08107  0.01886  Biso   1.000  C
  C219     1.0000 0.01642  0.82461  0.11296  Biso   1.000  C
  C220     1.0000 0.60452  0.96832  0.67662  Biso   1.000  C
  C221     1.0000 0.35532  0.08421  0.50814  Biso   1.000  C
  C222     1.0000 0.51611  0.83704  0.41121  Biso   1.000  C
  C223     1.0000 0.39670  0.47196  0.87064  Biso   1.000  C
  C224     1.0000 0.66767  0.57755  0.01450  Biso   1.000  C
  C225     1.0000 0.50423  0.33611  0.12599  Biso   1.000  C
  C226     1.0000 0.90024  0.47789  0.66552  Biso   1.000  C
  C227     1.0000 0.17337  0.59126  0.52717  Biso   1.000  C
  C228     1.0000 0.01550  0.33199  0.42041  Biso   1.000  C
  C229     1.0000 0.91858  0.98833  0.17325  Biso   1.000  C
  C230     1.0000 0.16931  0.88265  0.99813  Biso   1.000  C
  C231     1.0000 0.00280  0.13892  0.92123  Biso   1.000  C
  C232     1.0000 0.42511  0.99896  0.35519  Biso   1.000  C
  C233     1.0000 0.67021  0.88264  0.53121  Biso   1.000  C
  C234     1.0000 0.50271  0.13866  0.62165  Biso   1.000  C
  C235     1.0000 0.62434  0.47965  0.16869  Biso   1.000  C
  C236     1.0000 0.34708  0.38849  0.03710  Biso   1.000  C
  C237     1.0000 0.51179  0.63537  0.90981  Biso   1.000  C
  C238     1.0000 0.11988  0.49765  0.37237  Biso   1.000  C
  C239     1.0000 0.85545  0.37761  0.51638  Biso   1.000  C
  C240     1.0000 0.02215  0.63744  0.61287  Biso   1.000  C
  C241     1.0000 0.60261  0.49193  0.85813  Biso   1.000  C
  C242     1.0000 0.86627  0.58490  0.50224  Biso   1.000  C
  C243     1.0000 0.50635  0.83160  0.61883  Biso   1.000  C
  C244     1.0000 0.10369  0.47396  0.67191  Biso   1.000  C
  C245     1.0000 0.35950  0.58965  0.02289  Biso   1.000  C
  C246     1.0000 0.01334  0.83543  0.91235  Biso   1.000  C
  C247     1.0000 0.89569  0.97649  0.86969  Biso   1.000  C
  C248     1.0000 0.65838  0.08632  0.53402  Biso   1.000  C
  C249     1.0000 0.99886  0.32707  0.62350  Biso   1.000  C
  C250     1.0000 0.39907  0.99014  0.66086  Biso   1.000  C
  C251     1.0000 0.15833  0.08876  0.02497  Biso   1.000  C
  C252     1.0000 0.49248  0.32729  0.91949  Biso   1.000  C
  C253     1.0000 0.41824  0.48280  0.17678  Biso   1.000  C
  C254     1.0000 0.16873  0.38814  0.51373  Biso   1.000  C
  C255     1.0000 0.52094  0.14095  0.41460  Biso   1.000  C
  C256     1.0000 0.92021  0.46481  0.35843  Biso   1.000  C
  C257     1.0000 0.65563  0.37843  0.00380  Biso   1.000  C
  C258     1.0000 0.99854  0.13658  0.12486  Biso   1.000  C
  C259     1.0000 0.12217  0.97057  0.17197  Biso   1.000  C
  C260     1.0000 0.36334  0.88165  0.51424  Biso   1.000  C
  C261     1.0000 0.01062  0.63423  0.41050  Biso   1.000  C
  C262     1.0000 0.62666  0.98748  0.36851  Biso   1.000  C
  C263     1.0000 0.85796  0.87380  0.02639  Biso   1.000  C
  C264     1.0000 0.50670  0.63441  0.11275  Biso   1.000  C
  C265     1.0000 0.99030  0.08975  0.86654  Biso   1.000  C
  C266     1.0000 0.86113  0.98462  0.12919  Biso   1.000  C
  C267     1.0000 0.11843  0.83001  0.00746  Biso   1.000  C
  C268     1.0000 0.51026  0.08484  0.67208  Biso   1.000  C
  C269     1.0000 0.36896  0.98519  0.40519  Biso   1.000  C
  C270     1.0000 0.61762  0.83432  0.52206  Biso   1.000  C
  C271     1.0000 0.49492  0.58319  0.86063  Biso   1.000  C
  C272     1.0000 0.67360  0.46919  0.11138  Biso   1.000  C
  C273     1.0000 0.39832  0.33396  0.03462  Biso   1.000  C
  C274     1.0000 0.01207  0.58552  0.66653  Biso   1.000  C
  C275     1.0000 0.16989  0.50349  0.42919  Biso   1.000  C
  C276     1.0000 0.90859  0.33000  0.52511  Biso   1.000  C
  C277     1.0000 0.01748  0.87697  0.16501  Biso   1.000  C
  C278     1.0000 0.15658  0.99719  0.91307  Biso   1.000  C
  C279     1.0000 0.89997  0.13081  0.01604  Biso   1.000  C
  C280     1.0000 0.51829  0.88716  0.35918  Biso   1.000  C
  C281     1.0000 0.65917  0.96611  0.62992  Biso   1.000  C
  C282     1.0000 0.40762  0.13671  0.50830  Biso   1.000  C
  C283     1.0000 0.52031  0.38554  0.17698  Biso   1.000  C
  C284     1.0000 0.34608  0.48031  0.92227  Biso   1.000  C
  C285     1.0000 0.61648  0.63206  0.01117  Biso   1.000  C
  C286     1.0000 0.03437  0.38130  0.36927  Biso   1.000  C
  C287     1.0000 0.85527  0.47428  0.60660  Biso   1.000  C
  C288     1.0000 0.12149  0.64369  0.51338  Biso   1.000  C
  C289     1.0000 0.36257  0.85122  0.52001  Biso   1.000  C
  C290     1.0000 0.49439  0.32578  0.88806  Biso   1.000  C
  C291     1.0000 0.88865  0.46319  0.35497  Biso   1.000  C
  C292     1.0000 0.85681  0.84438  0.01843  Biso   1.000  C
  C293     1.0000 0.99965  0.32666  0.65510  Biso   1.000  C
  C294     1.0000 0.38721  0.48560  0.18038  Biso   1.000  C
  C295     1.0000 0.16810  0.35653  0.50838  Biso   1.000  C
  C296     1.0000 0.01241  0.83500  0.88223  Biso   1.000  C
  C297     1.0000 0.65722  0.98198  0.37245  Biso   1.000  C
  C298     1.0000 0.65741  0.34758  0.00915  Biso   1.000  C
  C299     1.0000 0.50178  0.82993  0.64968  Biso   1.000  C
  C300     1.0000 0.15364  0.97385  0.16966  Biso   1.000  C
  C301     1.0000 0.66063  0.11810  0.53336  Biso   1.000  C
  C302     1.0000 0.50978  0.63646  0.14532  Biso   1.000  C
  C303     1.0000 0.13538  0.47202  0.67645  Biso   1.000  C
  C304     1.0000 0.15737  0.11988  0.02812  Biso   1.000  C
  C305     1.0000 0.01276  0.63536  0.37863  Biso   1.000  C
  C306     1.0000 0.63461  0.49110  0.85489  Biso   1.000  C
  C307     1.0000 0.86451  0.61723  0.50549  Biso   1.000  C
  C308     1.0000 0.00124  0.13687  0.15647  Biso   1.000  C
  C309     1.0000 0.36784  0.99314  0.66009  Biso   1.000  C
  C310     1.0000 0.35881  0.62113  0.02402  Biso   1.000  C
  C311     1.0000 0.52660  0.14275  0.38293  Biso   1.000  C
  C312     1.0000 0.86488  0.97881  0.86980  Biso   1.000  C
  C313     1.0000 0.17235  0.50220  0.39780  Biso   1.000  C
  C314     1.0000 0.37582  0.13625  0.50721  Biso   1.000  C
  C315     1.0000 0.51648  0.35499  0.17761  Biso   1.000  C
  C316     1.0000 0.67739  0.47242  0.14171  Biso   1.000  C
  C317     1.0000 0.86938  0.13295  0.01440  Biso   1.000  C
  C318     1.0000 0.02873  0.34943  0.36829  Biso   1.000  C
  C319     1.0000 0.37004  0.98703  0.37339  Biso   1.000  C
  C320     1.0000 0.15149  0.64371  0.52410  Biso   1.000  C
  C321     1.0000 0.01598  0.84578  0.16506  Biso   1.000  C
  C322     1.0000 0.86310  0.98401  0.16147  Biso   1.000  C
  C323     1.0000 0.64774  0.63210  0.01094  Biso   1.000  C
  C324     1.0000 0.51534  0.85535  0.35864  Biso   1.000  C
  C325     1.0000 0.85133  0.47481  0.63863  Biso   1.000  C
  C326     1.0000 0.64912  0.83050  0.52510  Biso   1.000  C
  C327     1.0000 0.50073  0.61403  0.85878  Biso   1.000  C
  C328     1.0000 0.34435  0.47398  0.89178  Biso   1.000  C
  C329     1.0000 0.14874  0.83030  0.00836  Biso   1.000  C
  C330     1.0000 0.01468  0.61769  0.66642  Biso   1.000  C
  C331     1.0000 0.65742  0.96676  0.66172  Biso   1.000  C
  C332     1.0000 0.87779  0.32739  0.52226  Biso   1.000  C
  C333     1.0000 0.99596  0.12047  0.86737  Biso   1.000  C
  C334     1.0000 0.15622  0.99818  0.88042  Biso   1.000  C
  C335     1.0000 0.36778  0.33431  0.03862  Biso   1.000  C
  C336     1.0000 0.50778  0.11710  0.67352  Biso   1.000  C
  C337     1.0000 0.65674  0.49158  0.87646  Biso   1.000  C
  C338     1.0000 0.88462  0.63929  0.51021  Biso   1.000  C
  C339     1.0000 0.49687  0.85113  0.67123  Biso   1.000  C
  C340     1.0000 0.16049  0.47263  0.65818  Biso   1.000  C
  C341     1.0000 0.38021  0.64189  0.02517  Biso   1.000  C
  C342     1.0000 0.00848  0.85613  0.86082  Biso   1.000  C
  C343     1.0000 0.84502  0.97819  0.89401  Biso   1.000  C
  C344     1.0000 0.63977  0.13953  0.53521  Biso   1.000  C
  C345     1.0000 0.99808  0.34978  0.67569  Biso   1.000  C
  C346     1.0000 0.34718  0.99393  0.63863  Biso   1.000  C
  C347     1.0000 0.13589  0.14214  0.02417  Biso   1.000  C
  C348     1.0000 0.49850  0.34690  0.86669  Biso   1.000  C
  C349     1.0000 0.36421  0.48612  0.16041  Biso   1.000  C
  C350     1.0000 0.14694  0.33520  0.51080  Biso   1.000  C
  C351     1.0000 0.53020  0.12145  0.36088  Biso   1.000  C
  C352     1.0000 0.86505  0.46135  0.37471  Biso   1.000  C
  C353     1.0000 0.63399  0.32702  0.01287  Biso   1.000  C
  C354     1.0000 0.00468  0.11520  0.17707  Biso   1.000  C
  C355     1.0000 0.17345  0.97415  0.14603  Biso   1.000  C
  C356     1.0000 0.38394  0.82919  0.51998  Biso   1.000  C
  C357     1.0000 0.01162  0.61454  0.35707  Biso   1.000  C
  C358     1.0000 0.67694  0.98268  0.39631  Biso   1.000  C
  C359     1.0000 0.87898  0.82392  0.01354  Biso   1.000  C
  C360     1.0000 0.51253  0.61659  0.16871  Biso   1.000  C
  C361     1.0000 0.00060  0.13975  0.89022  Biso   1.000  C
  C362     1.0000 0.88818  0.98657  0.17957  Biso   1.000  C
  C363     1.0000 0.17010  0.85204  0.00345  Biso   1.000  C
  C364     1.0000 0.50333  0.13825  0.65284  Biso   1.000  C
  C365     1.0000 0.39328  0.99203  0.35331  Biso   1.000  C
  C366     1.0000 0.67097  0.85133  0.52917  Biso   1.000  C
  C367     1.0000 0.50700  0.63627  0.87954  Biso   1.000  C
  C368     1.0000 0.65663  0.47518  0.16567  Biso   1.000  C
  C369     1.0000 0.34600  0.35684  0.03879  Biso   1.000  C
  C370     1.0000 0.02070  0.63778  0.64393  Biso   1.000  C
  C371     1.0000 0.15198  0.50088  0.37431  Biso   1.000  C
  C372     1.0000 0.85621  0.34783  0.51854  Biso   1.000  C
  C373     1.0000 0.01676  0.82350  0.14470  Biso   1.000  C
  C374     1.0000 0.13376  0.99659  0.85972  Biso   1.000  C
  C375     1.0000 0.84899  0.11142  0.01461  Biso   1.000  C
  C376     1.0000 0.51515  0.83390  0.38025  Biso   1.000  C
  C377     1.0000 0.63456  0.96771  0.68245  Biso   1.000  C
  C378     1.0000 0.35371  0.11516  0.50797  Biso   1.000  C
  C379     1.0000 0.50958  0.33341  0.15617  Biso   1.000  C
  C380     1.0000 0.36540  0.46958  0.87106  Biso   1.000  C
  C381     1.0000 0.66825  0.60938  0.01181  Biso   1.000  C
  C382     1.0000 0.01956  0.32830  0.38946  Biso   1.000  C
  C383     1.0000 0.86991  0.47525  0.66208  Biso   1.000  C
  C384     1.0000 0.17305  0.62249  0.52855  Biso   1.000  C
  C385     1.0000 0.18377  0.13628  0.03042  Biso   1.000  C
  C386     1.0000 0.00295  0.16345  0.17231  Biso   1.000  C
  C387     1.0000 0.17028  0.97967  0.19464  Biso   1.000  C
  C388     1.0000 0.68760  0.13306  0.53204  Biso   1.000  C
  C389     1.0000 0.52696  0.16962  0.36800  Biso   1.000  C
  C390     1.0000 0.67564  0.97864  0.34744  Biso   1.000  C
  C391     1.0000 0.33304  0.63818  0.02142  Biso   1.000  C
  C392     1.0000 0.51348  0.66439  0.16061  Biso   1.000  C
  C393     1.0000 0.37297  0.48807  0.20839  Biso   1.000  C
  C394     1.0000 0.83706  0.63342  0.50683  Biso   1.000  C
  C395     1.0000 0.01251  0.66111  0.36368  Biso   1.000  C
  C396     1.0000 0.87604  0.46202  0.32680  Biso   1.000  C
  C397     1.0000 0.83015  0.82707  0.01516  Biso   1.000  C
  C398     1.0000 0.01556  0.80953  0.86531  Biso   1.000  C
  C399     1.0000 0.84728  0.97938  0.84497  Biso   1.000  C
  C400     1.0000 0.33641  0.83761  0.52806  Biso   1.000  C
  C401     1.0000 0.50416  0.80318  0.66474  Biso   1.000  C
  C402     1.0000 0.35116  0.99517  0.68715  Biso   1.000  C
  C403     1.0000 0.68388  0.33024  0.00770  Biso   1.000  C
  C404     1.0000 0.49454  0.29831  0.87307  Biso   1.000  C
  C405     1.0000 0.64988  0.49027  0.82716  Biso   1.000  C
  C406     1.0000 0.19444  0.34044  0.50526  Biso   1.000  C
  C407     1.0000 0.00550  0.30156  0.67199  Biso   1.000  C
  C408     1.0000 0.14611  0.46959  0.70622  Biso   1.000  C
  C409     1.0000 0.14880  0.99521  0.83205  Biso   1.000  C
  C410     1.0000 0.82161  0.12678  0.01300  Biso   1.000  C
  C411     1.0000 0.01657  0.79665  0.15997  Biso   1.000  C
  C412     1.0000 0.64719  0.96687  0.71047  Biso   1.000  C
  C413     1.0000 0.32703  0.13137  0.50414  Biso   1.000  C
  C414     1.0000 0.51223  0.80650  0.36544  Biso   1.000  C
  C415     1.0000 0.35081  0.46573  0.84461  Biso   1.000  C
  C416     1.0000 0.69554  0.62440  0.00937  Biso   1.000  C
  C417     1.0000 0.51147  0.30580  0.17110  Biso   1.000  C
  C418     1.0000 0.85204  0.47427  0.68732  Biso   1.000  C
  C419     1.0000 0.19915  0.63850  0.53717  Biso   1.000  C
  C420     1.0000 0.01739  0.30145  0.37377  Biso   1.000  C
  C421     1.0000 0.87506  0.98713  0.20799  Biso   1.000  C
  C422     1.0000 0.19770  0.83816  0.00602  Biso   1.000  C
  C423     1.0000 0.00424  0.16675  0.87471  Biso   1.000  C
  C424     1.0000 0.38079  0.98811  0.32442  Biso   1.000  C
  C425     1.0000 0.69693  0.83458  0.52930  Biso   1.000  C
  C426     1.0000 0.49920  0.16427  0.66915  Biso   1.000  C
  C427     1.0000 0.67413  0.47750  0.19058  Biso   1.000  C
  C428     1.0000 0.31991  0.34134  0.03652  Biso   1.000  C
  C429     1.0000 0.50827  0.66251  0.86341  Biso   1.000  C
  C430     1.0000 0.16947  0.49830  0.34825  Biso   1.000  C
  C431     1.0000 0.82929  0.33177  0.51986  Biso   1.000  C
  C432     1.0000 0.02416  0.66488  0.66133  Biso   1.000  C
  C433     1.0000 0.99608  0.13683  0.84085  Biso   1.000  C
  C434     1.0000 0.83839  0.98055  0.18077  Biso   1.000  C
  C435     1.0000 0.16448  0.80477  0.01308  Biso   1.000  C
  C436     1.0000 0.50606  0.13289  0.70197  Biso   1.000  C
  C437     1.0000 0.34570  0.98181  0.35605  Biso   1.000  C
  C438     1.0000 0.66368  0.80296  0.52412  Biso   1.000  C
  C439     1.0000 0.49952  0.62883  0.83191  Biso   1.000  C
  C440     1.0000 0.70474  0.47285  0.15472  Biso   1.000  C
  C441     1.0000 0.35190  0.30749  0.03922  Biso   1.000  C
  C442     1.0000 0.01405  0.63396  0.69349  Biso   1.000  C
  C443     1.0000 0.20134  0.50150  0.38130  Biso   1.000  C
  C444     1.0000 0.86112  0.30021  0.52669  Biso   1.000  C
  C445     1.0000 0.01493  0.83032  0.19244  Biso   1.000  C
  C446     1.0000 0.18381  0.99781  0.86349  Biso   1.000  C
  C447     1.0000 0.85318  0.15846  0.00705  Biso   1.000  C
  C448     1.0000 0.51404  0.83718  0.33138  Biso   1.000  C
  C449     1.0000 0.68390  0.96637  0.67920  Biso   1.000  C
  C450     1.0000 0.35996  0.16335  0.50417  Biso   1.000  C
  C451     1.0000 0.52218  0.33908  0.20427  Biso   1.000  C
  C452     1.0000 0.31721  0.47111  0.87692  Biso   1.000  C
  C453     1.0000 0.66398  0.65789  0.00831  Biso   1.000  C
  C454     1.0000 0.02864  0.33212  0.34116  Biso   1.000  C
  C455     1.0000 0.82409  0.47448  0.65145  Biso   1.000  C
  C456     1.0000 0.16722  0.67076  0.52702  Biso   1.000  C
  C457     1.0000 0.01181  0.62952  0.33109  Biso   1.000  C
  C458     1.0000 0.32000  0.99571  0.65416  Biso   1.000  C
  C459     1.0000 0.64853  0.29918  0.01413  Biso   1.000  C
  C460     1.0000 0.51407  0.63355  0.19474  Biso   1.000  C
  C461     1.0000 0.81711  0.98140  0.88227  Biso   1.000  C
  C462     1.0000 0.16108  0.30865  0.50720  Biso   1.000  C
  C463     1.0000 0.53368  0.13785  0.33500  Biso   1.000  C
  C464     1.0000 0.18431  0.47194  0.67633  Biso   1.000  C
  C465     1.0000 0.86411  0.79703  0.00686  Biso   1.000  C
  C466     1.0000 0.00991  0.13015  0.20393  Biso   1.000  C
  C467     1.0000 0.68200  0.48936  0.85833  Biso   1.000  C
  C468     1.0000 0.36827  0.80472  0.52580  Biso   1.000  C
  C469     1.0000 0.99952  0.33607  0.70338  Biso   1.000  C
  C470     1.0000 0.70515  0.97652  0.38304  Biso   1.000  C
  C471     1.0000 0.36554  0.66913  0.02428  Biso   1.000  C
  C472     1.0000 0.50116  0.33087  0.83956  Biso   1.000  C
  C473     1.0000 0.20027  0.97951  0.15907  Biso   1.000  C
  C474     1.0000 0.86816  0.66629  0.51211  Biso   1.000  C
  C475     1.0000 0.49564  0.83605  0.69884  Biso   1.000  C
  C476     1.0000 0.83923  0.45998  0.35612  Biso   1.000  C
  C477     1.0000 0.15061  0.16858  0.02693  Biso   1.000  C
  C478     1.0000 0.00734  0.84078  0.83332  Biso   1.000  C
  C479     1.0000 0.33858  0.48882  0.17822  Biso   1.000  C
  C480     1.0000 0.65433  0.16630  0.53545  Biso   1.000  C
  C481     1.0000 0.38309  0.77662  0.52519  Biso   1.000  C
  C482     1.0000 0.50654  0.34748  0.81428  Biso   1.000  C
  C483     1.0000 0.81092  0.46261  0.37066  Biso   1.000  C
  C484     1.0000 0.88305  0.77082  0.00024  Biso   1.000  C
  C485     1.0000 0.99534  0.35425  0.72944  Biso   1.000  C
  C486     1.0000 0.31013  0.49263  0.16632  Biso   1.000  C
  C487     1.0000 0.14573  0.28058  0.51010  Biso   1.000  C
  C488     1.0000 0.00436  0.85573  0.80587  Biso   1.000  C
  C489     1.0000 0.73056  0.97533  0.40361  Biso   1.000  C
  C490     1.0000 0.63153  0.27263  0.01476  Biso   1.000  C
  C491     1.0000 0.48871  0.85158  0.72614  Biso   1.000  C
  C492     1.0000 0.22632  0.97628  0.13937  Biso   1.000  C
  C493     1.0000 0.63916  0.19455  0.53661  Biso   1.000  C
  C494     1.0000 0.51779  0.61977  0.22374  Biso   1.000  C
  C495     1.0000 0.21335  0.47703  0.66643  Biso   1.000  C
  C496     1.0000 0.13566  0.19598  0.02664  Biso   1.000  C
  C497     1.0000 0.01218  0.61176  0.30379  Biso   1.000  C
  C498     1.0000 0.70884  0.49304  0.87387  Biso   1.000  C
  C499     1.0000 0.88337  0.69347  0.52070  Biso   1.000  C
  C500     1.0000 0.01212  0.11515  0.23072  Biso   1.000  C
  C501     1.0000 0.29437  0.99705  0.63571  Biso   1.000  C
  C502     1.0000 0.38257  0.69524  0.02414  Biso   1.000  C
  C503     1.0000 0.53603  0.12151  0.30748  Biso   1.000  C
  C504     1.0000 0.79174  0.98126  0.90113  Biso   1.000  C
  C505     1.0000 0.63260  0.49009  0.80139  Biso   1.000  C
  C506     1.0000 0.80905  0.61656  0.50460  Biso   1.000  C
  C507     1.0000 0.50849  0.77654  0.64779  Biso   1.000  C
  C508     1.0000 0.12701  0.46773  0.73259  Biso   1.000  C
  C509     1.0000 0.30673  0.62260  0.01496  Biso   1.000  C
  C510     1.0000 0.01965  0.78206  0.88091  Biso   1.000  C
  C511     1.0000 0.86282  0.97589  0.81581  Biso   1.000  C
  C512     1.0000 0.71424  0.11595  0.53024  Biso   1.000  C
  C513     1.0000 0.01214  0.27476  0.65813  Biso   1.000  C
  C514     1.0000 0.36448  0.99640  0.71539  Biso   1.000  C
  C515     1.0000 0.21195  0.12125  0.03177  Biso   1.000  C
  C516     1.0000 0.49069  0.27004  0.88811  Biso   1.000  C
  C517     1.0000 0.39115  0.48721  0.23423  Biso   1.000  C
  C518     1.0000 0.22165  0.35593  0.50238  Biso   1.000  C
  C519     1.0000 0.52179  0.19602  0.38448  Biso   1.000  C
  C520     1.0000 0.89459  0.46055  0.30006  Biso   1.000  C
  C521     1.0000 0.71062  0.34476  0.00107  Biso   1.000  C
  C522     1.0000 0.00046  0.19135  0.15833  Biso   1.000  C
  C523     1.0000 0.15459  0.98112  0.22286  Biso   1.000  C
  C524     1.0000 0.30978  0.85350  0.53324  Biso   1.000  C
  C525     1.0000 0.01092  0.68776  0.37894  Biso   1.000  C
  C526     1.0000 0.66428  0.97665  0.31795  Biso   1.000  C
  C527     1.0000 0.80223  0.84350  0.02072  Biso   1.000  C
  C528     1.0000 0.51054  0.69102  0.14391  Biso   1.000  C
  C529     1.0000 0.79609  0.10853  0.01502  Biso   1.000  C
  C530     1.0000 0.01964  0.77048  0.14165  Biso   1.000  C
  C531     1.0000 0.13190  0.99469  0.80602  Biso   1.000  C
  C532     1.0000 0.29958  0.11445  0.50420  Biso   1.000  C
  C533     1.0000 0.51176  0.77955  0.38259  Biso   1.000  C
  C534     1.0000 0.62867  0.96775  0.73546  Biso   1.000  C
  C535     1.0000 0.72174  0.60911  0.00541  Biso   1.000  C
  C536     1.0000 0.50165  0.28036  0.15476  Biso   1.000  C
  C537     1.0000 0.36701  0.46103  0.81680  Biso   1.000  C
  C538     1.0000 0.22521  0.62208  0.54528  Biso   1.000  C
  C539     1.0000 0.00961  0.27563  0.39134  Biso   1.000  C
  C540     1.0000 0.86358  0.47588  0.71607  Biso   1.000  C
  C541     1.0000 0.22479  0.85472  0.00229  Biso   1.000  C
  C542     1.0000 0.01483  0.19326  0.89163  Biso   1.000  C
  C543     1.0000 0.89245  0.98866  0.23270  Biso   1.000  C
  C544     1.0000 0.72409  0.85289  0.52958  Biso   1.000  C
  C545     1.0000 0.49141  0.19158  0.65457  Biso   1.000  C
  C546     1.0000 0.39919  0.98878  0.29730  Biso   1.000  C
  C547     1.0000 0.29298  0.35703  0.03158  Biso   1.000  C
  C548     1.0000 0.51552  0.68983  0.87872  Biso   1.000  C
  C549     1.0000 0.66136  0.48367  0.21986  Biso   1.000  C
  C550     1.0000 0.80126  0.34789  0.51336  Biso   1.000  C
  C551     1.0000 0.03019  0.69256  0.64648  Biso   1.000  C
  C552     1.0000 0.15616  0.49360  0.32006  Biso   1.000  C
  C553     1.0000 0.99038  0.12159  0.81389  Biso   1.000  C
  C554     1.0000 0.80941  0.97996  0.16907  Biso   1.000  C
  C555     1.0000 0.15041  0.77762  0.01769  Biso   1.000  C
  C556     1.0000 0.50774  0.11493  0.72869  Biso   1.000  C
  C557     1.0000 0.31829  0.97547  0.36980  Biso   1.000  C
  C558     1.0000 0.64646  0.77674  0.52005  Biso   1.000  C
  C559     1.0000 0.49234  0.61252  0.80585  Biso   1.000  C
  C560     1.0000 0.73028  0.46992  0.13614  Biso   1.000  C
  C561     1.0000 0.36627  0.27950  0.03939  Biso   1.000  C
  C562     1.0000 0.00461  0.61957  0.71904  Biso   1.000  C
  C563     1.0000 0.22800  0.50145  0.39697  Biso   1.000  C
  C564     1.0000 0.87816  0.27353  0.53058  Biso   1.000  C
  C565     1.0000 0.00771  0.84666  0.21888  Biso   1.000  C
  C566     1.0000 0.21090  0.99629  0.87804  Biso   1.000  C
  C567     1.0000 0.86876  0.18293  0.99622  Biso   1.000  C
  C568     1.0000 0.51313  0.85443  0.30434  Biso   1.000  C
  C569     1.0000 0.71145  0.96713  0.66469  Biso   1.000  C
  C570     1.0000 0.37617  0.19174  0.50257  Biso   1.000  C
  C571     1.0000 0.53213  0.35541  0.23088  Biso   1.000  C
  C572     1.0000 0.29004  0.47574  0.89404  Biso   1.000  C
  C573     1.0000 0.65127  0.68533  0.01222  Biso   1.000  C
  C574     1.0000 0.03559  0.34675  0.31381  Biso   1.000  C
  C575     1.0000 0.79781  0.47180  0.63331  Biso   1.000  C
  C576     1.0000 0.15165  0.69773  0.52186  Biso   1.000  C
  C577     1.0000 0.30963  0.49105  0.13386  Biso   1.000  C
  C578     1.0000 0.11516  0.28120  0.51503  Biso   1.000  C
  C579     1.0000 0.53478  0.09039  0.30798  Biso   1.000  C
  C580     1.0000 0.80846  0.46736  0.40163  Biso   1.000  C
  C581     1.0000 0.60008  0.27404  0.01609  Biso   1.000  C
  C582     1.0000 0.01108  0.08395  0.23034  Biso   1.000  C
  C583     1.0000 0.22284  0.97369  0.10845  Biso   1.000  C
  C584     1.0000 0.41448  0.77621  0.52062  Biso   1.000  C
  C585     1.0000 0.01399  0.58030  0.30344  Biso   1.000  C
  C586     1.0000 0.72655  0.98319  0.43387  Biso   1.000  C
  C587     1.0000 0.91438  0.77291  0.99937  Biso   1.000  C
  C588     1.0000 0.51717  0.58835  0.22389  Biso   1.000  C
  C589     1.0000 0.71011  0.49117  0.90432  Biso   1.000  C
  C590     1.0000 0.91517  0.69235  0.52149  Biso   1.000  C
  C591     1.0000 0.48469  0.88248  0.72561  Biso   1.000  C
  C592     1.0000 0.21701  0.47802  0.63417  Biso   1.000  C
  C593     1.0000 0.41438  0.69379  0.02089  Biso   1.000  C
  C594     1.0000 0.00043  0.88613  0.80919  Biso   1.000  C
  C595     1.0000 0.79529  0.97382  0.93202  Biso   1.000  C
  C596     1.0000 0.60811  0.19487  0.53493  Biso   1.000  C
  C597     1.0000 0.99160  0.38521  0.72630  Biso   1.000  C
  C598     1.0000 0.29522  0.99391  0.60414  Biso   1.000  C
  C599     1.0000 0.10331  0.19527  0.02213  Biso   1.000  C
  C600     1.0000 0.50631  0.37958  0.81647  Biso   1.000  C
  C601     1.0000 0.21279  0.99774  0.90911  Biso   1.000  C
  C602     1.0000 0.90105  0.18351  0.99891  Biso   1.000  C
  C603     1.0000 0.00865  0.87842  0.22025  Biso   1.000  C
  C604     1.0000 0.71369  0.96754  0.63245  Biso   1.000  C
  C605     1.0000 0.40737  0.19203  0.50631  Biso   1.000  C
  C606     1.0000 0.51762  0.88603  0.30634  Biso   1.000  C
  C607     1.0000 0.29146  0.48176  0.92493  Biso   1.000  C
  C608     1.0000 0.61858  0.68697  0.01259  Biso   1.000  C
  C609     1.0000 0.53270  0.38671  0.22961  Biso   1.000  C
  C610     1.0000 0.79944  0.47178  0.60227  Biso   1.000  C
  C611     1.0000 0.12073  0.69662  0.51483  Biso   1.000  C
  C612     1.0000 0.04248  0.37761  0.31465  Biso   1.000  C
  C613     1.0000 0.80656  0.97779  0.13741  Biso   1.000  C
  C614     1.0000 0.11904  0.77687  0.01789  Biso   1.000  C
  C615     1.0000 0.98555  0.09122  0.81346  Biso   1.000  C
  C616     1.0000 0.31569  0.97583  0.40169  Biso   1.000  C
  C617     1.0000 0.61504  0.77892  0.51773  Biso   1.000  C
  C618     1.0000 0.50970  0.08349  0.72737  Biso   1.000  C
  C619     1.0000 0.72722  0.47187  0.10461  Biso   1.000  C
  C620     1.0000 0.39764  0.27942  0.03694  Biso   1.000  C
  C621     1.0000 0.48668  0.58128  0.80760  Biso   1.000  C
  C622     1.0000 0.22647  0.50169  0.42873  Biso   1.000  C
  C623     1.0000 0.91013  0.27546  0.52917  Biso   1.000  C
  C624     1.0000 0.99881  0.58828  0.72014  Biso   1.000  C
  C625     1.0000 0.01686  0.19300  0.92338  Biso   1.000  C
  C626     1.0000 0.92288  0.98879  0.22824  Biso   1.000  C
  C627     1.0000 0.22489  0.88506  0.00125  Biso   1.000  C
  C628     1.0000 0.49344  0.19204  0.62377  Biso   1.000  C
  C629     1.0000 0.42959  0.99388  0.30078  Biso   1.000  C
  C630     1.0000 0.72409  0.88534  0.53198  Biso   1.000  C
  C631     1.0000 0.52299  0.68917  0.90965  Biso   1.000  C
  C632     1.0000 0.62987  0.48741  0.22357  Biso   1.000  C
  C633     1.0000 0.29296  0.38800  0.02787  Biso   1.000  C
  C634     1.0000 0.03165  0.69243  0.61421  Biso   1.000  C
  C635     1.0000 0.12442  0.49163  0.31892  Biso   1.000  C
  C636     1.0000 0.80098  0.37863  0.51096  Biso   1.000  C
  C637     1.0000 0.02025  0.77171  0.10970  Biso   1.000  C
  C638     1.0000 0.10046  0.99512  0.80653  Biso   1.000  C
  C639     1.0000 0.79804  0.07807  0.02104  Biso   1.000  C
  C640     1.0000 0.51339  0.78049  0.41322  Biso   1.000  C
  C641     1.0000 0.59608  0.96776  0.73294  Biso   1.000  C
  C642     1.0000 0.30016  0.08414  0.50271  Biso   1.000  C
  C643     1.0000 0.49358  0.28197  0.12447  Biso   1.000  C
  C644     1.0000 0.39864  0.46128  0.81569  Biso   1.000  C
  C645     1.0000 0.72109  0.57844  0.00548  Biso   1.000  C
  C646     1.0000 0.00454  0.27744  0.42183  Biso   1.000  C
  C647     1.0000 0.89435  0.47856  0.71937  Biso   1.000  C
  C648     1.0000 0.22392  0.59074  0.54362  Biso   1.000  C
  C649     1.0000 0.00859  0.68815  0.41037  Biso   1.000  C
  C650     1.0000 0.39616  0.99506  0.71572  Biso   1.000  C
  C651     1.0000 0.71151  0.37657  0.99831  Biso   1.000  C
  C652     1.0000 0.50811  0.68958  0.11349  Biso   1.000  C
  C653     1.0000 0.89459  0.97450  0.81438  Biso   1.000  C
  C654     1.0000 0.22397  0.38668  0.50563  Biso   1.000  C
  C655     1.0000 0.51754  0.19482  0.41691  Biso   1.000  C
  C656     1.0000 0.09631  0.46991  0.72865  Biso   1.000  C
  C657     1.0000 0.80307  0.87405  0.03016  Biso   1.000  C
  C658     1.0000 0.99599  0.19193  0.12637  Biso   1.000  C
  C659     1.0000 0.60222  0.48812  0.80580  Biso   1.000  C
  C660     1.0000 0.30942  0.88451  0.53156  Biso   1.000  C
  C661     1.0000 0.01653  0.27564  0.62643  Biso   1.000  C
  C662     1.0000 0.63216  0.97934  0.31453  Biso   1.000  C
  C663     1.0000 0.30512  0.59199  0.01615  Biso   1.000  C
  C664     1.0000 0.49059  0.27279  0.91957  Biso   1.000  C
  C665     1.0000 0.12336  0.97908  0.22740  Biso   1.000  C
  C666     1.0000 0.81001  0.58543  0.50134  Biso   1.000  C
  C667     1.0000 0.51450  0.77667  0.61707  Biso   1.000  C
  C668     1.0000 0.92516  0.46486  0.30293  Biso   1.000  C
  C669     1.0000 0.21335  0.08955  0.02994  Biso   1.000  C
  C670     1.0000 0.02341  0.78078  0.91155  Biso   1.000  C
  C671     1.0000 0.42286  0.48382  0.23337  Biso   1.000  C
  C672     1.0000 0.71280  0.08469  0.53158  Biso   1.000  C
  C673     1.0000 0.19492  0.99379  0.81600  Biso   1.000  C
  C674     1.0000 0.80768  0.17363  0.00787  Biso   1.000  C
  C675     1.0000 0.01218  0.78266  0.20542  Biso   1.000  C
  C676     1.0000 0.69275  0.96913  0.72697  Biso   1.000  C
  C677     1.0000 0.31364  0.17867  0.50005  Biso   1.000  C
  C678     1.0000 0.51285  0.79075  0.31736  Biso   1.000  C
  C679     1.0000 0.30312  0.46439  0.83066  Biso   1.000  C
  C680     1.0000 0.71098  0.67248  0.00806  Biso   1.000  C
  C681     1.0000 0.52379  0.29317  0.21617  Biso   1.000  C
  C682     1.0000 0.80417  0.47859  0.69779  Biso   1.000  C
  C683     1.0000 0.21327  0.68451  0.53837  Biso   1.000  C
  C684     1.0000 0.01664  0.28495  0.32729  Biso   1.000  C
  C685     1.0000 0.83017  0.98291  0.22915  Biso   1.000  C
  C686     1.0000 0.21273  0.79308  0.01510  Biso   1.000  C
  C687     1.0000 0.00393  0.18140  0.82686  Biso   1.000  C
  C688     1.0000 0.33455  0.98268  0.30858  Biso   1.000  C
  C689     1.0000 0.71252  0.78864  0.52554  Biso   1.000  C
  C690     1.0000 0.49873  0.17740  0.71739  Biso   1.000  C
  C691     1.0000 0.72253  0.47154  0.20016  Biso   1.000  C
  C692     1.0000 0.30516  0.29600  0.03890  Biso   1.000  C
  C693     1.0000 0.50380  0.67493  0.81708  Biso   1.000  C
  C694     1.0000 0.21778  0.49797  0.33384  Biso   1.000  C
  C695     1.0000 0.81474  0.28447  0.52470  Biso   1.000  C
  C696     1.0000 0.01917  0.67969  0.70937  Biso   1.000  C
  C697     1.0000 0.72345  0.97706  0.33684  Biso   1.000  C
  C698     1.0000 0.32008  0.68476  0.02669  Biso   1.000  C
  C699     1.0000 0.00705  0.28994  0.71927  Biso   1.000  C
  C700     1.0000 0.21811  0.98188  0.20510  Biso   1.000  C
  C701     1.0000 0.82256  0.68073  0.51330  Biso   1.000  C
  C702     1.0000 0.50065  0.28223  0.82746  Biso   1.000  C
  C703     1.0000 0.83096  0.45702  0.30824  Biso   1.000  C
  C704     1.0000 0.19759  0.18372  0.03486  Biso   1.000  C
  C705     1.0000 0.50015  0.78718  0.71093  Biso   1.000  C
  C706     1.0000 0.32781  0.49291  0.22548  Biso   1.000  C
  C707     1.0000 0.70118  0.17803  0.53016  Biso   1.000  C
  C708     1.0000 0.01484  0.79414  0.81752  Biso   1.000  C
  C709     1.0000 0.30295  0.99567  0.70068  Biso   1.000  C
  C710     1.0000 0.69538  0.28314  0.01106  Biso   1.000  C
  C711     1.0000 0.01205  0.67573  0.31637  Biso   1.000  C
  C712     1.0000 0.79922  0.98022  0.83651  Biso   1.000  C
  C713     1.0000 0.20811  0.29334  0.50267  Biso   1.000  C
  C714     1.0000 0.51220  0.68005  0.20719  Biso   1.000  C
  C715     1.0000 0.19209  0.46522  0.72333  Biso   1.000  C
  C716     1.0000 0.81832  0.78155  0.00662  Biso   1.000  C
  C717     1.0000 0.53173  0.18483  0.32290  Biso   1.000  C
  C718     1.0000 0.69649  0.48578  0.81298  Biso   1.000  C
  C719     1.0000 0.32298  0.79044  0.53617  Biso   1.000  C
  C720     1.0000 0.00529  0.17707  0.21826  Biso   1.000  C
  C721     1.0000 0.52804  0.79143  0.28998  Biso   1.000  C
  C722     1.0000 0.30710  0.47914  0.80277  Biso   1.000  C
  C723     1.0000 0.78493  0.28966  0.53588  Biso   1.000  C
  C724     1.0000 0.00058  0.75321  0.20142  Biso   1.000  C
  C725     1.0000 0.78024  0.49966  0.69842  Biso   1.000  C
  C726     1.0000 0.28101  0.29666  0.01937  Biso   1.000  C
  C727     1.0000 0.00358  0.29073  0.29848  Biso   1.000  C
  C728     1.0000 0.22063  0.01421  0.81641  Biso   1.000  C
  C729     1.0000 0.73851  0.79139  0.54368  Biso   1.000  C
  C730     1.0000 0.51673  0.29922  0.24545  Biso   1.000  C
  C731     1.0000 0.72090  0.95342  0.72490  Biso   1.000  C
  C732     1.0000 0.24016  0.79274  0.99639  Biso   1.000  C
  C733     1.0000 0.48192  0.17183  0.74347  Biso   1.000  C
  C734     1.0000 0.71736  0.45911  0.22926  Biso   1.000  C
  C735     1.0000 0.20931  0.71226  0.55244  Biso   1.000  C
  C736     1.0000 0.99161  0.21119  0.83345  Biso   1.000  C
  C737     1.0000 0.24520  0.48451  0.33711  Biso   1.000  C
  C738     1.0000 0.73715  0.67059  0.02468  Biso   1.000  C
  C739     1.0000 0.02895  0.67426  0.73988  Biso   1.000  C
  C740     1.0000 0.81113  0.95791  0.23330  Biso   1.000  C
  C741     1.0000 0.28512  0.17584  0.48540  Biso   1.000  C
  C742     1.0000 0.52034  0.67193  0.79043  Biso   1.000  C
  C743     1.0000 0.30919  0.96429  0.31055  Biso   1.000  C
  C744     1.0000 0.81133  0.20325  0.01894  Biso   1.000  C
  C745     1.0000 0.02549  0.70451  0.32076  Biso   1.000  C
  C746     1.0000 0.27559  0.01285  0.69831  Biso   1.000  C
  C747     1.0000 0.72277  0.28623  0.02630  Biso   1.000  C
  C748     1.0000 0.52651  0.70700  0.20375  Biso   1.000  C
  C749     1.0000 0.77274  0.96223  0.84291  Biso   1.000  C
  C750     1.0000 0.23529  0.29555  0.51675  Biso   1.000  C
  C751     1.0000 0.55021  0.18359  0.29785  Biso   1.000  C
  C752     1.0000 0.21893  0.44897  0.71810  Biso   1.000  C
  C753     1.0000 0.79061  0.78649  0.99389  Biso   1.000  C
  C754     1.0000 0.02791  0.17654  0.23965  Biso   1.000  C
  C755     1.0000 0.69451  0.50187  0.78647  Biso   1.000  C
  C756     1.0000 0.29581  0.79200  0.52107  Biso   1.000  C
  C757     1.0000 0.99436  0.26083  0.71393  Biso   1.000  C
  C758     1.0000 0.72476  0.99813  0.31385  Biso   1.000  C
  C759     1.0000 0.29313  0.68227  0.04200  Biso   1.000  C
  C760     1.0000 0.51234  0.25392  0.83206  Biso   1.000  C
  C761     1.0000 0.24549  0.99768  0.19731  Biso   1.000  C
  C762     1.0000 0.82758  0.70816  0.49956  Biso   1.000  C
  C763     1.0000 0.47945  0.78571  0.73531  Biso   1.000  C
  C764     1.0000 0.80437  0.44100  0.30859  Biso   1.000  C
  C765     1.0000 0.22234  0.18276  0.05545  Biso   1.000  C
  C766     1.0000 0.99264  0.79133  0.79396  Biso   1.000  C
  C767     1.0000 0.33001  0.51291  0.24978  Biso   1.000  C
  C768     1.0000 0.69833  0.20532  0.51400  Biso   1.000  C
  C769     1.0000 0.48894  0.70278  0.82128  Biso   1.000  C
  C770     1.0000 0.80505  0.46106  0.72342  Biso   1.000  C
  C771     1.0000 0.71221  0.76296  0.50669  Biso   1.000  C
  C772     1.0000 0.00547  0.70858  0.70397  Biso   1.000  C
  C773     1.0000 0.27770  0.44601  0.83356  Biso   1.000  C
  C774     1.0000 0.21315  0.77391  0.04003  Biso   1.000  C
  C775     1.0000 0.01810  0.17574  0.79715  Biso   1.000  C
  C776     1.0000 0.68548  0.98536  0.75489  Biso   1.000  C
  C777     1.0000 0.81971  0.25564  0.51391  Biso   1.000  C
  C778     1.0000 0.51619  0.20403  0.71406  Biso   1.000  C
  C779     1.0000 0.19197  0.97498  0.78955  Biso   1.000  C
  C780     1.0000 0.30560  0.27367  0.05990  Biso   1.000  C
  C781     1.0000 0.53458  0.26395  0.20884  Biso   1.000  C
  C782     1.0000 0.21323  0.51151  0.30595  Biso   1.000  C
  C783     1.0000 0.31593  0.20466  0.51859  Biso   1.000  C
  C784     1.0000 0.02729  0.25530  0.33156  Biso   1.000  C
  C785     1.0000 0.75246  0.48179  0.19492  Biso   1.000  C
  C786     1.0000 0.77961  0.16953  0.99347  Biso   1.000  C
  C787     1.0000 0.02258  0.78840  0.23382  Biso   1.000  C
  C788     1.0000 0.33633  0.00064  0.28251  Biso   1.000  C
  C789     1.0000 0.24284  0.67885  0.52821  Biso   1.000  C
  C790     1.0000 0.49414  0.76541  0.32077  Biso   1.000  C
  C791     1.0000 0.83166  0.00626  0.24965  Biso   1.000  C
  C792     1.0000 0.70897  0.69491  0.98725  Biso   1.000  C
  C793     1.0000 0.51031  0.20856  0.32578  Biso   1.000  C
  C794     1.0000 0.30075  0.47530  0.22472  Biso   1.000  C
  C795     1.0000 0.20086  0.26469  0.49081  Biso   1.000  C
  C796     1.0000 0.98491  0.20111  0.21889  Biso   1.000  C
  C797     1.0000 0.83637  0.47654  0.28329  Biso   1.000  C
  C798     1.0000 0.69300  0.25764  0.99130  Biso   1.000  C
  C799     1.0000 0.99616  0.67327  0.28884  Biso   1.000  C
  C800     1.0000 0.21727  0.96680  0.23304  Biso   1.000  C
  C801     1.0000 0.32684  0.76769  0.55772  Biso   1.000  C
  C802     1.0000 0.49411  0.67702  0.23315  Biso   1.000  C
  C803     1.0000 0.74730  0.95771  0.33976  Biso   1.000  C
  C804     1.0000 0.82523  0.75158  0.01474  Biso   1.000  C
  C805     1.0000 0.51935  0.76250  0.70776  Biso   1.000  C
  C806     1.0000 0.72257  0.46774  0.81492  Biso   1.000  C
  C807     1.0000 0.79513  0.67603  0.52852  Biso   1.000  C
  C808     1.0000 0.03873  0.77210  0.81522  Biso   1.000  C
  C809     1.0000 0.18834  0.47518  0.75343  Biso   1.000  C
  C810     1.0000 0.32660  0.71166  0.01111  Biso   1.000  C
  C811     1.0000 0.01863  0.29466  0.74717  Biso   1.000  C
  C812     1.0000 0.80095  0.99449  0.80815  Biso   1.000  C
  C813     1.0000 0.73012  0.17516  0.54436  Biso   1.000  C
  C814     1.0000 0.48820  0.28748  0.80007  Biso   1.000  C
  C815     1.0000 0.30496  0.97802  0.72667  Biso   1.000  C
  C816     1.0000 0.19503  0.21183  0.01960  Biso   1.000  C
  C817     1.0000 0.99580  0.23170  0.81214  Biso   1.000  C
  C818     1.0000 0.79335  0.95718  0.25781  Biso   1.000  C
  C819     1.0000 0.26272  0.77432  0.00267  Biso   1.000  C
  C820     1.0000 0.48067  0.19286  0.76394  Biso   1.000  C
  C821     1.0000 0.28803  0.96448  0.28896  Biso   1.000  C
  C822     1.0000 0.76051  0.77060  0.54124  Biso   1.000  C
  C823     1.0000 0.52007  0.69312  0.76851  Biso   1.000  C
  C824     1.0000 0.73985  0.45734  0.24873  Biso   1.000  C
  C825     1.0000 0.26005  0.27536  0.02066  Biso   1.000  C
  C826     1.0000 0.02895  0.69742  0.75980  Biso   1.000  C
  C827     1.0000 0.26656  0.48464  0.31449  Biso   1.000  C
  C828     1.0000 0.76362  0.26918  0.53504  Biso   1.000  C
  C829     1.0000 0.99885  0.73353  0.22293  Biso   1.000  C
  C830     1.0000 0.24116  0.01296  0.79323  Biso   1.000  C
  C831     1.0000 0.78842  0.22346  0.01946  Biso   1.000  C
  C832     1.0000 0.52425  0.77082  0.26872  Biso   1.000  C
  C833     1.0000 0.73849  0.95176  0.74889  Biso   1.000  C
  C834     1.0000 0.26500  0.19740  0.48712  Biso   1.000  C
  C835     1.0000 0.51971  0.27762  0.26683  Biso   1.000  C
  C836     1.0000 0.28719  0.47647  0.78203  Biso   1.000  C
  C837     1.0000 0.75896  0.69060  0.01929  Biso   1.000  C
  C838     1.0000 0.00297  0.26844  0.27825  Biso   1.000  C
  C839     1.0000 0.75995  0.50045  0.72116  Biso   1.000  C
  C840     1.0000 0.23126  0.73301  0.55425  Biso   1.000  C
  C841     1.0000 0.21235  0.97629  0.76554  Biso   1.000  C
  C842     1.0000 0.75845  0.19099  0.99262  Biso   1.000  C
  C843     1.0000 0.01967  0.77065  0.25706  Biso   1.000  C
  C844     1.0000 0.70491  0.98499  0.77787  Biso   1.000  C
  C845     1.0000 0.29662  0.22630  0.51712  Biso   1.000  C
  C846     1.0000 0.49066  0.74394  0.30121  Biso   1.000  C
  C847     1.0000 0.25800  0.44396  0.81202  Biso   1.000  C
  C848     1.0000 0.72902  0.71603  0.98473  Biso   1.000  C
  C849     1.0000 0.53517  0.24180  0.23033  Biso   1.000  C
  C850     1.0000 0.78454  0.46243  0.74535  Biso   1.000  C
  C851     1.0000 0.26481  0.69807  0.53275  Biso   1.000  C
  C852     1.0000 0.02241  0.23361  0.31143  Biso   1.000  C
  C853     1.0000 0.81421  0.00414  0.27418  Biso   1.000  C
  C854     1.0000 0.23431  0.75432  0.04299  Biso   1.000  C
  C855     1.0000 0.01872  0.19818  0.77696  Biso   1.000  C
  C856     1.0000 0.31307  0.00239  0.26275  Biso   1.000  C
  C857     1.0000 0.73516  0.74433  0.50353  Biso   1.000  C
  C858     1.0000 0.51537  0.22345  0.73655  Biso   1.000  C
  C859     1.0000 0.77433  0.47952  0.21517  Biso   1.000  C
  C860     1.0000 0.28454  0.25182  0.06015  Biso   1.000  C
  C861     1.0000 0.48945  0.72264  0.80010  Biso   1.000  C
  C862     1.0000 0.23286  0.51001  0.28273  Biso   1.000  C
  C863     1.0000 0.79790  0.23447  0.51418  Biso   1.000  C
  C864     1.0000 0.00628  0.73027  0.72542  Biso   1.000  C
  C865     1.0000 0.71615  0.50313  0.76618  Biso   1.000  C
  C866     1.0000 0.80640  0.73017  0.50397  Biso   1.000  C
  C867     1.0000 0.47995  0.76372  0.75539  Biso   1.000  C
  C868     1.0000 0.24185  0.44710  0.73728  Biso   1.000  C
  C869     1.0000 0.27443  0.70517  0.04200  Biso   1.000  C
  C870     1.0000 0.99656  0.77076  0.77294  Biso   1.000  C
  C871     1.0000 0.75221  0.95848  0.82108  Biso   1.000  C
  C872     1.0000 0.72197  0.22421  0.51082  Biso   1.000  C
  C873     1.0000 0.99727  0.23988  0.73529  Biso   1.000  C
  C874     1.0000 0.25475  0.01125  0.72021  Biso   1.000  C
  C875     1.0000 0.24242  0.20616  0.05641  Biso   1.000  C
  C876     1.0000 0.51014  0.23240  0.81055  Biso   1.000  C
  C877     1.0000 0.30932  0.51467  0.27066  Biso   1.000  C
  C878     1.0000 0.25555  0.27320  0.51758  Biso   1.000  C
  C879     1.0000 0.54853  0.20542  0.27748  Biso   1.000  C
  C880     1.0000 0.78352  0.44381  0.28752  Biso   1.000  C
  C881     1.0000 0.74406  0.26372  0.02373  Biso   1.000  C
  C882     1.0000 0.02792  0.19675  0.26208  Biso   1.000  C
  C883     1.0000 0.26724  0.99828  0.21749  Biso   1.000  C
  C884     1.0000 0.27712  0.76938  0.52351  Biso   1.000  C
  C885     1.0000 0.02383  0.72594  0.29982  Biso   1.000  C
  C886     1.0000 0.75038  0.99951  0.29750  Biso   1.000  C
  C887     1.0000 0.76921  0.76448  0.99331  Biso   1.000  C
  C888     1.0000 0.52465  0.72836  0.22623  Biso   1.000  C
  C889     1.0000 0.77144  0.95890  0.32045  Biso   1.000  C
  C890     1.0000 0.30659  0.73277  0.00945  Biso   1.000  C
  C891     1.0000 0.01988  0.27432  0.76854  Biso   1.000  C
  C892     1.0000 0.23993  0.96973  0.25341  Biso   1.000  C
  C893     1.0000 0.77511  0.69768  0.53277  Biso   1.000  C
  C894     1.0000 0.49122  0.26752  0.77736  Biso   1.000  C
  C895     1.0000 0.81552  0.47921  0.26205  Biso   1.000  C
  C896     1.0000 0.21485  0.23557  0.02273  Biso   1.000  C
  C897     1.0000 0.51932  0.73973  0.72782  Biso   1.000  C
  C898     1.0000 0.28070  0.47830  0.24822  Biso   1.000  C
  C899     1.0000 0.75301  0.19362  0.53948  Biso   1.000  C
  C900     1.0000 0.03884  0.74983  0.79440  Biso   1.000  C
  C901     1.0000 0.28410  0.97918  0.74844  Biso   1.000  C
  C902     1.0000 0.71645  0.23733  0.98854  Biso   1.000  C
  C903     1.0000 0.99617  0.69435  0.26750  Biso   1.000  C
  C904     1.0000 0.77873  0.99172  0.78793  Biso   1.000  C
  C905     1.0000 0.22346  0.24468  0.49086  Biso   1.000  C
  C906     1.0000 0.49143  0.69903  0.25414  Biso   1.000  C
  C907     1.0000 0.21165  0.47334  0.77324  Biso   1.000  C
  C908     1.0000 0.80404  0.72962  0.01563  Biso   1.000  C
  C909     1.0000 0.51150  0.23066  0.30496  Biso   1.000  C
  C910     1.0000 0.74290  0.46750  0.79362  Biso   1.000  C
  C911     1.0000 0.30624  0.74573  0.55984  Biso   1.000  C
  C912     1.0000 0.98601  0.22172  0.24148  Biso   1.000  C
  C913     1.0000 0.76050  0.48087  0.74518  Biso   1.000  C
  C914     1.0000 0.75856  0.74759  0.52220  Biso   1.000  C
  C915     1.0000 0.50446  0.71823  0.77442  Biso   1.000  C
  C916     1.0000 0.26181  0.45990  0.78621  Biso   1.000  C
  C917     1.0000 0.25816  0.75297  0.02375  Biso   1.000  C
  C918     1.0000 0.01811  0.72424  0.75216  Biso   1.000  C
  C919     1.0000 0.73191  0.96907  0.77369  Biso   1.000  C
  C920     1.0000 0.77007  0.24169  0.52210  Biso   1.000  C
  C921     1.0000 0.00960  0.22559  0.78431  Biso   1.000  C
  C922     1.0000 0.23627  0.99502  0.76952  Biso   1.000  C
  C923     1.0000 0.26210  0.25277  0.04017  Biso   1.000  C
  C924     1.0000 0.49780  0.21756  0.76036  Biso   1.000  C
  C925     1.0000 0.25992  0.49848  0.28894  Biso   1.000  C
  C926     1.0000 0.27003  0.22268  0.50311  Biso   1.000  C
  C927     1.0000 0.52711  0.24959  0.25864  Biso   1.000  C
  C928     1.0000 0.76781  0.46686  0.24226  Biso   1.000  C
  C929     1.0000 0.76355  0.21750  0.00629  Biso   1.000  C
  C930     1.0000 0.01208  0.24086  0.28405  Biso   1.000  C
  C931     1.0000 0.28934  0.98424  0.26555  Biso   1.000  C
  C932     1.0000 0.25945  0.72508  0.54566  Biso   1.000  C
  C933     1.0000 0.00603  0.74351  0.25160  Biso   1.000  C
  C934     1.0000 0.79624  0.97988  0.27864  Biso   1.000  C
  C935     1.0000 0.75293  0.71447  0.00178  Biso   1.000  C
  C936     1.0000 0.50667  0.74746  0.27473  Biso   1.000  C
  C937     1.0000 0.73982  0.23897  0.00659  Biso   1.000  C
  C938     1.0000 0.01018  0.72036  0.27290  Biso   1.000  C
  C939     1.0000 0.25845  0.99401  0.74468  Biso   1.000  C
  C940     1.0000 0.25036  0.24770  0.50208  Biso   1.000  C
  C941     1.0000 0.50948  0.72417  0.25127  Biso   1.000  C
  C942     1.0000 0.75400  0.97405  0.79518  Biso   1.000  C
  C943     1.0000 0.77594  0.73647  0.00488  Biso   1.000  C
  C944     1.0000 0.52989  0.22828  0.28097  Biso   1.000  C
  C945     1.0000 0.23771  0.46020  0.76552  Biso   1.000  C
  C946     1.0000 0.28194  0.74762  0.54275  Biso   1.000  C
  C947     1.0000 0.00826  0.21936  0.26126  Biso   1.000  C
  C948     1.0000 0.74051  0.48564  0.77022  Biso   1.000  C
  C949     1.0000 0.28146  0.73083  0.02775  Biso   1.000  C
  C950     1.0000 0.01004  0.24659  0.76153  Biso   1.000  C
  C951     1.0000 0.77442  0.98153  0.30234  Biso   1.000  C
  C952     1.0000 0.77990  0.72451  0.52027  Biso   1.000  C
  C953     1.0000 0.49966  0.23962  0.78312  Biso   1.000  C
  C954     1.0000 0.26646  0.98315  0.24388  Biso   1.000  C
  C955     1.0000 0.23832  0.23102  0.04069  Biso   1.000  C
  C956     1.0000 0.50044  0.74133  0.75182  Biso   1.000  C
  C957     1.0000 0.78944  0.46326  0.26433  Biso   1.000  C
  C958     1.0000 0.74815  0.21881  0.52228  Biso   1.000  C
  C959     1.0000 0.01879  0.74953  0.77255  Biso   1.000  C
  C960     1.0000 0.28415  0.49890  0.26990  Biso   1.000  C
  Cu1      1.0000 0.00096  0.48213  0.66735  Biso   1.000  Cu
  Cu2      1.0000 0.66301  0.98192  0.53206  Biso   1.000  Cu
  Cu3      1.0000 0.51474  0.63681  0.00989  Biso   1.000  Cu
  Cu4      1.0000 0.49754  0.48192  0.86597  Biso   1.000  Cu
  Cu5      1.0000 0.16196  0.98588  0.01312  Biso   1.000  Cu
  Cu6      1.0000 0.01991  0.63761  0.51354  Biso   1.000  Cu
  Cu7      1.0000 0.50333  0.98271  0.66843  Biso   1.000  Cu
  Cu8      1.0000 0.85967  0.47915  0.50744  Biso   1.000  Cu
  Cu9      1.0000 0.00371  0.13800  0.02425  Biso   1.000  Cu
  Cu10     1.0000 0.99921  0.99041  0.86427  Biso   1.000  Cu
  Cu11     1.0000 0.35459  0.48749  0.02606  Biso   1.000  Cu
  Cu12     1.0000 0.50778  0.14077  0.51977  Biso   1.000  Cu
  Cu13     1.0000 0.02002  0.48110  0.36387  Biso   1.000  Cu
  Cu14     1.0000 0.35735  0.98293  0.50598  Biso   1.000  Cu
  Cu15     1.0000 0.49967  0.33329  0.02280  Biso   1.000  Cu
  Cu16     1.0000 0.52550  0.48589  0.17326  Biso   1.000  Cu
  Cu17     1.0000 0.85693  0.97578  0.02716  Biso   1.000  Cu
  Cu18     1.0000 0.01044  0.33314  0.52428  Biso   1.000  Cu
  Cu19     1.0000 0.52703  0.99078  0.36317  Biso   1.000  Cu
  Cu20     1.0000 0.17224  0.48940  0.52737  Biso   1.000  Cu
  Cu21     1.0000 0.01497  0.83220  0.01391  Biso   1.000  Cu
  Cu22     1.0000 0.02160  0.98176  0.17163  Biso   1.000  Cu
  Cu23     1.0000 0.66305  0.47890  0.01040  Biso   1.000  Cu
  Cu24     1.0000 0.51474  0.83552  0.51573  Biso   1.000  Cu
  Cu25     1.0000 0.21821  0.98862  0.01036  Biso   1.000  Cu
  Cu26     1.0000 0.00074  0.19052  0.02395  Biso   1.000  Cu
  Cu27     1.0000 0.02092  0.97887  0.22553  Biso   1.000  Cu
  Cu28     1.0000 0.71510  0.98676  0.53379  Biso   1.000  Cu
  Cu29     1.0000 0.50793  0.19348  0.51906  Biso   1.000  Cu
  Cu30     1.0000 0.53014  0.99000  0.30849  Biso   1.000  Cu
  Cu31     1.0000 0.30079  0.49012  0.02858  Biso   1.000  Cu
  Cu32     1.0000 0.51618  0.69135  0.01132  Biso   1.000  Cu
  Cu33     1.0000 0.52662  0.48650  0.22734  Biso   1.000  Cu
  Cu34     1.0000 0.80535  0.48249  0.50349  Biso   1.000  Cu
  Cu35     1.0000 0.01842  0.69288  0.51126  Biso   1.000  Cu
  Cu36     1.0000 0.02570  0.48003  0.30777  Biso   1.000  Cu
  Cu37     1.0000 0.80266  0.97516  0.03300  Biso   1.000  Cu
  Cu38     1.0000 0.01504  0.77583  0.01111  Biso   1.000  Cu
  Cu39     1.0000 0.99832  0.98877  0.81106  Biso   1.000  Cu
  Cu40     1.0000 0.30287  0.98207  0.50374  Biso   1.000  Cu
  Cu41     1.0000 0.51717  0.78055  0.51338  Biso   1.000  Cu
  Cu42     1.0000 0.49764  0.98098  0.72300  Biso   1.000  Cu
  Cu43     1.0000 0.71634  0.47532  0.00383  Biso   1.000  Cu
  Cu44     1.0000 0.49845  0.27674  0.02350  Biso   1.000  Cu
  Cu45     1.0000 0.49771  0.47822  0.81180  Biso   1.000  Cu
  Cu46     1.0000 0.22683  0.48984  0.52914  Biso   1.000  Cu
  Cu47     1.0000 0.01364  0.27924  0.52201  Biso   1.000  Cu
  Cu48     1.0000 0.99536  0.48501  0.72169  Biso   1.000  Cu
  H1       1.0000 0.25473  0.77178  0.51680  Biso   1.000  H
  H2       1.0000 0.51892  0.21166  0.81288  Biso   1.000  H
  H3       1.0000 0.76497  0.42911  0.28755  Biso   1.000  H
  H4       1.0000 0.74695  0.77112  0.98722  Biso   1.000  H
  H5       1.0000 0.99066  0.21710  0.73205  Biso   1.000  H
  H6       1.0000 0.31209  0.52991  0.28826  Biso   1.000  H
  H7       1.0000 0.27501  0.27533  0.53066  Biso   1.000  H
  H8       1.0000 0.98022  0.77061  0.75431  Biso   1.000  H
  H9       1.0000 0.75304  0.01589  0.28134  Biso   1.000  H
  H10      1.0000 0.76210  0.27167  0.03566  Biso   1.000  H
  H11      1.0000 0.46216  0.76171  0.77103  Biso   1.000  H
  H12      1.0000 0.28768  0.00928  0.21263  Biso   1.000  H
  H13      1.0000 0.71701  0.24270  0.49745  Biso   1.000  H
  H14      1.0000 0.53623  0.74768  0.22017  Biso   1.000  H
  H15      1.0000 0.26236  0.43436  0.73137  Biso   1.000  H
  H16      1.0000 0.26042  0.20270  0.07082  Biso   1.000  H
  H17      1.0000 0.03606  0.74550  0.30138  Biso   1.000  H
  H18      1.0000 0.71320  0.51914  0.74950  Biso   1.000  H
  H19      1.0000 0.80815  0.75197  0.49358  Biso   1.000  H
  H20      1.0000 0.04341  0.19450  0.27988  Biso   1.000  H
  H21      1.0000 0.23490  0.02319  0.71881  Biso   1.000  H
  H22      1.0000 0.25252  0.70307  0.05509  Biso   1.000  H
  H23      1.0000 0.56398  0.20407  0.25970  Biso   1.000  H
  H24      1.0000 0.73397  0.94333  0.82441  Biso   1.000  H
  H25      1.0000 0.26196  0.02287  0.79340  Biso   1.000  H
  H26      1.0000 0.79234  0.24516  0.02891  Biso   1.000  H
  H27      1.0000 0.98869  0.71265  0.21665  Biso   1.000  H
  H28      1.0000 0.75834  0.93889  0.74868  Biso   1.000  H
  H29      1.0000 0.24464  0.19163  0.47452  Biso   1.000  H
  H30      1.0000 0.53571  0.77603  0.24913  Biso   1.000  H
  H31      1.0000 0.29062  0.48996  0.76256  Biso   1.000  H
  H32      1.0000 0.77942  0.68854  0.03203  Biso   1.000  H
  H33      1.0000 0.51783  0.28347  0.28902  Biso   1.000  H
  H34      1.0000 0.74414  0.51540  0.71892  Biso   1.000  H
  H35      1.0000 0.22667  0.75509  0.56234  Biso   1.000  H
  H36      1.0000 0.99216  0.27411  0.25786  Biso   1.000  H
  H37      1.0000 0.77772  0.93890  0.25987  Biso   1.000  H
  H38      1.0000 0.27859  0.77179  0.98383  Biso   1.000  H
  H39      1.0000 0.99062  0.25378  0.81642  Biso   1.000  H
  H40      1.0000 0.27070  0.94937  0.28822  Biso   1.000  H
  H41      1.0000 0.77873  0.77196  0.55604  Biso   1.000  H
  H42      1.0000 0.47176  0.18780  0.78395  Biso   1.000  H
  H43      1.0000 0.73405  0.44853  0.26929  Biso   1.000  H
  H44      1.0000 0.24340  0.27646  0.00292  Biso   1.000  H
  H45      1.0000 0.53285  0.68817  0.74792  Biso   1.000  H
  H46      1.0000 0.28707  0.47564  0.32008  Biso   1.000  H
  H47      1.0000 0.74032  0.27681  0.54221  Biso   1.000  H
  H48      1.0000 0.03737  0.69323  0.78122  Biso   1.000  H
  H49      1.0000 0.22867  0.52108  0.26310  Biso   1.000  H
  H50      1.0000 0.30210  0.24586  0.52911  Biso   1.000  H
  H51      1.0000 0.53897  0.21914  0.22380  Biso   1.000  H
  H52      1.0000 0.79586  0.48580  0.20710  Biso   1.000  H
  H53      1.0000 0.73773  0.18685  0.98306  Biso   1.000  H
  H54      1.0000 0.03137  0.21127  0.31762  Biso   1.000  H
  H55      1.0000 0.31478  0.01917  0.24723  Biso   1.000  H
  H56      1.0000 0.28702  0.69216  0.52687  Biso   1.000  H
  H57      1.0000 0.02784  0.77991  0.27852  Biso   1.000  H
  H58      1.0000 0.81488  0.02200  0.29110  Biso   1.000  H
  H59      1.0000 0.72691  0.73181  0.96761  Biso   1.000  H
  H60      1.0000 0.47797  0.72504  0.30752  Biso   1.000  H
  H61      1.0000 0.78802  0.44692  0.76272  Biso   1.000  H
  H62      1.0000 0.73547  0.72857  0.48609  Biso   1.000  H
  H63      1.0000 0.47608  0.74181  0.80367  Biso   1.000  H
  H64      1.0000 0.23939  0.43027  0.81358  Biso   1.000  H
  H65      1.0000 0.23492  0.74365  0.06435  Biso   1.000  H
  H66      1.0000 0.99659  0.75142  0.71912  Biso   1.000  H
  H67      1.0000 0.70027  0.99735  0.79852  Biso   1.000  H
  H68      1.0000 0.80219  0.21238  0.50647  Biso   1.000  H
  H69      1.0000 0.02836  0.19254  0.75683  Biso   1.000  H
  H70      1.0000 0.20976  0.96555  0.74565  Biso   1.000  H
  H71      1.0000 0.28775  0.23496  0.07540  Biso   1.000  H
  H72      1.0000 0.52730  0.24321  0.73574  Biso   1.000  H
  H73      1.0000 0.76139  0.45347  0.79555  Biso   1.000  H
  H74      1.0000 0.75593  0.69324  0.54554  Biso   1.000  H
  H75      1.0000 0.53374  0.72070  0.72353  Biso   1.000  H
  H76      1.0000 0.20908  0.48388  0.79358  Biso   1.000  H
  H77      1.0000 0.31021  0.75345  0.99742  Biso   1.000  H
  H78      1.0000 0.05574  0.73283  0.79596  Biso   1.000  H
  H79      1.0000 0.77988  0.00415  0.76688  Biso   1.000  H
  H80      1.0000 0.77136  0.19244  0.55333  Biso   1.000  H
  H81      1.0000 0.02925  0.27695  0.78911  Biso   1.000  H
  H82      1.0000 0.28594  0.96555  0.76784  Biso   1.000  H
  H83      1.0000 0.20979  0.25449  0.01193  Biso   1.000  H
  H84      1.0000 0.48320  0.27268  0.75511  Biso   1.000  H
  H85      1.0000 0.25964  0.46533  0.24575  Biso   1.000  H
  H86      1.0000 0.21677  0.22377  0.48043  Biso   1.000  H
  H87      1.0000 0.49522  0.24797  0.31046  Biso   1.000  H
  H88      1.0000 0.81886  0.49646  0.24659  Biso   1.000  H
  H89      1.0000 0.71266  0.21804  0.97359  Biso   1.000  H
  H90      1.0000 0.96842  0.23584  0.24602  Biso   1.000  H
  H91      1.0000 0.23728  0.96172  0.27550  Biso   1.000  H
  H92      1.0000 0.30968  0.72880  0.57628  Biso   1.000  H
  H93      1.0000 0.98501  0.68660  0.24919  Biso   1.000  H
  H94      1.0000 0.78969  0.94630  0.32433  Biso   1.000  H
  H95      1.0000 0.81088  0.70903  0.02398  Biso   1.000  H
  H96      1.0000 0.47603  0.69581  0.27177  Biso   1.000  H
  H97      1.0000 0.87227  0.97538  0.93517  Biso   1.000  H
  H98      1.0000 0.91976  0.84824  0.01509  Biso   1.000  H
  H99      1.0000 0.99935  0.89586  0.88439  Biso   1.000  H
  H100     1.0000 0.36949  0.99669  0.59543  Biso   1.000  H
  H101     1.0000 0.42673  0.85091  0.51152  Biso   1.000  H
  H102     1.0000 0.48875  0.89148  0.64831  Biso   1.000  H
  H103     1.0000 0.63552  0.49303  0.92166  Biso   1.000  H
  H104     1.0000 0.58934  0.35032  0.01341  Biso   1.000  H
  H105     1.0000 0.50070  0.38726  0.89216  Biso   1.000  H
  H106     1.0000 0.14309  0.47748  0.61303  Biso   1.000  H
  H107     1.0000 0.10382  0.35854  0.51979  Biso   1.000  H
  H108     1.0000 0.99334  0.38917  0.65034  Biso   1.000  H
  H109     1.0000 0.14659  0.96670  0.10528  Biso   1.000  H
  H110     1.0000 0.09073  0.12207  0.01821  Biso   1.000  H
  H111     1.0000 0.00431  0.07217  0.15537  Biso   1.000  H
  H112     1.0000 0.65097  0.99261  0.43441  Biso   1.000  H
  H113     1.0000 0.59259  0.12104  0.52829  Biso   1.000  H
  H114     1.0000 0.52308  0.07903  0.38276  Biso   1.000  H
  H115     1.0000 0.38331  0.48315  0.11530  Biso   1.000  H
  H116     1.0000 0.42208  0.61731  0.02708  Biso   1.000  H
  H117     1.0000 0.51286  0.57301  0.14723  Biso   1.000  H
  H118     1.0000 0.88327  0.46308  0.42046  Biso   1.000  H
  H119     1.0000 0.92514  0.61775  0.51330  Biso   1.000  H
  H120     1.0000 0.01591  0.57293  0.37804  Biso   1.000  H
  H121     1.0000 0.09245  0.99499  0.88478  Biso   1.000  H
  H122     1.0000 0.87632  0.07377  0.01835  Biso   1.000  H
  H123     1.0000 0.01215  0.84498  0.10089  Biso   1.000  H
  H124     1.0000 0.59659  0.96845  0.65519  Biso   1.000  H
  H125     1.0000 0.37611  0.07374  0.51082  Biso   1.000  H
  H126     1.0000 0.51512  0.85776  0.42092  Biso   1.000  H
  H127     1.0000 0.40966  0.47522  0.88892  Biso   1.000  H
  H128     1.0000 0.64662  0.56727  0.01635  Biso   1.000  H
  H129     1.0000 0.50361  0.35739  0.11516  Biso   1.000  H
  H130     1.0000 0.91367  0.48004  0.64468  Biso   1.000  H
  H131     1.0000 0.15472  0.58095  0.51881  Biso   1.000  H
  H132     1.0000 0.02089  0.35124  0.43194  Biso   1.000  H
  H133     1.0000 0.93101  0.98688  0.15336  Biso   1.000  H
  H134     1.0000 0.14711  0.89182  0.99453  Biso   1.000  H
  H135     1.0000 0.99840  0.11871  0.93171  Biso   1.000  H
  H136     1.0000 0.43504  0.00174  0.37627  Biso   1.000  H
  H137     1.0000 0.64981  0.89316  0.52641  Biso   1.000  H
  H138     1.0000 0.50636  0.11838  0.60827  Biso   1.000  H
  H139     1.0000 0.60958  0.47738  0.15078  Biso   1.000  H
  H140     1.0000 0.36831  0.39929  0.03646  Biso   1.000  H
  H141     1.0000 0.51117  0.61436  0.92102  Biso   1.000  H
  H142     1.0000 0.10842  0.49858  0.39392  Biso   1.000  H
  H143     1.0000 0.87702  0.38670  0.51622  Biso   1.000  H
  H144     1.0000 0.01848  0.61807  0.59808  Biso   1.000  H
  H145     1.0000 0.59188  0.49178  0.87899  Biso   1.000  H
  H146     1.0000 0.88564  0.57312  0.50018  Biso   1.000  H
  H147     1.0000 0.50387  0.85197  0.60578  Biso   1.000  H
  H148     1.0000 0.09845  0.47754  0.64957  Biso   1.000  H
  H149     1.0000 0.38027  0.57660  0.02245  Biso   1.000  H
  H150     1.0000 0.01408  0.85638  0.92389  Biso   1.000  H
  H151     1.0000 0.90723  0.97252  0.89038  Biso   1.000  H
  H152     1.0000 0.63614  0.07686  0.53618  Biso   1.000  H
  H153     1.0000 0.99979  0.34701  0.61275  Biso   1.000  H
  H154     1.0000 0.41128  0.99042  0.64098  Biso   1.000  H
  H155     1.0000 0.13739  0.07716  0.02492  Biso   1.000  H
  H156     1.0000 0.49580  0.34671  0.93224  Biso   1.000  H
  H157     1.0000 0.43063  0.48210  0.15533  Biso   1.000  H
  H158     1.0000 0.15003  0.40179  0.51534  Biso   1.000  H
  H159     1.0000 0.52335  0.12020  0.42537  Biso   1.000  H
  H160     1.0000 0.92927  0.46421  0.37986  Biso   1.000  H
  H161     1.0000 0.63447  0.38924  0.00131  Biso   1.000  H
  H162     1.0000 0.99777  0.11584  0.11351  Biso   1.000  H
  H163     1.0000 0.11315  0.96928  0.14977  Biso   1.000  H
  H164     1.0000 0.38319  0.89272  0.50450  Biso   1.000  H
  H165     1.0000 0.00927  0.61205  0.41952  Biso   1.000  H
  H166     1.0000 0.61565  0.99248  0.38794  Biso   1.000  H
  H167     1.0000 0.87822  0.88409  0.03175  Biso   1.000  H
  H168     1.0000 0.50425  0.61242  0.10203  Biso   1.000  H
  H169     1.0000 0.99118  0.07840  0.88742  Biso   1.000  H
  H170     1.0000 0.87996  0.98882  0.11553  Biso   1.000  H
  H171     1.0000 0.10697  0.84937  0.00322  Biso   1.000  H
  H172     1.0000 0.51218  0.07380  0.64919  Biso   1.000  H
  H173     1.0000 0.38764  0.98734  0.41924  Biso   1.000  H
  H174     1.0000 0.60789  0.85565  0.52239  Biso   1.000  H
  H175     1.0000 0.49270  0.57350  0.88174  Biso   1.000  H
  H176     1.0000 0.65058  0.46645  0.10300  Biso   1.000  H
  H177     1.0000 0.41031  0.35370  0.03263  Biso   1.000  H
  H178     1.0000 0.01485  0.57407  0.64567  Biso   1.000  H
  H179     1.0000 0.14885  0.50286  0.43952  Biso   1.000  H
  H180     1.0000 0.91982  0.35099  0.52539  Biso   1.000  H
  H181     1.0000 0.01903  0.89126  0.14572  Biso   1.000  H
  H182     1.0000 0.13702  0.99855  0.92603  Biso   1.000  H
  H183     1.0000 0.90899  0.11088  0.02312  Biso   1.000  H
  H184     1.0000 0.52181  0.89824  0.38144  Biso   1.000  H
  H185     1.0000 0.63915  0.96731  0.61650  Biso   1.000  H
  H186     1.0000 0.42031  0.11720  0.50813  Biso   1.000  H
  H187     1.0000 0.51481  0.39588  0.15592  Biso   1.000  H
  H188     1.0000 0.36811  0.48004  0.93225  Biso   1.000  H
  H189     1.0000 0.60533  0.61187  0.01491  Biso   1.000  H
  H190     1.0000 0.03509  0.39312  0.38922  Biso   1.000  H
  H191     1.0000 0.87770  0.47711  0.59787  Biso   1.000  H
  H192     1.0000 0.11062  0.62352  0.51086  Biso   1.000  H
  H193     1.0000 0.28858  0.84481  0.54250  Biso   1.000  H
  H194     1.0000 0.48727  0.25016  0.87734  Biso   1.000  H
  H195     1.0000 0.88453  0.45863  0.27914  Biso   1.000  H
  H196     1.0000 0.78132  0.83324  0.01954  Biso   1.000  H
  H197     1.0000 0.01733  0.25504  0.66969  Biso   1.000  H
  H198     1.0000 0.37986  0.48888  0.25524  Biso   1.000  H
  H199     1.0000 0.24213  0.34542  0.49691  Biso   1.000  H
  H200     1.0000 0.01846  0.76205  0.86833  Biso   1.000  H
  H201     1.0000 0.67918  0.97011  0.29939  Biso   1.000  H
  H202     1.0000 0.73172  0.33313  0.99800  Biso   1.000  H
  H203     1.0000 0.51346  0.75598  0.65862  Biso   1.000  H
  H204     1.0000 0.16914  0.98529  0.24216  Biso   1.000  H
  H205     1.0000 0.73416  0.12697  0.52563  Biso   1.000  H
  H206     1.0000 0.51413  0.71221  0.15514  Biso   1.000  H
  H207     1.0000 0.13461  0.46525  0.75459  Biso   1.000  H
  H208     1.0000 0.23331  0.13198  0.03446  Biso   1.000  H
  H209     1.0000 0.00879  0.70854  0.36655  Biso   1.000  H
  H210     1.0000 0.64179  0.48946  0.77959  Biso   1.000  H
  H211     1.0000 0.78742  0.62572  0.50608  Biso   1.000  H
  H212     1.0000 0.99913  0.21061  0.17036  Biso   1.000  H
  H213     1.0000 0.35108  0.00096  0.73469  Biso   1.000  H
  H214     1.0000 0.28537  0.63173  0.01012  Biso   1.000  H
  H215     1.0000 0.52335  0.21762  0.37464  Biso   1.000  H
  H216     1.0000 0.84999  0.97211  0.79796  Biso   1.000  H
  H217     1.0000 0.24961  0.50356  0.38749  Biso   1.000  H
  H218     1.0000 0.36680  0.21260  0.49657  Biso   1.000  H
  H219     1.0000 0.53912  0.34446  0.25107  Biso   1.000  H
  H220     1.0000 0.75175  0.46626  0.14513  Biso   1.000  H
  H221     1.0000 0.85896  0.20220  0.98832  Biso   1.000  H
  H222     1.0000 0.03521  0.33421  0.29402  Biso   1.000  H
  H223     1.0000 0.29849  0.97379  0.35821  Biso   1.000  H
  H224     1.0000 0.16476  0.71664  0.52262  Biso   1.000  H
  H225     1.0000 0.00052  0.83736  0.23868  Biso   1.000  H
  H226     1.0000 0.79130  0.98013  0.18484  Biso   1.000  H
  H227     1.0000 0.66435  0.70445  0.01546  Biso   1.000  H
  H228     1.0000 0.51168  0.84269  0.28456  Biso   1.000  H
  H229     1.0000 0.77530  0.47339  0.64310  Biso   1.000  H
  H230     1.0000 0.65657  0.75587  0.51712  Biso   1.000  H
  H231     1.0000 0.49067  0.62349  0.78579  Biso   1.000  H
  H232     1.0000 0.27070  0.47632  0.88114  Biso   1.000  H
  H233     1.0000 0.16261  0.75783  0.02229  Biso   1.000  H
  H234     1.0000 0.00129  0.63185  0.73883  Biso   1.000  H
  H235     1.0000 0.73062  0.97025  0.67590  Biso   1.000  H
  H236     1.0000 0.86883  0.25088  0.53326  Biso   1.000  H
  H237     1.0000 0.98907  0.13198  0.79323  Biso   1.000  H
  H238     1.0000 0.23367  0.99286  0.86795  Biso   1.000  H
  H239     1.0000 0.35169  0.26112  0.03778  Biso   1.000  H
  H240     1.0000 0.50840  0.12465  0.75109  Biso   1.000  H
  H241     1.0000 0.72889  0.49723  0.86169  Biso   1.000  H
  H242     1.0000 0.87004  0.71314  0.52615  Biso   1.000  H
  H243     1.0000 0.48583  0.83912  0.74679  Biso   1.000  H
  H244     1.0000 0.23241  0.48032  0.67954  Biso   1.000  H
  H245     1.0000 0.37259  0.71671  0.02729  Biso   1.000  H
  H246     1.0000 0.00218  0.84477  0.78544  Biso   1.000  H
  H247     1.0000 0.76984  0.98381  0.89242  Biso   1.000  H
  H248     1.0000 0.64982  0.21505  0.53839  Biso   1.000  H
  H249     1.0000 0.99415  0.34601  0.75060  Biso   1.000  H
  H250     1.0000 0.27246  0.99831  0.64579  Biso   1.000  H
  H251     1.0000 0.14466  0.21707  0.03112  Biso   1.000  H
  H252     1.0000 0.51182  0.33847  0.79324  Biso   1.000  H
  H253     1.0000 0.29002  0.49907  0.17682  Biso   1.000  H
  H254     1.0000 0.15481  0.25896  0.51330  Biso   1.000  H
  H255     1.0000 0.53735  0.13115  0.28612  Biso   1.000  H
  H256     1.0000 0.79103  0.46445  0.35751  Biso   1.000  H
  H257     1.0000 0.64284  0.25155  0.01546  Biso   1.000  H
  H258     1.0000 0.01708  0.12472  0.25185  Biso   1.000  H
  H259     1.0000 0.24806  0.97569  0.14830  Biso   1.000  H
  H260     1.0000 0.37289  0.75752  0.53161  Biso   1.000  H
  H261     1.0000 0.01244  0.62111  0.28251  Biso   1.000  H
  H262     1.0000 0.75117  0.97177  0.39360  Biso   1.000  H
  H263     1.0000 0.87441  0.75019  0.99395  Biso   1.000  H
  H264     1.0000 0.51928  0.63303  0.24422  Biso   1.000  H
  H265     1.0000 0.01893  0.21194  0.87984  Biso   1.000  H
  H266     1.0000 0.88157  0.98432  0.25396  Biso   1.000  H
  H267     1.0000 0.24548  0.84331  0.99887  Biso   1.000  H
  H268     1.0000 0.48814  0.21072  0.66619  Biso   1.000  H
  H269     1.0000 0.38989  0.98343  0.27596  Biso   1.000  H
  H270     1.0000 0.74264  0.83987  0.52624  Biso   1.000  H
  H271     1.0000 0.51481  0.71192  0.86742  Biso   1.000  H
  H272     1.0000 0.67618  0.48799  0.23743  Biso   1.000  H
  H273     1.0000 0.27288  0.34671  0.03309  Biso   1.000  H
  H274     1.0000 0.03352  0.71286  0.65900  Biso   1.000  H
  H275     1.0000 0.16661  0.49446  0.30015  Biso   1.000  H
  H276     1.0000 0.78116  0.33701  0.51058  Biso   1.000  H
  H277     1.0000 0.02289  0.74927  0.15122  Biso   1.000  H
  H278     1.0000 0.14156  0.99484  0.78305  Biso   1.000  H
  H279     1.0000 0.77484  0.11796  0.01514  Biso   1.000  H
  H280     1.0000 0.51106  0.75767  0.37293  Biso   1.000  H
  H281     1.0000 0.63837  0.96934  0.75693  Biso   1.000  H
  H282     1.0000 0.27778  0.12543  0.50313  Biso   1.000  H
  H283     1.0000 0.49936  0.25838  0.16411  Biso   1.000  H
  H284     1.0000 0.35407  0.45565  0.79825  Biso   1.000  H
  H285     1.0000 0.74233  0.62118  0.00025  Biso   1.000  H
  H286     1.0000 0.00883  0.25494  0.38046  Biso   1.000  H
  H287     1.0000 0.85261  0.47423  0.73783  Biso   1.000  H
  H288     1.0000 0.24303  0.63331  0.55424  Biso   1.000  H
  H289     1.0000 0.09173  0.21444  0.01979  Biso   1.000  H
  H290     1.0000 0.01472  0.07195  0.24916  Biso   1.000  H
  H291     1.0000 0.23900  0.97252  0.09286  Biso   1.000  H
  H292     1.0000 0.59747  0.21611  0.53220  Biso   1.000  H
  H293     1.0000 0.53577  0.07894  0.28708  Biso   1.000  H
  H294     1.0000 0.74610  0.98517  0.44771  Biso   1.000  H
  H295     1.0000 0.42818  0.71369  0.02150  Biso   1.000  H
  H296     1.0000 0.52092  0.57885  0.24536  Biso   1.000  H
  H297     1.0000 0.28986  0.49447  0.12298  Biso   1.000  H
  H298     1.0000 0.92695  0.71330  0.52576  Biso   1.000  H
  H299     1.0000 0.01729  0.56693  0.28408  Biso   1.000  H
  H300     1.0000 0.78685  0.47302  0.40822  Biso   1.000  H
  H301     1.0000 0.92531  0.75355  0.99267  Biso   1.000  H
  H302     1.0000 0.99526  0.89924  0.78980  Biso   1.000  H
  H303     1.0000 0.77648  0.97119  0.94659  Biso   1.000  H
  H304     1.0000 0.42609  0.75479  0.52173  Biso   1.000  H
  H305     1.0000 0.48084  0.89357  0.74520  Biso   1.000  H
  H306     1.0000 0.27354  0.99585  0.59422  Biso   1.000  H
  H307     1.0000 0.58612  0.25409  0.01670  Biso   1.000  H
  H308     1.0000 0.50801  0.39200  0.79752  Biso   1.000  H
  H309     1.0000 0.73239  0.49060  0.91213  Biso   1.000  H
  H310     1.0000 0.10232  0.26255  0.51592  Biso   1.000  H
  H311     1.0000 0.98862  0.39931  0.74375  Biso   1.000  H
  H312     1.0000 0.23925  0.48272  0.62638  Biso   1.000  H
  H313     1.0000 0.23475  0.99602  0.91843  Biso   1.000  H
  H314     1.0000 0.91340  0.20207  0.99553  Biso   1.000  H
  H315     1.0000 0.00216  0.88825  0.23974  Biso   1.000  H
  H316     1.0000 0.73620  0.97238  0.62327  Biso   1.000  H
  H317     1.0000 0.41934  0.21192  0.50704  Biso   1.000  H
  H318     1.0000 0.52048  0.89651  0.28439  Biso   1.000  H
  H319     1.0000 0.27126  0.48249  0.93699  Biso   1.000  H
  H320     1.0000 0.60940  0.70947  0.01332  Biso   1.000  H
  H321     1.0000 0.53932  0.39901  0.24852  Biso   1.000  H
  H322     1.0000 0.77830  0.47217  0.59028  Biso   1.000  H
  H323     1.0000 0.10829  0.71743  0.51451  Biso   1.000  H
  H324     1.0000 0.04967  0.38712  0.29377  Biso   1.000  H
  H325     1.0000 0.78484  0.97537  0.12603  Biso   1.000  H
  H326     1.0000 0.10860  0.75531  0.02085  Biso   1.000  H
  H327     1.0000 0.97950  0.08143  0.79275  Biso   1.000  H
  H328     1.0000 0.29462  0.97296  0.41403  Biso   1.000  H
  H329     1.0000 0.60257  0.75945  0.51503  Biso   1.000  H
  H330     1.0000 0.51058  0.07062  0.74725  Biso   1.000  H
  H331     1.0000 0.74819  0.46984  0.09321  Biso   1.000  H
  H332     1.0000 0.41069  0.26023  0.03974  Biso   1.000  H
  H333     1.0000 0.47750  0.56999  0.78933  Biso   1.000  H
  H334     1.0000 0.24698  0.50209  0.43956  Biso   1.000  H
  H335     1.0000 0.92293  0.25668  0.52978  Biso   1.000  H
  H336     1.0000 0.99151  0.57756  0.73865  Biso   1.000  H
  H337     1.0000 0.02205  0.21226  0.93688  Biso   1.000  H
  H338     1.0000 0.93629  0.98691  0.24789  Biso   1.000  H
  H339     1.0000 0.24589  0.89574  0.00091  Biso   1.000  H
  H340     1.0000 0.49075  0.21242  0.61171  Biso   1.000  H
  H341     1.0000 0.44289  0.99438  0.28153  Biso   1.000  H
  H342     1.0000 0.74306  0.89908  0.53038  Biso   1.000  H
  H343     1.0000 0.53079  0.70942  0.91931  Biso   1.000  H
  H344     1.0000 0.61909  0.49428  0.24428  Biso   1.000  H
  H345     1.0000 0.27253  0.39916  0.02654  Biso   1.000  H
  H346     1.0000 0.03583  0.71201  0.60266  Biso   1.000  H
  H347     1.0000 0.11346  0.48833  0.29740  Biso   1.000  H
  H348     1.0000 0.78132  0.39004  0.50857  Biso   1.000  H
  H349     1.0000 0.02589  0.75116  0.09990  Biso   1.000  H
  H350     1.0000 0.08881  0.99366  0.78666  Biso   1.000  H
  H351     1.0000 0.77909  0.06571  0.02810  Biso   1.000  H
  H352     1.0000 0.51503  0.76151  0.42625  Biso   1.000  H
  H353     1.0000 0.58154  0.96890  0.75174  Biso   1.000  H
  H354     1.0000 0.28020  0.07162  0.49938  Biso   1.000  H
  H355     1.0000 0.48520  0.26330  0.11153  Biso   1.000  H
  H356     1.0000 0.40981  0.45141  0.79456  Biso   1.000  H
  H357     1.0000 0.74301  0.56693  0.00381  Biso   1.000  H
  H358     1.0000 0.99667  0.25976  0.43368  Biso   1.000  H
  H359     1.0000 0.90302  0.48030  0.74178  Biso   1.000  H
  H360     1.0000 0.24320  0.57930  0.54612  Biso   1.000  H
  H361     1.0000 0.00924  0.70896  0.42040  Biso   1.000  H
  H362     1.0000 0.40570  0.99871  0.73649  Biso   1.000  H
  H363     1.0000 0.73266  0.38618  0.99119  Biso   1.000  H
  H364     1.0000 0.50961  0.70963  0.10298  Biso   1.000  H
  H365     1.0000 0.90349  0.97186  0.79271  Biso   1.000  H
  H366     1.0000 0.24505  0.39718  0.50410  Biso   1.000  H
  H367     1.0000 0.51619  0.21517  0.43109  Biso   1.000  H
  H368     1.0000 0.08170  0.47007  0.74678  Biso   1.000  H
  H369     1.0000 0.78485  0.88551  0.03991  Biso   1.000  H
  H370     1.0000 0.99398  0.21294  0.11807  Biso   1.000  H
  H371     1.0000 0.58991  0.48640  0.78520  Biso   1.000  H
  H372     1.0000 0.29076  0.89759  0.54073  Biso   1.000  H
  H373     1.0000 0.02672  0.25477  0.61646  Biso   1.000  H
  H374     1.0000 0.62171  0.98124  0.29373  Biso   1.000  H
  H375     1.0000 0.28323  0.57935  0.01437  Biso   1.000  H
  H376     1.0000 0.48862  0.25351  0.93297  Biso   1.000  H
  H377     1.0000 0.11492  0.97976  0.25101  Biso   1.000  H
  H378     1.0000 0.78801  0.57410  0.49985  Biso   1.000  H
  H379     1.0000 0.51886  0.75638  0.60537  Biso   1.000  H
  H380     1.0000 0.93901  0.46502  0.28316  Biso   1.000  H
  H381     1.0000 0.23390  0.07822  0.03447  Biso   1.000  H
  H382     1.0000 0.02776  0.76004  0.92181  Biso   1.000  H
  H383     1.0000 0.43494  0.48705  0.25293  Biso   1.000  H
  H384     1.0000 0.73448  0.07311  0.53561  Biso   1.000  H
  H385     1.0000 0.24857  0.47163  0.35824  Biso   1.000  H
  H386     1.0000 0.27871  0.15584  0.47384  Biso   1.000  H
  H387     1.0000 0.50826  0.31947  0.25282  Biso   1.000  H
  H388     1.0000 0.69754  0.44658  0.23412  Biso   1.000  H
  H389     1.0000 0.83205  0.21089  0.02701  Biso   1.000  H
  H390     1.0000 0.99446  0.31147  0.29536  Biso   1.000  H
  H391     1.0000 0.30752  0.94841  0.32646  Biso   1.000  H
  H392     1.0000 0.18806  0.72048  0.55962  Biso   1.000  H
  H393     1.0000 0.98986  0.74663  0.18028  Biso   1.000  H
  H394     1.0000 0.81146  0.93973  0.21712  Biso   1.000  H
  H395     1.0000 0.74195  0.65264  0.03790  Biso   1.000  H
  H396     1.0000 0.54243  0.80859  0.28539  Biso   1.000  H
  H397     1.0000 0.78155  0.51558  0.68099  Biso   1.000  H
  H398     1.0000 0.74016  0.80895  0.56031  Biso   1.000  H
  H399     1.0000 0.53473  0.65397  0.78541  Biso   1.000  H
  H400     1.0000 0.32451  0.49333  0.79944  Biso   1.000  H
  H401     1.0000 0.24410  0.80607  0.97801  Biso   1.000  H
  H402     1.0000 0.03739  0.65355  0.74747  Biso   1.000  H
  H403     1.0000 0.72585  0.93898  0.70692  Biso   1.000  H
  H404     1.0000 0.77921  0.30789  0.54997  Biso   1.000  H
  H405     1.0000 0.97903  0.21831  0.85281  Biso   1.000  H
  H406     1.0000 0.22344  0.02919  0.83448  Biso   1.000  H
  H407     1.0000 0.27736  0.31444  0.00281  Biso   1.000  H
  H408     1.0000 0.46711  0.15282  0.74471  Biso   1.000  H
  H409     1.0000 0.29672  0.45805  0.20826  Biso   1.000  H
  H410     1.0000 0.18061  0.25916  0.47855  Biso   1.000  H
  H411     1.0000 0.49597  0.20883  0.34348  Biso   1.000  H
  H412     1.0000 0.85510  0.49084  0.28146  Biso   1.000  H
  H413     1.0000 0.67440  0.25692  0.97723  Biso   1.000  H
  H414     1.0000 0.96608  0.20386  0.20461  Biso   1.000  H
  H415     1.0000 0.19740  0.95474  0.24018  Biso   1.000  H
  H416     1.0000 0.34503  0.76669  0.57284  Biso   1.000  H
  H417     1.0000 0.98317  0.65401  0.28596  Biso   1.000  H
  H418     1.0000 0.74657  0.94168  0.35728  Biso   1.000  H
  H419     1.0000 0.84527  0.74618  0.02651  Biso   1.000  H
  H420     1.0000 0.47961  0.65768  0.23296  Biso   1.000  H
  H421     1.0000 0.72362  0.45353  0.83437  Biso   1.000  H
  H422     1.0000 0.79105  0.65465  0.53640  Biso   1.000  H
  H423     1.0000 0.53567  0.76190  0.69026  Biso   1.000  H
  H424     1.0000 0.16855  0.48506  0.76065  Biso   1.000  H
  H425     1.0000 0.34485  0.71022  0.99442  Biso   1.000  H
  H426     1.0000 0.05426  0.77550  0.83184  Biso   1.000  H
  H427     1.0000 0.81862  0.00809  0.80293  Biso   1.000  H
  H428     1.0000 0.73226  0.15614  0.55690  Biso   1.000  H
  H429     1.0000 0.02872  0.31433  0.75273  Biso   1.000  H
  H430     1.0000 0.32279  0.96300  0.72748  Biso   1.000  H
  H431     1.0000 0.17684  0.21133  0.00549  Biso   1.000  H
  H432     1.0000 0.47840  0.30808  0.79584  Biso   1.000  H
  H433     1.0000 0.27132  0.02880  0.68132  Biso   1.000  H
  H434     1.0000 0.72720  0.30632  0.03994  Biso   1.000  H
  H435     1.0000 0.04070  0.70762  0.33822  Biso   1.000  H
  H436     1.0000 0.77081  0.94964  0.86151  Biso   1.000  H
  H437     1.0000 0.24147  0.31301  0.53061  Biso   1.000  H
  H438     1.0000 0.54219  0.71101  0.18599  Biso   1.000  H
  H439     1.0000 0.22147  0.43431  0.69876  Biso   1.000  H
  H440     1.0000 0.78261  0.80800  0.98415  Biso   1.000  H
  H441     1.0000 0.56689  0.16492  0.29335  Biso   1.000  H
  H442     1.0000 0.67448  0.51545  0.78217  Biso   1.000  H
  H443     1.0000 0.29095  0.80883  0.50705  Biso   1.000  H
  H444     1.0000 0.04394  0.15914  0.23961  Biso   1.000  H
  H445     1.0000 0.70836  0.01425  0.30859  Biso   1.000  H
  H446     1.0000 0.28764  0.66258  0.05587  Biso   1.000  H
  H447     1.0000 0.98102  0.25287  0.69593  Biso   1.000  H
  H448     1.0000 0.24888  0.01136  0.17747  Biso   1.000  H
  H449     1.0000 0.84790  0.71221  0.48600  Biso   1.000  H
  H450     1.0000 0.52342  0.24921  0.85158  Biso   1.000  H
  H451     1.0000 0.79945  0.42432  0.32431  Biso   1.000  H
  H452     1.0000 0.22437  0.16338  0.06807  Biso   1.000  H
  H453     1.0000 0.46368  0.80381  0.73796  Biso   1.000  H
  H454     1.0000 0.35153  0.52530  0.25209  Biso   1.000  H
  H455     1.0000 0.67860  0.21344  0.50386  Biso   1.000  H
  H456     1.0000 0.97717  0.80789  0.79056  Biso   1.000  H
  H457     1.0000 0.69625  0.75889  0.49028  Biso   1.000  H
  H458     1.0000 0.47565  0.70682  0.84032  Biso   1.000  H
  H459     1.0000 0.82183  0.44523  0.72598  Biso   1.000  H
  H460     1.0000 0.19581  0.77869  0.05653  Biso   1.000  H
  H461     1.0000 0.99841  0.71128  0.68153  Biso   1.000  H
  H462     1.0000 0.27540  0.43417  0.85356  Biso   1.000  H
  H463     1.0000 0.83966  0.24715  0.50261  Biso   1.000  H
  H464     1.0000 0.02477  0.15440  0.79116  Biso   1.000  H
  H465     1.0000 0.66502  0.99629  0.75710  Biso   1.000  H
  H466     1.0000 0.32147  0.27490  0.07618  Biso   1.000  H
  H467     1.0000 0.53024  0.20560  0.69527  Biso   1.000  H
  H468     1.0000 0.17330  0.96083  0.78835  Biso   1.000  H
  H469     1.0000 0.33566  0.21063  0.53288  Biso   1.000  H
  H470     1.0000 0.54047  0.25883  0.18603  Biso   1.000  H
  H471     1.0000 0.19503  0.52554  0.30289  Biso   1.000  H
  H472     1.0000 0.77282  0.14840  0.98388  Biso   1.000  H
  H473     1.0000 0.04007  0.24893  0.34997  Biso   1.000  H
  H474     1.0000 0.75787  0.49167  0.17439  Biso   1.000  H
  H475     1.0000 0.24743  0.65779  0.51770  Biso   1.000  H
  H476     1.0000 0.03709  0.80753  0.23613  Biso   1.000  H
  H477     1.0000 0.35268  0.01710  0.28053  Biso   1.000  H
  H478     1.0000 0.69157  0.69510  0.97002  Biso   1.000  H
  H479     1.0000 0.48155  0.76421  0.34031  Biso   1.000  H
  H480     1.0000 0.84629  0.02369  0.24768  Biso   1.000  H
  N1       1.0000 0.68151  0.15988  0.53340  Biso   1.000  N
  N2       1.0000 0.51341  0.66022  0.18800  Biso   1.000  N
  N3       1.0000 0.17371  0.46823  0.70375  Biso   1.000  N
  N4       1.0000 0.17714  0.16334  0.03070  Biso   1.000  N
  N5       1.0000 0.01207  0.65685  0.33626  Biso   1.000  N
  N6       1.0000 0.67689  0.48866  0.83199  Biso   1.000  N
  N7       1.0000 0.84116  0.66111  0.51088  Biso   1.000  N
  N8       1.0000 0.00687  0.15712  0.19874  Biso   1.000  N
  N9       1.0000 0.32309  0.99591  0.68141  Biso   1.000  N
  N10      1.0000 0.33893  0.66467  0.02426  Biso   1.000  N
  N11      1.0000 0.53182  0.16473  0.34130  Biso   1.000  N
  N12      1.0000 0.82005  0.98109  0.85385  Biso   1.000  N
  N13      1.0000 0.34218  0.81035  0.53195  Biso   1.000  N
  N14      1.0000 0.49905  0.30378  0.84577  Biso   1.000  N
  N15      1.0000 0.84780  0.46008  0.32930  Biso   1.000  N
  N16      1.0000 0.83721  0.80054  0.00854  Biso   1.000  N
  N17      1.0000 0.00505  0.30902  0.69909  Biso   1.000  N
  N18      1.0000 0.34548  0.49016  0.20415  Biso   1.000  N
  N19      1.0000 0.18904  0.31312  0.50376  Biso   1.000  N
  N20      1.0000 0.01171  0.81410  0.83778  Biso   1.000  N
  N21      1.0000 0.70223  0.97684  0.35518  Biso   1.000  N
  N22      1.0000 0.67683  0.30368  0.01176  Biso   1.000  N
  N23      1.0000 0.50043  0.80897  0.69278  Biso   1.000  N
  N24      1.0000 0.19759  0.98180  0.18695  Biso   1.000  N
  N25      1.0000 0.82525  0.47613  0.67879  Biso   1.000  N
  N26      1.0000 0.69211  0.80762  0.52731  Biso   1.000  N
  N27      1.0000 0.50363  0.65631  0.83648  Biso   1.000  N
  N28      1.0000 0.32327  0.46604  0.85006  Biso   1.000  N
  N29      1.0000 0.19165  0.81097  0.01129  Biso   1.000  N
  N30      1.0000 0.01964  0.66046  0.68935  Biso   1.000  N
  N31      1.0000 0.67467  0.96649  0.70583  Biso   1.000  N
  N32      1.0000 0.83310  0.30496  0.52380  Biso   1.000  N
  N33      1.0000 0.00056  0.16355  0.84667  Biso   1.000  N
  N34      1.0000 0.17642  0.99535  0.83638  Biso   1.000  N
  N35      1.0000 0.32480  0.31365  0.03819  Biso   1.000  N
  N36      1.0000 0.50139  0.15931  0.69662  Biso   1.000  N
  N37      1.0000 0.19687  0.49988  0.35334  Biso   1.000  N
  N38      1.0000 0.33262  0.15899  0.50198  Biso   1.000  N
  N39      1.0000 0.51863  0.31110  0.19761  Biso   1.000  N
  N40      1.0000 0.70117  0.47309  0.18241  Biso   1.000  N
  N41      1.0000 0.82556  0.15365  0.00970  Biso   1.000  N
  N42      1.0000 0.02131  0.30514  0.34566  Biso   1.000  N
  N43      1.0000 0.35341  0.98347  0.32899  Biso   1.000  N
  N44      1.0000 0.19360  0.66604  0.53383  Biso   1.000  N
  N45      1.0000 0.01548  0.80317  0.18642  Biso   1.000  N
  N46      1.0000 0.84673  0.98469  0.20766  Biso   1.000  N
  N47      1.0000 0.69081  0.65263  0.00844  Biso   1.000  N
  N48      1.0000 0.51397  0.80985  0.33728  Biso   1.000  N
  O1       1.0000 0.35507  0.52988  0.02499  Biso   1.000  O
  O2       1.0000 0.01353  0.32788  0.56658  Biso   1.000  O
  O3       1.0000 0.56892  0.98118  0.36149  Biso   1.000  O
  O4       1.0000 0.86112  0.52160  0.50532  Biso   1.000  O
  O5       1.0000 0.49396  0.32631  0.98005  Biso   1.000  O
  O6       1.0000 0.06256  0.98403  0.17608  Biso   1.000  O
  O7       1.0000 0.16355  0.02767  0.01989  Biso   1.000  O
  O8       1.0000 0.50963  0.82986  0.55773  Biso   1.000  O
  O9       1.0000 0.98091  0.46968  0.35843  Biso   1.000  O
  O10      1.0000 0.66415  0.02447  0.53358  Biso   1.000  O
  O11      1.0000 0.02204  0.83075  0.97406  Biso   1.000  O
  O12      1.0000 0.48215  0.48217  0.17760  Biso   1.000  O
  O13      1.0000 0.66157  0.43723  0.00731  Biso   1.000  O
  O14      1.0000 0.01334  0.63667  0.47210  Biso   1.000  O
  O15      1.0000 0.46118  0.98564  0.66934  Biso   1.000  O
  O16      1.0000 0.17600  0.44900  0.51968  Biso   1.000  O
  O17      1.0000 0.50918  0.63725  0.05269  Biso   1.000  O
  O18      1.0000 0.95676  0.98533  0.86372  Biso   1.000  O
  O19      1.0000 0.85402  0.93426  0.03156  Biso   1.000  O
  O20      1.0000 0.51066  0.14192  0.47655  Biso   1.000  O
  O21      1.0000 0.04290  0.48290  0.67239  Biso   1.000  O
  O22      1.0000 0.35884  0.94058  0.50494  Biso   1.000  O
  O23      1.0000 0.99820  0.13891  0.06548  Biso   1.000  O
  O24      1.0000 0.54047  0.48940  0.85934  Biso   1.000  O
  O25      1.0000 0.97993  0.98267  0.17218  Biso   1.000  O
  O26      1.0000 0.16963  0.94391  0.00637  Biso   1.000  O
  O27      1.0000 0.00455  0.13889  0.98255  Biso   1.000  O
  O28      1.0000 0.48383  0.99516  0.35862  Biso   1.000  O
  O29      1.0000 0.66957  0.94129  0.53411  Biso   1.000  O
  O30      1.0000 0.50277  0.14155  0.56178  Biso   1.000  O
  O31      1.0000 0.56636  0.48741  0.17888  Biso   1.000  O
  O32      1.0000 0.34837  0.44570  0.02582  Biso   1.000  O
  O33      1.0000 0.52091  0.64129  0.97066  Biso   1.000  O
  O34      1.0000 0.06147  0.49014  0.36517  Biso   1.000  O
  O35      1.0000 0.85409  0.43794  0.51159  Biso   1.000  O
  O36      1.0000 0.02339  0.64152  0.55352  Biso   1.000  O
  O37      1.0000 0.04066  0.99315  0.86188  Biso   1.000  O
  O38      1.0000 0.85318  0.02006  0.02333  Biso   1.000  O
  O39      1.0000 0.00819  0.82710  0.05445  Biso   1.000  O
  O40      1.0000 0.54373  0.97923  0.67483  Biso   1.000  O
  O41      1.0000 0.35064  0.02570  0.51089  Biso   1.000  O
  O42      1.0000 0.52108  0.83539  0.47471  Biso   1.000  O
  O43      1.0000 0.45760  0.47050  0.86366  Biso   1.000  O
  O44      1.0000 0.66660  0.51978  0.01148  Biso   1.000  O
  O45      1.0000 0.50239  0.33412  0.06576  Biso   1.000  O
  O46      1.0000 0.95975  0.48328  0.67087  Biso   1.000  O
  O47      1.0000 0.17306  0.53116  0.53305  Biso   1.000  O
  O48      1.0000 0.01227  0.33078  0.48187  Biso   1.000  O
  O49      1.0000 0.02311  0.93923  0.17215  Biso   1.000  O
  O50      1.0000 0.16746  0.99163  0.97351  Biso   1.000  O
  O51      1.0000 0.95951  0.13793  0.02230  Biso   1.000  O
  O52      1.0000 0.52338  0.94628  0.36057  Biso   1.000  O
  O53      1.0000 0.66400  0.97663  0.57181  Biso   1.000  O
  O54      1.0000 0.46735  0.14246  0.51562  Biso   1.000  O
  O55      1.0000 0.52663  0.44556  0.17785  Biso   1.000  O
  O56      1.0000 0.34537  0.48781  0.98332  Biso   1.000  O
  O57      1.0000 0.55796  0.63888  0.01223  Biso   1.000  O
  O58      1.0000 0.03159  0.44275  0.36339  Biso   1.000  O
  O59      1.0000 0.85544  0.48478  0.54782  Biso   1.000  O
  O60      1.0000 0.06228  0.64448  0.50852  Biso   1.000  O
  O61      1.0000 0.99618  0.03090  0.86508  Biso   1.000  O
  O62      1.0000 0.85554  0.97993  0.06838  Biso   1.000  O
  O63      1.0000 0.05767  0.82688  0.01749  Biso   1.000  O
  O64      1.0000 0.50926  0.02468  0.67379  Biso   1.000  O
  O65      1.0000 0.35994  0.98361  0.46389  Biso   1.000  O
  O66      1.0000 0.55629  0.83290  0.51535  Biso   1.000  O
  O67      1.0000 0.48934  0.52287  0.86043  Biso   1.000  O
  O68      1.0000 0.66798  0.47735  0.05169  Biso   1.000  O
  O69      1.0000 0.45857  0.33022  0.02208  Biso   1.000  O
  O70      1.0000 0.00476  0.52547  0.67006  Biso   1.000  O
  O71      1.0000 0.17464  0.49525  0.48724  Biso   1.000  O
  O72      1.0000 0.96779  0.32809  0.52357  Biso   1.000  O
  O73      1.0000 0.00260  0.44038  0.67190  Biso   1.000  O
  O74      1.0000 0.66611  0.98369  0.48834  Biso   1.000  O
  O75      1.0000 0.47210  0.63721  0.01149  Biso   1.000  O
  O76      1.0000 0.50506  0.44224  0.86764  Biso   1.000  O
  O77      1.0000 0.16658  0.97674  0.05434  Biso   1.000  O
  O78      1.0000 0.97488  0.64179  0.51796  Biso   1.000  O
  O79      1.0000 0.49784  0.94238  0.67349  Biso   1.000  O
  O80      1.0000 0.85673  0.47385  0.46559  Biso   1.000  O
  O81      1.0000 0.04351  0.14397  0.02732  Biso   1.000  O
  O82      1.0000 0.99945  0.94746  0.86115  Biso   1.000  O
  O83      1.0000 0.35606  0.48369  0.06854  Biso   1.000  O
  O84      1.0000 0.54887  0.14259  0.52207  Biso   1.000  O
  O85      1.0000 0.01153  0.52189  0.35917  Biso   1.000  O
  O86      1.0000 0.35275  0.98451  0.54773  Biso   1.000  O
  O87      1.0000 0.54231  0.32674  0.01283  Biso   1.000  O
  O88      1.0000 0.52896  0.52826  0.17145  Biso   1.000  O
  O89      1.0000 0.85182  0.96849  0.98645  Biso   1.000  O
  O90      1.0000 0.05263  0.33225  0.52071  Biso   1.000  O
  O91      1.0000 0.53161  0.03202  0.35885  Biso   1.000  O
  O92      1.0000 0.17326  0.48321  0.56810  Biso   1.000  O
  O93      1.0000 0.97302  0.82694  0.00956  Biso   1.000  O
  O94      1.0000 0.01626  0.02459  0.17711  Biso   1.000  O
  O95      1.0000 0.66327  0.48182  0.96740  Biso   1.000  O
  O96      1.0000 0.47428  0.82795  0.51017  Biso   1.000  O
  O97      1.0000 0.46871  0.19002  0.51348  Biso   1.000  O
  O98      1.0000 0.53372  0.44569  0.22638  Biso   1.000  O
  O99      1.0000 0.22361  0.49490  0.48705  Biso   1.000  O
  O100     1.0000 0.95755  0.18559  0.01999  Biso   1.000  O
  O101     1.0000 0.03397  0.43788  0.31446  Biso   1.000  O
  O102     1.0000 0.71701  0.47125  0.04413  Biso   1.000  O
  O103     1.0000 0.06113  0.69386  0.50580  Biso   1.000  O
  O104     1.0000 0.01840  0.93760  0.22124  Biso   1.000  O
  O105     1.0000 0.31333  0.97698  0.46294  Biso   1.000  O
  O106     1.0000 0.55779  0.68783  0.01184  Biso   1.000  O
  O107     1.0000 0.52929  0.94746  0.31237  Biso   1.000  O
  O108     1.0000 0.80643  0.97566  0.07454  Biso   1.000  O
  O109     1.0000 0.55675  0.78566  0.50845  Biso   1.000  O
  O110     1.0000 0.48997  0.52097  0.81161  Biso   1.000  O
  O111     1.0000 0.80783  0.48710  0.54633  Biso   1.000  O
  O112     1.0000 0.05608  0.77816  0.01536  Biso   1.000  O
  O113     1.0000 0.00234  0.52541  0.71739  Biso   1.000  O
  O114     1.0000 0.29764  0.48798  0.98607  Biso   1.000  O
  O115     1.0000 0.97070  0.28100  0.52564  Biso   1.000  O
  O116     1.0000 0.99410  0.03150  0.81508  Biso   1.000  O
  O117     1.0000 0.71329  0.98397  0.57584  Biso   1.000  O
  O118     1.0000 0.45586  0.28163  0.02163  Biso   1.000  O
  O119     1.0000 0.50719  0.02438  0.72163  Biso   1.000  O
  O120     1.0000 0.21612  0.99826  0.96808  Biso   1.000  O
  O121     1.0000 0.03777  0.47835  0.72058  Biso   1.000  O
  O122     1.0000 0.71250  0.02722  0.53926  Biso   1.000  O
  O123     1.0000 0.51951  0.68352  0.05370  Biso   1.000  O
  O124     1.0000 0.53830  0.48288  0.81079  Biso   1.000  O
  O125     1.0000 0.21204  0.02894  0.01635  Biso   1.000  O
  O126     1.0000 0.01456  0.68495  0.47121  Biso   1.000  O
  O127     1.0000 0.45520  0.98486  0.71743  Biso   1.000  O
  O128     1.0000 0.81288  0.52394  0.49788  Biso   1.000  O
  O129     1.0000 0.00116  0.18763  0.06539  Biso   1.000  O
  O130     1.0000 0.95569  0.98480  0.81413  Biso   1.000  O
  O131     1.0000 0.30742  0.53012  0.02132  Biso   1.000  O
  O132     1.0000 0.51634  0.18838  0.47808  Biso   1.000  O
  O133     1.0000 0.98384  0.47046  0.30957  Biso   1.000  O
  O134     1.0000 0.30913  0.94093  0.50811  Biso   1.000  O
  O135     1.0000 0.49716  0.27803  0.97974  Biso   1.000  O
  O136     1.0000 0.48442  0.48301  0.22507  Biso   1.000  O
  O137     1.0000 0.80317  0.93247  0.03170  Biso   1.000  O
  O138     1.0000 0.01530  0.27870  0.56256  Biso   1.000  O
  O139     1.0000 0.57265  0.98727  0.31264  Biso   1.000  O
  O140     1.0000 0.22468  0.44663  0.52001  Biso   1.000  O
  O141     1.0000 0.01728  0.78196  0.96943  Biso   1.000  O
  O142     1.0000 0.06282  0.98016  0.22392  Biso   1.000  O
  O143     1.0000 0.70929  0.43563  0.99903  Biso   1.000  O
  O144     1.0000 0.51797  0.78201  0.55553  Biso   1.000  O
  O145     1.0000 0.56878  0.49411  0.22490  Biso   1.000  O
  O146     1.0000 0.22297  0.53118  0.53414  Biso   1.000  O
  O147     1.0000 0.49949  0.19035  0.56061  Biso   1.000  O
  O148     1.0000 0.06480  0.48985  0.31712  Biso   1.000  O
  O149     1.0000 0.71599  0.51651  0.00875  Biso   1.000  O
  O150     1.0000 0.00421  0.18896  0.98140  Biso   1.000  O
  O151     1.0000 0.97903  0.98125  0.22132  Biso   1.000  O
  O152     1.0000 0.30279  0.02541  0.49776  Biso   1.000  O
  O153     1.0000 0.02515  0.69004  0.55194  Biso   1.000  O
  O154     1.0000 0.48910  0.99311  0.30959  Biso   1.000  O
  O155     1.0000 0.80524  0.01667  0.02863  Biso   1.000  O
  O156     1.0000 0.51109  0.68717  0.96952  Biso   1.000  O
  O157     1.0000 0.45705  0.47254  0.81536  Biso   1.000  O
  O158     1.0000 0.80608  0.43900  0.50536  Biso   1.000  O
  O159     1.0000 0.51559  0.78714  0.47209  Biso   1.000  O
  O160     1.0000 0.95326  0.48786  0.71965  Biso   1.000  O
  O161     1.0000 0.30023  0.44960  0.02969  Biso   1.000  O
  O162     1.0000 0.01012  0.77743  0.05201  Biso   1.000  O
  O163     1.0000 0.04000  0.99359  0.81322  Biso   1.000  O
  O164     1.0000 0.71812  0.94415  0.53077  Biso   1.000  O
  O165     1.0000 0.00998  0.28322  0.48102  Biso   1.000  O
  O166     1.0000 0.53966  0.97294  0.72271  Biso   1.000  O
  O167     1.0000 0.21830  0.94658  0.99956  Biso   1.000  O
  O168     1.0000 0.50147  0.28527  0.06303  Biso   1.000  O
  O169     1.0000 0.01762  0.02439  0.22658  Biso   1.000  O
  O170     1.0000 0.21469  0.97685  0.04984  Biso   1.000  O
  O171     1.0000 0.04237  0.19139  0.02275  Biso   1.000  O
  O172     1.0000 0.53230  0.03156  0.30952  Biso   1.000  O
  O173     1.0000 0.71411  0.99071  0.49343  Biso   1.000  O
  O174     1.0000 0.54656  0.19142  0.52977  Biso   1.000  O
  O175     1.0000 0.52256  0.52687  0.22064  Biso   1.000  O
  O176     1.0000 0.30764  0.48997  0.07224  Biso   1.000  O
  O177     1.0000 0.47417  0.68636  0.01080  Biso   1.000  O
  O178     1.0000 0.01908  0.52063  0.31090  Biso   1.000  O
  O179     1.0000 0.80753  0.47601  0.46277  Biso   1.000  O
  O180     1.0000 0.97669  0.68971  0.51842  Biso   1.000  O
  O181     1.0000 0.00228  0.94679  0.81246  Biso   1.000  O
  O182     1.0000 0.80337  0.97219  0.99082  Biso   1.000  O
  O183     1.0000 0.97405  0.77914  0.00693  Biso   1.000  O
  O184     1.0000 0.49086  0.94168  0.72249  Biso   1.000  O
  O185     1.0000 0.30385  0.98987  0.54400  Biso   1.000  O
  O186     1.0000 0.47614  0.77947  0.51268  Biso   1.000  O
  O187     1.0000 0.50456  0.43782  0.81839  Biso   1.000  O
  O188     1.0000 0.71096  0.47602  0.96185  Biso   1.000  O
  O189     1.0000 0.54017  0.27863  0.01806  Biso   1.000  O
  O190     1.0000 0.99223  0.44304  0.72069  Biso   1.000  O
  O191     1.0000 0.22165  0.48729  0.57180  Biso   1.000  O
  O192     1.0000 0.05529  0.28304  0.52302  Biso   1.000  O
