data_image0
_cell_length_a       46.859
_cell_length_b       46.6008
_cell_length_c       46.5406
_cell_angle_alpha    90
_cell_angle_beta     90
_cell_angle_gamma    90

_symmetry_space_group_name_H-M    "P 1"
_symmetry_int_tables_number       1

loop_
  _symmetry_equiv_pos_as_xyz
  'x, y, z'

loop_
  _atom_site_label
  _atom_site_occupancy
  _atom_site_fract_x
  _atom_site_fract_y
  _atom_site_fract_z
  _atom_site_thermal_displace_type
  _atom_site_B_iso_or_equiv
  _atom_site_type_symbol
  C1       1.0000 0.58378  0.00015  0.35009  Biso   1.000  C
  C2       1.0000 0.34841  0.55607  0.00829  Biso   1.000  C
  C3       1.0000 0.02486  0.30540  0.57231  Biso   1.000  C
  C4       1.0000 0.07909  0.00481  0.20859  Biso   1.000  C
  C5       1.0000 0.85057  0.54317  0.52550  Biso   1.000  C
  C6       1.0000 0.52201  0.31764  0.97281  Biso   1.000  C
  C7       1.0000 0.97236  0.50200  0.34006  Biso   1.000  C
  C8       1.0000 0.21005  0.05699  0.02707  Biso   1.000  C
  C9       1.0000 0.52626  0.81101  0.57820  Biso   1.000  C
  C10      1.0000 0.46909  0.49051  0.19989  Biso   1.000  C
  C11      1.0000 0.70445  0.04493  0.52883  Biso   1.000  C
  C12      1.0000 0.03331  0.80881  0.97967  Biso   1.000  C
  C13      1.0000 0.47136  0.98920  0.70687  Biso   1.000  C
  C14      1.0000 0.71105  0.42894  0.03206  Biso   1.000  C
  C15      1.0000 0.03660  0.67326  0.48290  Biso   1.000  C
  C16      1.0000 0.97588  0.98680  0.85437  Biso   1.000  C
  C17      1.0000 0.20955  0.43767  0.51519  Biso   1.000  C
  C18      1.0000 0.53329  0.67312  0.07716  Biso   1.000  C
  C19      1.0000 0.08811  0.48233  0.70693  Biso   1.000  C
  C20      1.0000 0.84750  0.92982  0.02194  Biso   1.000  C
  C21      1.0000 0.53888  0.17180  0.47500  Biso   1.000  C
  C22      1.0000 0.58564  0.49319  0.84281  Biso   1.000  C
  C23      1.0000 0.35307  0.93484  0.51820  Biso   1.000  C
  C24      1.0000 0.02194  0.17560  0.06985  Biso   1.000  C
  C25      1.0000 0.34495  0.04419  0.52255  Biso   1.000  C
  C26      1.0000 0.51903  0.31392  0.08090  Biso   1.000  C
  C27      1.0000 0.08081  0.50192  0.33723  Biso   1.000  C
  C28      1.0000 0.84408  0.03653  0.04465  Biso   1.000  C
  C29      1.0000 0.02666  0.31777  0.46387  Biso   1.000  C
  C30      1.0000 0.57956  0.49670  0.20098  Biso   1.000  C
  C31      1.0000 0.20874  0.54899  0.51812  Biso   1.000  C
  C32      1.0000 0.04005  0.81242  0.09006  Biso   1.000  C
  C33      1.0000 0.47683  0.99029  0.34126  Biso   1.000  C
  C34      1.0000 0.71566  0.53720  0.02329  Biso   1.000  C
  C35      1.0000 0.54303  0.81655  0.46922  Biso   1.000  C
  C36      1.0000 0.97120  0.00007  0.21081  Biso   1.000  C
  C37      1.0000 0.71587  0.93627  0.53486  Biso   1.000  C
  C38      1.0000 0.54864  0.67340  0.96931  Biso   1.000  C
  C39      1.0000 0.97875  0.48254  0.70301  Biso   1.000  C
  C40      1.0000 0.22005  0.94871  0.03322  Biso   1.000  C
  C41      1.0000 0.03839  0.66507  0.59137  Biso   1.000  C
  C42      1.0000 0.47761  0.49547  0.84666  Biso   1.000  C
  C43      1.0000 0.84601  0.43455  0.53086  Biso   1.000  C
  C44      1.0000 0.01986  0.17624  0.96272  Biso   1.000  C
  C45      1.0000 0.57997  0.99674  0.71664  Biso   1.000  C
  C46      1.0000 0.34781  0.44800  0.02547  Biso   1.000  C
  C47      1.0000 0.51599  0.17256  0.58284  Biso   1.000  C
  C48      1.0000 0.08648  0.98475  0.85224  Biso   1.000  C
  C49      1.0000 0.03181  0.03987  0.84628  Biso   1.000  C
  C50      1.0000 0.84289  0.97469  0.08573  Biso   1.000  C
  C51      1.0000 0.09081  0.82045  0.02981  Biso   1.000  C
  C52      1.0000 0.52463  0.04724  0.70945  Biso   1.000  C
  C53      1.0000 0.34986  0.99235  0.46812  Biso   1.000  C
  C54      1.0000 0.58843  0.80895  0.52590  Biso   1.000  C
  C55      1.0000 0.53360  0.55036  0.84105  Biso   1.000  C
  C56      1.0000 0.71206  0.48545  0.08102  Biso   1.000  C
  C57      1.0000 0.46706  0.31609  0.02549  Biso   1.000  C
  C58      1.0000 0.03435  0.53391  0.71190  Biso   1.000  C
  C59      1.0000 0.20469  0.49006  0.46502  Biso   1.000  C
  C60      1.0000 0.97252  0.30812  0.51775  Biso   1.000  C
  C61      1.0000 0.02819  0.94786  0.20922  Biso   1.000  C
  C62      1.0000 0.21538  0.99788  0.97749  Biso   1.000  C
  C63      1.0000 0.96405  0.16956  0.02038  Biso   1.000  C
  C64      1.0000 0.53739  0.94037  0.34339  Biso   1.000  C
  C65      1.0000 0.70863  0.99351  0.58669  Biso   1.000  C
  C66      1.0000 0.47350  0.17470  0.51782  Biso   1.000  C
  C67      1.0000 0.53044  0.43999  0.20500  Biso   1.000  C
  C68      1.0000 0.34775  0.48964  0.96558  Biso   1.000  C
  C69      1.0000 0.59559  0.66815  0.02860  Biso   1.000  C
  C70      1.0000 0.02830  0.44822  0.33779  Biso   1.000  C
  C71      1.0000 0.84832  0.48806  0.58301  Biso   1.000  C
  C72      1.0000 0.08886  0.67202  0.53253  Biso   1.000  C
  C73      1.0000 0.02686  0.55867  0.34355  Biso   1.000  C
  C74      1.0000 0.34824  0.98744  0.57618  Biso   1.000  C
  C75      1.0000 0.57538  0.31312  0.02754  Biso   1.000  C
  C76      1.0000 0.51797  0.54752  0.20273  Biso   1.000  C
  C77      1.0000 0.84649  0.99452  0.97876  Biso   1.000  C
  C78      1.0000 0.08099  0.31350  0.51889  Biso   1.000  C
  C79      1.0000 0.52542  0.04961  0.34640  Biso   1.000  C
  C80      1.0000 0.21113  0.49622  0.57387  Biso   1.000  C
  C81      1.0000 0.98326  0.80777  0.03265  Biso   1.000  C
  C82      1.0000 0.02616  0.05689  0.20534  Biso   1.000  C
  C83      1.0000 0.71051  0.47449  0.97357  Biso   1.000  C
  C84      1.0000 0.48163  0.81074  0.51957  Biso   1.000  C
  C85      1.0000 0.03178  0.42736  0.70065  Biso   1.000  C
  C86      1.0000 0.70703  0.99570  0.48095  Biso   1.000  C
  C87      1.0000 0.48979  0.67145  0.01468  Biso   1.000  C
  C88      1.0000 0.53126  0.44443  0.84654  Biso   1.000  C
  C89      1.0000 0.20932  0.00296  0.08440  Biso   1.000  C
  C90      1.0000 0.98049  0.67001  0.53918  Biso   1.000  C
  C91      1.0000 0.52522  0.94010  0.70388  Biso   1.000  C
  C92      1.0000 0.84561  0.49061  0.47175  Biso   1.000  C
  C93      1.0000 0.07527  0.17609  0.01499  Biso   1.000  C
  C94      1.0000 0.02615  0.92951  0.85310  Biso   1.000  C
  C95      1.0000 0.34528  0.50993  0.07090  Biso   1.000  C
  C96      1.0000 0.57976  0.17459  0.53829  Biso   1.000  C
  C97      1.0000 0.70185  0.07585  0.52283  Biso   1.000  C
  C98      1.0000 0.52931  0.67400  0.10851  Biso   1.000  C
  C99      1.0000 0.11934  0.48563  0.70703  Biso   1.000  C
  C100     1.0000 0.20768  0.09037  0.02864  Biso   1.000  C
  C101     1.0000 0.04052  0.67715  0.45127  Biso   1.000  C
  C102     1.0000 0.61830  0.48612  0.84344  Biso   1.000  C
  C103     1.0000 0.85157  0.57577  0.52538  Biso   1.000  C
  C104     1.0000 0.02691  0.17710  0.10116  Biso   1.000  C
  C105     1.0000 0.43954  0.99185  0.70565  Biso   1.000  C
  C106     1.0000 0.35139  0.58787  0.00171  Biso   1.000  C
  C107     1.0000 0.54765  0.17217  0.44395  Biso   1.000  C
  C108     1.0000 0.94336  0.98633  0.85501  Biso   1.000  C
  C109     1.0000 0.35426  0.90381  0.51570  Biso   1.000  C
  C110     1.0000 0.51911  0.31808  0.94109  Biso   1.000  C
  C111     1.0000 0.94010  0.50360  0.34222  Biso   1.000  C
  C112     1.0000 0.85136  0.89900  0.01559  Biso   1.000  C
  C113     1.0000 0.02677  0.30197  0.60216  Biso   1.000  C
  C114     1.0000 0.43841  0.50015  0.20014  Biso   1.000  C
  C115     1.0000 0.20925  0.40707  0.50964  Biso   1.000  C
  C116     1.0000 0.03701  0.80689  0.94801  Biso   1.000  C
  C117     1.0000 0.61504  0.00674  0.35187  Biso   1.000  C
  C118     1.0000 0.71205  0.39718  0.03262  Biso   1.000  C
  C119     1.0000 0.52519  0.81242  0.61001  Biso   1.000  C
  C120     1.0000 0.11141  0.00799  0.20878  Biso   1.000  C
  C121     1.0000 0.84314  0.97259  0.11757  Biso   1.000  C
  C122     1.0000 0.12244  0.82225  0.02438  Biso   1.000  C
  C123     1.0000 0.02919  0.07177  0.84380  Biso   1.000  C
  C124     1.0000 0.34840  0.99885  0.43644  Biso   1.000  C
  C125     1.0000 0.62128  0.80914  0.52766  Biso   1.000  C
  C126     1.0000 0.52302  0.08079  0.70988  Biso   1.000  C
  C127     1.0000 0.71175  0.48639  0.11306  Biso   1.000  C
  C128     1.0000 0.43496  0.31969  0.02306  Biso   1.000  C
  C129     1.0000 0.54022  0.58315  0.84068  Biso   1.000  C
  C130     1.0000 0.20453  0.49329  0.43295  Biso   1.000  C
  C131     1.0000 0.94091  0.30648  0.52266  Biso   1.000  C
  C132     1.0000 0.03799  0.56516  0.71449  Biso   1.000  C
  C133     1.0000 0.21525  0.99584  0.94522  Biso   1.000  C
  C134     1.0000 0.93138  0.16767  0.02465  Biso   1.000  C
  C135     1.0000 0.03237  0.91631  0.21107  Biso   1.000  C
  C136     1.0000 0.71000  0.99428  0.61967  Biso   1.000  C
  C137     1.0000 0.44153  0.17244  0.51529  Biso   1.000  C
  C138     1.0000 0.53582  0.90836  0.34335  Biso   1.000  C
  C139     1.0000 0.34824  0.48795  0.93429  Biso   1.000  C
  C140     1.0000 0.62826  0.66725  0.02601  Biso   1.000  C
  C141     1.0000 0.53235  0.40845  0.20561  Biso   1.000  C
  C142     1.0000 0.84853  0.48279  0.61429  Biso   1.000  C
  C143     1.0000 0.12034  0.67531  0.52758  Biso   1.000  C
  C144     1.0000 0.02766  0.41628  0.33755  Biso   1.000  C
  C145     1.0000 0.34426  0.51345  0.10604  Biso   1.000  C
  C146     1.0000 0.11347  0.31371  0.51878  Biso   1.000  C
  C147     1.0000 0.52491  0.08233  0.34815  Biso   1.000  C
  C148     1.0000 0.84606  0.49085  0.43962  Biso   1.000  C
  C149     1.0000 0.60768  0.31070  0.02489  Biso   1.000  C
  C150     1.0000 0.02932  0.08843  0.20281  Biso   1.000  C
  C151     1.0000 0.20826  0.99882  0.11631  Biso   1.000  C
  C152     1.0000 0.45073  0.80987  0.51426  Biso   1.000  C
  C153     1.0000 0.02770  0.59079  0.34679  Biso   1.000  C
  C154     1.0000 0.70546  0.00643  0.45023  Biso   1.000  C
  C155     1.0000 0.95252  0.80753  0.02581  Biso   1.000  C
  C156     1.0000 0.51679  0.57960  0.20149  Biso   1.000  C
  C157     1.0000 0.70796  0.47076  0.94241  Biso   1.000  C
  C158     1.0000 0.94763  0.66947  0.53866  Biso   1.000  C
  C159     1.0000 0.52290  0.90855  0.70458  Biso   1.000  C
  C160     1.0000 0.21275  0.49862  0.60582  Biso   1.000  C
  C161     1.0000 0.45720  0.67260  0.01261  Biso   1.000  C
  C162     1.0000 0.02569  0.89687  0.85298  Biso   1.000  C
  C163     1.0000 0.84671  0.00305  0.94857  Biso   1.000  C
  C164     1.0000 0.61169  0.17387  0.54102  Biso   1.000  C
  C165     1.0000 0.02969  0.39560  0.69907  Biso   1.000  C
  C166     1.0000 0.34617  0.98866  0.60887  Biso   1.000  C
  C167     1.0000 0.10743  0.17929  0.01676  Biso   1.000  C
  C168     1.0000 0.53228  0.41401  0.84745  Biso   1.000  C
  C169     1.0000 0.04337  0.81464  0.12251  Biso   1.000  C
  C170     1.0000 0.11923  0.98556  0.85193  Biso   1.000  C
  C171     1.0000 0.84244  0.06828  0.04794  Biso   1.000  C
  C172     1.0000 0.54743  0.81735  0.43741  Biso   1.000  C
  C173     1.0000 0.61304  0.99846  0.71567  Biso   1.000  C
  C174     1.0000 0.34300  0.07647  0.52240  Biso   1.000  C
  C175     1.0000 0.52257  0.31307  0.11256  Biso   1.000  C
  C176     1.0000 0.44540  0.49266  0.84390  Biso   1.000  C
  C177     1.0000 0.71775  0.56865  0.02332  Biso   1.000  C
  C178     1.0000 0.02648  0.31947  0.43016  Biso   1.000  C
  C179     1.0000 0.94641  0.48533  0.70294  Biso   1.000  C
  C180     1.0000 0.21048  0.58117  0.51911  Biso   1.000  C
  C181     1.0000 0.02152  0.17627  0.93022  Biso   1.000  C
  C182     1.0000 0.93923  0.99496  0.21287  Biso   1.000  C
  C183     1.0000 0.21949  0.91675  0.02912  Biso   1.000  C
  C184     1.0000 0.51199  0.17359  0.61484  Biso   1.000  C
  C185     1.0000 0.44510  0.99289  0.33931  Biso   1.000  C
  C186     1.0000 0.71618  0.90508  0.52474  Biso   1.000  C
  C187     1.0000 0.54821  0.67535  0.93659  Biso   1.000  C
  C188     1.0000 0.61133  0.49843  0.20403  Biso   1.000  C
  C189     1.0000 0.34643  0.41668  0.03141  Biso   1.000  C
  C190     1.0000 0.03737  0.66178  0.62303  Biso   1.000  C
  C191     1.0000 0.11287  0.49829  0.33693  Biso   1.000  C
  C192     1.0000 0.84703  0.40280  0.52726  Biso   1.000  C
  C193     1.0000 0.87376  0.00078  0.93251  Biso   1.000  C
  C194     1.0000 0.93761  0.83510  0.02396  Biso   1.000  C
  C195     1.0000 0.02537  0.88140  0.88022  Biso   1.000  C
  C196     1.0000 0.37263  0.99023  0.62538  Biso   1.000  C
  C197     1.0000 0.43493  0.83740  0.51541  Biso   1.000  C
  C198     1.0000 0.52233  0.88982  0.67668  Biso   1.000  C
  C199     1.0000 0.68146  0.47696  0.92572  Biso   1.000  C
  C200     1.0000 0.62508  0.33649  0.02567  Biso   1.000  C
  C201     1.0000 0.53085  0.39785  0.87466  Biso   1.000  C
  C202     1.0000 0.18711  0.49335  0.62441  Biso   1.000  C
  C203     1.0000 0.12979  0.33997  0.51262  Biso   1.000  C
  C204     1.0000 0.02782  0.38107  0.67098  Biso   1.000  C
  C205     1.0000 0.17981  0.99770  0.13190  Biso   1.000  C
  C206     1.0000 0.12330  0.15235  0.01850  Biso   1.000  C
  C207     1.0000 0.03457  0.10214  0.17522  Biso   1.000  C
  C208     1.0000 0.67866  0.00791  0.43414  Biso   1.000  C
  C209     1.0000 0.62634  0.14556  0.53779  Biso   1.000  C
  C210     1.0000 0.52913  0.09852  0.37594  Biso   1.000  C
  C211     1.0000 0.37219  0.51162  0.12140  Biso   1.000  C
  C212     1.0000 0.43809  0.64716  0.01064  Biso   1.000  C
  C213     1.0000 0.51523  0.59770  0.17526  Biso   1.000  C
  C214     1.0000 0.87339  0.49157  0.42228  Biso   1.000  C
  C215     1.0000 0.93149  0.64362  0.53125  Biso   1.000  C
  C216     1.0000 0.02881  0.60434  0.37564  Biso   1.000  C
  C217     1.0000 0.13639  0.98936  0.87752  Biso   1.000  C
  C218     1.0000 0.86845  0.08603  0.04443  Biso   1.000  C
  C219     1.0000 0.04264  0.84287  0.13824  Biso   1.000  C
  C220     1.0000 0.63106  0.99977  0.68909  Biso   1.000  C
  C221     1.0000 0.37014  0.09307  0.52595  Biso   1.000  C
  C222     1.0000 0.54371  0.84486  0.42274  Biso   1.000  C
  C223     1.0000 0.42799  0.48915  0.86915  Biso   1.000  C
  C224     1.0000 0.69256  0.58628  0.02534  Biso   1.000  C
  C225     1.0000 0.52273  0.33938  0.12841  Biso   1.000  C
  C226     1.0000 0.92918  0.48117  0.67653  Biso   1.000  C
  C227     1.0000 0.18482  0.59729  0.52240  Biso   1.000  C
  C228     1.0000 0.02722  0.34785  0.41554  Biso   1.000  C
  C229     1.0000 0.92152  0.98925  0.18607  Biso   1.000  C
  C230     1.0000 0.19220  0.90065  0.02683  Biso   1.000  C
  C231     1.0000 0.02450  0.14772  0.91619  Biso   1.000  C
  C232     1.0000 0.42789  0.99216  0.36708  Biso   1.000  C
  C233     1.0000 0.68988  0.88863  0.52490  Biso   1.000  C
  C234     1.0000 0.51583  0.14721  0.63124  Biso   1.000  C
  C235     1.0000 0.62901  0.49712  0.17810  Biso   1.000  C
  C236     1.0000 0.37234  0.39903  0.03043  Biso   1.000  C
  C237     1.0000 0.54915  0.64821  0.92018  Biso   1.000  C
  C238     1.0000 0.12875  0.49832  0.36360  Biso   1.000  C
  C239     1.0000 0.87300  0.38677  0.52656  Biso   1.000  C
  C240     1.0000 0.03650  0.63432  0.63843  Biso   1.000  C
  C241     1.0000 0.63362  0.48214  0.87107  Biso   1.000  C
  C242     1.0000 0.87947  0.59153  0.52211  Biso   1.000  C
  C243     1.0000 0.52468  0.83888  0.62670  Biso   1.000  C
  C244     1.0000 0.13487  0.48674  0.67930  Biso   1.000  C
  C245     1.0000 0.37982  0.60069  0.00404  Biso   1.000  C
  C246     1.0000 0.03356  0.83228  0.93157  Biso   1.000  C
  C247     1.0000 0.92673  0.98761  0.88182  Biso   1.000  C
  C248     1.0000 0.67490  0.09179  0.52753  Biso   1.000  C
  C249     1.0000 0.02573  0.32854  0.61992  Biso   1.000  C
  C250     1.0000 0.42386  0.99291  0.67865  Biso   1.000  C
  C251     1.0000 0.17953  0.10335  0.02851  Biso   1.000  C
  C252     1.0000 0.52149  0.34565  0.92542  Biso   1.000  C
  C253     1.0000 0.42292  0.50343  0.17298  Biso   1.000  C
  C254     1.0000 0.18200  0.38935  0.51211  Biso   1.000  C
  C255     1.0000 0.54116  0.14605  0.42643  Biso   1.000  C
  C256     1.0000 0.92421  0.50065  0.36923  Biso   1.000  C
  C257     1.0000 0.68436  0.38349  0.03118  Biso   1.000  C
  C258     1.0000 0.03218  0.15167  0.11871  Biso   1.000  C
  C259     1.0000 0.12856  0.00486  0.18264  Biso   1.000  C
  C260     1.0000 0.38165  0.88946  0.51553  Biso   1.000  C
  C261     1.0000 0.03741  0.65206  0.43210  Biso   1.000  C
  C262     1.0000 0.62824  0.00720  0.37983  Biso   1.000  C
  C263     1.0000 0.87983  0.88553  0.01542  Biso   1.000  C
  C264     1.0000 0.52546  0.64721  0.12380  Biso   1.000  C
  C265     1.0000 0.02827  0.08956  0.87023  Biso   1.000  C
  C266     1.0000 0.87030  0.97875  0.13393  Biso   1.000  C
  C267     1.0000 0.13885  0.84887  0.02767  Biso   1.000  C
  C268     1.0000 0.52052  0.09692  0.68416  Biso   1.000  C
  C269     1.0000 0.37641  0.99822  0.42057  Biso   1.000  C
  C270     1.0000 0.63817  0.83663  0.52657  Biso   1.000  C
  C271     1.0000 0.54398  0.59786  0.86748  Biso   1.000  C
  C272     1.0000 0.68418  0.48967  0.12781  Biso   1.000  C
  C273     1.0000 0.41980  0.34702  0.02910  Biso   1.000  C
  C274     1.0000 0.03641  0.58283  0.68967  Biso   1.000  C
  C275     1.0000 0.17895  0.49428  0.41628  Biso   1.000  C
  C276     1.0000 0.92489  0.33380  0.52134  Biso   1.000  C
  C277     1.0000 0.03647  0.89732  0.18670  Biso   1.000  C
  C278     1.0000 0.18933  0.99634  0.92816  Biso   1.000  C
  C279     1.0000 0.91702  0.14081  0.03009  Biso   1.000  C
  C280     1.0000 0.53682  0.89259  0.37002  Biso   1.000  C
  C281     1.0000 0.68162  0.99671  0.63646  Biso   1.000  C
  C282     1.0000 0.42601  0.14457  0.52095  Biso   1.000  C
  C283     1.0000 0.52934  0.39198  0.17880  Biso   1.000  C
  C284     1.0000 0.37554  0.48432  0.91917  Biso   1.000  C
  C285     1.0000 0.64434  0.64022  0.02445  Biso   1.000  C
  C286     1.0000 0.02954  0.39844  0.36460  Biso   1.000  C
  C287     1.0000 0.87749  0.48054  0.62944  Biso   1.000  C
  C288     1.0000 0.13610  0.64895  0.52285  Biso   1.000  C
  C289     1.0000 0.38107  0.85765  0.51285  Biso   1.000  C
  C290     1.0000 0.52144  0.34493  0.89452  Biso   1.000  C
  C291     1.0000 0.89237  0.50150  0.36971  Biso   1.000  C
  C292     1.0000 0.88199  0.85396  0.01735  Biso   1.000  C
  C293     1.0000 0.02112  0.32736  0.65008  Biso   1.000  C
  C294     1.0000 0.39239  0.50698  0.17391  Biso   1.000  C
  C295     1.0000 0.18278  0.35851  0.50971  Biso   1.000  C
  C296     1.0000 0.02821  0.82920  0.90060  Biso   1.000  C
  C297     1.0000 0.65919  0.01104  0.38068  Biso   1.000  C
  C298     1.0000 0.68050  0.35233  0.02765  Biso   1.000  C
  C299     1.0000 0.52427  0.83782  0.65888  Biso   1.000  C
  C300     1.0000 0.15915  0.00505  0.18525  Biso   1.000  C
  C301     1.0000 0.67712  0.12256  0.52646  Biso   1.000  C
  C302     1.0000 0.52221  0.64991  0.15662  Biso   1.000  C
  C303     1.0000 0.16711  0.48851  0.67845  Biso   1.000  C
  C304     1.0000 0.17770  0.13492  0.02638  Biso   1.000  C
  C305     1.0000 0.03367  0.65572  0.40201  Biso   1.000  C
  C306     1.0000 0.66535  0.47960  0.87158  Biso   1.000  C
  C307     1.0000 0.87965  0.62330  0.52409  Biso   1.000  C
  C308     1.0000 0.03153  0.15416  0.15115  Biso   1.000  C
  C309     1.0000 0.39136  0.99102  0.67868  Biso   1.000  C
  C310     1.0000 0.38254  0.63154  0.00541  Biso   1.000  C
  C311     1.0000 0.53783  0.15013  0.39578  Biso   1.000  C
  C312     1.0000 0.89465  0.99199  0.88010  Biso   1.000  C
  C313     1.0000 0.18062  0.49837  0.38495  Biso   1.000  C
  C314     1.0000 0.39368  0.14505  0.51875  Biso   1.000  C
  C315     1.0000 0.52836  0.36075  0.18197  Biso   1.000  C
  C316     1.0000 0.68228  0.49238  0.15916  Biso   1.000  C
  C317     1.0000 0.88605  0.13986  0.03637  Biso   1.000  C
  C318     1.0000 0.02593  0.36798  0.36251  Biso   1.000  C
  C319     1.0000 0.37707  0.00179  0.38878  Biso   1.000  C
  C320     1.0000 0.16581  0.65033  0.52144  Biso   1.000  C
  C321     1.0000 0.03861  0.86542  0.19017  Biso   1.000  C
  C322     1.0000 0.86938  0.98300  0.16544  Biso   1.000  C
  C323     1.0000 0.67536  0.64009  0.02144  Biso   1.000  C
  C324     1.0000 0.53810  0.86169  0.36966  Biso   1.000  C
  C325     1.0000 0.87590  0.48093  0.66139  Biso   1.000  C
  C326     1.0000 0.67006  0.83523  0.52808  Biso   1.000  C
  C327     1.0000 0.54583  0.62848  0.86833  Biso   1.000  C
  C328     1.0000 0.37579  0.48634  0.88865  Biso   1.000  C
  C329     1.0000 0.17117  0.84752  0.02285  Biso   1.000  C
  C330     1.0000 0.03617  0.61447  0.69203  Biso   1.000  C
  C331     1.0000 0.68374  0.99783  0.66771  Biso   1.000  C
  C332     1.0000 0.89501  0.33453  0.52542  Biso   1.000  C
  C333     1.0000 0.02688  0.12189  0.86579  Biso   1.000  C
  C334     1.0000 0.18911  0.99055  0.89678  Biso   1.000  C
  C335     1.0000 0.38917  0.34653  0.03064  Biso   1.000  C
  C336     1.0000 0.52043  0.12840  0.68508  Biso   1.000  C
  C337     1.0000 0.68550  0.47796  0.89429  Biso   1.000  C
  C338     1.0000 0.90066  0.64428  0.52831  Biso   1.000  C
  C339     1.0000 0.52286  0.85918  0.68026  Biso   1.000  C
  C340     1.0000 0.18865  0.49161  0.65556  Biso   1.000  C
  C341     1.0000 0.40715  0.65091  0.00831  Biso   1.000  C
  C342     1.0000 0.02300  0.85037  0.87884  Biso   1.000  C
  C343     1.0000 0.87384  0.99769  0.90069  Biso   1.000  C
  C344     1.0000 0.65693  0.14539  0.53185  Biso   1.000  C
  C345     1.0000 0.02369  0.34940  0.67209  Biso   1.000  C
  C346     1.0000 0.36990  0.99036  0.65761  Biso   1.000  C
  C347     1.0000 0.15536  0.15465  0.02032  Biso   1.000  C
  C348     1.0000 0.52534  0.36727  0.87389  Biso   1.000  C
  C349     1.0000 0.36962  0.51005  0.15264  Biso   1.000  C
  C350     1.0000 0.16023  0.33802  0.51149  Biso   1.000  C
  C351     1.0000 0.53263  0.12941  0.37384  Biso   1.000  C
  C352     1.0000 0.87097  0.49695  0.39190  Biso   1.000  C
  C353     1.0000 0.65614  0.33260  0.02568  Biso   1.000  C
  C354     1.0000 0.03249  0.13411  0.17372  Biso   1.000  C
  C355     1.0000 0.18080  0.00384  0.16278  Biso   1.000  C
  C356     1.0000 0.40242  0.83639  0.51273  Biso   1.000  C
  C357     1.0000 0.02999  0.63591  0.37775  Biso   1.000  C
  C358     1.0000 0.67901  0.01082  0.40249  Biso   1.000  C
  C359     1.0000 0.90595  0.83409  0.01944  Biso   1.000  C
  C360     1.0000 0.51779  0.62883  0.17668  Biso   1.000  C
  C361     1.0000 0.02506  0.14503  0.88545  Biso   1.000  C
  C362     1.0000 0.89004  0.98883  0.18739  Biso   1.000  C
  C363     1.0000 0.19372  0.86906  0.02251  Biso   1.000  C
  C364     1.0000 0.51729  0.14848  0.66302  Biso   1.000  C
  C365     1.0000 0.39755  0.00118  0.36580  Biso   1.000  C
  C366     1.0000 0.69150  0.85751  0.52711  Biso   1.000  C
  C367     1.0000 0.54777  0.64969  0.88992  Biso   1.000  C
  C368     1.0000 0.66027  0.49482  0.18020  Biso   1.000  C
  C369     1.0000 0.36874  0.36838  0.03094  Biso   1.000  C
  C370     1.0000 0.03604  0.63552  0.67012  Biso   1.000  C
  C371     1.0000 0.15892  0.49914  0.36322  Biso   1.000  C
  C372     1.0000 0.87346  0.35536  0.52649  Biso   1.000  C
  C373     1.0000 0.04115  0.84244  0.16959  Biso   1.000  C
  C374     1.0000 0.16693  0.98723  0.87564  Biso   1.000  C
  C375     1.0000 0.86575  0.11732  0.04061  Biso   1.000  C
  C376     1.0000 0.54081  0.84258  0.39236  Biso   1.000  C
  C377     1.0000 0.66228  0.99923  0.68929  Biso   1.000  C
  C378     1.0000 0.37159  0.12391  0.52011  Biso   1.000  C
  C379     1.0000 0.52570  0.34032  0.16018  Biso   1.000  C
  C380     1.0000 0.39715  0.48938  0.86742  Biso   1.000  C
  C381     1.0000 0.69540  0.61749  0.02074  Biso   1.000  C
  C382     1.0000 0.02595  0.34755  0.38437  Biso   1.000  C
  C383     1.0000 0.89804  0.48087  0.68126  Biso   1.000  C
  C384     1.0000 0.18765  0.62836  0.52125  Biso   1.000  C
  C385     1.0000 0.20380  0.15232  0.02785  Biso   1.000  C
  C386     1.0000 0.03009  0.18234  0.16512  Biso   1.000  C
  C387     1.0000 0.17495  0.00827  0.21201  Biso   1.000  C
  C388     1.0000 0.70411  0.13894  0.52224  Biso   1.000  C
  C389     1.0000 0.54302  0.17591  0.38004  Biso   1.000  C
  C390     1.0000 0.67586  0.01117  0.35328  Biso   1.000  C
  C391     1.0000 0.35717  0.64985  0.00383  Biso   1.000  C
  C392     1.0000 0.52204  0.67738  0.17174  Biso   1.000  C
  C393     1.0000 0.37490  0.50396  0.20062  Biso   1.000  C
  C394     1.0000 0.85230  0.63850  0.52660  Biso   1.000  C
  C395     1.0000 0.03490  0.68337  0.38771  Biso   1.000  C
  C396     1.0000 0.87676  0.50353  0.34273  Biso   1.000  C
  C397     1.0000 0.85586  0.83564  0.01499  Biso   1.000  C
  C398     1.0000 0.02731  0.80222  0.88485  Biso   1.000  C
  C399     1.0000 0.87933  0.99192  0.85356  Biso   1.000  C
  C400     1.0000 0.35320  0.84215  0.50922  Biso   1.000  C
  C401     1.0000 0.52455  0.81211  0.67469  Biso   1.000  C
  C402     1.0000 0.37498  0.99006  0.70523  Biso   1.000  C
  C403     1.0000 0.70626  0.33459  0.02770  Biso   1.000  C
  C404     1.0000 0.51640  0.31829  0.87785  Biso   1.000  C
  C405     1.0000 0.68187  0.47696  0.84533  Biso   1.000  C
  C406     1.0000 0.20860  0.34307  0.50599  Biso   1.000  C
  C407     1.0000 0.01857  0.30113  0.66447  Biso   1.000  C
  C408     1.0000 0.18328  0.48812  0.70402  Biso   1.000  C
  C409     1.0000 0.18203  0.98275  0.84909  Biso   1.000  C
  C410     1.0000 0.83798  0.13145  0.04512  Biso   1.000  C
  C411     1.0000 0.04274  0.81620  0.18658  Biso   1.000  C
  C412     1.0000 0.67821  0.99741  0.71746  Biso   1.000  C
  C413     1.0000 0.34471  0.13998  0.51486  Biso   1.000  C
  C414     1.0000 0.54225  0.81505  0.37715  Biso   1.000  C
  C415     1.0000 0.38343  0.48893  0.84006  Biso   1.000  C
  C416     1.0000 0.72291  0.63197  0.01607  Biso   1.000  C
  C417     1.0000 0.52705  0.31268  0.17632  Biso   1.000  C
  C418     1.0000 0.88426  0.48068  0.70870  Biso   1.000  C
  C419     1.0000 0.21380  0.64345  0.51808  Biso   1.000  C
  C420     1.0000 0.02638  0.32058  0.36830  Biso   1.000  C
  C421     1.0000 0.87468  0.99299  0.21381  Biso   1.000  C
  C422     1.0000 0.22024  0.85323  0.01902  Biso   1.000  C
  C423     1.0000 0.02060  0.16949  0.86886  Biso   1.000  C
  C424     1.0000 0.38313  0.00613  0.33950  Biso   1.000  C
  C425     1.0000 0.71725  0.84206  0.52618  Biso   1.000  C
  C426     1.0000 0.51751  0.17527  0.67860  Biso   1.000  C
  C427     1.0000 0.67415  0.49623  0.20822  Biso   1.000  C
  C428     1.0000 0.34179  0.35396  0.03247  Biso   1.000  C
  C429     1.0000 0.54746  0.67678  0.87351  Biso   1.000  C
  C430     1.0000 0.17597  0.50040  0.33674  Biso   1.000  C
  C431     1.0000 0.84694  0.33957  0.52681  Biso   1.000  C
  C432     1.0000 0.03547  0.66254  0.68635  Biso   1.000  C
  C433     1.0000 0.02570  0.13539  0.83769  Biso   1.000  C
  C434     1.0000 0.84237  0.98379  0.18202  Biso   1.000  C
  C435     1.0000 0.18648  0.82090  0.01724  Biso   1.000  C
  C436     1.0000 0.52287  0.14452  0.71217  Biso   1.000  C
  C437     1.0000 0.35080  0.00834  0.37311  Biso   1.000  C
  C438     1.0000 0.68445  0.80787  0.52742  Biso   1.000  C
  C439     1.0000 0.54434  0.64449  0.84144  Biso   1.000  C
  C440     1.0000 0.70802  0.49223  0.17636  Biso   1.000  C
  C441     1.0000 0.37264  0.31958  0.02990  Biso   1.000  C
  C442     1.0000 0.03802  0.62951  0.71887  Biso   1.000  C
  C443     1.0000 0.20830  0.49918  0.36985  Biso   1.000  C
  C444     1.0000 0.87860  0.30765  0.52715  Biso   1.000  C
  C445     1.0000 0.03733  0.85209  0.21787  Biso   1.000  C
  C446     1.0000 0.21546  0.98824  0.88132  Biso   1.000  C
  C447     1.0000 0.86811  0.16649  0.03873  Biso   1.000  C
  C448     1.0000 0.53523  0.84493  0.34347  Biso   1.000  C
  C449     1.0000 0.71099  0.99767  0.68183  Biso   1.000  C
  C450     1.0000 0.37873  0.17111  0.51107  Biso   1.000  C
  C451     1.0000 0.52970  0.34581  0.20898  Biso   1.000  C
  C452     1.0000 0.34994  0.48775  0.87179  Biso   1.000  C
  C453     1.0000 0.69277  0.66536  0.02062  Biso   1.000  C
  C454     1.0000 0.02379  0.35249  0.33464  Biso   1.000  C
  C455     1.0000 0.84987  0.48203  0.67820  Biso   1.000  C
  C456     1.0000 0.18184  0.67712  0.52011  Biso   1.000  C
  C457     1.0000 0.03010  0.65382  0.35279  Biso   1.000  C
  C458     1.0000 0.34290  0.98751  0.67256  Biso   1.000  C
  C459     1.0000 0.66882  0.30492  0.02815  Biso   1.000  C
  C460     1.0000 0.51595  0.64479  0.20298  Biso   1.000  C
  C461     1.0000 0.84701  0.99981  0.88493  Biso   1.000  C
  C462     1.0000 0.17667  0.31039  0.51005  Biso   1.000  C
  C463     1.0000 0.53054  0.14615  0.34807  Biso   1.000  C
  C464     1.0000 0.21680  0.49324  0.66979  Biso   1.000  C
  C465     1.0000 0.89121  0.80666  0.01756  Biso   1.000  C
  C466     1.0000 0.03144  0.15206  0.19996  Biso   1.000  C
  C467     1.0000 0.71205  0.47324  0.87981  Biso   1.000  C
  C468     1.0000 0.38610  0.80956  0.50937  Biso   1.000  C
  C469     1.0000 0.02055  0.33374  0.69840  Biso   1.000  C
  C470     1.0000 0.70648  0.01118  0.38710  Biso   1.000  C
  C471     1.0000 0.39391  0.68032  0.00466  Biso   1.000  C
  C472     1.0000 0.52139  0.35212  0.84667  Biso   1.000  C
  C473     1.0000 0.20780  0.00649  0.17869  Biso   1.000  C
  C474     1.0000 0.88475  0.67102  0.53243  Biso   1.000  C
  C475     1.0000 0.52391  0.84527  0.70719  Biso   1.000  C
  C476     1.0000 0.84438  0.49849  0.37600  Biso   1.000  C
  C477     1.0000 0.16957  0.18182  0.01918  Biso   1.000  C
  C478     1.0000 0.02191  0.83439  0.85231  Biso   1.000  C
  C479     1.0000 0.34318  0.50858  0.16748  Biso   1.000  C
  C480     1.0000 0.67268  0.17212  0.52992  Biso   1.000  C
  C481     1.0000 0.40225  0.78259  0.51016  Biso   1.000  C
  C482     1.0000 0.52475  0.36756  0.82015  Biso   1.000  C
  C483     1.0000 0.81825  0.49142  0.39281  Biso   1.000  C
  C484     1.0000 0.90685  0.77935  0.01565  Biso   1.000  C
  C485     1.0000 0.01739  0.34933  0.72632  Biso   1.000  C
  C486     1.0000 0.31643  0.51125  0.15196  Biso   1.000  C
  C487     1.0000 0.16107  0.28371  0.51404  Biso   1.000  C
  C488     1.0000 0.02156  0.84942  0.82430  Biso   1.000  C
  C489     1.0000 0.73266  0.01328  0.40368  Biso   1.000  C
  C490     1.0000 0.65052  0.27870  0.02974  Biso   1.000  C
  C491     1.0000 0.52386  0.86143  0.73520  Biso   1.000  C
  C492     1.0000 0.23550  0.00464  0.16365  Biso   1.000  C
  C493     1.0000 0.65917  0.19814  0.53777  Biso   1.000  C
  C494     1.0000 0.51556  0.62896  0.22973  Biso   1.000  C
  C495     1.0000 0.24169  0.49998  0.65200  Biso   1.000  C
  C496     1.0000 0.15263  0.20788  0.01785  Biso   1.000  C
  C497     1.0000 0.02851  0.64083  0.32463  Biso   1.000  C
  C498     1.0000 0.73858  0.46742  0.89589  Biso   1.000  C
  C499     1.0000 0.90040  0.69711  0.53777  Biso   1.000  C
  C500     1.0000 0.03067  0.13709  0.22850  Biso   1.000  C
  C501     1.0000 0.31643  0.98842  0.65508  Biso   1.000  C
  C502     1.0000 0.41276  0.70702  0.00806  Biso   1.000  C
  C503     1.0000 0.52528  0.13053  0.32135  Biso   1.000  C
  C504     1.0000 0.81832  0.00277  0.90098  Biso   1.000  C
  C505     1.0000 0.66737  0.48198  0.81792  Biso   1.000  C
  C506     1.0000 0.82500  0.62416  0.52349  Biso   1.000  C
  C507     1.0000 0.52490  0.78516  0.65829  Biso   1.000  C
  C508     1.0000 0.16848  0.48318  0.73224  Biso   1.000  C
  C509     1.0000 0.32815  0.63685  0.99759  Biso   1.000  C
  C510     1.0000 0.03002  0.77681  0.90316  Biso   1.000  C
  C511     1.0000 0.89732  0.98974  0.82672  Biso   1.000  C
  C512     1.0000 0.73047  0.12234  0.51607  Biso   1.000  C
  C513     1.0000 0.01819  0.27392  0.64702  Biso   1.000  C
  C514     1.0000 0.39161  0.98909  0.73227  Biso   1.000  C
  C515     1.0000 0.23135  0.13824  0.02626  Biso   1.000  C
  C516     1.0000 0.51237  0.29023  0.89307  Biso   1.000  C
  C517     1.0000 0.38979  0.49769  0.22798  Biso   1.000  C
  C518     1.0000 0.23563  0.36027  0.50093  Biso   1.000  C
  C519     1.0000 0.55327  0.20033  0.39722  Biso   1.000  C
  C520     1.0000 0.89371  0.50813  0.31542  Biso   1.000  C
  C521     1.0000 0.73353  0.34955  0.02750  Biso   1.000  C
  C522     1.0000 0.02721  0.20697  0.14749  Biso   1.000  C
  C523     1.0000 0.15847  0.01408  0.23865  Biso   1.000  C
  C524     1.0000 0.32625  0.85832  0.50731  Biso   1.000  C
  C525     1.0000 0.03899  0.70965  0.40627  Biso   1.000  C
  C526     1.0000 0.66166  0.01179  0.32477  Biso   1.000  C
  C527     1.0000 0.82894  0.84855  0.01532  Biso   1.000  C
  C528     1.0000 0.52461  0.70501  0.15637  Biso   1.000  C
  C529     1.0000 0.81249  0.11266  0.05180  Biso   1.000  C
  C530     1.0000 0.04505  0.78790  0.17115  Biso   1.000  C
  C531     1.0000 0.16589  0.97829  0.82295  Biso   1.000  C
  C532     1.0000 0.31649  0.12368  0.51368  Biso   1.000  C
  C533     1.0000 0.55080  0.78877  0.39063  Biso   1.000  C
  C534     1.0000 0.66110  0.99758  0.74476  Biso   1.000  C
  C535     1.0000 0.74805  0.61237  0.01311  Biso   1.000  C
  C536     1.0000 0.52526  0.28567  0.16019  Biso   1.000  C
  C537     1.0000 0.40057  0.49053  0.81357  Biso   1.000  C
  C538     1.0000 0.23949  0.62592  0.51284  Biso   1.000  C
  C539     1.0000 0.02849  0.29307  0.38324  Biso   1.000  C
  C540     1.0000 0.90144  0.48503  0.73463  Biso   1.000  C
  C541     1.0000 0.24755  0.86918  0.01965  Biso   1.000  C
  C542     1.0000 0.01725  0.19788  0.88125  Biso   1.000  C
  C543     1.0000 0.89118  0.99922  0.24082  Biso   1.000  C
  C544     1.0000 0.74382  0.85922  0.52076  Biso   1.000  C
  C545     1.0000 0.51449  0.20265  0.66220  Biso   1.000  C
  C546     1.0000 0.39960  0.00668  0.31245  Biso   1.000  C
  C547     1.0000 0.31626  0.37138  0.03494  Biso   1.000  C
  C548     1.0000 0.54707  0.70306  0.89118  Biso   1.000  C
  C549     1.0000 0.65694  0.49921  0.23400  Biso   1.000  C
  C550     1.0000 0.81964  0.35601  0.52590  Biso   1.000  C
  C551     1.0000 0.03655  0.68882  0.67131  Biso   1.000  C
  C552     1.0000 0.16038  0.49646  0.30988  Biso   1.000  C
  C553     1.0000 0.02501  0.11763  0.81127  Biso   1.000  C
  C554     1.0000 0.81660  0.97586  0.16566  Biso   1.000  C
  C555     1.0000 0.16983  0.79397  0.01487  Biso   1.000  C
  C556     1.0000 0.52579  0.12871  0.73888  Biso   1.000  C
  C557     1.0000 0.32281  0.00848  0.38954  Biso   1.000  C
  C558     1.0000 0.66832  0.78134  0.53199  Biso   1.000  C
  C559     1.0000 0.54373  0.62928  0.81456  Biso   1.000  C
  C560     1.0000 0.73583  0.48740  0.16168  Biso   1.000  C
  C561     1.0000 0.38692  0.29244  0.02493  Biso   1.000  C
  C562     1.0000 0.04092  0.61129  0.74517  Biso   1.000  C
  C563     1.0000 0.23479  0.49757  0.38742  Biso   1.000  C
  C564     1.0000 0.89360  0.27949  0.53026  Biso   1.000  C
  C565     1.0000 0.03359  0.87103  0.24352  Biso   1.000  C
  C566     1.0000 0.24311  0.98816  0.89829  Biso   1.000  C
  C567     1.0000 0.88275  0.19330  0.02938  Biso   1.000  C
  C568     1.0000 0.52914  0.86103  0.31640  Biso   1.000  C
  C569     1.0000 0.73806  0.99701  0.66559  Biso   1.000  C
  C570     1.0000 0.39440  0.19744  0.50290  Biso   1.000  C
  C571     1.0000 0.53368  0.36253  0.23457  Biso   1.000  C
  C572     1.0000 0.32174  0.48908  0.88627  Biso   1.000  C
  C573     1.0000 0.67694  0.69256  0.02291  Biso   1.000  C
  C574     1.0000 0.02167  0.36981  0.30847  Biso   1.000  C
  C575     1.0000 0.82151  0.48056  0.66335  Biso   1.000  C
  C576     1.0000 0.16590  0.70465  0.52297  Biso   1.000  C
  C577     1.0000 0.31746  0.51425  0.12110  Biso   1.000  C
  C578     1.0000 0.12910  0.28607  0.52009  Biso   1.000  C
  C579     1.0000 0.52306  0.09927  0.32197  Biso   1.000  C
  C580     1.0000 0.81908  0.49200  0.42479  Biso   1.000  C
  C581     1.0000 0.62076  0.28187  0.02347  Biso   1.000  C
  C582     1.0000 0.03107  0.10558  0.22871  Biso   1.000  C
  C583     1.0000 0.23691  0.00227  0.13230  Biso   1.000  C
  C584     1.0000 0.43458  0.78254  0.51187  Biso   1.000  C
  C585     1.0000 0.02580  0.60893  0.32174  Biso   1.000  C
  C586     1.0000 0.73431  0.00976  0.43462  Biso   1.000  C
  C587     1.0000 0.93714  0.77956  0.01963  Biso   1.000  C
  C588     1.0000 0.51428  0.59684  0.22967  Biso   1.000  C
  C589     1.0000 0.73671  0.46526  0.92678  Biso   1.000  C
  C590     1.0000 0.93253  0.69715  0.54093  Biso   1.000  C
  C591     1.0000 0.52374  0.89326  0.73287  Biso   1.000  C
  C592     1.0000 0.23875  0.50176  0.62032  Biso   1.000  C
  C593     1.0000 0.44362  0.70324  0.01230  Biso   1.000  C
  C594     1.0000 0.02423  0.88076  0.82545  Biso   1.000  C
  C595     1.0000 0.81894  0.00309  0.93171  Biso   1.000  C
  C596     1.0000 0.62808  0.20018  0.54237  Biso   1.000  C
  C597     1.0000 0.02313  0.38032  0.72564  Biso   1.000  C
  C598     1.0000 0.31857  0.98987  0.62453  Biso   1.000  C
  C599     1.0000 0.12158  0.20768  0.01506  Biso   1.000  C
  C600     1.0000 0.53201  0.39854  0.81994  Biso   1.000  C
  C601     1.0000 0.24302  0.99145  0.92953  Biso   1.000  C
  C602     1.0000 0.91362  0.19441  0.02205  Biso   1.000  C
  C603     1.0000 0.03172  0.90188  0.23941  Biso   1.000  C
  C604     1.0000 0.73756  0.99430  0.63487  Biso   1.000  C
  C605     1.0000 0.42519  0.19840  0.50630  Biso   1.000  C
  C606     1.0000 0.53004  0.89152  0.31634  Biso   1.000  C
  C607     1.0000 0.32096  0.48789  0.91762  Biso   1.000  C
  C608     1.0000 0.64474  0.69398  0.02468  Biso   1.000  C
  C609     1.0000 0.53660  0.39465  0.23365  Biso   1.000  C
  C610     1.0000 0.82112  0.48173  0.63215  Biso   1.000  C
  C611     1.0000 0.13423  0.70421  0.52502  Biso   1.000  C
  C612     1.0000 0.02336  0.40224  0.31004  Biso   1.000  C
  C613     1.0000 0.81685  0.97104  0.13363  Biso   1.000  C
  C614     1.0000 0.13788  0.79565  0.01850  Biso   1.000  C
  C615     1.0000 0.02741  0.08691  0.81495  Biso   1.000  C
  C616     1.0000 0.32179  0.00327  0.41996  Biso   1.000  C
  C617     1.0000 0.63755  0.78219  0.53361  Biso   1.000  C
  C618     1.0000 0.52443  0.09670  0.73783  Biso   1.000  C
  C619     1.0000 0.73827  0.48385  0.12945  Biso   1.000  C
  C620     1.0000 0.41831  0.29305  0.02014  Biso   1.000  C
  C621     1.0000 0.54191  0.59808  0.81337  Biso   1.000  C
  C622     1.0000 0.23444  0.49418  0.41922  Biso   1.000  C
  C623     1.0000 0.92511  0.27819  0.52708  Biso   1.000  C
  C624     1.0000 0.04004  0.57955  0.74333  Biso   1.000  C
  C625     1.0000 0.01708  0.20217  0.91247  Biso   1.000  C
  C626     1.0000 0.92266  0.00146  0.23979  Biso   1.000  C
  C627     1.0000 0.24692  0.90116  0.02450  Biso   1.000  C
  C628     1.0000 0.51230  0.20093  0.62958  Biso   1.000  C
  C629     1.0000 0.43000  0.99743  0.31251  Biso   1.000  C
  C630     1.0000 0.74305  0.89028  0.51650  Biso   1.000  C
  C631     1.0000 0.54616  0.70318  0.92241  Biso   1.000  C
  C632     1.0000 0.62500  0.50070  0.23297  Biso   1.000  C
  C633     1.0000 0.31689  0.40349  0.03310  Biso   1.000  C
  C634     1.0000 0.03832  0.68971  0.64003  Biso   1.000  C
  C635     1.0000 0.12867  0.49565  0.30921  Biso   1.000  C
  C636     1.0000 0.81947  0.38705  0.52299  Biso   1.000  C
  C637     1.0000 0.04387  0.78744  0.13816  Biso   1.000  C
  C638     1.0000 0.13355  0.97746  0.82463  Biso   1.000  C
  C639     1.0000 0.81362  0.08025  0.05054  Biso   1.000  C
  C640     1.0000 0.55203  0.78975  0.42189  Biso   1.000  C
  C641     1.0000 0.62913  0.99919  0.74253  Biso   1.000  C
  C642     1.0000 0.31671  0.09343  0.51706  Biso   1.000  C
  C643     1.0000 0.52407  0.28626  0.12767  Biso   1.000  C
  C644     1.0000 0.43240  0.49314  0.81624  Biso   1.000  C
  C645     1.0000 0.74623  0.58206  0.01994  Biso   1.000  C
  C646     1.0000 0.02914  0.29220  0.41412  Biso   1.000  C
  C647     1.0000 0.93304  0.48876  0.73095  Biso   1.000  C
  C648     1.0000 0.23849  0.59443  0.51303  Biso   1.000  C
  C649     1.0000 0.04122  0.70556  0.43815  Biso   1.000  C
  C650     1.0000 0.42418  0.99062  0.73224  Biso   1.000  C
  C651     1.0000 0.73851  0.38128  0.03063  Biso   1.000  C
  C652     1.0000 0.52812  0.70232  0.12384  Biso   1.000  C
  C653     1.0000 0.92783  0.98504  0.82773  Biso   1.000  C
  C654     1.0000 0.23441  0.39137  0.50253  Biso   1.000  C
  C655     1.0000 0.55556  0.19845  0.42818  Biso   1.000  C
  C656     1.0000 0.13709  0.48325  0.73306  Biso   1.000  C
  C657     1.0000 0.82626  0.87962  0.01452  Biso   1.000  C
  C658     1.0000 0.02284  0.20490  0.11706  Biso   1.000  C
  C659     1.0000 0.63591  0.48672  0.81741  Biso   1.000  C
  C660     1.0000 0.32582  0.88860  0.51286  Biso   1.000  C
  C661     1.0000 0.02277  0.27490  0.61606  Biso   1.000  C
  C662     1.0000 0.63028  0.01043  0.32384  Biso   1.000  C
  C663     1.0000 0.32531  0.60578  0.99719  Biso   1.000  C
  C664     1.0000 0.51268  0.29084  0.92488  Biso   1.000  C
  C665     1.0000 0.12582  0.01231  0.23597  Biso   1.000  C
  C666     1.0000 0.82390  0.59305  0.52244  Biso   1.000  C
  C667     1.0000 0.52305  0.78461  0.62608  Biso   1.000  C
  C668     1.0000 0.92521  0.50841  0.31484  Biso   1.000  C
  C669     1.0000 0.23385  0.10726  0.02794  Biso   1.000  C
  C670     1.0000 0.03553  0.77780  0.93414  Biso   1.000  C
  C671     1.0000 0.42072  0.49632  0.22776  Biso   1.000  C
  C672     1.0000 0.72896  0.09005  0.51648  Biso   1.000  C
  C673     1.0000 0.22830  0.98176  0.83461  Biso   1.000  C
  C674     1.0000 0.82107  0.17750  0.04308  Biso   1.000  C
  C675     1.0000 0.03549  0.80688  0.23480  Biso   1.000  C
  C676     1.0000 0.72453  0.99697  0.72963  Biso   1.000  C
  C677     1.0000 0.33219  0.18526  0.50915  Biso   1.000  C
  C678     1.0000 0.53479  0.79746  0.33061  Biso   1.000  C
  C679     1.0000 0.33728  0.48664  0.82475  Biso   1.000  C
  C680     1.0000 0.73955  0.67774  0.01044  Biso   1.000  C
  C681     1.0000 0.53019  0.29994  0.22277  Biso   1.000  C
  C682     1.0000 0.83704  0.48081  0.72370  Biso   1.000  C
  C683     1.0000 0.22976  0.68934  0.51238  Biso   1.000  C
  C684     1.0000 0.02513  0.30417  0.32314  Biso   1.000  C
  C685     1.0000 0.82720  0.98622  0.22892  Biso   1.000  C
  C686     1.0000 0.23409  0.80650  0.01425  Biso   1.000  C
  C687     1.0000 0.01847  0.17886  0.82034  Biso   1.000  C
  C688     1.0000 0.33464  0.01168  0.32904  Biso   1.000  C
  C689     1.0000 0.73107  0.79379  0.53113  Biso   1.000  C
  C690     1.0000 0.52035  0.19217  0.72561  Biso   1.000  C
  C691     1.0000 0.72055  0.49650  0.22338  Biso   1.000  C
  C692     1.0000 0.32472  0.30684  0.03197  Biso   1.000  C
  C693     1.0000 0.54422  0.69087  0.82642  Biso   1.000  C
  C694     1.0000 0.22206  0.49473  0.32325  Biso   1.000  C
  C695     1.0000 0.83101  0.29440  0.52414  Biso   1.000  C
  C696     1.0000 0.03423  0.67479  0.73423  Biso   1.000  C
  C697     1.0000 0.72314  0.00788  0.34021  Biso   1.000  C
  C698     1.0000 0.34554  0.69635  0.00284  Biso   1.000  C
  C699     1.0000 0.01699  0.28950  0.71353  Biso   1.000  C
  C700     1.0000 0.21968  0.01280  0.22566  Biso   1.000  C
  C701     1.0000 0.83971  0.68636  0.53104  Biso   1.000  C
  C702     1.0000 0.51641  0.30535  0.83110  Biso   1.000  C
  C703     1.0000 0.82891  0.49931  0.33027  Biso   1.000  C
  C704     1.0000 0.21609  0.19789  0.02456  Biso   1.000  C
  C705     1.0000 0.52780  0.79826  0.72190  Biso   1.000  C
  C706     1.0000 0.32824  0.50149  0.21417  Biso   1.000  C
  C707     1.0000 0.72001  0.18614  0.52147  Biso   1.000  C
  C708     1.0000 0.02480  0.78781  0.83708  Biso   1.000  C
  C709     1.0000 0.32768  0.98808  0.72000  Biso   1.000  C
  C710     1.0000 0.71379  0.28706  0.03353  Biso   1.000  C
  C711     1.0000 0.03150  0.70036  0.34158  Biso   1.000  C
  C712     1.0000 0.83426  0.99801  0.83733  Biso   1.000  C
  C713     1.0000 0.22316  0.29625  0.50698  Biso   1.000  C
  C714     1.0000 0.52014  0.69224  0.21805  Biso   1.000  C
  C715     1.0000 0.23029  0.48738  0.71503  Biso   1.000  C
  C716     1.0000 0.84730  0.78835  0.01104  Biso   1.000  C
  C717     1.0000 0.53812  0.19335  0.33376  Biso   1.000  C
  C718     1.0000 0.72929  0.47592  0.83411  Biso   1.000  C
  C719     1.0000 0.33922  0.79591  0.50634  Biso   1.000  C
  C720     1.0000 0.03025  0.19900  0.21173  Biso   1.000  C
  C721     1.0000 0.54870  0.80198  0.30102  Biso   1.000  C
  C722     1.0000 0.34065  0.50537  0.79954  Biso   1.000  C
  C723     1.0000 0.80337  0.29735  0.53893  Biso   1.000  C
  C724     1.0000 0.02066  0.78007  0.22815  Biso   1.000  C
  C725     1.0000 0.81298  0.49997  0.72240  Biso   1.000  C
  C726     1.0000 0.29555  0.31271  0.01949  Biso   1.000  C
  C727     1.0000 0.01332  0.27535  0.32764  Biso   1.000  C
  C728     1.0000 0.24977  0.00463  0.83317  Biso   1.000  C
  C729     1.0000 0.75833  0.80235  0.54622  Biso   1.000  C
  C730     1.0000 0.51541  0.30341  0.25002  Biso   1.000  C
  C731     1.0000 0.75094  0.98308  0.72478  Biso   1.000  C
  C732     1.0000 0.25970  0.81015  0.99345  Biso   1.000  C
  C733     1.0000 0.50779  0.18893  0.75457  Biso   1.000  C
  C734     1.0000 0.71573  0.48039  0.24916  Biso   1.000  C
  C735     1.0000 0.22441  0.71530  0.49549  Biso   1.000  C
  C736     1.0000 0.99820  0.20275  0.82255  Biso   1.000  C
  C737     1.0000 0.24739  0.47712  0.32971  Biso   1.000  C
  C738     1.0000 0.76831  0.67302  0.02073  Biso   1.000  C
  C739     1.0000 0.05387  0.67486  0.75800  Biso   1.000  C
  C740     1.0000 0.83249  0.97450  0.25811  Biso   1.000  C
  C741     1.0000 0.30693  0.18280  0.49178  Biso   1.000  C
  C742     1.0000 0.52511  0.68748  0.80233  Biso   1.000  C
  C743     1.0000 0.33473  0.99493  0.30247  Biso   1.000  C
  C744     1.0000 0.82541  0.20644  0.05435  Biso   1.000  C
  C745     1.0000 0.05124  0.72487  0.34254  Biso   1.000  C
  C746     1.0000 0.30309  0.96921  0.71709  Biso   1.000  C
  C747     1.0000 0.73891  0.28894  0.05138  Biso   1.000  C
  C748     1.0000 0.54138  0.71662  0.21540  Biso   1.000  C
  C749     1.0000 0.83781  0.98091  0.81017  Biso   1.000  C
  C750     1.0000 0.25170  0.30053  0.51980  Biso   1.000  C
  C751     1.0000 0.54952  0.18712  0.30436  Biso   1.000  C
  C752     1.0000 0.25919  0.47359  0.70980  Biso   1.000  C
  C753     1.0000 0.82603  0.78744  0.98795  Biso   1.000  C
  C754     1.0000 0.04763  0.19646  0.23745  Biso   1.000  C
  C755     1.0000 0.72715  0.46258  0.80591  Biso   1.000  C
  C756     1.0000 0.31397  0.79851  0.52354  Biso   1.000  C
  C757     1.0000 0.99963  0.26271  0.70970  Biso   1.000  C
  C758     1.0000 0.72503  0.02329  0.31286  Biso   1.000  C
  C759     1.0000 0.31709  0.69218  0.01773  Biso   1.000  C
  C760     1.0000 0.54090  0.30176  0.81010  Biso   1.000  C
  C761     1.0000 0.24647  0.02895  0.21938  Biso   1.000  C
  C762     1.0000 0.84507  0.71671  0.52012  Biso   1.000  C
  C763     1.0000 0.54696  0.80267  0.74697  Biso   1.000  C
  C764     1.0000 0.80177  0.51298  0.33721  Biso   1.000  C
  C765     1.0000 0.23770  0.19775  0.04776  Biso   1.000  C
  C766     1.0000 0.00519  0.78511  0.81268  Biso   1.000  C
  C767     1.0000 0.33343  0.51147  0.24485  Biso   1.000  C
  C768     1.0000 0.71513  0.21501  0.51058  Biso   1.000  C
  C769     1.0000 0.56161  0.71802  0.82885  Biso   1.000  C
  C770     1.0000 0.84071  0.46363  0.74982  Biso   1.000  C
  C771     1.0000 0.72863  0.76430  0.52005  Biso   1.000  C
  C772     1.0000 0.01423  0.69829  0.73170  Biso   1.000  C
  C773     1.0000 0.31290  0.46798  0.82678  Biso   1.000  C
  C774     1.0000 0.23288  0.78065  0.03193  Biso   1.000  C
  C775     1.0000 0.03642  0.17895  0.79393  Biso   1.000  C
  C776     1.0000 0.71951  0.01210  0.75803  Biso   1.000  C
  C777     1.0000 0.83578  0.26880  0.50634  Biso   1.000  C
  C778     1.0000 0.53282  0.22059  0.71923  Biso   1.000  C
  C779     1.0000 0.22888  0.95762  0.81325  Biso   1.000  C
  C780     1.0000 0.32916  0.27801  0.04511  Biso   1.000  C
  C781     1.0000 0.54944  0.27326  0.21836  Biso   1.000  C
  C782     1.0000 0.21924  0.50680  0.29464  Biso   1.000  C
  C783     1.0000 0.33643  0.21248  0.52488  Biso   1.000  C
  C784     1.0000 0.03741  0.31129  0.29459  Biso   1.000  C
  C785     1.0000 0.74580  0.51350  0.22030  Biso   1.000  C
  C786     1.0000 0.79196  0.17047  0.03157  Biso   1.000  C
  C787     1.0000 0.04419  0.81431  0.26457  Biso   1.000  C
  C788     1.0000 0.30987  0.03164  0.33470  Biso   1.000  C
  C789     1.0000 0.25866  0.68590  0.52531  Biso   1.000  C
  C790     1.0000 0.52074  0.76960  0.33571  Biso   1.000  C
  C791     1.0000 0.79976  0.00076  0.22418  Biso   1.000  C
  C792     1.0000 0.73223  0.70581  0.99534  Biso   1.000  C
  C793     1.0000 0.52991  0.22423  0.34163  Biso   1.000  C
  C794     1.0000 0.30099  0.48441  0.20805  Biso   1.000  C
  C795     1.0000 0.21773  0.26769  0.49380  Biso   1.000  C
  C796     1.0000 0.01104  0.22543  0.20918  Biso   1.000  C
  C797     1.0000 0.83421  0.48676  0.30075  Biso   1.000  C
  C798     1.0000 0.70987  0.26072  0.01873  Biso   1.000  C
  C799     1.0000 0.01010  0.69999  0.31894  Biso   1.000  C
  C800     1.0000 0.21609  0.00124  0.25597  Biso   1.000  C
  C801     1.0000 0.34189  0.76898  0.48811  Biso   1.000  C
  C802     1.0000 0.50175  0.69097  0.24230  Biso   1.000  C
  C803     1.0000 0.74296  0.98292  0.34317  Biso   1.000  C
  C804     1.0000 0.84720  0.76437  0.03004  Biso   1.000  C
  C805     1.0000 0.51150  0.77118  0.71984  Biso   1.000  C
  C806     1.0000 0.75589  0.49096  0.84150  Biso   1.000  C
  C807     1.0000 0.81397  0.68230  0.54958  Biso   1.000  C
  C808     1.0000 0.04614  0.76541  0.84092  Biso   1.000  C
  C809     1.0000 0.22723  0.50028  0.74410  Biso   1.000  C
  C810     1.0000 0.35123  0.72377  0.98933  Biso   1.000  C
  C811     1.0000 0.03268  0.29287  0.74104  Biso   1.000  C
  C812     1.0000 0.80995  0.01823  0.83933  Biso   1.000  C
  C813     1.0000 0.74913  0.18170  0.53408  Biso   1.000  C
  C814     1.0000 0.49134  0.28413  0.82910  Biso   1.000  C
  C815     1.0000 0.32956  0.00650  0.74480  Biso   1.000  C
  C816     1.0000 0.21721  0.22164  0.00374  Biso   1.000  C
  C817     1.0000 0.99872  0.22545  0.80313  Biso   1.000  C
  C818     1.0000 0.81160  0.97490  0.27957  Biso   1.000  C
  C819     1.0000 0.27971  0.78845  0.99080  Biso   1.000  C
  C820     1.0000 0.50999  0.21114  0.77506  Biso   1.000  C
  C821     1.0000 0.31135  0.00095  0.28218  Biso   1.000  C
  C822     1.0000 0.78011  0.78064  0.55063  Biso   1.000  C
  C823     1.0000 0.52084  0.71043  0.78281  Biso   1.000  C
  C824     1.0000 0.73693  0.48192  0.27099  Biso   1.000  C
  C825     1.0000 0.27528  0.29054  0.01840  Biso   1.000  C
  C826     1.0000 0.05321  0.69644  0.77914  Biso   1.000  C
  C827     1.0000 0.26874  0.47466  0.30738  Biso   1.000  C
  C828     1.0000 0.78324  0.27555  0.53552  Biso   1.000  C
  C829     1.0000 0.01819  0.75873  0.25065  Biso   1.000  C
  C830     1.0000 0.27150  0.00401  0.81142  Biso   1.000  C
  C831     1.0000 0.80383  0.22670  0.04960  Biso   1.000  C
  C832     1.0000 0.54389  0.78062  0.27839  Biso   1.000  C
  C833     1.0000 0.77273  0.98561  0.74550  Biso   1.000  C
  C834     1.0000 0.28581  0.20401  0.49080  Biso   1.000  C
  C835     1.0000 0.52060  0.28346  0.27210  Biso   1.000  C
  C836     1.0000 0.32036  0.50304  0.77790  Biso   1.000  C
  C837     1.0000 0.78851  0.69613  0.02200  Biso   1.000  C
  C838     1.0000 0.01565  0.25457  0.30585  Biso   1.000  C
  C839     1.0000 0.79443  0.50258  0.74716  Biso   1.000  C
  C840     1.0000 0.24693  0.73507  0.49216  Biso   1.000  C
  C841     1.0000 0.24995  0.95827  0.79268  Biso   1.000  C
  C842     1.0000 0.77104  0.19136  0.03008  Biso   1.000  C
  C843     1.0000 0.03721  0.79499  0.28584  Biso   1.000  C
  C844     1.0000 0.74178  0.01276  0.77829  Biso   1.000  C
  C845     1.0000 0.31603  0.23449  0.52189  Biso   1.000  C
  C846     1.0000 0.51767  0.75013  0.31249  Biso   1.000  C
  C847     1.0000 0.29191  0.47020  0.80587  Biso   1.000  C
  C848     1.0000 0.75532  0.72570  0.99349  Biso   1.000  C
  C849     1.0000 0.55258  0.25407  0.24173  Biso   1.000  C
  C850     1.0000 0.82087  0.46713  0.77219  Biso   1.000  C
  C851     1.0000 0.27810  0.70718  0.52232  Biso   1.000  C
  C852     1.0000 0.03946  0.28996  0.27325  Biso   1.000  C
  C853     1.0000 0.77899  0.99777  0.24591  Biso   1.000  C
  C854     1.0000 0.25240  0.75771  0.02587  Biso   1.000  C
  C855     1.0000 0.03247  0.19981  0.77218  Biso   1.000  C
  C856     1.0000 0.28651  0.03360  0.31582  Biso   1.000  C
  C857     1.0000 0.74990  0.74396  0.52577  Biso   1.000  C
  C858     1.0000 0.53306  0.24248  0.73938  Biso   1.000  C
  C859     1.0000 0.76718  0.51343  0.24182  Biso   1.000  C
  C860     1.0000 0.30754  0.25734  0.04237  Biso   1.000  C
  C861     1.0000 0.56005  0.73808  0.80742  Biso   1.000  C
  C862     1.0000 0.23983  0.50541  0.27422  Biso   1.000  C
  C863     1.0000 0.81534  0.24758  0.50511  Biso   1.000  C
  C864     1.0000 0.01204  0.71812  0.75358  Biso   1.000  C
  C865     1.0000 0.74801  0.46697  0.78509  Biso   1.000  C
  C866     1.0000 0.82479  0.73854  0.52496  Biso   1.000  C
  C867     1.0000 0.55209  0.77977  0.76521  Biso   1.000  C
  C868     1.0000 0.27948  0.47402  0.73095  Biso   1.000  C
  C869     1.0000 0.29677  0.71443  0.01622  Biso   1.000  C
  C870     1.0000 0.00717  0.76213  0.79443  Biso   1.000  C
  C871     1.0000 0.81503  0.98222  0.79031  Biso   1.000  C
  C872     1.0000 0.73631  0.23620  0.50935  Biso   1.000  C
  C873     1.0000 0.99843  0.24214  0.73203  Biso   1.000  C
  C874     1.0000 0.28272  0.96838  0.73881  Biso   1.000  C
  C875     1.0000 0.25755  0.21994  0.04922  Biso   1.000  C
  C876     1.0000 0.54277  0.27798  0.79158  Biso   1.000  C
  C877     1.0000 0.31298  0.50336  0.26728  Biso   1.000  C
  C878     1.0000 0.27355  0.28009  0.51711  Biso   1.000  C
  C879     1.0000 0.54910  0.20946  0.28444  Biso   1.000  C
  C880     1.0000 0.77992  0.51016  0.31640  Biso   1.000  C
  C881     1.0000 0.75949  0.26761  0.05174  Biso   1.000  C
  C882     1.0000 0.04698  0.21698  0.25940  Biso   1.000  C
  C883     1.0000 0.26671  0.03213  0.24293  Biso   1.000  C
  C884     1.0000 0.29166  0.77841  0.52163  Biso   1.000  C
  C885     1.0000 0.04914  0.74705  0.32224  Biso   1.000  C
  C886     1.0000 0.74445  0.01569  0.29191  Biso   1.000  C
  C887     1.0000 0.80594  0.76471  0.98425  Biso   1.000  C
  C888     1.0000 0.54254  0.73557  0.23880  Biso   1.000  C
  C889     1.0000 0.76421  0.97713  0.32252  Biso   1.000  C
  C890     1.0000 0.33008  0.74534  0.99139  Biso   1.000  C
  C891     1.0000 0.03085  0.27129  0.76157  Biso   1.000  C
  C892     1.0000 0.23737  0.00388  0.27772  Biso   1.000  C
  C893     1.0000 0.79366  0.70413  0.55249  Biso   1.000  C
  C894     1.0000 0.49492  0.26137  0.81066  Biso   1.000  C
  C895     1.0000 0.81273  0.48646  0.28081  Biso   1.000  C
  C896     1.0000 0.23698  0.24373  0.00687  Biso   1.000  C
  C897     1.0000 0.51684  0.74922  0.73998  Biso   1.000  C
  C898     1.0000 0.28199  0.47902  0.23059  Biso   1.000  C
  C899     1.0000 0.77105  0.20239  0.52913  Biso   1.000  C
  C900     1.0000 0.04793  0.74129  0.82142  Biso   1.000  C
  C901     1.0000 0.31048  0.00344  0.76671  Biso   1.000  C
  C902     1.0000 0.73075  0.23838  0.01941  Biso   1.000  C
  C903     1.0000 0.00773  0.72279  0.29931  Biso   1.000  C
  C904     1.0000 0.78930  0.01946  0.81741  Biso   1.000  C
  C905     1.0000 0.23967  0.24725  0.49438  Biso   1.000  C
  C906     1.0000 0.50374  0.70891  0.26590  Biso   1.000  C
  C907     1.0000 0.24818  0.49777  0.76498  Biso   1.000  C
  C908     1.0000 0.82578  0.74355  0.02927  Biso   1.000  C
  C909     1.0000 0.53110  0.24455  0.32014  Biso   1.000  C
  C910     1.0000 0.77946  0.49363  0.82147  Biso   1.000  C
  C911     1.0000 0.31966  0.74835  0.49010  Biso   1.000  C
  C912     1.0000 0.01184  0.24645  0.23171  Biso   1.000  C
  C913     1.0000 0.79638  0.48424  0.77081  Biso   1.000  C
  C914     1.0000 0.77597  0.75299  0.53893  Biso   1.000  C
  C915     1.0000 0.53995  0.73372  0.78535  Biso   1.000  C
  C916     1.0000 0.29670  0.48499  0.78055  Biso   1.000  C
  C917     1.0000 0.27752  0.76154  0.00597  Biso   1.000  C
  C918     1.0000 0.03149  0.71765  0.77662  Biso   1.000  C
  C919     1.0000 0.76840  0.00041  0.77175  Biso   1.000  C
  C920     1.0000 0.78831  0.25167  0.51832  Biso   1.000  C
  C921     1.0000 0.01440  0.22335  0.77769  Biso   1.000  C
  C922     1.0000 0.27028  0.98050  0.79075  Biso   1.000  C
  C923     1.0000 0.28205  0.26336  0.02919  Biso   1.000  C
  C924     1.0000 0.52094  0.23738  0.76666  Biso   1.000  C
  C925     1.0000 0.26451  0.48822  0.28041  Biso   1.000  C
  C926     1.0000 0.28983  0.22963  0.50659  Biso   1.000  C
  C927     1.0000 0.53805  0.26003  0.26817  Biso   1.000  C
  C928     1.0000 0.76262  0.49784  0.26715  Biso   1.000  C
  C929     1.0000 0.77691  0.21979  0.03871  Biso   1.000  C
  C930     1.0000 0.02759  0.26344  0.27943  Biso   1.000  C
  C931     1.0000 0.28726  0.01852  0.28932  Biso   1.000  C
  C932     1.0000 0.27313  0.73079  0.50524  Biso   1.000  C
  C933     1.0000 0.02683  0.76718  0.27844  Biso   1.000  C
  C934     1.0000 0.78551  0.98759  0.27339  Biso   1.000  C
  C935     1.0000 0.78325  0.72168  0.00654  Biso   1.000  C
  C936     1.0000 0.52795  0.75543  0.28482  Biso   1.000  C
  C937     1.0000 0.75539  0.24200  0.03639  Biso   1.000  C
  C938     1.0000 0.02613  0.74604  0.30264  Biso   1.000  C
  C939     1.0000 0.28689  0.98559  0.76340  Biso   1.000  C
  C940     1.0000 0.26731  0.25288  0.50499  Biso   1.000  C
  C941     1.0000 0.52364  0.73231  0.26195  Biso   1.000  C
  C942     1.0000 0.79216  0.00104  0.79394  Biso   1.000  C
  C943     1.0000 0.80585  0.74399  0.00571  Biso   1.000  C
  C944     1.0000 0.53984  0.23756  0.29045  Biso   1.000  C
  C945     1.0000 0.27310  0.48377  0.75870  Biso   1.000  C
  C946     1.0000 0.29455  0.75362  0.50562  Biso   1.000  C
  C947     1.0000 0.02937  0.24311  0.25589  Biso   1.000  C
  C948     1.0000 0.77395  0.48258  0.79302  Biso   1.000  C
  C949     1.0000 0.30272  0.74260  0.00746  Biso   1.000  C
  C950     1.0000 0.01369  0.24682  0.75788  Biso   1.000  C
  C951     1.0000 0.76453  0.99261  0.29630  Biso   1.000  C
  C952     1.0000 0.79958  0.73179  0.54038  Biso   1.000  C
  C953     1.0000 0.51917  0.25904  0.79069  Biso   1.000  C
  C954     1.0000 0.26257  0.02039  0.27029  Biso   1.000  C
  C955     1.0000 0.25922  0.24129  0.02808  Biso   1.000  C
  C956     1.0000 0.53789  0.75384  0.76130  Biso   1.000  C
  C957     1.0000 0.78661  0.49821  0.28914  Biso   1.000  C
  C958     1.0000 0.76461  0.22913  0.51750  Biso   1.000  C
  C959     1.0000 0.02858  0.74133  0.79849  Biso   1.000  C
  C960     1.0000 0.28837  0.48872  0.25831  Biso   1.000  C
  Cu1      1.0000 0.03478  0.48176  0.67754  Biso   1.000  Cu
  Cu2      1.0000 0.68418  0.98677  0.53414  Biso   1.000  Cu
  Cu3      1.0000 0.54092  0.64345  0.02117  Biso   1.000  Cu
  Cu4      1.0000 0.53416  0.49647  0.87354  Biso   1.000  Cu
  Cu5      1.0000 0.18689  0.00150  0.03114  Biso   1.000  Cu
  Cu6      1.0000 0.03620  0.64235  0.53632  Biso   1.000  Cu
  Cu7      1.0000 0.52674  0.99441  0.68254  Biso   1.000  Cu
  Cu8      1.0000 0.87434  0.48873  0.52834  Biso   1.000  Cu
  Cu9      1.0000 0.02062  0.14718  0.01773  Biso   1.000  Cu
  Cu10     1.0000 0.03098  0.98741  0.87905  Biso   1.000  Cu
  Cu11     1.0000 0.37437  0.50123  0.01821  Biso   1.000  Cu
  Cu12     1.0000 0.52792  0.14646  0.52946  Biso   1.000  Cu
  Cu13     1.0000 0.02723  0.50201  0.36682  Biso   1.000  Cu
  Cu14     1.0000 0.37724  0.99065  0.52125  Biso   1.000  Cu
  Cu15     1.0000 0.52255  0.34203  0.02618  Biso   1.000  Cu
  Cu16     1.0000 0.52501  0.49091  0.17408  Biso   1.000  Cu
  Cu17     1.0000 0.87092  0.98429  0.03147  Biso   1.000  Cu
  Cu18     1.0000 0.02609  0.33924  0.52258  Biso   1.000  Cu
  Cu19     1.0000 0.52959  0.99306  0.37283  Biso   1.000  Cu
  Cu20     1.0000 0.18107  0.49210  0.52050  Biso   1.000  Cu
  Cu21     1.0000 0.03455  0.83816  0.03277  Biso   1.000  Cu
  Cu22     1.0000 0.02538  0.99945  0.17926  Biso   1.000  Cu
  Cu23     1.0000 0.68463  0.48287  0.02625  Biso   1.000  Cu
  Cu24     1.0000 0.53366  0.83875  0.52549  Biso   1.000  Cu
  Cu25     1.0000 0.24029  0.00408  0.03211  Biso   1.000  Cu
  Cu26     1.0000 0.01781  0.20092  0.01600  Biso   1.000  Cu
  Cu27     1.0000 0.02383  0.00370  0.23328  Biso   1.000  Cu
  Cu28     1.0000 0.73736  0.99331  0.53423  Biso   1.000  Cu
  Cu29     1.0000 0.52590  0.19970  0.52768  Biso   1.000  Cu
  Cu30     1.0000 0.53172  0.99448  0.31819  Biso   1.000  Cu
  Cu31     1.0000 0.31993  0.50211  0.01611  Biso   1.000  Cu
  Cu32     1.0000 0.54313  0.69756  0.02471  Biso   1.000  Cu
  Cu33     1.0000 0.52340  0.49228  0.22979  Biso   1.000  Cu
  Cu34     1.0000 0.81981  0.48741  0.52989  Biso   1.000  Cu
  Cu35     1.0000 0.03390  0.69563  0.53987  Biso   1.000  Cu
  Cu36     1.0000 0.02641  0.50477  0.31211  Biso   1.000  Cu
  Cu37     1.0000 0.81742  0.98302  0.03201  Biso   1.000  Cu
  Cu38     1.0000 0.03702  0.78449  0.03504  Biso   1.000  Cu
  Cu39     1.0000 0.03132  0.98460  0.82492  Biso   1.000  Cu
  Cu40     1.0000 0.32056  0.98662  0.52191  Biso   1.000  Cu
  Cu41     1.0000 0.53627  0.78420  0.52186  Biso   1.000  Cu
  Cu42     1.0000 0.52495  0.99464  0.73806  Biso   1.000  Cu
  Cu43     1.0000 0.73924  0.48175  0.02822  Biso   1.000  Cu
  Cu44     1.0000 0.51965  0.28900  0.02652  Biso   1.000  Cu
  Cu45     1.0000 0.53260  0.49638  0.81935  Biso   1.000  Cu
  Cu46     1.0000 0.23545  0.49398  0.51895  Biso   1.000  Cu
  Cu47     1.0000 0.02983  0.28524  0.51388  Biso   1.000  Cu
  Cu48     1.0000 0.03340  0.47985  0.73240  Biso   1.000  Cu
  H1       1.0000 0.27110  0.78417  0.53088  Biso   1.000  H
  H2       1.0000 0.56176  0.27592  0.77635  Biso   1.000  H
  H3       1.0000 0.75966  0.52100  0.32331  Biso   1.000  H
  H4       1.0000 0.79251  0.76503  0.96539  Biso   1.000  H
  H5       1.0000 0.98379  0.22317  0.72984  Biso   1.000  H
  H6       1.0000 0.31320  0.51042  0.28931  Biso   1.000  H
  H7       1.0000 0.29460  0.28674  0.52575  Biso   1.000  H
  H8       1.0000 0.98872  0.76043  0.77712  Biso   1.000  H
  H9       1.0000 0.74545  0.02966  0.27164  Biso   1.000  H
  H10      1.0000 0.77739  0.26929  0.06656  Biso   1.000  H
  H11      1.0000 0.56979  0.78450  0.78067  Biso   1.000  H
  H12      1.0000 0.28502  0.04663  0.23863  Biso   1.000  H
  H13      1.0000 0.73091  0.25998  0.50405  Biso   1.000  H
  H14      1.0000 0.56063  0.75154  0.23956  Biso   1.000  H
  H15      1.0000 0.30153  0.46433  0.72673  Biso   1.000  H
  H16      1.0000 0.27205  0.22139  0.06799  Biso   1.000  H
  H17      1.0000 0.06262  0.76546  0.32314  Biso   1.000  H
  H18      1.0000 0.74703  0.45765  0.76239  Biso   1.000  H
  H19      1.0000 0.82725  0.76129  0.51777  Biso   1.000  H
  H20      1.0000 0.05963  0.21172  0.27842  Biso   1.000  H
  H21      1.0000 0.26528  0.95186  0.73522  Biso   1.000  H
  H22      1.0000 0.27704  0.71318  0.02897  Biso   1.000  H
  H23      1.0000 0.55694  0.20476  0.26353  Biso   1.000  H
  H24      1.0000 0.81713  0.96728  0.77238  Biso   1.000  H
  H25      1.0000 0.28816  0.02091  0.81046  Biso   1.000  H
  H26      1.0000 0.80626  0.24873  0.05892  Biso   1.000  H
  H27      1.0000 0.01105  0.73713  0.24466  Biso   1.000  H
  H28      1.0000 0.79258  0.97390  0.74080  Biso   1.000  H
  H29      1.0000 0.26625  0.20204  0.47694  Biso   1.000  H
  H30      1.0000 0.55537  0.78275  0.25824  Biso   1.000  H
  H31      1.0000 0.32264  0.51484  0.75914  Biso   1.000  H
  H32      1.0000 0.80895  0.68930  0.03265  Biso   1.000  H
  H33      1.0000 0.50992  0.28549  0.29370  Biso   1.000  H
  H34      1.0000 0.77928  0.52011  0.74840  Biso   1.000  H
  H35      1.0000 0.24157  0.75496  0.48055  Biso   1.000  H
  H36      1.0000 0.00677  0.23450  0.30896  Biso   1.000  H
  H37      1.0000 0.81641  0.96621  0.30155  Biso   1.000  H
  H38      1.0000 0.29642  0.78911  0.97363  Biso   1.000  H
  H39      1.0000 0.98487  0.24366  0.80775  Biso   1.000  H
  H40      1.0000 0.30687  0.98877  0.26253  Biso   1.000  H
  H41      1.0000 0.79874  0.78393  0.56342  Biso   1.000  H
  H42      1.0000 0.50036  0.20843  0.79662  Biso   1.000  H
  H43      1.0000 0.73587  0.47074  0.29256  Biso   1.000  H
  H44      1.0000 0.25477  0.29551  0.00882  Biso   1.000  H
  H45      1.0000 0.50203  0.70886  0.76855  Biso   1.000  H
  H46      1.0000 0.28773  0.46245  0.31270  Biso   1.000  H
  H47      1.0000 0.76385  0.27501  0.55076  Biso   1.000  H
  H48      1.0000 0.06749  0.69495  0.79815  Biso   1.000  H
  H49      1.0000 0.23557  0.51636  0.25321  Biso   1.000  H
  H50      1.0000 0.31888  0.25327  0.53648  Biso   1.000  H
  H51      1.0000 0.56929  0.23699  0.23948  Biso   1.000  H
  H52      1.0000 0.78801  0.52339  0.23791  Biso   1.000  H
  H53      1.0000 0.75096  0.18094  0.02260  Biso   1.000  H
  H54      1.0000 0.04751  0.29559  0.25045  Biso   1.000  H
  H55      1.0000 0.26832  0.04712  0.32194  Biso   1.000  H
  H56      1.0000 0.29774  0.70777  0.53600  Biso   1.000  H
  H57      1.0000 0.03993  0.80098  0.30822  Biso   1.000  H
  H58      1.0000 0.75647  0.00173  0.24163  Biso   1.000  H
  H59      1.0000 0.75272  0.74636  0.98152  Biso   1.000  H
  H60      1.0000 0.50668  0.73032  0.31608  Biso   1.000  H
  H61      1.0000 0.82392  0.45153  0.79030  Biso   1.000  H
  H62      1.0000 0.74909  0.72298  0.51687  Biso   1.000  H
  H63      1.0000 0.57581  0.75559  0.81099  Biso   1.000  H
  H64      1.0000 0.27178  0.45914  0.80848  Biso   1.000  H
  H65      1.0000 0.24997  0.73730  0.03684  Biso   1.000  H
  H66      1.0000 0.99463  0.73192  0.74915  Biso   1.000  H
  H67      1.0000 0.73755  0.02675  0.79731  Biso   1.000  H
  H68      1.0000 0.82081  0.23140  0.48901  Biso   1.000  H
  H69      1.0000 0.04255  0.19804  0.75087  Biso   1.000  H
  H70      1.0000 0.24980  0.94110  0.77584  Biso   1.000  H
  H71      1.0000 0.31143  0.23767  0.05425  Biso   1.000  H
  H72      1.0000 0.54223  0.26316  0.73504  Biso   1.000  H
  H73      1.0000 0.80038  0.50267  0.82694  Biso   1.000  H
  H74      1.0000 0.77436  0.70347  0.56557  Biso   1.000  H
  H75      1.0000 0.50495  0.72890  0.73546  Biso   1.000  H
  H76      1.0000 0.24651  0.50982  0.78475  Biso   1.000  H
  H77      1.0000 0.33695  0.76695  0.98450  Biso   1.000  H
  H78      1.0000 0.06360  0.72426  0.82459  Biso   1.000  H
  H79      1.0000 0.77301  0.03457  0.81730  Biso   1.000  H
  H80      1.0000 0.79344  0.20150  0.53695  Biso   1.000  H
  H81      1.0000 0.04423  0.27474  0.77976  Biso   1.000  H
  H82      1.0000 0.31526  0.01645  0.78610  Biso   1.000  H
  H83      1.0000 0.23997  0.25912  0.99030  Biso   1.000  H
  H84      1.0000 0.47558  0.24712  0.80997  Biso   1.000  H
  H85      1.0000 0.26139  0.46809  0.22612  Biso   1.000  H
  H86      1.0000 0.23458  0.22451  0.48596  Biso   1.000  H
  H87      1.0000 0.52577  0.26614  0.32621  Biso   1.000  H
  H88      1.0000 0.81442  0.47621  0.26068  Biso   1.000  H
  H89      1.0000 0.72900  0.21852  0.00542  Biso   1.000  H
  H90      1.0000 0.99940  0.26618  0.22945  Biso   1.000  H
  H91      1.0000 0.23577  0.99345  0.29796  Biso   1.000  H
  H92      1.0000 0.31926  0.72760  0.47864  Biso   1.000  H
  H93      1.0000 0.99042  0.72219  0.28420  Biso   1.000  H
  H94      1.0000 0.78097  0.95965  0.32634  Biso   1.000  H
  H95      1.0000 0.82340  0.73012  0.04744  Biso   1.000  H
  H96      1.0000 0.48968  0.70784  0.28437  Biso   1.000  H
  H97      1.0000 0.89422  0.99940  0.94369  Biso   1.000  H
  H98      1.0000 0.94926  0.85494  0.02591  Biso   1.000  H
  H99      1.0000 0.02530  0.88845  0.90280  Biso   1.000  H
  H100     1.0000 0.39506  0.99211  0.61500  Biso   1.000  H
  H101     1.0000 0.44542  0.85850  0.51540  Biso   1.000  H
  H102     1.0000 0.52065  0.90094  0.65558  Biso   1.000  H
  H103     1.0000 0.66156  0.48032  0.93624  Biso   1.000  H
  H104     1.0000 0.61572  0.35931  0.02403  Biso   1.000  H
  H105     1.0000 0.53712  0.40900  0.89626  Biso   1.000  H
  H106     1.0000 0.16470  0.49162  0.61587  Biso   1.000  H
  H107     1.0000 0.11715  0.35942  0.51204  Biso   1.000  H
  H108     1.0000 0.02963  0.39193  0.65059  Biso   1.000  H
  H109     1.0000 0.15852  0.99301  0.12139  Biso   1.000  H
  H110     1.0000 0.11260  0.13043  0.01556  Biso   1.000  H
  H111     1.0000 0.03129  0.08932  0.15627  Biso   1.000  H
  H112     1.0000 0.65934  0.00226  0.44589  Biso   1.000  H
  H113     1.0000 0.61472  0.12403  0.53699  Biso   1.000  H
  H114     1.0000 0.53315  0.08601  0.39752  Biso   1.000  H
  H115     1.0000 0.39258  0.51011  0.10959  Biso   1.000  H
  H116     1.0000 0.44605  0.62445  0.01091  Biso   1.000  H
  H117     1.0000 0.51423  0.58741  0.15403  Biso   1.000  H
  H118     1.0000 0.89319  0.48732  0.43421  Biso   1.000  H
  H119     1.0000 0.94236  0.62315  0.53556  Biso   1.000  H
  H120     1.0000 0.03010  0.58993  0.39449  Biso   1.000  H
  H121     1.0000 0.12679  0.99555  0.89740  Biso   1.000  H
  H122     1.0000 0.88982  0.07557  0.04405  Biso   1.000  H
  H123     1.0000 0.04360  0.86245  0.12501  Biso   1.000  H
  H124     1.0000 0.61961  0.99914  0.66789  Biso   1.000  H
  H125     1.0000 0.39004  0.08147  0.53080  Biso   1.000  H
  H126     1.0000 0.54572  0.86560  0.43422  Biso   1.000  H
  H127     1.0000 0.43877  0.48539  0.88971  Biso   1.000  H
  H128     1.0000 0.67166  0.57674  0.02994  Biso   1.000  H
  H129     1.0000 0.52129  0.35992  0.11540  Biso   1.000  H
  H130     1.0000 0.93871  0.48319  0.65431  Biso   1.000  H
  H131     1.0000 0.16326  0.58750  0.52058  Biso   1.000  H
  H132     1.0000 0.02647  0.36809  0.42790  Biso   1.000  H
  H133     1.0000 0.93366  0.98343  0.16769  Biso   1.000  H
  H134     1.0000 0.17148  0.91157  0.02994  Biso   1.000  H
  H135     1.0000 0.02806  0.12937  0.92979  Biso   1.000  H
  H136     1.0000 0.43796  0.98887  0.38798  Biso   1.000  H
  H137     1.0000 0.66837  0.90018  0.52650  Biso   1.000  H
  H138     1.0000 0.51591  0.12637  0.61925  Biso   1.000  H
  H139     1.0000 0.61898  0.49881  0.15699  Biso   1.000  H
  H140     1.0000 0.39439  0.40757  0.02886  Biso   1.000  H
  H141     1.0000 0.55202  0.62813  0.93247  Biso   1.000  H
  H142     1.0000 0.11621  0.50102  0.38226  Biso   1.000  H
  H143     1.0000 0.89358  0.39765  0.52770  Biso   1.000  H
  H144     1.0000 0.03827  0.61421  0.62676  Biso   1.000  H
  H145     1.0000 0.62360  0.48329  0.89299  Biso   1.000  H
  H146     1.0000 0.90012  0.57940  0.52012  Biso   1.000  H
  H147     1.0000 0.52380  0.85761  0.61437  Biso   1.000  H
  H148     1.0000 0.12507  0.48722  0.65801  Biso   1.000  H
  H149     1.0000 0.39955  0.58826  0.00319  Biso   1.000  H
  H150     1.0000 0.03386  0.85543  0.94054  Biso   1.000  H
  H151     1.0000 0.93573  0.99008  0.90369  Biso   1.000  H
  H152     1.0000 0.65530  0.07929  0.53393  Biso   1.000  H
  H153     1.0000 0.02948  0.35202  0.61045  Biso   1.000  H
  H154     1.0000 0.43328  0.99308  0.65664  Biso   1.000  H
  H155     1.0000 0.15965  0.09213  0.02508  Biso   1.000  H
  H156     1.0000 0.52711  0.36594  0.93752  Biso   1.000  H
  H157     1.0000 0.43304  0.50238  0.15161  Biso   1.000  H
  H158     1.0000 0.16134  0.39878  0.51743  Biso   1.000  H
  H159     1.0000 0.53652  0.12447  0.43534  Biso   1.000  H
  H160     1.0000 0.93533  0.49921  0.38920  Biso   1.000  H
  H161     1.0000 0.66267  0.39447  0.02936  Biso   1.000  H
  H162     1.0000 0.03687  0.12979  0.10973  Biso   1.000  H
  H163     1.0000 0.11601  0.00308  0.16178  Biso   1.000  H
  H164     1.0000 0.40259  0.90143  0.51667  Biso   1.000  H
  H165     1.0000 0.03809  0.63055  0.44311  Biso   1.000  H
  H166     1.0000 0.61449  0.00783  0.39840  Biso   1.000  H
  H167     1.0000 0.89963  0.89867  0.01217  Biso   1.000  H
  H168     1.0000 0.52581  0.62730  0.11191  Biso   1.000  H
  H169     1.0000 0.02932  0.08153  0.89203  Biso   1.000  H
  H170     1.0000 0.88953  0.98337  0.12215  Biso   1.000  H
  H171     1.0000 0.12919  0.86901  0.03367  Biso   1.000  H
  H172     1.0000 0.51741  0.08402  0.66461  Biso   1.000  H
  H173     1.0000 0.39693  0.99730  0.43292  Biso   1.000  H
  H174     1.0000 0.62604  0.85745  0.52271  Biso   1.000  H
  H175     1.0000 0.54682  0.58776  0.88924  Biso   1.000  H
  H176     1.0000 0.66586  0.48869  0.11258  Biso   1.000  H
  H177     1.0000 0.43213  0.36710  0.03080  Biso   1.000  H
  H178     1.0000 0.03558  0.57433  0.66768  Biso   1.000  H
  H179     1.0000 0.15712  0.49066  0.42460  Biso   1.000  H
  H180     1.0000 0.93674  0.35490  0.52019  Biso   1.000  H
  H181     1.0000 0.03802  0.90729  0.16484  Biso   1.000  H
  H182     1.0000 0.16845  0.00198  0.93963  Biso   1.000  H
  H183     1.0000 0.92812  0.11973  0.02580  Biso   1.000  H
  H184     1.0000 0.54108  0.90352  0.39114  Biso   1.000  H
  H185     1.0000 0.66105  0.99604  0.62450  Biso   1.000  H
  H186     1.0000 0.43708  0.12493  0.52357  Biso   1.000  H
  H187     1.0000 0.52935  0.40041  0.15621  Biso   1.000  H
  H188     1.0000 0.39526  0.48278  0.93188  Biso   1.000  H
  H189     1.0000 0.63542  0.61765  0.02600  Biso   1.000  H
  H190     1.0000 0.03174  0.40620  0.38551  Biso   1.000  H
  H191     1.0000 0.89726  0.47953  0.61810  Biso   1.000  H
  H192     1.0000 0.12807  0.62788  0.52170  Biso   1.000  H
  H193     1.0000 0.30458  0.84906  0.50655  Biso   1.000  H
  H194     1.0000 0.51095  0.26941  0.88185  Biso   1.000  H
  H195     1.0000 0.88306  0.51072  0.29525  Biso   1.000  H
  H196     1.0000 0.80958  0.83377  0.01389  Biso   1.000  H
  H197     1.0000 0.01370  0.25311  0.65463  Biso   1.000  H
  H198     1.0000 0.38018  0.49190  0.24829  Biso   1.000  H
  H199     1.0000 0.25559  0.34806  0.49506  Biso   1.000  H
  H200     1.0000 0.03233  0.75662  0.89072  Biso   1.000  H
  H201     1.0000 0.67419  0.01202  0.30371  Biso   1.000  H
  H202     1.0000 0.75216  0.33610  0.03004  Biso   1.000  H
  H203     1.0000 0.52669  0.76673  0.67145  Biso   1.000  H
  H204     1.0000 0.16891  0.01877  0.25916  Biso   1.000  H
  H205     1.0000 0.75081  0.13128  0.51099  Biso   1.000  H
  H206     1.0000 0.52305  0.72740  0.16492  Biso   1.000  H
  H207     1.0000 0.18077  0.48125  0.75194  Biso   1.000  H
  H208     1.0000 0.25011  0.15209  0.02236  Biso   1.000  H
  H209     1.0000 0.04229  0.73201  0.39909  Biso   1.000  H
  H210     1.0000 0.67874  0.48247  0.79759  Biso   1.000  H
  H211     1.0000 0.80517  0.63698  0.52395  Biso   1.000  H
  H212     1.0000 0.02865  0.22988  0.15417  Biso   1.000  H
  H213     1.0000 0.38015  0.98632  0.75238  Biso   1.000  H
  H214     1.0000 0.30677  0.64851  0.99547  Biso   1.000  H
  H215     1.0000 0.55931  0.22098  0.38832  Biso   1.000  H
  H216     1.0000 0.88772  0.98989  0.80554  Biso   1.000  H
  H217     1.0000 0.25586  0.49856  0.37823  Biso   1.000  H
  H218     1.0000 0.38386  0.21760  0.49412  Biso   1.000  H
  H219     1.0000 0.53547  0.35033  0.25431  Biso   1.000  H
  H220     1.0000 0.75457  0.48437  0.17475  Biso   1.000  H
  H221     1.0000 0.87248  0.21380  0.02547  Biso   1.000  H
  H222     1.0000 0.01754  0.35678  0.28880  Biso   1.000  H
  H223     1.0000 0.30127  0.01027  0.37974  Biso   1.000  H
  H224     1.0000 0.17928  0.72423  0.52380  Biso   1.000  H
  H225     1.0000 0.02787  0.86275  0.26481  Biso   1.000  H
  H226     1.0000 0.79676  0.97251  0.17661  Biso   1.000  H
  H227     1.0000 0.69058  0.71331  0.02550  Biso   1.000  H
  H228     1.0000 0.52854  0.85030  0.29607  Biso   1.000  H
  H229     1.0000 0.80075  0.47429  0.67254  Biso   1.000  H
  H230     1.0000 0.67707  0.75945  0.53485  Biso   1.000  H
  H231     1.0000 0.54328  0.64025  0.79392  Biso   1.000  H
  H232     1.0000 0.30290  0.48809  0.87313  Biso   1.000  H
  H233     1.0000 0.17807  0.77333  0.00937  Biso   1.000  H
  H234     1.0000 0.04182  0.62353  0.76824  Biso   1.000  H
  H235     1.0000 0.75879  0.99744  0.67524  Biso   1.000  H
  H236     1.0000 0.87926  0.26055  0.53322  Biso   1.000  H
  H237     1.0000 0.02451  0.12675  0.78965  Biso   1.000  H
  H238     1.0000 0.26370  0.98636  0.88754  Biso   1.000  H
  H239     1.0000 0.37522  0.27273  0.02566  Biso   1.000  H
  H240     1.0000 0.52693  0.13969  0.75949  Biso   1.000  H
  H241     1.0000 0.75915  0.46188  0.88602  Biso   1.000  H
  H242     1.0000 0.89136  0.71855  0.54310  Biso   1.000  H
  H243     1.0000 0.52196  0.85000  0.75619  Biso   1.000  H
  H244     1.0000 0.26380  0.50525  0.66081  Biso   1.000  H
  H245     1.0000 0.40332  0.72979  0.00489  Biso   1.000  H
  H246     1.0000 0.02289  0.84007  0.80385  Biso   1.000  H
  H247     1.0000 0.79703  0.00214  0.88810  Biso   1.000  H
  H248     1.0000 0.67295  0.21593  0.54288  Biso   1.000  H
  H249     1.0000 0.01283  0.33804  0.74583  Biso   1.000  H
  H250     1.0000 0.29425  0.98596  0.66483  Biso   1.000  H
  H251     1.0000 0.16241  0.22911  0.01500  Biso   1.000  H
  H252     1.0000 0.51987  0.35392  0.80164  Biso   1.000  H
  H253     1.0000 0.29402  0.51289  0.16112  Biso   1.000  H
  H254     1.0000 0.17200  0.26226  0.51515  Biso   1.000  H
  H255     1.0000 0.52379  0.14333  0.30216  Biso   1.000  H
  H256     1.0000 0.79742  0.48714  0.38155  Biso   1.000  H
  H257     1.0000 0.65938  0.25666  0.03310  Biso   1.000  H
  H258     1.0000 0.02713  0.14804  0.24916  Biso   1.000  H
  H259     1.0000 0.25616  0.00489  0.17540  Biso   1.000  H
  H260     1.0000 0.39095  0.76116  0.51029  Biso   1.000  H
  H261     1.0000 0.02804  0.65373  0.30415  Biso   1.000  H
  H262     1.0000 0.75390  0.01618  0.39155  Biso   1.000  H
  H263     1.0000 0.89643  0.75890  0.01259  Biso   1.000  H
  H264     1.0000 0.51682  0.64044  0.25006  Biso   1.000  H
  H265     1.0000 0.01299  0.21598  0.86654  Biso   1.000  H
  H266     1.0000 0.87848  0.00495  0.26032  Biso   1.000  H
  H267     1.0000 0.26872  0.85794  0.01991  Biso   1.000  H
  H268     1.0000 0.51494  0.22531  0.66884  Biso   1.000  H
  H269     1.0000 0.39188  0.01370  0.29106  Biso   1.000  H
  H270     1.0000 0.76128  0.84586  0.51481  Biso   1.000  H
  H271     1.0000 0.54485  0.72319  0.87807  Biso   1.000  H
  H272     1.0000 0.66702  0.49883  0.25431  Biso   1.000  H
  H273     1.0000 0.29653  0.36068  0.03753  Biso   1.000  H
  H274     1.0000 0.03839  0.70861  0.68348  Biso   1.000  H
  H275     1.0000 0.17292  0.49143  0.29082  Biso   1.000  H
  H276     1.0000 0.79968  0.34525  0.52700  Biso   1.000  H
  H277     1.0000 0.04454  0.76718  0.18146  Biso   1.000  H
  H278     1.0000 0.17890  0.97507  0.80365  Biso   1.000  H
  H279     1.0000 0.78994  0.12150  0.05613  Biso   1.000  H
  H280     1.0000 0.55426  0.76877  0.37805  Biso   1.000  H
  H281     1.0000 0.67173  0.99354  0.76573  Biso   1.000  H
  H282     1.0000 0.29671  0.13521  0.51026  Biso   1.000  H
  H283     1.0000 0.52489  0.26447  0.17202  Biso   1.000  H
  H284     1.0000 0.38871  0.48986  0.79253  Biso   1.000  H
  H285     1.0000 0.76822  0.62131  0.00478  Biso   1.000  H
  H286     1.0000 0.03132  0.27232  0.37202  Biso   1.000  H
  H287     1.0000 0.89204  0.48919  0.75693  Biso   1.000  H
  H288     1.0000 0.25953  0.63692  0.50603  Biso   1.000  H
  H289     1.0000 0.10977  0.22808  0.01586  Biso   1.000  H
  H290     1.0000 0.02911  0.09473  0.24992  Biso   1.000  H
  H291     1.0000 0.25769  0.99849  0.12209  Biso   1.000  H
  H292     1.0000 0.61499  0.21894  0.54691  Biso   1.000  H
  H293     1.0000 0.52344  0.08759  0.30078  Biso   1.000  H
  H294     1.0000 0.75448  0.01067  0.44555  Biso   1.000  H
  H295     1.0000 0.45644  0.72219  0.01649  Biso   1.000  H
  H296     1.0000 0.51204  0.58611  0.25102  Biso   1.000  H
  H297     1.0000 0.29650  0.51640  0.10840  Biso   1.000  H
  H298     1.0000 0.94300  0.71744  0.54832  Biso   1.000  H
  H299     1.0000 0.02422  0.60045  0.30065  Biso   1.000  H
  H300     1.0000 0.79898  0.49207  0.43829  Biso   1.000  H
  H301     1.0000 0.94777  0.75904  0.01779  Biso   1.000  H
  H302     1.0000 0.02513  0.89159  0.80367  Biso   1.000  H
  H303     1.0000 0.79797  0.00623  0.94270  Biso   1.000  H
  H304     1.0000 0.44394  0.76077  0.51099  Biso   1.000  H
  H305     1.0000 0.52103  0.90696  0.75157  Biso   1.000  H
  H306     1.0000 0.29764  0.99338  0.61391  Biso   1.000  H
  H307     1.0000 0.60735  0.26318  0.02020  Biso   1.000  H
  H308     1.0000 0.53124  0.40764  0.79736  Biso   1.000  H
  H309     1.0000 0.75686  0.46276  0.93934  Biso   1.000  H
  H310     1.0000 0.11829  0.26702  0.52632  Biso   1.000  H
  H311     1.0000 0.01718  0.39202  0.74515  Biso   1.000  H
  H312     1.0000 0.26000  0.50434  0.60927  Biso   1.000  H
  H313     1.0000 0.26390  0.99143  0.94024  Biso   1.000  H
  H314     1.0000 0.92593  0.21435  0.01696  Biso   1.000  H
  H315     1.0000 0.02603  0.91344  0.25923  Biso   1.000  H
  H316     1.0000 0.75837  0.99518  0.62249  Biso   1.000  H
  H317     1.0000 0.43445  0.22003  0.50079  Biso   1.000  H
  H318     1.0000 0.52585  0.90267  0.29622  Biso   1.000  H
  H319     1.0000 0.30108  0.48529  0.93032  Biso   1.000  H
  H320     1.0000 0.63366  0.71432  0.02531  Biso   1.000  H
  H321     1.0000 0.53902  0.40870  0.25259  Biso   1.000  H
  H322     1.0000 0.80098  0.47850  0.61997  Biso   1.000  H
  H323     1.0000 0.12336  0.72512  0.52507  Biso   1.000  H
  H324     1.0000 0.01738  0.41379  0.29152  Biso   1.000  H
  H325     1.0000 0.79467  0.96704  0.12355  Biso   1.000  H
  H326     1.0000 0.12456  0.77540  0.01659  Biso   1.000  H
  H327     1.0000 0.02565  0.07458  0.79530  Biso   1.000  H
  H328     1.0000 0.29936  0.00226  0.43076  Biso   1.000  H
  H329     1.0000 0.62294  0.76463  0.53740  Biso   1.000  H
  H330     1.0000 0.52379  0.08771  0.75790  Biso   1.000  H
  H331     1.0000 0.75925  0.47785  0.12044  Biso   1.000  H
  H332     1.0000 0.43001  0.27371  0.01463  Biso   1.000  H
  H333     1.0000 0.54082  0.58708  0.79256  Biso   1.000  H
  H334     1.0000 0.25495  0.49466  0.43038  Biso   1.000  H
  H335     1.0000 0.93865  0.25751  0.52703  Biso   1.000  H
  H336     1.0000 0.03914  0.56644  0.76140  Biso   1.000  H
  H337     1.0000 0.01278  0.22264  0.92460  Biso   1.000  H
  H338     1.0000 0.93616  0.00634  0.25922  Biso   1.000  H
  H339     1.0000 0.26776  0.91206  0.02805  Biso   1.000  H
  H340     1.0000 0.50977  0.21989  0.61891  Biso   1.000  H
  H341     1.0000 0.43962  0.99374  0.29060  Biso   1.000  H
  H342     1.0000 0.76303  0.90243  0.50953  Biso   1.000  H
  H343     1.0000 0.54551  0.72332  0.93590  Biso   1.000  H
  H344     1.0000 0.60992  0.50141  0.25089  Biso   1.000  H
  H345     1.0000 0.29526  0.41406  0.03504  Biso   1.000  H
  H346     1.0000 0.03866  0.71126  0.62864  Biso   1.000  H
  H347     1.0000 0.11755  0.49244  0.28909  Biso   1.000  H
  H348     1.0000 0.79734  0.39660  0.52284  Biso   1.000  H
  H349     1.0000 0.04178  0.76655  0.12681  Biso   1.000  H
  H350     1.0000 0.12360  0.97531  0.80461  Biso   1.000  H
  H351     1.0000 0.79496  0.06509  0.05482  Biso   1.000  H
  H352     1.0000 0.55460  0.76867  0.43185  Biso   1.000  H
  H353     1.0000 0.61754  0.99842  0.76362  Biso   1.000  H
  H354     1.0000 0.29566  0.08112  0.51236  Biso   1.000  H
  H355     1.0000 0.52338  0.26583  0.11375  Biso   1.000  H
  H356     1.0000 0.44571  0.49762  0.79630  Biso   1.000  H
  H357     1.0000 0.76549  0.56915  0.02006  Biso   1.000  H
  H358     1.0000 0.03155  0.27173  0.42653  Biso   1.000  H
  H359     1.0000 0.94647  0.49385  0.75000  Biso   1.000  H
  H360     1.0000 0.25556  0.58058  0.50579  Biso   1.000  H
  H361     1.0000 0.04697  0.72481  0.45102  Biso   1.000  H
  H362     1.0000 0.43560  0.98965  0.75326  Biso   1.000  H
  H363     1.0000 0.76049  0.39218  0.03215  Biso   1.000  H
  H364     1.0000 0.53234  0.72167  0.11011  Biso   1.000  H
  H365     1.0000 0.94212  0.98264  0.80718  Biso   1.000  H
  H366     1.0000 0.25454  0.40281  0.49997  Biso   1.000  H
  H367     1.0000 0.56422  0.21716  0.44140  Biso   1.000  H
  H368     1.0000 0.12632  0.48000  0.75480  Biso   1.000  H
  H369     1.0000 0.80445  0.88862  0.01326  Biso   1.000  H
  H370     1.0000 0.01831  0.22479  0.10500  Biso   1.000  H
  H371     1.0000 0.62706  0.49221  0.79692  Biso   1.000  H
  H372     1.0000 0.30427  0.90003  0.51603  Biso   1.000  H
  H373     1.0000 0.02234  0.25543  0.60180  Biso   1.000  H
  H374     1.0000 0.62021  0.00940  0.30379  Biso   1.000  H
  H375     1.0000 0.30309  0.59788  0.99617  Biso   1.000  H
  H376     1.0000 0.50925  0.27026  0.93728  Biso   1.000  H
  H377     1.0000 0.11102  0.01340  0.25534  Biso   1.000  H
  H378     1.0000 0.80236  0.58349  0.51975  Biso   1.000  H
  H379     1.0000 0.52033  0.76317  0.61551  Biso   1.000  H
  H380     1.0000 0.93649  0.51166  0.29370  Biso   1.000  H
  H381     1.0000 0.25535  0.09711  0.02825  Biso   1.000  H
  H382     1.0000 0.03760  0.75678  0.94521  Biso   1.000  H
  H383     1.0000 0.43129  0.49173  0.24794  Biso   1.000  H
  H384     1.0000 0.74782  0.07760  0.51271  Biso   1.000  H
  H385     1.0000 0.25124  0.46589  0.35023  Biso   1.000  H
  H386     1.0000 0.30477  0.16325  0.47749  Biso   1.000  H
  H387     1.0000 0.50084  0.32122  0.25230  Biso   1.000  H
  H388     1.0000 0.69804  0.46568  0.25265  Biso   1.000  H
  H389     1.0000 0.84356  0.21599  0.06576  Biso   1.000  H
  H390     1.0000 0.99956  0.26892  0.34732  Biso   1.000  H
  H391     1.0000 0.35134  0.98019  0.29740  Biso   1.000  H
  H392     1.0000 0.20360  0.71974  0.48413  Biso   1.000  H
  H393     1.0000 0.01136  0.77600  0.20714  Biso   1.000  H
  H394     1.0000 0.85298  0.96400  0.26059  Biso   1.000  H
  H395     1.0000 0.77419  0.65168  0.03246  Biso   1.000  H
  H396     1.0000 0.56103  0.82161  0.29402  Biso   1.000  H
  H397     1.0000 0.80677  0.51150  0.70386  Biso   1.000  H
  H398     1.0000 0.76063  0.82388  0.55561  Biso   1.000  H
  H399     1.0000 0.51128  0.66841  0.79892  Biso   1.000  H
  H400     1.0000 0.35522  0.52454  0.79782  Biso   1.000  H
  H401     1.0000 0.25855  0.82991  0.98203  Biso   1.000  H
  H402     1.0000 0.07102  0.65739  0.76090  Biso   1.000  H
  H403     1.0000 0.75336  0.97107  0.70503  Biso   1.000  H
  H404     1.0000 0.79753  0.31429  0.55465  Biso   1.000  H
  H405     1.0000 0.98397  0.20175  0.83985  Biso   1.000  H
  H406     1.0000 0.24923  0.02274  0.84829  Biso   1.000  H
  H407     1.0000 0.29155  0.33346  0.00974  Biso   1.000  H
  H408     1.0000 0.49549  0.16981  0.76013  Biso   1.000  H
  H409     1.0000 0.29605  0.47666  0.18619  Biso   1.000  H
  H410     1.0000 0.19746  0.26212  0.48544  Biso   1.000  H
  H411     1.0000 0.52081  0.22997  0.36329  Biso   1.000  H
  H412     1.0000 0.85299  0.47359  0.29568  Biso   1.000  H
  H413     1.0000 0.69262  0.25822  0.00211  Biso   1.000  H
  H414     1.0000 0.99538  0.22700  0.19169  Biso   1.000  H
  H415     1.0000 0.19790  0.98555  0.26084  Biso   1.000  H
  H416     1.0000 0.36246  0.76499  0.47735  Biso   1.000  H
  H417     1.0000 0.99457  0.68254  0.31774  Biso   1.000  H
  H418     1.0000 0.74215  0.97076  0.36256  Biso   1.000  H
  H419     1.0000 0.86491  0.76440  0.04633  Biso   1.000  H
  H420     1.0000 0.48449  0.67570  0.24295  Biso   1.000  H
  H421     1.0000 0.75984  0.50055  0.86309  Biso   1.000  H
  H422     1.0000 0.80957  0.66170  0.56152  Biso   1.000  H
  H423     1.0000 0.49414  0.76770  0.70483  Biso   1.000  H
  H424     1.0000 0.20957  0.51366  0.74907  Biso   1.000  H
  H425     1.0000 0.36996  0.72785  0.97684  Biso   1.000  H
  H426     1.0000 0.05998  0.76666  0.85919  Biso   1.000  H
  H427     1.0000 0.80924  0.03381  0.85627  Biso   1.000  H
  H428     1.0000 0.75565  0.16277  0.54502  Biso   1.000  H
  H429     1.0000 0.04728  0.31176  0.74601  Biso   1.000  H
  H430     1.0000 0.34584  0.02360  0.74883  Biso   1.000  H
  H431     1.0000 0.20392  0.22057  0.98388  Biso   1.000  H
  H432     1.0000 0.47189  0.28490  0.84174  Biso   1.000  H
  H433     1.0000 0.30106  0.95165  0.70018  Biso   1.000  H
  H434     1.0000 0.73992  0.30797  0.06574  Biso   1.000  H
  H435     1.0000 0.06874  0.72631  0.35886  Biso   1.000  H
  H436     1.0000 0.85476  0.96495  0.80704  Biso   1.000  H
  H437     1.0000 0.25602  0.32013  0.53160  Biso   1.000  H
  H438     1.0000 0.55689  0.72282  0.19837  Biso   1.000  H
  H439     1.0000 0.26733  0.46674  0.68853  Biso   1.000  H
  H440     1.0000 0.82389  0.80553  0.97271  Biso   1.000  H
  H441     1.0000 0.55796  0.16770  0.29668  Biso   1.000  H
  H442     1.0000 0.70856  0.44912  0.80108  Biso   1.000  H
  H443     1.0000 0.31167  0.81552  0.53923  Biso   1.000  H
  H444     1.0000 0.06345  0.17877  0.24267  Biso   1.000  H
  H445     1.0000 0.71368  0.04285  0.30736  Biso   1.000  H
  H446     1.0000 0.31308  0.67324  0.03048  Biso   1.000  H
  H447     1.0000 0.98927  0.26105  0.68958  Biso   1.000  H
  H448     1.0000 0.25063  0.04076  0.19946  Biso   1.000  H
  H449     1.0000 0.86330  0.72096  0.50627  Biso   1.000  H
  H450     1.0000 0.55899  0.31714  0.81010  Biso   1.000  H
  H451     1.0000 0.79858  0.52705  0.35705  Biso   1.000  H
  H452     1.0000 0.23610  0.18102  0.06378  Biso   1.000  H
  H453     1.0000 0.55857  0.82251  0.74917  Biso   1.000  H
  H454     1.0000 0.35245  0.52439  0.24811  Biso   1.000  H
  H455     1.0000 0.69293  0.21928  0.50164  Biso   1.000  H
  H456     1.0000 0.98916  0.80139  0.80945  Biso   1.000  H
  H457     1.0000 0.71044  0.75699  0.50745  Biso   1.000  H
  H458     1.0000 0.57762  0.72177  0.84556  Biso   1.000  H
  H459     1.0000 0.85924  0.44868  0.75127  Biso   1.000  H
  H460     1.0000 0.21644  0.77499  0.04818  Biso   1.000  H
  H461     1.0000 0.99715  0.70017  0.71316  Biso   1.000  H
  H462     1.0000 0.31069  0.45353  0.84529  Biso   1.000  H
  H463     1.0000 0.85595  0.26491  0.49443  Biso   1.000  H
  H464     1.0000 0.05408  0.16419  0.78906  Biso   1.000  H
  H465     1.0000 0.69957  0.02375  0.76380  Biso   1.000  H
  H466     1.0000 0.34908  0.27076  0.05656  Biso   1.000  H
  H467     1.0000 0.54201  0.22689  0.69789  Biso   1.000  H
  H468     1.0000 0.21171  0.94201  0.81272  Biso   1.000  H
  H469     1.0000 0.35688  0.21627  0.53725  Biso   1.000  H
  H470     1.0000 0.56222  0.27034  0.19794  Biso   1.000  H
  H471     1.0000 0.20161  0.52294  0.28984  Biso   1.000  H
  H472     1.0000 0.78568  0.14858  0.02455  Biso   1.000  H
  H473     1.0000 0.05115  0.33148  0.28930  Biso   1.000  H
  H474     1.0000 0.75126  0.52724  0.20284  Biso   1.000  H
  H475     1.0000 0.26295  0.66652  0.53917  Biso   1.000  H
  H476     1.0000 0.05677  0.83276  0.26992  Biso   1.000  H
  H477     1.0000 0.30686  0.04611  0.35430  Biso   1.000  H
  H478     1.0000 0.71233  0.71036  0.98334  Biso   1.000  H
  H479     1.0000 0.51070  0.76729  0.35734  Biso   1.000  H
  H480     1.0000 0.79398  0.01236  0.20447  Biso   1.000  H
  N1       1.0000 0.69974  0.16665  0.52411  Biso   1.000  N
  N2       1.0000 0.52026  0.67252  0.19887  Biso   1.000  N
  N3       1.0000 0.21038  0.48846  0.69645  Biso   1.000  N
  N4       1.0000 0.19651  0.17863  0.02492  Biso   1.000  N
  N5       1.0000 0.03145  0.68020  0.36083  Biso   1.000  N
  N6       1.0000 0.70890  0.47392  0.85235  Biso   1.000  N
  N7       1.0000 0.85789  0.66603  0.53050  Biso   1.000  N
  N8       1.0000 0.03086  0.17866  0.19287  Biso   1.000  N
  N9       1.0000 0.34737  0.98833  0.70034  Biso   1.000  N
  N10      1.0000 0.36553  0.67687  0.00267  Biso   1.000  N
  N11      1.0000 0.53605  0.17289  0.35295  Biso   1.000  N
  N12      1.0000 0.85213  0.99631  0.85754  Biso   1.000  N
  N13      1.0000 0.35873  0.81466  0.50729  Biso   1.000  N
  N14      1.0000 0.51715  0.32531  0.85042  Biso   1.000  N
  N15      1.0000 0.84915  0.50122  0.34869  Biso   1.000  N
  N16      1.0000 0.86418  0.80968  0.01420  Biso   1.000  N
  N17      1.0000 0.01945  0.30740  0.69221  Biso   1.000  N
  N18      1.0000 0.34745  0.50649  0.19472  Biso   1.000  N
  N19      1.0000 0.20407  0.31479  0.50748  Biso   1.000  N
  N20      1.0000 0.02552  0.80732  0.85777  Biso   1.000  N
  N21      1.0000 0.70363  0.01175  0.35914  Biso   1.000  N
  N22      1.0000 0.69734  0.30855  0.02865  Biso   1.000  N
  N23      1.0000 0.52506  0.81770  0.70206  Biso   1.000  N
  N24      1.0000 0.20153  0.00877  0.20607  Biso   1.000  N
  N25      1.0000 0.85719  0.48057  0.70399  Biso   1.000  N
  N26      1.0000 0.71255  0.81368  0.52717  Biso   1.000  N
  N27      1.0000 0.54468  0.67181  0.84602  Biso   1.000  N
  N28      1.0000 0.35597  0.48727  0.84411  Biso   1.000  N
  N29      1.0000 0.21474  0.82540  0.01641  Biso   1.000  N
  N30      1.0000 0.03562  0.65613  0.71344  Biso   1.000  N
  N31      1.0000 0.70481  0.99692  0.70984  Biso   1.000  N
  N32      1.0000 0.85199  0.31272  0.52674  Biso   1.000  N
  N33      1.0000 0.02171  0.16183  0.84134  Biso   1.000  N
  N34      1.0000 0.20872  0.98362  0.85401  Biso   1.000  N
  N35      1.0000 0.34605  0.32578  0.03167  Biso   1.000  N
  N36      1.0000 0.51986  0.17221  0.70587  Biso   1.000  N
  N37      1.0000 0.20328  0.49948  0.34268  Biso   1.000  N
  N38      1.0000 0.35140  0.16691  0.51037  Biso   1.000  N
  N39      1.0000 0.52780  0.31895  0.20372  Biso   1.000  N
  N40      1.0000 0.70150  0.49468  0.20377  Biso   1.000  N
  N41      1.0000 0.84117  0.15902  0.04292  Biso   1.000  N
  N42      1.0000 0.02564  0.32562  0.34161  Biso   1.000  N
  N43      1.0000 0.35612  0.00966  0.34569  Biso   1.000  N
  N44      1.0000 0.20907  0.67119  0.51701  Biso   1.000  N
  N45      1.0000 0.03898  0.82394  0.21435  Biso   1.000  N
  N46      1.0000 0.84673  0.98774  0.20941  Biso   1.000  N
  N47      1.0000 0.71952  0.65936  0.01482  Biso   1.000  N
  N48      1.0000 0.53678  0.81776  0.34986  Biso   1.000  N
  O1       1.0000 0.37004  0.54273  0.01733  Biso   1.000  O
  O2       1.0000 0.02226  0.33004  0.56136  Biso   1.000  O
  O3       1.0000 0.57079  0.99712  0.37380  Biso   1.000  O
  O4       1.0000 0.87502  0.53063  0.52771  Biso   1.000  O
  O5       1.0000 0.52149  0.34224  0.98445  Biso   1.000  O
  O6       1.0000 0.06634  0.00029  0.18420  Biso   1.000  O
  O7       1.0000 0.18789  0.04229  0.02301  Biso   1.000  O
  O8       1.0000 0.52566  0.83555  0.56610  Biso   1.000  O
  O9       1.0000 0.98539  0.49950  0.36468  Biso   1.000  O
  O10      1.0000 0.68109  0.03043  0.53347  Biso   1.000  O
  O11      1.0000 0.03352  0.83383  0.99078  Biso   1.000  O
  O12      1.0000 0.48304  0.48798  0.17595  Biso   1.000  O
  O13      1.0000 0.68597  0.44054  0.02770  Biso   1.000  O
  O14      1.0000 0.03596  0.64726  0.49318  Biso   1.000  O
  O15      1.0000 0.48469  0.98789  0.68418  Biso   1.000  O
  O16      1.0000 0.18450  0.44884  0.51526  Biso   1.000  O
  O17      1.0000 0.53275  0.64821  0.06324  Biso   1.000  O
  O18      1.0000 0.98734  0.98663  0.87900  Biso   1.000  O
  O19      1.0000 0.87048  0.94403  0.02547  Biso   1.000  O
  O20      1.0000 0.53685  0.14761  0.48686  Biso   1.000  O
  O21      1.0000 0.07597  0.48597  0.68285  Biso   1.000  O
  O22      1.0000 0.37507  0.94933  0.51527  Biso   1.000  O
  O23      1.0000 0.02373  0.15110  0.05818  Biso   1.000  O
  O24      1.0000 0.57549  0.49324  0.86870  Biso   1.000  O
  O25      1.0000 0.98344  0.99924  0.18550  Biso   1.000  O
  O26      1.0000 0.19545  0.96082  0.03683  Biso   1.000  O
  O27      1.0000 0.02027  0.15184  0.97537  Biso   1.000  O
  O28      1.0000 0.48691  0.99162  0.36697  Biso   1.000  O
  O29      1.0000 0.69067  0.94608  0.53735  Biso   1.000  O
  O30      1.0000 0.51904  0.14771  0.57079  Biso   1.000  O
  O31      1.0000 0.56734  0.49454  0.17656  Biso   1.000  O
  O32      1.0000 0.37185  0.45981  0.02185  Biso   1.000  O
  O33      1.0000 0.54986  0.64822  0.98096  Biso   1.000  O
  O34      1.0000 0.07001  0.50108  0.36266  Biso   1.000  O
  O35      1.0000 0.87078  0.44727  0.52769  Biso   1.000  O
  O36      1.0000 0.04044  0.64203  0.57791  Biso   1.000  O
  O37      1.0000 0.07360  0.98862  0.87646  Biso   1.000  O
  O38      1.0000 0.86835  0.02645  0.03948  Biso   1.000  O
  O39      1.0000 0.03533  0.83622  0.07609  Biso   1.000  O
  O40      1.0000 0.56819  0.99615  0.69175  Biso   1.000  O
  O41      1.0000 0.36918  0.03309  0.52378  Biso   1.000  O
  O42      1.0000 0.54106  0.83926  0.48312  Biso   1.000  O
  O43      1.0000 0.48998  0.49556  0.87121  Biso   1.000  O
  O44      1.0000 0.69042  0.52590  0.02528  Biso   1.000  O
  O45      1.0000 0.51951  0.33707  0.06799  Biso   1.000  O
  O46      1.0000 0.99198  0.48069  0.67995  Biso   1.000  O
  O47      1.0000 0.18398  0.53558  0.51967  Biso   1.000  O
  O48      1.0000 0.02506  0.34147  0.47958  Biso   1.000  O
  O49      1.0000 0.02680  0.95840  0.18497  Biso   1.000  O
  O50      1.0000 0.19068  0.99679  0.98903  Biso   1.000  O
  O51      1.0000 0.97839  0.14557  0.02064  Biso   1.000  O
  O52      1.0000 0.53631  0.95287  0.36851  Biso   1.000  O
  O53      1.0000 0.68431  0.98906  0.57418  Biso   1.000  O
  O54      1.0000 0.48718  0.15153  0.51929  Biso   1.000  O
  O55      1.0000 0.52971  0.45156  0.18029  Biso   1.000  O
  O56      1.0000 0.37170  0.49267  0.97880  Biso   1.000  O
  O57      1.0000 0.58269  0.64433  0.02897  Biso   1.000  O
  O58      1.0000 0.02864  0.46004  0.36287  Biso   1.000  O
  O59      1.0000 0.87250  0.48916  0.57022  Biso   1.000  O
  O60      1.0000 0.07797  0.64583  0.53390  Biso   1.000  O
  O61      1.0000 0.02803  0.03068  0.87139  Biso   1.000  O
  O62      1.0000 0.86662  0.97926  0.07257  Biso   1.000  O
  O63      1.0000 0.07542  0.84377  0.02903  Biso   1.000  O
  O64      1.0000 0.52307  0.03493  0.68486  Biso   1.000  O
  O65      1.0000 0.37358  0.99450  0.48058  Biso   1.000  O
  O66      1.0000 0.57548  0.83351  0.52897  Biso   1.000  O
  O67      1.0000 0.53509  0.53665  0.86481  Biso   1.000  O
  O68      1.0000 0.68707  0.48424  0.06932  Biso   1.000  O
  O69      1.0000 0.48144  0.34030  0.02483  Biso   1.000  O
  O70      1.0000 0.03426  0.52185  0.68696  Biso   1.000  O
  O71      1.0000 0.17959  0.48843  0.47765  Biso   1.000  O
  O72      1.0000 0.98299  0.33398  0.51701  Biso   1.000  O
  O73      1.0000 0.03365  0.44233  0.67815  Biso   1.000  O
  O74      1.0000 0.68298  0.99069  0.49265  Biso   1.000  O
  O75      1.0000 0.50156  0.64761  0.01236  Biso   1.000  O
  O76      1.0000 0.53177  0.45629  0.87064  Biso   1.000  O
  O77      1.0000 0.18468  0.00223  0.07210  Biso   1.000  O
  O78      1.0000 0.99302  0.64659  0.53479  Biso   1.000  O
  O79      1.0000 0.52948  0.95179  0.67997  Biso   1.000  O
  O80      1.0000 0.87018  0.49124  0.48405  Biso   1.000  O
  O81      1.0000 0.06543  0.15169  0.01709  Biso   1.000  O
  O82      1.0000 0.02885  0.94334  0.87706  Biso   1.000  O
  O83      1.0000 0.37001  0.50549  0.05913  Biso   1.000  O
  O84      1.0000 0.56782  0.15030  0.53417  Biso   1.000  O
  O85      1.0000 0.02346  0.54572  0.36740  Biso   1.000  O
  O86      1.0000 0.37214  0.98894  0.56311  Biso   1.000  O
  O87      1.0000 0.56361  0.33741  0.02797  Biso   1.000  O
  O88      1.0000 0.51823  0.53491  0.17836  Biso   1.000  O
  O89      1.0000 0.87045  0.98740  0.98980  Biso   1.000  O
  O90      1.0000 0.06804  0.33708  0.52367  Biso   1.000  O
  O91      1.0000 0.52623  0.03645  0.37057  Biso   1.000  O
  O92      1.0000 0.18699  0.49179  0.56238  Biso   1.000  O
  O93      1.0000 0.99514  0.83277  0.03626  Biso   1.000  O
  O94      1.0000 0.02533  0.04117  0.18241  Biso   1.000  O
  O95      1.0000 0.68676  0.47842  0.98609  Biso   1.000  O
  O96      1.0000 0.49326  0.83553  0.51919  Biso   1.000  O
  O97      1.0000 0.48477  0.19849  0.51689  Biso   1.000  O
  O98      1.0000 0.52913  0.45246  0.22909  Biso   1.000  O
  O99      1.0000 0.22954  0.49147  0.47652  Biso   1.000  O
  O100     1.0000 0.97561  0.19371  0.01729  Biso   1.000  O
  O101     1.0000 0.02797  0.46170  0.31412  Biso   1.000  O
  O102     1.0000 0.73719  0.48509  0.07035  Biso   1.000  O
  O103     1.0000 0.07440  0.69495  0.53857  Biso   1.000  O
  O104     1.0000 0.02546  0.96202  0.23189  Biso   1.000  O
  O105     1.0000 0.32621  0.98428  0.47992  Biso   1.000  O
  O106     1.0000 0.58353  0.69168  0.03100  Biso   1.000  O
  O107     1.0000 0.53731  0.95297  0.32021  Biso   1.000  O
  O108     1.0000 0.81878  0.97273  0.07357  Biso   1.000  O
  O109     1.0000 0.57725  0.78395  0.52484  Biso   1.000  O
  O110     1.0000 0.52793  0.53842  0.81662  Biso   1.000  O
  O111     1.0000 0.82387  0.49049  0.57178  Biso   1.000  O
  O112     1.0000 0.07973  0.79475  0.02995  Biso   1.000  O
  O113     1.0000 0.03352  0.52008  0.73580  Biso   1.000  O
  O114     1.0000 0.32310  0.49100  0.97550  Biso   1.000  O
  O115     1.0000 0.98654  0.28425  0.51733  Biso   1.000  O
  O116     1.0000 0.03472  0.02534  0.82307  Biso   1.000  O
  O117     1.0000 0.73409  0.99711  0.57555  Biso   1.000  O
  O118     1.0000 0.47784  0.29038  0.02524  Biso   1.000  O
  O119     1.0000 0.52804  0.03493  0.73392  Biso   1.000  O
  O120     1.0000 0.23964  0.00336  0.98927  Biso   1.000  O
  O121     1.0000 0.07592  0.47656  0.73077  Biso   1.000  O
  O122     1.0000 0.72992  0.03561  0.53134  Biso   1.000  O
  O123     1.0000 0.53782  0.69672  0.06541  Biso   1.000  O
  O124     1.0000 0.57363  0.49478  0.81797  Biso   1.000  O
  O125     1.0000 0.23524  0.04665  0.02922  Biso   1.000  O
  O126     1.0000 0.03541  0.69625  0.49791  Biso   1.000  O
  O127     1.0000 0.48228  0.99118  0.73295  Biso   1.000  O
  O128     1.0000 0.82636  0.53056  0.52584  Biso   1.000  O
  O129     1.0000 0.01710  0.19894  0.05799  Biso   1.000  O
  O130     1.0000 0.98965  0.98601  0.82923  Biso   1.000  O
  O131     1.0000 0.32471  0.54366  0.00503  Biso   1.000  O
  O132     1.0000 0.53660  0.19512  0.48841  Biso   1.000  O
  O133     1.0000 0.98471  0.50517  0.31563  Biso   1.000  O
  O134     1.0000 0.32869  0.94513  0.52541  Biso   1.000  O
  O135     1.0000 0.52429  0.29330  0.98489  Biso   1.000  O
  O136     1.0000 0.48209  0.48838  0.22456  Biso   1.000  O
  O137     1.0000 0.82191  0.94039  0.02198  Biso   1.000  O
  O138     1.0000 0.02718  0.28384  0.55559  Biso   1.000  O
  O139     1.0000 0.57267  0.99672  0.32584  Biso   1.000  O
  O140     1.0000 0.23337  0.45105  0.51920  Biso   1.000  O
  O141     1.0000 0.03319  0.78521  0.99449  Biso   1.000  O
  O142     1.0000 0.06665  0.00678  0.23199  Biso   1.000  O
  O143     1.0000 0.73541  0.44153  0.03388  Biso   1.000  O
  O144     1.0000 0.53032  0.78740  0.56522  Biso   1.000  O
  O145     1.0000 0.56451  0.49844  0.22425  Biso   1.000  O
  O146     1.0000 0.23334  0.53661  0.51944  Biso   1.000  O
  O147     1.0000 0.51606  0.19544  0.56881  Biso   1.000  O
  O148     1.0000 0.06763  0.50500  0.31414  Biso   1.000  O
  O149     1.0000 0.73948  0.52281  0.02208  Biso   1.000  O
  O150     1.0000 0.01700  0.20117  0.97370  Biso   1.000  O
  O151     1.0000 0.98476  0.00362  0.23379  Biso   1.000  O
  O152     1.0000 0.32162  0.02902  0.51962  Biso   1.000  O
  O153     1.0000 0.03526  0.69085  0.58037  Biso   1.000  O
  O154     1.0000 0.49009  0.99062  0.31758  Biso   1.000  O
  O155     1.0000 0.81958  0.02372  0.04360  Biso   1.000  O
  O156     1.0000 0.54747  0.69707  0.98302  Biso   1.000  O
  O157     1.0000 0.49245  0.49880  0.82325  Biso   1.000  O
  O158     1.0000 0.82118  0.44631  0.53302  Biso   1.000  O
  O159     1.0000 0.54051  0.79228  0.48079  Biso   1.000  O
  O160     1.0000 0.99081  0.48126  0.72745  Biso   1.000  O
  O161     1.0000 0.32493  0.46187  0.02284  Biso   1.000  O
  O162     1.0000 0.04304  0.78778  0.07664  Biso   1.000  O
  O163     1.0000 0.07346  0.98204  0.82809  Biso   1.000  O
  O164     1.0000 0.73924  0.95012  0.53712  Biso   1.000  O
  O165     1.0000 0.02791  0.29234  0.47344  Biso   1.000  O
  O166     1.0000 0.56666  0.99334  0.74054  Biso   1.000  O
  O167     1.0000 0.24377  0.96344  0.03205  Biso   1.000  O
  O168     1.0000 0.51731  0.28943  0.06924  Biso   1.000  O
  O169     1.0000 0.02559  0.04660  0.23040  Biso   1.000  O
  O170     1.0000 0.23333  0.00551  0.07168  Biso   1.000  O
  O171     1.0000 0.06073  0.19990  0.01596  Biso   1.000  O
  O172     1.0000 0.52705  0.03757  0.32073  Biso   1.000  O
  O173     1.0000 0.73241  0.99380  0.49099  Biso   1.000  O
  O174     1.0000 0.56723  0.19827  0.53910  Biso   1.000  O
  O175     1.0000 0.51824  0.53478  0.22731  Biso   1.000  O
  O176     1.0000 0.32192  0.50956  0.05778  Biso   1.000  O
  O177     1.0000 0.50332  0.69543  0.01665  Biso   1.000  O
  O178     1.0000 0.02803  0.54771  0.31845  Biso   1.000  O
  O179     1.0000 0.82149  0.48945  0.48467  Biso   1.000  O
  O180     1.0000 0.99281  0.69494  0.54058  Biso   1.000  O
  O181     1.0000 0.02592  0.94159  0.82758  Biso   1.000  O
  O182     1.0000 0.82206  0.99627  0.99243  Biso   1.000  O
  O183     1.0000 0.99505  0.78336  0.03514  Biso   1.000  O
  O184     1.0000 0.52118  0.95257  0.72905  Biso   1.000  O
  O185     1.0000 0.32340  0.98911  0.56368  Biso   1.000  O
  O186     1.0000 0.49343  0.78677  0.52112  Biso   1.000  O
  O187     1.0000 0.53102  0.45521  0.82210  Biso   1.000  O
  O188     1.0000 0.73497  0.47475  0.98598  Biso   1.000  O
  O189     1.0000 0.56160  0.28822  0.02903  Biso   1.000  O
  O190     1.0000 0.03018  0.43842  0.72606  Biso   1.000  O
  O191     1.0000 0.23427  0.49928  0.55991  Biso   1.000  O
  O192     1.0000 0.07046  0.28864  0.51374  Biso   1.000  O
