data_image0
_cell_length_a       46.8662
_cell_length_b       46.5709
_cell_length_c       46.5018
_cell_angle_alpha    90
_cell_angle_beta     90
_cell_angle_gamma    90

_symmetry_space_group_name_H-M    "P 1"
_symmetry_int_tables_number       1

loop_
  _symmetry_equiv_pos_as_xyz
  'x, y, z'

loop_
  _atom_site_label
  _atom_site_occupancy
  _atom_site_fract_x
  _atom_site_fract_y
  _atom_site_fract_z
  _atom_site_thermal_displace_type
  _atom_site_B_iso_or_equiv
  _atom_site_type_symbol
  C1       1.0000 0.56719  0.97728  0.33491  Biso   1.000  C
  C2       1.0000 0.32930  0.54615  0.02035  Biso   1.000  C
  C3       1.0000 0.01926  0.30074  0.56573  Biso   1.000  C
  C4       1.0000 0.06584  0.99021  0.19632  Biso   1.000  C
  C5       1.0000 0.82747  0.53434  0.50942  Biso   1.000  C
  C6       1.0000 0.50103  0.30201  0.96643  Biso   1.000  C
  C7       1.0000 0.96295  0.49307  0.33231  Biso   1.000  C
  C8       1.0000 0.18566  0.04813  0.01066  Biso   1.000  C
  C9       1.0000 0.51785  0.79960  0.56014  Biso   1.000  C
  C10      1.0000 0.46648  0.47823  0.19858  Biso   1.000  C
  C11      1.0000 0.69628  0.03836  0.51399  Biso   1.000  C
  C12      1.0000 0.01178  0.80848  0.95909  Biso   1.000  C
  C13      1.0000 0.45636  0.98254  0.69443  Biso   1.000  C
  C14      1.0000 0.68446  0.43054  0.00640  Biso   1.000  C
  C15      1.0000 0.00547  0.66588  0.45842  Biso   1.000  C
  C16      1.0000 0.95269  0.97074  0.83449  Biso   1.000  C
  C17      1.0000 0.19209  0.43319  0.51861  Biso   1.000  C
  C18      1.0000 0.51002  0.66364  0.06412  Biso   1.000  C
  C19      1.0000 0.06123  0.47551  0.68623  Biso   1.000  C
  C20      1.0000 0.82929  0.92958  0.02939  Biso   1.000  C
  C21      1.0000 0.51875  0.16300  0.46622  Biso   1.000  C
  C22      1.0000 0.55561  0.48549  0.83028  Biso   1.000  C
  C23      1.0000 0.33416  0.92796  0.51285  Biso   1.000  C
  C24      1.0000 0.99790  0.16464  0.06109  Biso   1.000  C
  C25      1.0000 0.33477  0.03726  0.51106  Biso   1.000  C
  C26      1.0000 0.51760  0.30650  0.07360  Biso   1.000  C
  C27      1.0000 0.07050  0.47147  0.32849  Biso   1.000  C
  C28      1.0000 0.82686  0.03530  0.01398  Biso   1.000  C
  C29      1.0000 0.01682  0.30539  0.45718  Biso   1.000  C
  C30      1.0000 0.57471  0.49270  0.19628  Biso   1.000  C
  C31      1.0000 0.18900  0.54016  0.49951  Biso   1.000  C
  C32      1.0000 0.01511  0.80423  0.06713  Biso   1.000  C
  C33      1.0000 0.45833  0.98718  0.32611  Biso   1.000  C
  C34      1.0000 0.69319  0.53724  0.00974  Biso   1.000  C
  C35      1.0000 0.50835  0.80085  0.45218  Biso   1.000  C
  C36      1.0000 0.96169  0.97029  0.19481  Biso   1.000  C
  C37      1.0000 0.69094  0.92979  0.52566  Biso   1.000  C
  C38      1.0000 0.50982  0.66799  0.95478  Biso   1.000  C
  C39      1.0000 0.95495  0.48829  0.69362  Biso   1.000  C
  C40      1.0000 0.18520  0.93949  0.01532  Biso   1.000  C
  C41      1.0000 0.00156  0.66888  0.56932  Biso   1.000  C
  C42      1.0000 0.44697  0.48269  0.83479  Biso   1.000  C
  C43      1.0000 0.83584  0.42438  0.51103  Biso   1.000  C
  C44      1.0000 0.00303  0.17030  0.95285  Biso   1.000  C
  C45      1.0000 0.56391  0.97912  0.69618  Biso   1.000  C
  C46      1.0000 0.32884  0.43367  0.02263  Biso   1.000  C
  C47      1.0000 0.50983  0.16294  0.57408  Biso   1.000  C
  C48      1.0000 0.06122  0.98984  0.82774  Biso   1.000  C
  C49      1.0000 0.99901  0.03743  0.82989  Biso   1.000  C
  C50      1.0000 0.83064  0.98916  0.07749  Biso   1.000  C
  C51      1.0000 0.06542  0.81040  0.00930  Biso   1.000  C
  C52      1.0000 0.51564  0.03189  0.69565  Biso   1.000  C
  C53      1.0000 0.33288  0.98212  0.45855  Biso   1.000  C
  C54      1.0000 0.56419  0.80401  0.50174  Biso   1.000  C
  C55      1.0000 0.49704  0.53646  0.83282  Biso   1.000  C
  C56      1.0000 0.69228  0.48180  0.06548  Biso   1.000  C
  C57      1.0000 0.45507  0.30353  0.03256  Biso   1.000  C
  C58      1.0000 0.02008  0.53655  0.68842  Biso   1.000  C
  C59      1.0000 0.19250  0.47432  0.45573  Biso   1.000  C
  C60      1.0000 0.96519  0.30267  0.51421  Biso   1.000  C
  C61      1.0000 0.02610  0.92769  0.19529  Biso   1.000  C
  C62      1.0000 0.18738  0.99667  0.95622  Biso   1.000  C
  C63      1.0000 0.94593  0.16597  0.00103  Biso   1.000  C
  C64      1.0000 0.50930  0.92945  0.33101  Biso   1.000  C
  C65      1.0000 0.69304  0.99413  0.57295  Biso   1.000  C
  C66      1.0000 0.46096  0.16518  0.51645  Biso   1.000  C
  C67      1.0000 0.52958  0.42839  0.20231  Biso   1.000  C
  C68      1.0000 0.32744  0.49035  0.96629  Biso   1.000  C
  C69      1.0000 0.56433  0.66193  0.01111  Biso   1.000  C
  C70      1.0000 0.01038  0.43095  0.32686  Biso   1.000  C
  C71      1.0000 0.82497  0.47721  0.56525  Biso   1.000  C
  C72      1.0000 0.05954  0.66557  0.51294  Biso   1.000  C
  C73      1.0000 0.02764  0.53882  0.33861  Biso   1.000  C
  C74      1.0000 0.33407  0.98240  0.56728  Biso   1.000  C
  C75      1.0000 0.56000  0.30547  0.01311  Biso   1.000  C
  C76      1.0000 0.51445  0.53598  0.19281  Biso   1.000  C
  C77      1.0000 0.82832  0.97417  0.96788  Biso   1.000  C
  C78      1.0000 0.07343  0.30022  0.50876  Biso   1.000  C
  C79      1.0000 0.51528  0.04012  0.33597  Biso   1.000  C
  C80      1.0000 0.19142  0.49398  0.56399  Biso   1.000  C
  C81      1.0000 0.95566  0.80267  0.01750  Biso   1.000  C
  C82      1.0000 0.00512  0.03581  0.19009  Biso   1.000  C
  C83      1.0000 0.68651  0.48417  0.95380  Biso   1.000  C
  C84      1.0000 0.45608  0.80000  0.51513  Biso   1.000  C
  C85      1.0000 0.00013  0.43168  0.69010  Biso   1.000  C
  C86      1.0000 0.69067  0.97839  0.46318  Biso   1.000  C
  C87      1.0000 0.45464  0.66713  0.00632  Biso   1.000  C
  C88      1.0000 0.50326  0.42914  0.83588  Biso   1.000  C
  C89      1.0000 0.18826  0.99240  0.06662  Biso   1.000  C
  C90      1.0000 0.95212  0.66475  0.51259  Biso   1.000  C
  C91      1.0000 0.50691  0.92560  0.68935  Biso   1.000  C
  C92      1.0000 0.83558  0.48067  0.45630  Biso   1.000  C
  C93      1.0000 0.05372  0.16786  0.00841  Biso   1.000  C
  C94      1.0000 0.01905  0.92924  0.82713  Biso   1.000  C
  C95      1.0000 0.33509  0.48884  0.07415  Biso   1.000  C
  C96      1.0000 0.57051  0.16363  0.52550  Biso   1.000  C
  C97      1.0000 0.69620  0.07085  0.51420  Biso   1.000  C
  C98      1.0000 0.51770  0.66108  0.09568  Biso   1.000  C
  C99      1.0000 0.09218  0.47961  0.68746  Biso   1.000  C
  C100     1.0000 0.18455  0.07916  0.01171  Biso   1.000  C
  C101     1.0000 0.01262  0.66449  0.42688  Biso   1.000  C
  C102     1.0000 0.58752  0.48463  0.82876  Biso   1.000  C
  C103     1.0000 0.82932  0.56650  0.50903  Biso   1.000  C
  C104     1.0000 0.99904  0.16278  0.09367  Biso   1.000  C
  C105     1.0000 0.42466  0.98679  0.69624  Biso   1.000  C
  C106     1.0000 0.32807  0.57818  0.01354  Biso   1.000  C
  C107     1.0000 0.52724  0.16300  0.43477  Biso   1.000  C
  C108     1.0000 0.92068  0.96881  0.83588  Biso   1.000  C
  C109     1.0000 0.33260  0.89597  0.51294  Biso   1.000  C
  C110     1.0000 0.49876  0.30157  0.93420  Biso   1.000  C
  C111     1.0000 0.93203  0.49952  0.33160  Biso   1.000  C
  C112     1.0000 0.82861  0.89749  0.02998  Biso   1.000  C
  C113     1.0000 0.00962  0.30101  0.59768  Biso   1.000  C
  C114     1.0000 0.43395  0.47714  0.19955  Biso   1.000  C
  C115     1.0000 0.19487  0.40202  0.52226  Biso   1.000  C
  C116     1.0000 0.01849  0.80585  0.92671  Biso   1.000  C
  C117     1.0000 0.59874  0.96736  0.33562  Biso   1.000  C
  C118     1.0000 0.68516  0.39919  0.99831  Biso   1.000  C
  C119     1.0000 0.51678  0.79978  0.59325  Biso   1.000  C
  C120     1.0000 0.09633  0.99962  0.19653  Biso   1.000  C
  C121     1.0000 0.83286  0.99453  0.10846  Biso   1.000  C
  C122     1.0000 0.09775  0.81044  0.00760  Biso   1.000  C
  C123     1.0000 0.00110  0.06969  0.82771  Biso   1.000  C
  C124     1.0000 0.33234  0.98765  0.42700  Biso   1.000  C
  C125     1.0000 0.59552  0.80249  0.50788  Biso   1.000  C
  C126     1.0000 0.51508  0.06399  0.69659  Biso   1.000  C
  C127     1.0000 0.69463  0.48335  0.09788  Biso   1.000  C
  C128     1.0000 0.42269  0.30302  0.03936  Biso   1.000  C
  C129     1.0000 0.49924  0.56781  0.83134  Biso   1.000  C
  C130     1.0000 0.19260  0.46734  0.42559  Biso   1.000  C
  C131     1.0000 0.93385  0.30029  0.52080  Biso   1.000  C
  C132     1.0000 0.02221  0.56792  0.69027  Biso   1.000  C
  C133     1.0000 0.18682  0.99999  0.92364  Biso   1.000  C
  C134     1.0000 0.91528  0.16629  0.00435  Biso   1.000  C
  C135     1.0000 0.03007  0.89598  0.19452  Biso   1.000  C
  C136     1.0000 0.69159  0.99985  0.60482  Biso   1.000  C
  C137     1.0000 0.42855  0.16411  0.50955  Biso   1.000  C
  C138     1.0000 0.50289  0.89851  0.32761  Biso   1.000  C
  C139     1.0000 0.32672  0.49454  0.93386  Biso   1.000  C
  C140     1.0000 0.59709  0.66238  0.01418  Biso   1.000  C
  C141     1.0000 0.53969  0.39749  0.20130  Biso   1.000  C
  C142     1.0000 0.82480  0.47707  0.59746  Biso   1.000  C
  C143     1.0000 0.09161  0.66604  0.51321  Biso   1.000  C
  C144     1.0000 0.01942  0.39998  0.32815  Biso   1.000  C
  C145     1.0000 0.33616  0.48757  0.10660  Biso   1.000  C
  C146     1.0000 0.10624  0.30260  0.51114  Biso   1.000  C
  C147     1.0000 0.51834  0.07153  0.33771  Biso   1.000  C
  C148     1.0000 0.83735  0.48281  0.42338  Biso   1.000  C
  C149     1.0000 0.59133  0.30429  0.00664  Biso   1.000  C
  C150     1.0000 0.00681  0.06756  0.18943  Biso   1.000  C
  C151     1.0000 0.18888  0.99176  0.09912  Biso   1.000  C
  C152     1.0000 0.42406  0.80043  0.51871  Biso   1.000  C
  C153     1.0000 0.03555  0.56950  0.33894  Biso   1.000  C
  C154     1.0000 0.69085  0.97898  0.43243  Biso   1.000  C
  C155     1.0000 0.92400  0.80286  0.01976  Biso   1.000  C
  C156     1.0000 0.51247  0.56782  0.19492  Biso   1.000  C
  C157     1.0000 0.68396  0.48225  0.92050  Biso   1.000  C
  C158     1.0000 0.91934  0.66360  0.52004  Biso   1.000  C
  C159     1.0000 0.50962  0.89346  0.68879  Biso   1.000  C
  C160     1.0000 0.18833  0.49836  0.59604  Biso   1.000  C
  C161     1.0000 0.42500  0.66802  0.99636  Biso   1.000  C
  C162     1.0000 0.02488  0.89755  0.82846  Biso   1.000  C
  C163     1.0000 0.82925  0.97217  0.93623  Biso   1.000  C
  C164     1.0000 0.60170  0.16484  0.52864  Biso   1.000  C
  C165     1.0000 0.99953  0.39946  0.69055  Biso   1.000  C
  C166     1.0000 0.33223  0.98001  0.59970  Biso   1.000  C
  C167     1.0000 0.08630  0.17024  0.01190  Biso   1.000  C
  C168     1.0000 0.50393  0.39710  0.83717  Biso   1.000  C
  C169     1.0000 0.01688  0.80326  0.09963  Biso   1.000  C
  C170     1.0000 0.09291  0.98974  0.82728  Biso   1.000  C
  C171     1.0000 0.82474  0.06799  0.01441  Biso   1.000  C
  C172     1.0000 0.50453  0.80155  0.42019  Biso   1.000  C
  C173     1.0000 0.59581  0.98062  0.69601  Biso   1.000  C
  C174     1.0000 0.33470  0.06923  0.51207  Biso   1.000  C
  C175     1.0000 0.52160  0.30583  0.10615  Biso   1.000  C
  C176     1.0000 0.41629  0.48968  0.83569  Biso   1.000  C
  C177     1.0000 0.69380  0.56982  0.00750  Biso   1.000  C
  C178     1.0000 0.02097  0.30446  0.42528  Biso   1.000  C
  C179     1.0000 0.92344  0.48882  0.69387  Biso   1.000  C
  C180     1.0000 0.18836  0.57246  0.50148  Biso   1.000  C
  C181     1.0000 0.99798  0.16963  0.92131  Biso   1.000  C
  C182     1.0000 0.92980  0.96888  0.19655  Biso   1.000  C
  C183     1.0000 0.18591  0.90727  0.01877  Biso   1.000  C
  C184     1.0000 0.50723  0.16296  0.60538  Biso   1.000  C
  C185     1.0000 0.42444  0.99238  0.32666  Biso   1.000  C
  C186     1.0000 0.69131  0.89780  0.52488  Biso   1.000  C
  C187     1.0000 0.50866  0.66859  0.92262  Biso   1.000  C
  C188     1.0000 0.60662  0.50127  0.19367  Biso   1.000  C
  C189     1.0000 0.32840  0.40123  0.02317  Biso   1.000  C
  C190     1.0000 0.00664  0.66920  0.60006  Biso   1.000  C
  C191     1.0000 0.10154  0.47078  0.32635  Biso   1.000  C
  C192     1.0000 0.83828  0.39291  0.51007  Biso   1.000  C
  C193     1.0000 0.85614  0.97208  0.91888  Biso   1.000  C
  C194     1.0000 0.90641  0.82983  0.02002  Biso   1.000  C
  C195     1.0000 0.02482  0.88315  0.85620  Biso   1.000  C
  C196     1.0000 0.35882  0.98199  0.61564  Biso   1.000  C
  C197     1.0000 0.40820  0.82738  0.51820  Biso   1.000  C
  C198     1.0000 0.51093  0.87941  0.66101  Biso   1.000  C
  C199     1.0000 0.65626  0.48424  0.90563  Biso   1.000  C
  C200     1.0000 0.60679  0.33151  0.00340  Biso   1.000  C
  C201     1.0000 0.49956  0.38223  0.86444  Biso   1.000  C
  C202     1.0000 0.16084  0.49680  0.61034  Biso   1.000  C
  C203     1.0000 0.11986  0.33116  0.51501  Biso   1.000  C
  C204     1.0000 0.00312  0.38415  0.66296  Biso   1.000  C
  C205     1.0000 0.16289  0.99399  0.11550  Biso   1.000  C
  C206     1.0000 0.10517  0.14537  0.01175  Biso   1.000  C
  C207     1.0000 0.00385  0.08335  0.16269  Biso   1.000  C
  C208     1.0000 0.66503  0.97693  0.41508  Biso   1.000  C
  C209     1.0000 0.61785  0.13866  0.52707  Biso   1.000  C
  C210     1.0000 0.51911  0.08601  0.36458  Biso   1.000  C
  C211     1.0000 0.36448  0.48896  0.12271  Biso   1.000  C
  C212     1.0000 0.40785  0.64207  0.00077  Biso   1.000  C
  C213     1.0000 0.51811  0.58375  0.16816  Biso   1.000  C
  C214     1.0000 0.86382  0.48869  0.40771  Biso   1.000  C
  C215     1.0000 0.90402  0.63563  0.51855  Biso   1.000  C
  C216     1.0000 0.02976  0.58655  0.36425  Biso   1.000  C
  C217     1.0000 0.10886  0.99145  0.85462  Biso   1.000  C
  C218     1.0000 0.85033  0.08475  0.01035  Biso   1.000  C
  C219     1.0000 0.02172  0.82939  0.11520  Biso   1.000  C
  C220     1.0000 0.61302  0.98810  0.66989  Biso   1.000  C
  C221     1.0000 0.36153  0.08647  0.51387  Biso   1.000  C
  C222     1.0000 0.50282  0.82884  0.40291  Biso   1.000  C
  C223     1.0000 0.40160  0.49360  0.86317  Biso   1.000  C
  C224     1.0000 0.66519  0.58538  0.00928  Biso   1.000  C
  C225     1.0000 0.52348  0.33250  0.12337  Biso   1.000  C
  C226     1.0000 0.90675  0.48812  0.66710  Biso   1.000  C
  C227     1.0000 0.16195  0.58840  0.50736  Biso   1.000  C
  C228     1.0000 0.02192  0.33259  0.40954  Biso   1.000  C
  C229     1.0000 0.91333  0.97877  0.17206  Biso   1.000  C
  C230     1.0000 0.16009  0.88862  0.01850  Biso   1.000  C
  C231     1.0000 0.00101  0.14227  0.90669  Biso   1.000  C
  C232     1.0000 0.41014  0.99051  0.35425  Biso   1.000  C
  C233     1.0000 0.66346  0.88154  0.52428  Biso   1.000  C
  C234     1.0000 0.50848  0.13604  0.62004  Biso   1.000  C
  C235     1.0000 0.62083  0.49647  0.16712  Biso   1.000  C
  C236     1.0000 0.35607  0.38445  0.02772  Biso   1.000  C
  C237     1.0000 0.50193  0.64102  0.90805  Biso   1.000  C
  C238     1.0000 0.11608  0.47029  0.35353  Biso   1.000  C
  C239     1.0000 0.86604  0.37721  0.51041  Biso   1.000  C
  C240     1.0000 0.00907  0.63997  0.61479  Biso   1.000  C
  C241     1.0000 0.60345  0.48602  0.85515  Biso   1.000  C
  C242     1.0000 0.85547  0.58458  0.51315  Biso   1.000  C
  C243     1.0000 0.51363  0.82564  0.60821  Biso   1.000  C
  C244     1.0000 0.11026  0.48610  0.66077  Biso   1.000  C
  C245     1.0000 0.35417  0.59450  0.00970  Biso   1.000  C
  C246     1.0000 0.02456  0.83271  0.91087  Biso   1.000  C
  C247     1.0000 0.90542  0.97057  0.86435  Biso   1.000  C
  C248     1.0000 0.66900  0.08662  0.51955  Biso   1.000  C
  C249     1.0000 0.00915  0.32880  0.61134  Biso   1.000  C
  C250     1.0000 0.40771  0.98669  0.66957  Biso   1.000  C
  C251     1.0000 0.15730  0.09483  0.01192  Biso   1.000  C
  C252     1.0000 0.49795  0.33002  0.91862  Biso   1.000  C
  C253     1.0000 0.41753  0.48304  0.17318  Biso   1.000  C
  C254     1.0000 0.16838  0.38574  0.52515  Biso   1.000  C
  C255     1.0000 0.52425  0.13539  0.41942  Biso   1.000  C
  C256     1.0000 0.91473  0.49848  0.35857  Biso   1.000  C
  C257     1.0000 0.65797  0.38412  0.99995  Biso   1.000  C
  C258     1.0000 0.00099  0.13489  0.11025  Biso   1.000  C
  C259     1.0000 0.11040  0.00118  0.16967  Biso   1.000  C
  C260     1.0000 0.35835  0.87906  0.51320  Biso   1.000  C
  C261     1.0000 0.01785  0.63835  0.41076  Biso   1.000  C
  C262     1.0000 0.61438  0.97008  0.36317  Biso   1.000  C
  C263     1.0000 0.85619  0.88208  0.02923  Biso   1.000  C
  C264     1.0000 0.51752  0.63441  0.11199  Biso   1.000  C
  C265     1.0000 0.00147  0.08698  0.85425  Biso   1.000  C
  C266     1.0000 0.85988  0.99234  0.12365  Biso   1.000  C
  C267     1.0000 0.11267  0.83744  0.00986  Biso   1.000  C
  C268     1.0000 0.51147  0.07969  0.66967  Biso   1.000  C
  C269     1.0000 0.35810  0.98597  0.40845  Biso   1.000  C
  C270     1.0000 0.61044  0.83016  0.51141  Biso   1.000  C
  C271     1.0000 0.49814  0.58490  0.85722  Biso   1.000  C
  C272     1.0000 0.66883  0.48962  0.11488  Biso   1.000  C
  C273     1.0000 0.40561  0.33193  0.03875  Biso   1.000  C
  C274     1.0000 0.01590  0.58442  0.66356  Biso   1.000  C
  C275     1.0000 0.16664  0.46794  0.40825  Biso   1.000  C
  C276     1.0000 0.91689  0.32709  0.51575  Biso   1.000  C
  C277     1.0000 0.02801  0.88016  0.16665  Biso   1.000  C
  C278     1.0000 0.16014  0.00040  0.90675  Biso   1.000  C
  C279     1.0000 0.90021  0.13957  0.00468  Biso   1.000  C
  C280     1.0000 0.49862  0.88189  0.35561  Biso   1.000  C
  C281     1.0000 0.66480  0.99565  0.62026  Biso   1.000  C
  C282     1.0000 0.41247  0.13671  0.51320  Biso   1.000  C
  C283     1.0000 0.53287  0.38303  0.17387  Biso   1.000  C
  C284     1.0000 0.35243  0.49542  0.91717  Biso   1.000  C
  C285     1.0000 0.61350  0.63541  0.01300  Biso   1.000  C
  C286     1.0000 0.01933  0.38351  0.35580  Biso   1.000  C
  C287     1.0000 0.85314  0.48211  0.61391  Biso   1.000  C
  C288     1.0000 0.10866  0.63949  0.51381  Biso   1.000  C
  C289     1.0000 0.35673  0.84872  0.51106  Biso   1.000  C
  C290     1.0000 0.50004  0.33014  0.88659  Biso   1.000  C
  C291     1.0000 0.88356  0.49525  0.35541  Biso   1.000  C
  C292     1.0000 0.85315  0.85086  0.02672  Biso   1.000  C
  C293     1.0000 0.00356  0.33002  0.64210  Biso   1.000  C
  C294     1.0000 0.38634  0.48343  0.17593  Biso   1.000  C
  C295     1.0000 0.16998  0.35396  0.51792  Biso   1.000  C
  C296     1.0000 0.02825  0.83050  0.88001  Biso   1.000  C
  C297     1.0000 0.64600  0.96860  0.36255  Biso   1.000  C
  C298     1.0000 0.65975  0.35308  0.00102  Biso   1.000  C
  C299     1.0000 0.51463  0.82555  0.63992  Biso   1.000  C
  C300     1.0000 0.14268  0.99939  0.16862  Biso   1.000  C
  C301     1.0000 0.67078  0.11728  0.52262  Biso   1.000  C
  C302     1.0000 0.51451  0.63746  0.14410  Biso   1.000  C
  C303     1.0000 0.13992  0.49303  0.66319  Biso   1.000  C
  C304     1.0000 0.15771  0.12674  0.01377  Biso   1.000  C
  C305     1.0000 0.02339  0.63934  0.37950  Biso   1.000  C
  C306     1.0000 0.63461  0.48808  0.85318  Biso   1.000  C
  C307     1.0000 0.85264  0.61503  0.51819  Biso   1.000  C
  C308     1.0000 0.00378  0.13641  0.14180  Biso   1.000  C
  C309     1.0000 0.37728  0.98600  0.66885  Biso   1.000  C
  C310     1.0000 0.35431  0.62593  0.00705  Biso   1.000  C
  C311     1.0000 0.52565  0.13809  0.38828  Biso   1.000  C
  C312     1.0000 0.87365  0.97061  0.86451  Biso   1.000  C
  C313     1.0000 0.16808  0.46581  0.37706  Biso   1.000  C
  C314     1.0000 0.38107  0.13892  0.51161  Biso   1.000  C
  C315     1.0000 0.53082  0.35177  0.17562  Biso   1.000  C
  C316     1.0000 0.67298  0.49483  0.14537  Biso   1.000  C
  C317     1.0000 0.86891  0.13741  0.00671  Biso   1.000  C
  C318     1.0000 0.01952  0.35228  0.35453  Biso   1.000  C
  C319     1.0000 0.35745  0.99019  0.37727  Biso   1.000  C
  C320     1.0000 0.13951  0.64244  0.51054  Biso   1.000  C
  C321     1.0000 0.02799  0.84897  0.16753  Biso   1.000  C
  C322     1.0000 0.86069  0.98692  0.15546  Biso   1.000  C
  C323     1.0000 0.64499  0.63795  0.01083  Biso   1.000  C
  C324     1.0000 0.49629  0.85063  0.35264  Biso   1.000  C
  C325     1.0000 0.85186  0.48392  0.64610  Biso   1.000  C
  C326     1.0000 0.64243  0.82875  0.51578  Biso   1.000  C
  C327     1.0000 0.50423  0.61578  0.85593  Biso   1.000  C
  C328     1.0000 0.35031  0.49737  0.88559  Biso   1.000  C
  C329     1.0000 0.14426  0.83617  0.01098  Biso   1.000  C
  C330     1.0000 0.01667  0.61538  0.66594  Biso   1.000  C
  C331     1.0000 0.66557  0.99314  0.65204  Biso   1.000  C
  C332     1.0000 0.88550  0.32451  0.51684  Biso   1.000  C
  C333     1.0000 0.00153  0.11831  0.85417  Biso   1.000  C
  C334     1.0000 0.16173  0.00079  0.87540  Biso   1.000  C
  C335     1.0000 0.37496  0.33128  0.03472  Biso   1.000  C
  C336     1.0000 0.51308  0.11203  0.67188  Biso   1.000  C
  C337     1.0000 0.65614  0.48782  0.87494  Biso   1.000  C
  C338     1.0000 0.87254  0.63766  0.51973  Biso   1.000  C
  C339     1.0000 0.51343  0.84762  0.66181  Biso   1.000  C
  C340     1.0000 0.16132  0.49620  0.64237  Biso   1.000  C
  C341     1.0000 0.37713  0.64635  0.00236  Biso   1.000  C
  C342     1.0000 0.02856  0.85159  0.85731  Biso   1.000  C
  C343     1.0000 0.85322  0.97194  0.88660  Biso   1.000  C
  C344     1.0000 0.64918  0.13889  0.52513  Biso   1.000  C
  C345     1.0000 0.00198  0.35196  0.66305  Biso   1.000  C
  C346     1.0000 0.35627  0.98418  0.64631  Biso   1.000  C
  C347     1.0000 0.13533  0.14810  0.01419  Biso   1.000  C
  C348     1.0000 0.50024  0.35135  0.86305  Biso   1.000  C
  C349     1.0000 0.36502  0.48309  0.15429  Biso   1.000  C
  C350     1.0000 0.15067  0.33145  0.51328  Biso   1.000  C
  C351     1.0000 0.52317  0.11778  0.36528  Biso   1.000  C
  C352     1.0000 0.86189  0.49281  0.37623  Biso   1.000  C
  C353     1.0000 0.63767  0.33219  0.00283  Biso   1.000  C
  C354     1.0000 0.00397  0.11497  0.16345  Biso   1.000  C
  C355     1.0000 0.16441  0.99554  0.14678  Biso   1.000  C
  C356     1.0000 0.37719  0.82657  0.51488  Biso   1.000  C
  C357     1.0000 0.02842  0.61671  0.36003  Biso   1.000  C
  C358     1.0000 0.66727  0.97161  0.38430  Biso   1.000  C
  C359     1.0000 0.87517  0.82834  0.02152  Biso   1.000  C
  C360     1.0000 0.51188  0.61654  0.16616  Biso   1.000  C
  C361     1.0000 0.00102  0.14069  0.87569  Biso   1.000  C
  C362     1.0000 0.88253  0.98075  0.17641  Biso   1.000  C
  C363     1.0000 0.16426  0.85790  0.01364  Biso   1.000  C
  C364     1.0000 0.51252  0.13435  0.65142  Biso   1.000  C
  C365     1.0000 0.37903  0.99118  0.35522  Biso   1.000  C
  C366     1.0000 0.66424  0.85086  0.51979  Biso   1.000  C
  C367     1.0000 0.50721  0.63784  0.87607  Biso   1.000  C
  C368     1.0000 0.65123  0.49941  0.16680  Biso   1.000  C
  C369     1.0000 0.35461  0.35299  0.03007  Biso   1.000  C
  C370     1.0000 0.01280  0.63897  0.64593  Biso   1.000  C
  C371     1.0000 0.14680  0.46656  0.35386  Biso   1.000  C
  C372     1.0000 0.86410  0.34609  0.51377  Biso   1.000  C
  C373     1.0000 0.02474  0.82791  0.14615  Biso   1.000  C
  C374     1.0000 0.13971  0.99674  0.85341  Biso   1.000  C
  C375     1.0000 0.84786  0.11510  0.00883  Biso   1.000  C
  C376     1.0000 0.49695  0.82915  0.37220  Biso   1.000  C
  C377     1.0000 0.64380  0.98949  0.67388  Biso   1.000  C
  C378     1.0000 0.35969  0.11667  0.51021  Biso   1.000  C
  C379     1.0000 0.52755  0.32956  0.15434  Biso   1.000  C
  C380     1.0000 0.37043  0.49786  0.86295  Biso   1.000  C
  C381     1.0000 0.66570  0.61639  0.00896  Biso   1.000  C
  C382     1.0000 0.01933  0.33027  0.37646  Biso   1.000  C
  C383     1.0000 0.87460  0.48658  0.66805  Biso   1.000  C
  C384     1.0000 0.16140  0.62137  0.50838  Biso   1.000  C
  C385     1.0000 0.18282  0.14235  0.01583  Biso   1.000  C
  C386     1.0000 0.00620  0.16311  0.15655  Biso   1.000  C
  C387     1.0000 0.15975  0.99900  0.19582  Biso   1.000  C
  C388     1.0000 0.69730  0.13275  0.52338  Biso   1.000  C
  C389     1.0000 0.53090  0.16587  0.37319  Biso   1.000  C
  C390     1.0000 0.66134  0.96293  0.33612  Biso   1.000  C
  C391     1.0000 0.32937  0.64342  0.00860  Biso   1.000  C
  C392     1.0000 0.50792  0.66396  0.15914  Biso   1.000  C
  C393     1.0000 0.37057  0.47864  0.20265  Biso   1.000  C
  C394     1.0000 0.82488  0.63070  0.51759  Biso   1.000  C
  C395     1.0000 0.02475  0.66627  0.36402  Biso   1.000  C
  C396     1.0000 0.86927  0.49638  0.32678  Biso   1.000  C
  C397     1.0000 0.82663  0.83361  0.02590  Biso   1.000  C
  C398     1.0000 0.02951  0.80375  0.86425  Biso   1.000  C
  C399     1.0000 0.85693  0.96974  0.83769  Biso   1.000  C
  C400     1.0000 0.32988  0.83358  0.50808  Biso   1.000  C
  C401     1.0000 0.51748  0.79954  0.65652  Biso   1.000  C
  C402     1.0000 0.36112  0.98965  0.69614  Biso   1.000  C
  C403     1.0000 0.68629  0.33740  0.99643  Biso   1.000  C
  C404     1.0000 0.50181  0.30264  0.87052  Biso   1.000  C
  C405     1.0000 0.64986  0.49197  0.82601  Biso   1.000  C
  C406     1.0000 0.19859  0.33944  0.51479  Biso   1.000  C
  C407     1.0000 0.99909  0.30322  0.65872  Biso   1.000  C
  C408     1.0000 0.15450  0.49672  0.68996  Biso   1.000  C
  C409     1.0000 0.15559  0.99717  0.82554  Biso   1.000  C
  C410     1.0000 0.81974  0.12907  0.01514  Biso   1.000  C
  C411     1.0000 0.02408  0.80148  0.16154  Biso   1.000  C
  C412     1.0000 0.65835  0.98706  0.70032  Biso   1.000  C
  C413     1.0000 0.33326  0.13116  0.50800  Biso   1.000  C
  C414     1.0000 0.49326  0.80283  0.35628  Biso   1.000  C
  C415     1.0000 0.35448  0.49887  0.83594  Biso   1.000  C
  C416     1.0000 0.69277  0.63174  0.00772  Biso   1.000  C
  C417     1.0000 0.52885  0.30262  0.17020  Biso   1.000  C
  C418     1.0000 0.85876  0.49015  0.69458  Biso   1.000  C
  C419     1.0000 0.18698  0.63860  0.50316  Biso   1.000  C
  C420     1.0000 0.01707  0.30405  0.36104  Biso   1.000  C
  C421     1.0000 0.86654  0.97440  0.20231  Biso   1.000  C
  C422     1.0000 0.19224  0.84392  0.01326  Biso   1.000  C
  C423     1.0000 0.00166  0.16703  0.85964  Biso   1.000  C
  C424     1.0000 0.36135  0.99410  0.32903  Biso   1.000  C
  C425     1.0000 0.69151  0.83540  0.52015  Biso   1.000  C
  C426     1.0000 0.51130  0.16060  0.66839  Biso   1.000  C
  C427     1.0000 0.66727  0.50530  0.19349  Biso   1.000  C
  C428     1.0000 0.32719  0.33829  0.02642  Biso   1.000  C
  C429     1.0000 0.51500  0.66319  0.85948  Biso   1.000  C
  C430     1.0000 0.16391  0.46386  0.32767  Biso   1.000  C
  C431     1.0000 0.83751  0.33030  0.51529  Biso   1.000  C
  C432     1.0000 0.01491  0.66446  0.66254  Biso   1.000  C
  C433     1.0000 0.00266  0.13401  0.82737  Biso   1.000  C
  C434     1.0000 0.83338  0.98573  0.17271  Biso   1.000  C
  C435     1.0000 0.15985  0.81002  0.00861  Biso   1.000  C
  C436     1.0000 0.51382  0.12588  0.69981  Biso   1.000  C
  C437     1.0000 0.33045  0.99394  0.36368  Biso   1.000  C
  C438     1.0000 0.65850  0.80200  0.51220  Biso   1.000  C
  C439     1.0000 0.50969  0.63002  0.82903  Biso   1.000  C
  C440     1.0000 0.70017  0.49626  0.16099  Biso   1.000  C
  C441     1.0000 0.35957  0.30501  0.03416  Biso   1.000  C
  C442     1.0000 0.02202  0.63016  0.69295  Biso   1.000  C
  C443     1.0000 0.19549  0.46480  0.36186  Biso   1.000  C
  C444     1.0000 0.86995  0.29689  0.52180  Biso   1.000  C
  C445     1.0000 0.02935  0.83290  0.19495  Biso   1.000  C
  C446     1.0000 0.18816  0.00412  0.85896  Biso   1.000  C
  C447     1.0000 0.85222  0.16340  0.01021  Biso   1.000  C
  C448     1.0000 0.49265  0.83622  0.32427  Biso   1.000  C
  C449     1.0000 0.69207  0.99483  0.66927  Biso   1.000  C
  C450     1.0000 0.36433  0.16527  0.50991  Biso   1.000  C
  C451     1.0000 0.53504  0.33515  0.20207  Biso   1.000  C
  C452     1.0000 0.32366  0.49992  0.87005  Biso   1.000  C
  C453     1.0000 0.65953  0.66429  0.01171  Biso   1.000  C
  C454     1.0000 0.01806  0.33666  0.32682  Biso   1.000  C
  C455     1.0000 0.82500  0.48485  0.66262  Biso   1.000  C
  C456     1.0000 0.15232  0.67102  0.50746  Biso   1.000  C
  C457     1.0000 0.03187  0.63208  0.33229  Biso   1.000  C
  C458     1.0000 0.32926  0.98581  0.66142  Biso   1.000  C
  C459     1.0000 0.65214  0.30410  0.00125  Biso   1.000  C
  C460     1.0000 0.50018  0.63156  0.19202  Biso   1.000  C
  C461     1.0000 0.82519  0.97154  0.87266  Biso   1.000  C
  C462     1.0000 0.16759  0.30523  0.50983  Biso   1.000  C
  C463     1.0000 0.52578  0.13411  0.33998  Biso   1.000  C
  C464     1.0000 0.18691  0.50291  0.65955  Biso   1.000  C
  C465     1.0000 0.86029  0.80218  0.02102  Biso   1.000  C
  C466     1.0000 0.00864  0.13129  0.19031  Biso   1.000  C
  C467     1.0000 0.68293  0.49135  0.85790  Biso   1.000  C
  C468     1.0000 0.36147  0.79963  0.51168  Biso   1.000  C
  C469     1.0000 0.99668  0.33749  0.68953  Biso   1.000  C
  C470     1.0000 0.69386  0.97053  0.36913  Biso   1.000  C
  C471     1.0000 0.36350  0.67474  0.00232  Biso   1.000  C
  C472     1.0000 0.50312  0.33449  0.83731  Biso   1.000  C
  C473     1.0000 0.19137  0.99396  0.16247  Biso   1.000  C
  C474     1.0000 0.85710  0.66474  0.52119  Biso   1.000  C
  C475     1.0000 0.51521  0.83159  0.68914  Biso   1.000  C
  C476     1.0000 0.83559  0.49017  0.35962  Biso   1.000  C
  C477     1.0000 0.15029  0.17445  0.01735  Biso   1.000  C
  C478     1.0000 0.03121  0.83564  0.83099  Biso   1.000  C
  C479     1.0000 0.33905  0.48092  0.16882  Biso   1.000  C
  C480     1.0000 0.66471  0.16578  0.52899  Biso   1.000  C
  C481     1.0000 0.37755  0.77256  0.51223  Biso   1.000  C
  C482     1.0000 0.50458  0.34858  0.80978  Biso   1.000  C
  C483     1.0000 0.80885  0.48453  0.37434  Biso   1.000  C
  C484     1.0000 0.87772  0.77563  0.01610  Biso   1.000  C
  C485     1.0000 0.99384  0.35199  0.71693  Biso   1.000  C
  C486     1.0000 0.31171  0.48166  0.15296  Biso   1.000  C
  C487     1.0000 0.15354  0.27627  0.50582  Biso   1.000  C
  C488     1.0000 0.03329  0.85080  0.80390  Biso   1.000  C
  C489     1.0000 0.72124  0.97654  0.38557  Biso   1.000  C
  C490     1.0000 0.63632  0.27672  0.00122  Biso   1.000  C
  C491     1.0000 0.51247  0.84500  0.71684  Biso   1.000  C
  C492     1.0000 0.21825  0.99148  0.14589  Biso   1.000  C
  C493     1.0000 0.65024  0.19268  0.53416  Biso   1.000  C
  C494     1.0000 0.49336  0.61487  0.21885  Biso   1.000  C
  C495     1.0000 0.21392  0.50853  0.64470  Biso   1.000  C
  C496     1.0000 0.13095  0.20033  0.02008  Biso   1.000  C
  C497     1.0000 0.03743  0.61439  0.30699  Biso   1.000  C
  C498     1.0000 0.71020  0.49038  0.87338  Biso   1.000  C
  C499     1.0000 0.87305  0.69291  0.52475  Biso   1.000  C
  C500     1.0000 0.01328  0.11677  0.21700  Biso   1.000  C
  C501     1.0000 0.30325  0.98065  0.64575  Biso   1.000  C
  C502     1.0000 0.38047  0.70107  0.99827  Biso   1.000  C
  C503     1.0000 0.51922  0.12046  0.31254  Biso   1.000  C
  C504     1.0000 0.79858  0.97177  0.89093  Biso   1.000  C
  C505     1.0000 0.63284  0.49256  0.79928  Biso   1.000  C
  C506     1.0000 0.79915  0.61242  0.51278  Biso   1.000  C
  C507     1.0000 0.52161  0.77214  0.64265  Biso   1.000  C
  C508     1.0000 0.13791  0.49326  0.71693  Biso   1.000  C
  C509     1.0000 0.30099  0.62702  0.01051  Biso   1.000  C
  C510     1.0000 0.02462  0.77642  0.87956  Biso   1.000  C
  C511     1.0000 0.87179  0.96567  0.81020  Biso   1.000  C
  C512     1.0000 0.72491  0.11690  0.51717  Biso   1.000  C
  C513     1.0000 0.00103  0.27551  0.64347  Biso   1.000  C
  C514     1.0000 0.37774  0.99242  0.72356  Biso   1.000  C
  C515     1.0000 0.21066  0.12825  0.01220  Biso   1.000  C
  C516     1.0000 0.50460  0.27489  0.88687  Biso   1.000  C
  C517     1.0000 0.38755  0.47462  0.22904  Biso   1.000  C
  C518     1.0000 0.22504  0.35650  0.51355  Biso   1.000  C
  C519     1.0000 0.53702  0.19164  0.39052  Biso   1.000  C
  C520     1.0000 0.88624  0.50274  0.30130  Biso   1.000  C
  C521     1.0000 0.71400  0.35365  0.99077  Biso   1.000  C
  C522     1.0000 0.00518  0.18994  0.13995  Biso   1.000  C
  C523     1.0000 0.14405  0.99972  0.22406  Biso   1.000  C
  C524     1.0000 0.30314  0.84983  0.50806  Biso   1.000  C
  C525     1.0000 0.01804  0.69268  0.37961  Biso   1.000  C
  C526     1.0000 0.64589  0.95749  0.30901  Biso   1.000  C
  C527     1.0000 0.79920  0.85107  0.02643  Biso   1.000  C
  C528     1.0000 0.50823  0.69017  0.14188  Biso   1.000  C
  C529     1.0000 0.79412  0.11188  0.01996  Biso   1.000  C
  C530     1.0000 0.01860  0.77523  0.14501  Biso   1.000  C
  C531     1.0000 0.13922  0.99240  0.79890  Biso   1.000  C
  C532     1.0000 0.30626  0.11423  0.50835  Biso   1.000  C
  C533     1.0000 0.49308  0.77484  0.37351  Biso   1.000  C
  C534     1.0000 0.64159  0.97723  0.72554  Biso   1.000  C
  C535     1.0000 0.72033  0.61750  0.00314  Biso   1.000  C
  C536     1.0000 0.52461  0.27596  0.15304  Biso   1.000  C
  C537     1.0000 0.36976  0.49467  0.80808  Biso   1.000  C
  C538     1.0000 0.21335  0.62175  0.49870  Biso   1.000  C
  C539     1.0000 0.01756  0.27557  0.37664  Biso   1.000  C
  C540     1.0000 0.87514  0.49660  0.72165  Biso   1.000  C
  C541     1.0000 0.21803  0.86220  0.01885  Biso   1.000  C
  C542     1.0000 0.99723  0.19450  0.87511  Biso   1.000  C
  C543     1.0000 0.88518  0.96432  0.22758  Biso   1.000  C
  C544     1.0000 0.71960  0.85131  0.52240  Biso   1.000  C
  C545     1.0000 0.50723  0.18850  0.65319  Biso   1.000  C
  C546     1.0000 0.37491  0.99332  0.30119  Biso   1.000  C
  C547     1.0000 0.29973  0.35503  0.02160  Biso   1.000  C
  C548     1.0000 0.51809  0.69177  0.87355  Biso   1.000  C
  C549     1.0000 0.65220  0.51448  0.21984  Biso   1.000  C
  C550     1.0000 0.81093  0.34497  0.50941  Biso   1.000  C
  C551     1.0000 0.01388  0.69318  0.64899  Biso   1.000  C
  C552     1.0000 0.14957  0.46182  0.29860  Biso   1.000  C
  C553     1.0000 0.00265  0.11676  0.79979  Biso   1.000  C
  C554     1.0000 0.80597  0.99367  0.15765  Biso   1.000  C
  C555     1.0000 0.14441  0.78300  0.00474  Biso   1.000  C
  C556     1.0000 0.51351  0.10844  0.72766  Biso   1.000  C
  C557     1.0000 0.30414  0.99703  0.38079  Biso   1.000  C
  C558     1.0000 0.64317  0.77582  0.50705  Biso   1.000  C
  C559     1.0000 0.50940  0.61299  0.80300  Biso   1.000  C
  C560     1.0000 0.72619  0.48931  0.14409  Biso   1.000  C
  C561     1.0000 0.37435  0.27623  0.03564  Biso   1.000  C
  C562     1.0000 0.02551  0.61420  0.71969  Biso   1.000  C
  C563     1.0000 0.22210  0.46444  0.37828  Biso   1.000  C
  C564     1.0000 0.88805  0.27048  0.52806  Biso   1.000  C
  C565     1.0000 0.03347  0.84909  0.22176  Biso   1.000  C
  C566     1.0000 0.21599  0.00257  0.87606  Biso   1.000  C
  C567     1.0000 0.86538  0.19185  0.00533  Biso   1.000  C
  C568     1.0000 0.49459  0.85235  0.29766  Biso   1.000  C
  C569     1.0000 0.71840  0.00299  0.65261  Biso   1.000  C
  C570     1.0000 0.37938  0.19256  0.50567  Biso   1.000  C
  C571     1.0000 0.54420  0.34967  0.22742  Biso   1.000  C
  C572     1.0000 0.29686  0.50241  0.88647  Biso   1.000  C
  C573     1.0000 0.64365  0.69205  0.01337  Biso   1.000  C
  C574     1.0000 0.01935  0.35192  0.29910  Biso   1.000  C
  C575     1.0000 0.79673  0.47977  0.64524  Biso   1.000  C
  C576     1.0000 0.13560  0.69697  0.50830  Biso   1.000  C
  C577     1.0000 0.30887  0.48474  0.12143  Biso   1.000  C
  C578     1.0000 0.12225  0.27635  0.50624  Biso   1.000  C
  C579     1.0000 0.51492  0.08959  0.31254  Biso   1.000  C
  C580     1.0000 0.81100  0.48023  0.40631  Biso   1.000  C
  C581     1.0000 0.60584  0.27604  0.00532  Biso   1.000  C
  C582     1.0000 0.01276  0.08476  0.21782  Biso   1.000  C
  C583     1.0000 0.21611  0.98885  0.11480  Biso   1.000  C
  C584     1.0000 0.40811  0.77238  0.51693  Biso   1.000  C
  C585     1.0000 0.04170  0.58427  0.31097  Biso   1.000  C
  C586     1.0000 0.71809  0.97841  0.41642  Biso   1.000  C
  C587     1.0000 0.90912  0.77511  0.01737  Biso   1.000  C
  C588     1.0000 0.50079  0.58373  0.21957  Biso   1.000  C
  C589     1.0000 0.71129  0.48591  0.90438  Biso   1.000  C
  C590     1.0000 0.90436  0.68999  0.52504  Biso   1.000  C
  C591     1.0000 0.51069  0.87735  0.71602  Biso   1.000  C
  C592     1.0000 0.21479  0.50464  0.61305  Biso   1.000  C
  C593     1.0000 0.41126  0.69581  0.99528  Biso   1.000  C
  C594     1.0000 0.03018  0.88116  0.80246  Biso   1.000  C
  C595     1.0000 0.80045  0.97324  0.92284  Biso   1.000  C
  C596     1.0000 0.61819  0.19300  0.53377  Biso   1.000  C
  C597     1.0000 0.99539  0.38383  0.71767  Biso   1.000  C
  C598     1.0000 0.30565  0.97877  0.61461  Biso   1.000  C
  C599     1.0000 0.09972  0.19717  0.01773  Biso   1.000  C
  C600     1.0000 0.50402  0.38010  0.80962  Biso   1.000  C
  C601     1.0000 0.21511  0.00165  0.90800  Biso   1.000  C
  C602     1.0000 0.89715  0.19253  0.00494  Biso   1.000  C
  C603     1.0000 0.03453  0.88044  0.22174  Biso   1.000  C
  C604     1.0000 0.71835  0.00368  0.62184  Biso   1.000  C
  C605     1.0000 0.41158  0.19041  0.50445  Biso   1.000  C
  C606     1.0000 0.49892  0.88439  0.29878  Biso   1.000  C
  C607     1.0000 0.29882  0.49871  0.91851  Biso   1.000  C
  C608     1.0000 0.61247  0.69065  0.01423  Biso   1.000  C
  C609     1.0000 0.54616  0.38059  0.22705  Biso   1.000  C
  C610     1.0000 0.79900  0.47759  0.61383  Biso   1.000  C
  C611     1.0000 0.10544  0.69492  0.51323  Biso   1.000  C
  C612     1.0000 0.02154  0.38447  0.30137  Biso   1.000  C
  C613     1.0000 0.80585  0.99728  0.12581  Biso   1.000  C
  C614     1.0000 0.11342  0.78437  0.00488  Biso   1.000  C
  C615     1.0000 0.00230  0.08413  0.79923  Biso   1.000  C
  C616     1.0000 0.30504  0.99688  0.41273  Biso   1.000  C
  C617     1.0000 0.61212  0.77484  0.50542  Biso   1.000  C
  C618     1.0000 0.51452  0.07676  0.72559  Biso   1.000  C
  C619     1.0000 0.72272  0.48365  0.11284  Biso   1.000  C
  C620     1.0000 0.40532  0.27474  0.03786  Biso   1.000  C
  C621     1.0000 0.50441  0.58238  0.80367  Biso   1.000  C
  C622     1.0000 0.21964  0.46430  0.41010  Biso   1.000  C
  C623     1.0000 0.91998  0.27312  0.52642  Biso   1.000  C
  C624     1.0000 0.02709  0.58294  0.71770  Biso   1.000  C
  C625     1.0000 0.99345  0.19583  0.90579  Biso   1.000  C
  C626     1.0000 0.91701  0.96123  0.22377  Biso   1.000  C
  C627     1.0000 0.21516  0.89379  0.01981  Biso   1.000  C
  C628     1.0000 0.50667  0.19033  0.62150  Biso   1.000  C
  C629     1.0000 0.40697  0.99474  0.30080  Biso   1.000  C
  C630     1.0000 0.71944  0.88192  0.52693  Biso   1.000  C
  C631     1.0000 0.51533  0.69429  0.90508  Biso   1.000  C
  C632     1.0000 0.62049  0.51154  0.21977  Biso   1.000  C
  C633     1.0000 0.30028  0.38593  0.02097  Biso   1.000  C
  C634     1.0000 0.00892  0.69608  0.61770  Biso   1.000  C
  C635     1.0000 0.11802  0.46574  0.29890  Biso   1.000  C
  C636     1.0000 0.81216  0.37604  0.50699  Biso   1.000  C
  C637     1.0000 0.01581  0.77458  0.11346  Biso   1.000  C
  C638     1.0000 0.10766  0.99043  0.80022  Biso   1.000  C
  C639     1.0000 0.79646  0.08070  0.01974  Biso   1.000  C
  C640     1.0000 0.49745  0.77364  0.40524  Biso   1.000  C
  C641     1.0000 0.61059  0.97578  0.72293  Biso   1.000  C
  C642     1.0000 0.30666  0.08427  0.51107  Biso   1.000  C
  C643     1.0000 0.52043  0.27753  0.12223  Biso   1.000  C
  C644     1.0000 0.40148  0.49084  0.80789  Biso   1.000  C
  C645     1.0000 0.72143  0.58588  0.00324  Biso   1.000  C
  C646     1.0000 0.01862  0.27649  0.40846  Biso   1.000  C
  C647     1.0000 0.90731  0.49321  0.72180  Biso   1.000  C
  C648     1.0000 0.21389  0.59005  0.49772  Biso   1.000  C
  C649     1.0000 0.01411  0.69176  0.41062  Biso   1.000  C
  C650     1.0000 0.40975  0.99081  0.72356  Biso   1.000  C
  C651     1.0000 0.71252  0.38577  0.99123  Biso   1.000  C
  C652     1.0000 0.51462  0.68677  0.11130  Biso   1.000  C
  C653     1.0000 0.90337  0.96645  0.80877  Biso   1.000  C
  C654     1.0000 0.22357  0.38706  0.51729  Biso   1.000  C
  C655     1.0000 0.53717  0.18979  0.42174  Biso   1.000  C
  C656     1.0000 0.10700  0.48407  0.71565  Biso   1.000  C
  C657     1.0000 0.80180  0.88249  0.03093  Biso   1.000  C
  C658     1.0000 0.00200  0.18973  0.10847  Biso   1.000  C
  C659     1.0000 0.60151  0.48749  0.80015  Biso   1.000  C
  C660     1.0000 0.30568  0.88163  0.50972  Biso   1.000  C
  C661     1.0000 0.00455  0.27486  0.61306  Biso   1.000  C
  C662     1.0000 0.61404  0.95956  0.30938  Biso   1.000  C
  C663     1.0000 0.29965  0.59449  0.01647  Biso   1.000  C
  C664     1.0000 0.50128  0.27511  0.91930  Biso   1.000  C
  C665     1.0000 0.11300  0.99917  0.22464  Biso   1.000  C
  C666     1.0000 0.80238  0.58228  0.50654  Biso   1.000  C
  C667     1.0000 0.52069  0.77245  0.61080  Biso   1.000  C
  C668     1.0000 0.91723  0.50158  0.30326  Biso   1.000  C
  C669     1.0000 0.21191  0.09628  0.00974  Biso   1.000  C
  C670     1.0000 0.02010  0.77730  0.91119  Biso   1.000  C
  C671     1.0000 0.41883  0.47356  0.22753  Biso   1.000  C
  C672     1.0000 0.72518  0.08552  0.51279  Biso   1.000  C
  C673     1.0000 0.20323  0.00185  0.81138  Biso   1.000  C
  C674     1.0000 0.80429  0.17591  0.01463  Biso   1.000  C
  C675     1.0000 0.02621  0.78551  0.20703  Biso   1.000  C
  C676     1.0000 0.70473  0.98700  0.71514  Biso   1.000  C
  C677     1.0000 0.31902  0.17847  0.50643  Biso   1.000  C
  C678     1.0000 0.48999  0.78727  0.31021  Biso   1.000  C
  C679     1.0000 0.30850  0.50252  0.82163  Biso   1.000  C
  C680     1.0000 0.70614  0.67777  0.00912  Biso   1.000  C
  C681     1.0000 0.53530  0.28937  0.21743  Biso   1.000  C
  C682     1.0000 0.81077  0.49046  0.70786  Biso   1.000  C
  C683     1.0000 0.19959  0.68534  0.50565  Biso   1.000  C
  C684     1.0000 0.01650  0.28955  0.31513  Biso   1.000  C
  C685     1.0000 0.82029  0.97446  0.21825  Biso   1.000  C
  C686     1.0000 0.20737  0.79712  0.00696  Biso   1.000  C
  C687     1.0000 0.00137  0.17961  0.81108  Biso   1.000  C
  C688     1.0000 0.31221  0.99622  0.31941  Biso   1.000  C
  C689     1.0000 0.70562  0.78940  0.51353  Biso   1.000  C
  C690     1.0000 0.51067  0.17316  0.71617  Biso   1.000  C
  C691     1.0000 0.71545  0.50114  0.20882  Biso   1.000  C
  C692     1.0000 0.31100  0.29376  0.02752  Biso   1.000  C
  C693     1.0000 0.51739  0.67509  0.81256  Biso   1.000  C
  C694     1.0000 0.21113  0.46131  0.31600  Biso   1.000  C
  C695     1.0000 0.82319  0.28287  0.52594  Biso   1.000  C
  C696     1.0000 0.02070  0.67578  0.70937  Biso   1.000  C
  C697     1.0000 0.70876  0.96588  0.32311  Biso   1.000  C
  C698     1.0000 0.31780  0.68996  0.00202  Biso   1.000  C
  C699     1.0000 0.99403  0.29131  0.70622  Biso   1.000  C
  C700     1.0000 0.20777  0.99666  0.20811  Biso   1.000  C
  C701     1.0000 0.81083  0.67653  0.51885  Biso   1.000  C
  C702     1.0000 0.50503  0.28602  0.82317  Biso   1.000  C
  C703     1.0000 0.82215  0.48987  0.31369  Biso   1.000  C
  C704     1.0000 0.19683  0.18996  0.02325  Biso   1.000  C
  C705     1.0000 0.51873  0.78442  0.70257  Biso   1.000  C
  C706     1.0000 0.32347  0.46980  0.21399  Biso   1.000  C
  C707     1.0000 0.71302  0.17696  0.52639  Biso   1.000  C
  C708     1.0000 0.03016  0.78695  0.81847  Biso   1.000  C
  C709     1.0000 0.31130  0.99048  0.70426  Biso   1.000  C
  C710     1.0000 0.70004  0.29119  0.99890  Biso   1.000  C
  C711     1.0000 0.02740  0.67860  0.31696  Biso   1.000  C
  C712     1.0000 0.81095  0.97534  0.82378  Biso   1.000  C
  C713     1.0000 0.21381  0.29380  0.50688  Biso   1.000  C
  C714     1.0000 0.49177  0.67874  0.20279  Biso   1.000  C
  C715     1.0000 0.19883  0.50257  0.70919  Biso   1.000  C
  C716     1.0000 0.81321  0.78706  0.02221  Biso   1.000  C
  C717     1.0000 0.53580  0.18023  0.32726  Biso   1.000  C
  C718     1.0000 0.69555  0.49672  0.81078  Biso   1.000  C
  C719     1.0000 0.31449  0.78732  0.50922  Biso   1.000  C
  C720     1.0000 0.01046  0.17913  0.20341  Biso   1.000  C
  C721     1.0000 0.46923  0.79061  0.28514  Biso   1.000  C
  C722     1.0000 0.31312  0.51606  0.79289  Biso   1.000  C
  C723     1.0000 0.79419  0.28991  0.53551  Biso   1.000  C
  C724     1.0000 0.04040  0.75776  0.20229  Biso   1.000  C
  C725     1.0000 0.78317  0.50497  0.69763  Biso   1.000  C
  C726     1.0000 0.28742  0.29518  0.00619  Biso   1.000  C
  C727     1.0000 0.99919  0.26294  0.31746  Biso   1.000  C
  C728     1.0000 0.22869  0.02068  0.81109  Biso   1.000  C
  C729     1.0000 0.73150  0.79138  0.53178  Biso   1.000  C
  C730     1.0000 0.52724  0.29504  0.24774  Biso   1.000  C
  C731     1.0000 0.73372  0.97486  0.70996  Biso   1.000  C
  C732     1.0000 0.23464  0.80304  0.99153  Biso   1.000  C
  C733     1.0000 0.49526  0.16974  0.74307  Biso   1.000  C
  C734     1.0000 0.70848  0.49351  0.23897  Biso   1.000  C
  C735     1.0000 0.19464  0.71499  0.49358  Biso   1.000  C
  C736     1.0000 0.01909  0.20545  0.81523  Biso   1.000  C
  C737     1.0000 0.23690  0.44467  0.32192  Biso   1.000  C
  C738     1.0000 0.72884  0.67431  0.03043  Biso   1.000  C
  C739     1.0000 0.04221  0.67532  0.73234  Biso   1.000  C
  C740     1.0000 0.79169  0.96135  0.21219  Biso   1.000  C
  C741     1.0000 0.29414  0.17774  0.48582  Biso   1.000  C
  C742     1.0000 0.50027  0.67371  0.78653  Biso   1.000  C
  C743     1.0000 0.28693  0.97697  0.32386  Biso   1.000  C
  C744     1.0000 0.81055  0.20459  0.02845  Biso   1.000  C
  C745     1.0000 0.04015  0.70700  0.32007  Biso   1.000  C
  C746     1.0000 0.28723  0.01106  0.69886  Biso   1.000  C
  C747     1.0000 0.72730  0.29601  0.01496  Biso   1.000  C
  C748     1.0000 0.51294  0.70405  0.20358  Biso   1.000  C
  C749     1.0000 0.78217  0.96281  0.82608  Biso   1.000  C
  C750     1.0000 0.23874  0.29501  0.52548  Biso   1.000  C
  C751     1.0000 0.54831  0.17476  0.29858  Biso   1.000  C
  C752     1.0000 0.19716  0.48236  0.73404  Biso   1.000  C
  C753     1.0000 0.78728  0.79032  0.00528  Biso   1.000  C
  C754     1.0000 0.02580  0.20660  0.19868  Biso   1.000  C
  C755     1.0000 0.69296  0.48332  0.78233  Biso   1.000  C
  C756     1.0000 0.31198  0.76647  0.53418  Biso   1.000  C
  C757     1.0000 0.97869  0.26528  0.70220  Biso   1.000  C
  C758     1.0000 0.70740  0.98105  0.29566  Biso   1.000  C
  C759     1.0000 0.29484  0.69140  0.02482  Biso   1.000  C
  C760     1.0000 0.52177  0.28911  0.79640  Biso   1.000  C
  C761     1.0000 0.23020  0.97489  0.20891  Biso   1.000  C
  C762     1.0000 0.81591  0.70474  0.50550  Biso   1.000  C
  C763     1.0000 0.50179  0.75819  0.69997  Biso   1.000  C
  C764     1.0000 0.79453  0.50511  0.31864  Biso   1.000  C
  C765     1.0000 0.22325  0.18467  0.03872  Biso   1.000  C
  C766     1.0000 0.01429  0.78992  0.79175  Biso   1.000  C
  C767     1.0000 0.32590  0.47876  0.24482  Biso   1.000  C
  C768     1.0000 0.70984  0.20574  0.51316  Biso   1.000  C
  C769     1.0000 0.53818  0.69865  0.81418  Biso   1.000  C
  C770     1.0000 0.81343  0.48093  0.73692  Biso   1.000  C
  C771     1.0000 0.70237  0.76392  0.49314  Biso   1.000  C
  C772     1.0000 0.99818  0.70110  0.71072  Biso   1.000  C
  C773     1.0000 0.28055  0.48845  0.82630  Biso   1.000  C
  C774     1.0000 0.20225  0.76793  0.01866  Biso   1.000  C
  C775     1.0000 0.98593  0.17613  0.78331  Biso   1.000  C
  C776     1.0000 0.69829  0.99911  0.74448  Biso   1.000  C
  C777     1.0000 0.82896  0.25156  0.51792  Biso   1.000  C
  C778     1.0000 0.52771  0.19929  0.71232  Biso   1.000  C
  C779     1.0000 0.20093  0.98477  0.78578  Biso   1.000  C
  C780     1.0000 0.30944  0.27083  0.04793  Biso   1.000  C
  C781     1.0000 0.54620  0.26012  0.21042  Biso   1.000  C
  C782     1.0000 0.20949  0.47547  0.28688  Biso   1.000  C
  C783     1.0000 0.32096  0.20377  0.52412  Biso   1.000  C
  C784     1.0000 0.03382  0.29088  0.28903  Biso   1.000  C
  C785     1.0000 0.74634  0.50386  0.20115  Biso   1.000  C
  C786     1.0000 0.77816  0.17236  0.99981  Biso   1.000  C
  C787     1.0000 0.00941  0.78969  0.23387  Biso   1.000  C
  C788     1.0000 0.31346  0.01329  0.29378  Biso   1.000  C
  C789     1.0000 0.22623  0.67884  0.52154  Biso   1.000  C
  C790     1.0000 0.50788  0.75860  0.31287  Biso   1.000  C
  C791     1.0000 0.82640  0.98102  0.24889  Biso   1.000  C
  C792     1.0000 0.70575  0.70268  0.98986  Biso   1.000  C
  C793     1.0000 0.52580  0.20963  0.33339  Biso   1.000  C
  C794     1.0000 0.29608  0.45394  0.20599  Biso   1.000  C
  C795     1.0000 0.21176  0.26985  0.48678  Biso   1.000  C
  C796     1.0000 0.99828  0.17543  0.23216  Biso   1.000  C
  C797     1.0000 0.82777  0.47404  0.28778  Biso   1.000  C
  C798     1.0000 0.69680  0.26138  0.98719  Biso   1.000  C
  C799     1.0000 0.01449  0.67255  0.28881  Biso   1.000  C
  C800     1.0000 0.20597  0.01873  0.23118  Biso   1.000  C
  C801     1.0000 0.29241  0.78704  0.48778  Biso   1.000  C
  C802     1.0000 0.47057  0.67725  0.22555  Biso   1.000  C
  C803     1.0000 0.73563  0.95005  0.32868  Biso   1.000  C
  C804     1.0000 0.81725  0.75930  0.03621  Biso   1.000  C
  C805     1.0000 0.53774  0.78637  0.72727  Biso   1.000  C
  C806     1.0000 0.72306  0.51239  0.81441  Biso   1.000  C
  C807     1.0000 0.78108  0.67180  0.52825  Biso   1.000  C
  C808     1.0000 0.04657  0.76069  0.82263  Biso   1.000  C
  C809     1.0000 0.22287  0.52365  0.71052  Biso   1.000  C
  C810     1.0000 0.31980  0.71496  0.98183  Biso   1.000  C
  C811     1.0000 0.01067  0.29587  0.73150  Biso   1.000  C
  C812     1.0000 0.81628  0.99217  0.79834  Biso   1.000  C
  C813     1.0000 0.73989  0.17091  0.54182  Biso   1.000  C
  C814     1.0000 0.49057  0.25784  0.82804  Biso   1.000  C
  C815     1.0000 0.31177  0.97651  0.73305  Biso   1.000  C
  C816     1.0000 0.19496  0.21707  0.00774  Biso   1.000  C
  C817     1.0000 0.01643  0.22800  0.79640  Biso   1.000  C
  C818     1.0000 0.77204  0.95807  0.23336  Biso   1.000  C
  C819     1.0000 0.25480  0.78029  0.98904  Biso   1.000  C
  C820     1.0000 0.49640  0.19085  0.76315  Biso   1.000  C
  C821     1.0000 0.26747  0.97644  0.30028  Biso   1.000  C
  C822     1.0000 0.75095  0.76923  0.53128  Biso   1.000  C
  C823     1.0000 0.50331  0.69404  0.76437  Biso   1.000  C
  C824     1.0000 0.73133  0.48657  0.25790  Biso   1.000  C
  C825     1.0000 0.26686  0.27284  0.00525  Biso   1.000  C
  C826     1.0000 0.04242  0.69607  0.75500  Biso   1.000  C
  C827     1.0000 0.25977  0.44261  0.30267  Biso   1.000  C
  C828     1.0000 0.77388  0.27035  0.53898  Biso   1.000  C
  C829     1.0000 0.03905  0.73566  0.22367  Biso   1.000  C
  C830     1.0000 0.24689  0.02225  0.78787  Biso   1.000  C
  C831     1.0000 0.78992  0.22768  0.02637  Biso   1.000  C
  C832     1.0000 0.46858  0.76905  0.26425  Biso   1.000  C
  C833     1.0000 0.75539  0.97665  0.73138  Biso   1.000  C
  C834     1.0000 0.27287  0.19947  0.48628  Biso   1.000  C
  C835     1.0000 0.52901  0.27374  0.26776  Biso   1.000  C
  C836     1.0000 0.28960  0.51773  0.77424  Biso   1.000  C
  C837     1.0000 0.75168  0.69438  0.03100  Biso   1.000  C
  C838     1.0000 0.99854  0.24260  0.29580  Biso   1.000  C
  C839     1.0000 0.76124  0.50841  0.71826  Biso   1.000  C
  C840     1.0000 0.21594  0.73588  0.49766  Biso   1.000  C
  C841     1.0000 0.21906  0.98762  0.76154  Biso   1.000  C
  C842     1.0000 0.75827  0.19525  0.99928  Biso   1.000  C
  C843     1.0000 0.00926  0.76801  0.25504  Biso   1.000  C
  C844     1.0000 0.71854  0.99735  0.76586  Biso   1.000  C
  C845     1.0000 0.30103  0.22513  0.52337  Biso   1.000  C
  C846     1.0000 0.50343  0.73820  0.29121  Biso   1.000  C
  C847     1.0000 0.25896  0.48823  0.80535  Biso   1.000  C
  C848     1.0000 0.73029  0.72131  0.99101  Biso   1.000  C
  C849     1.0000 0.54836  0.23974  0.23280  Biso   1.000  C
  C850     1.0000 0.79147  0.48729  0.75508  Biso   1.000  C
  C851     1.0000 0.24583  0.70199  0.52560  Biso   1.000  C
  C852     1.0000 0.03371  0.26934  0.26786  Biso   1.000  C
  C853     1.0000 0.80479  0.97722  0.26827  Biso   1.000  C
  C854     1.0000 0.22376  0.74756  0.01624  Biso   1.000  C
  C855     1.0000 0.98931  0.19736  0.76284  Biso   1.000  C
  C856     1.0000 0.29292  0.01175  0.27326  Biso   1.000  C
  C857     1.0000 0.72191  0.74161  0.49456  Biso   1.000  C
  C858     1.0000 0.52611  0.22119  0.73334  Biso   1.000  C
  C859     1.0000 0.76875  0.49868  0.22135  Biso   1.000  C
  C860     1.0000 0.28813  0.24962  0.04697  Biso   1.000  C
  C861     1.0000 0.53978  0.71871  0.79137  Biso   1.000  C
  C862     1.0000 0.23077  0.46971  0.26685  Biso   1.000  C
  C863     1.0000 0.80690  0.23243  0.52163  Biso   1.000  C
  C864     1.0000 0.99890  0.71881  0.73555  Biso   1.000  C
  C865     1.0000 0.71443  0.48519  0.75998  Biso   1.000  C
  C866     1.0000 0.79497  0.72672  0.50471  Biso   1.000  C
  C867     1.0000 0.50482  0.73696  0.72086  Biso   1.000  C
  C868     1.0000 0.21842  0.48319  0.75563  Biso   1.000  C
  C869     1.0000 0.27494  0.71307  0.02547  Biso   1.000  C
  C870     1.0000 0.01197  0.76895  0.77076  Biso   1.000  C
  C871     1.0000 0.76204  0.96856  0.80485  Biso   1.000  C
  C872     1.0000 0.73002  0.22767  0.51663  Biso   1.000  C
  C873     1.0000 0.97999  0.24460  0.72296  Biso   1.000  C
  C874     1.0000 0.26506  0.01489  0.71789  Biso   1.000  C
  C875     1.0000 0.24524  0.20611  0.04084  Biso   1.000  C
  C876     1.0000 0.52511  0.26507  0.77762  Biso   1.000  C
  C877     1.0000 0.30280  0.47346  0.26152  Biso   1.000  C
  C878     1.0000 0.26000  0.27285  0.52435  Biso   1.000  C
  C879     1.0000 0.55374  0.19555  0.27838  Biso   1.000  C
  C880     1.0000 0.77385  0.50214  0.29763  Biso   1.000  C
  C881     1.0000 0.74846  0.27478  0.01873  Biso   1.000  C
  C882     1.0000 0.02783  0.22663  0.22005  Biso   1.000  C
  C883     1.0000 0.25189  0.97707  0.22928  Biso   1.000  C
  C884     1.0000 0.28864  0.74759  0.53428  Biso   1.000  C
  C885     1.0000 0.03764  0.72976  0.29900  Biso   1.000  C
  C886     1.0000 0.72847  0.98003  0.27501  Biso   1.000  C
  C887     1.0000 0.76716  0.76776  0.00446  Biso   1.000  C
  C888     1.0000 0.50956  0.72599  0.22462  Biso   1.000  C
  C889     1.0000 0.75844  0.95027  0.30848  Biso   1.000  C
  C890     1.0000 0.29658  0.73516  0.98199  Biso   1.000  C
  C891     1.0000 0.00911  0.27522  0.75350  Biso   1.000  C
  C892     1.0000 0.22661  0.01754  0.25284  Biso   1.000  C
  C893     1.0000 0.76045  0.69400  0.52557  Biso   1.000  C
  C894     1.0000 0.49329  0.23579  0.80656  Biso   1.000  C
  C895     1.0000 0.80645  0.47359  0.26665  Biso   1.000  C
  C896     1.0000 0.21724  0.23723  0.00954  Biso   1.000  C
  C897     1.0000 0.53697  0.76416  0.74975  Biso   1.000  C
  C898     1.0000 0.27495  0.44641  0.22473  Biso   1.000  C
  C899     1.0000 0.75932  0.19310  0.54392  Biso   1.000  C
  C900     1.0000 0.04299  0.73806  0.80216  Biso   1.000  C
  C901     1.0000 0.29136  0.98418  0.75244  Biso   1.000  C
  C902     1.0000 0.71799  0.24056  0.99043  Biso   1.000  C
  C903     1.0000 0.01342  0.69432  0.26775  Biso   1.000  C
  C904     1.0000 0.79372  0.99799  0.77978  Biso   1.000  C
  C905     1.0000 0.23269  0.24825  0.48638  Biso   1.000  C
  C906     1.0000 0.46837  0.69985  0.24524  Biso   1.000  C
  C907     1.0000 0.24189  0.52398  0.73345  Biso   1.000  C
  C908     1.0000 0.79805  0.73712  0.03331  Biso   1.000  C
  C909     1.0000 0.52729  0.23028  0.31193  Biso   1.000  C
  C910     1.0000 0.74347  0.51360  0.79235  Biso   1.000  C
  C911     1.0000 0.26861  0.76920  0.49031  Biso   1.000  C
  C912     1.0000 0.00128  0.19644  0.25281  Biso   1.000  C
  C913     1.0000 0.76521  0.50002  0.74648  Biso   1.000  C
  C914     1.0000 0.74542  0.74502  0.51371  Biso   1.000  C
  C915     1.0000 0.52283  0.71639  0.76596  Biso   1.000  C
  C916     1.0000 0.26318  0.50290  0.77898  Biso   1.000  C
  C917     1.0000 0.24951  0.75274  0.00109  Biso   1.000  C
  C918     1.0000 0.02188  0.71809  0.75546  Biso   1.000  C
  C919     1.0000 0.74614  0.98749  0.75871  Biso   1.000  C
  C920     1.0000 0.78064  0.24156  0.53266  Biso   1.000  C
  C921     1.0000 0.99839  0.22589  0.77117  Biso   1.000  C
  C922     1.0000 0.24342  0.00418  0.76398  Biso   1.000  C
  C923     1.0000 0.26614  0.25140  0.02689  Biso   1.000  C
  C924     1.0000 0.51097  0.21693  0.75868  Biso   1.000  C
  C925     1.0000 0.25482  0.45343  0.27399  Biso   1.000  C
  C926     1.0000 0.27520  0.22310  0.50494  Biso   1.000  C
  C927     1.0000 0.53948  0.24652  0.26008  Biso   1.000  C
  C928     1.0000 0.75981  0.48872  0.24866  Biso   1.000  C
  C929     1.0000 0.76471  0.22340  0.01156  Biso   1.000  C
  C930     1.0000 0.01515  0.24541  0.27186  Biso   1.000  C
  C931     1.0000 0.26965  0.99421  0.27615  Biso   1.000  C
  C932     1.0000 0.24270  0.72862  0.51196  Biso   1.000  C
  C933     1.0000 0.02290  0.74140  0.24893  Biso   1.000  C
  C934     1.0000 0.77758  0.96786  0.26120  Biso   1.000  C
  C935     1.0000 0.75163  0.71683  0.01216  Biso   1.000  C
  C936     1.0000 0.48476  0.74419  0.26796  Biso   1.000  C
  C937     1.0000 0.74243  0.24696  0.00759  Biso   1.000  C
  C938     1.0000 0.02211  0.72209  0.27380  Biso   1.000  C
  C939     1.0000 0.26811  0.00167  0.74465  Biso   1.000  C
  C940     1.0000 0.25630  0.24836  0.50457  Biso   1.000  C
  C941     1.0000 0.48768  0.72282  0.24472  Biso   1.000  C
  C942     1.0000 0.76707  0.98579  0.78167  Biso   1.000  C
  C943     1.0000 0.77308  0.74101  0.01676  Biso   1.000  C
  C944     1.0000 0.54167  0.22383  0.28414  Biso   1.000  C
  C945     1.0000 0.24056  0.50362  0.75560  Biso   1.000  C
  C946     1.0000 0.26780  0.74887  0.51318  Biso   1.000  C
  C947     1.0000 0.01688  0.22183  0.24860  Biso   1.000  C
  C948     1.0000 0.73933  0.50096  0.76617  Biso   1.000  C
  C949     1.0000 0.27507  0.73398  0.00353  Biso   1.000  C
  C950     1.0000 0.99679  0.24909  0.74813  Biso   1.000  C
  C951     1.0000 0.75483  0.96584  0.28236  Biso   1.000  C
  C952     1.0000 0.76761  0.72165  0.51401  Biso   1.000  C
  C953     1.0000 0.50949  0.24026  0.78148  Biso   1.000  C
  C954     1.0000 0.24866  0.99611  0.25237  Biso   1.000  C
  C955     1.0000 0.24299  0.23027  0.02456  Biso   1.000  C
  C956     1.0000 0.52080  0.73967  0.74606  Biso   1.000  C
  C957     1.0000 0.77964  0.48613  0.27382  Biso   1.000  C
  C958     1.0000 0.75594  0.21983  0.53175  Biso   1.000  C
  C959     1.0000 0.02414  0.74213  0.77753  Biso   1.000  C
  C960     1.0000 0.27884  0.45636  0.25368  Biso   1.000  C
  Cu1      1.0000 0.00697  0.48536  0.66262  Biso   1.000  Cu
  Cu2      1.0000 0.66480  0.98599  0.51752  Biso   1.000  Cu
  Cu3      1.0000 0.50926  0.63737  0.00801  Biso   1.000  Cu
  Cu4      1.0000 0.50105  0.48157  0.85881  Biso   1.000  Cu
  Cu5      1.0000 0.15885  0.99289  0.01099  Biso   1.000  Cu
  Cu6      1.0000 0.00646  0.63880  0.51545  Biso   1.000  Cu
  Cu7      1.0000 0.51107  0.97951  0.66608  Biso   1.000  Cu
  Cu8      1.0000 0.85798  0.48217  0.51429  Biso   1.000  Cu
  Cu9      1.0000 0.00100  0.13889  0.00603  Biso   1.000  Cu
  Cu10     1.0000 0.00954  0.98395  0.85712  Biso   1.000  Cu
  Cu11     1.0000 0.35730  0.48873  0.02047  Biso   1.000  Cu
  Cu12     1.0000 0.51655  0.13553  0.52126  Biso   1.000  Cu
  Cu13     1.0000 0.01786  0.48214  0.35969  Biso   1.000  Cu
  Cu14     1.0000 0.36178  0.98146  0.51189  Biso   1.000  Cu
  Cu15     1.0000 0.50815  0.33254  0.01948  Biso   1.000  Cu
  Cu16     1.0000 0.51860  0.48226  0.16939  Biso   1.000  Cu
  Cu17     1.0000 0.85308  0.98221  0.02149  Biso   1.000  Cu
  Cu18     1.0000 0.01955  0.32941  0.51231  Biso   1.000  Cu
  Cu19     1.0000 0.51131  0.98318  0.36065  Biso   1.000  Cu
  Cu20     1.0000 0.16406  0.48570  0.51121  Biso   1.000  Cu
  Cu21     1.0000 0.01058  0.83449  0.01426  Biso   1.000  Cu
  Cu22     1.0000 0.01427  0.98037  0.16622  Biso   1.000  Cu
  Cu23     1.0000 0.66169  0.48585  0.01130  Biso   1.000  Cu
  Cu24     1.0000 0.51031  0.82755  0.50578  Biso   1.000  Cu
  Cu25     1.0000 0.21324  0.99531  0.01252  Biso   1.000  Cu
  Cu26     1.0000 0.00027  0.19313  0.00744  Biso   1.000  Cu
  Cu27     1.0000 0.01472  0.98397  0.22174  Biso   1.000  Cu
  Cu28     1.0000 0.71902  0.98315  0.51850  Biso   1.000  Cu
  Cu29     1.0000 0.51573  0.18996  0.52214  Biso   1.000  Cu
  Cu30     1.0000 0.51387  0.98742  0.30648  Biso   1.000  Cu
  Cu31     1.0000 0.30365  0.49008  0.02149  Biso   1.000  Cu
  Cu32     1.0000 0.51060  0.69062  0.01060  Biso   1.000  Cu
  Cu33     1.0000 0.52163  0.48258  0.22354  Biso   1.000  Cu
  Cu34     1.0000 0.80399  0.47879  0.50729  Biso   1.000  Cu
  Cu35     1.0000 0.00371  0.69455  0.51109  Biso   1.000  Cu
  Cu36     1.0000 0.01505  0.48441  0.30557  Biso   1.000  Cu
  Cu37     1.0000 0.80073  0.98128  0.02240  Biso   1.000  Cu
  Cu38     1.0000 0.01108  0.78025  0.01178  Biso   1.000  Cu
  Cu39     1.0000 0.00584  0.98270  0.80385  Biso   1.000  Cu
  Cu40     1.0000 0.30666  0.98469  0.51295  Biso   1.000  Cu
  Cu41     1.0000 0.51196  0.77301  0.50361  Biso   1.000  Cu
  Cu42     1.0000 0.51105  0.97660  0.72093  Biso   1.000  Cu
  Cu43     1.0000 0.71541  0.48088  0.00835  Biso   1.000  Cu
  Cu44     1.0000 0.50620  0.27821  0.02183  Biso   1.000  Cu
  Cu45     1.0000 0.50142  0.48203  0.80595  Biso   1.000  Cu
  Cu46     1.0000 0.21960  0.48706  0.50967  Biso   1.000  Cu
  Cu47     1.0000 0.02038  0.27595  0.51097  Biso   1.000  Cu
  Cu48     1.0000 0.00996  0.48320  0.71749  Biso   1.000  Cu
  H1       1.0000 0.28764  0.73192  0.55259  Biso   1.000  H
  H2       1.0000 0.53972  0.26676  0.76019  Biso   1.000  H
  H3       1.0000 0.75270  0.51297  0.29997  Biso   1.000  H
  H4       1.0000 0.74720  0.77382  0.99440  Biso   1.000  H
  H5       1.0000 0.96563  0.22550  0.72143  Biso   1.000  H
  H6       1.0000 0.30023  0.48263  0.28216  Biso   1.000  H
  H7       1.0000 0.27813  0.27665  0.53921  Biso   1.000  H
  H8       1.0000 0.99992  0.77480  0.75196  Biso   1.000  H
  H9       1.0000 0.72750  0.99143  0.25466  Biso   1.000  H
  H10      1.0000 0.76724  0.27865  0.03216  Biso   1.000  H
  H11      1.0000 0.49041  0.71812  0.71629  Biso   1.000  H
  H12      1.0000 0.26960  0.96156  0.22837  Biso   1.000  H
  H13      1.0000 0.72654  0.24785  0.50498  Biso   1.000  H
  H14      1.0000 0.52443  0.74496  0.22467  Biso   1.000  H
  H15      1.0000 0.21968  0.46691  0.77257  Biso   1.000  H
  H16      1.0000 0.26600  0.19906  0.05081  Biso   1.000  H
  H17      1.0000 0.04581  0.75240  0.30331  Biso   1.000  H
  H18      1.0000 0.71466  0.46965  0.74250  Biso   1.000  H
  H19      1.0000 0.80135  0.74814  0.49538  Biso   1.000  H
  H20      1.0000 0.03863  0.24765  0.21599  Biso   1.000  H
  H21      1.0000 0.24687  0.02952  0.71288  Biso   1.000  H
  H22      1.0000 0.25811  0.71421  0.04143  Biso   1.000  H
  H23      1.0000 0.56414  0.19023  0.25843  Biso   1.000  H
  H24      1.0000 0.74038  0.96125  0.80744  Biso   1.000  H
  H25      1.0000 0.26238  0.04099  0.78706  Biso   1.000  H
  H26      1.0000 0.79143  0.24754  0.03865  Biso   1.000  H
  H27      1.0000 0.04872  0.71501  0.21943  Biso   1.000  H
  H28      1.0000 0.77629  0.96943  0.72704  Biso   1.000  H
  H29      1.0000 0.25446  0.19781  0.47254  Biso   1.000  H
  H30      1.0000 0.45160  0.77181  0.24668  Biso   1.000  H
  H31      1.0000 0.29525  0.53161  0.75507  Biso   1.000  H
  H32      1.0000 0.76872  0.69053  0.04599  Biso   1.000  H
  H33      1.0000 0.51645  0.27773  0.28669  Biso   1.000  H
  H34      1.0000 0.74238  0.51674  0.70926  Biso   1.000  H
  H35      1.0000 0.21326  0.75727  0.49066  Biso   1.000  H
  H36      1.0000 0.98511  0.22462  0.30111  Biso   1.000  H
  H37      1.0000 0.75376  0.94570  0.22650  Biso   1.000  H
  H38      1.0000 0.27556  0.78510  0.97755  Biso   1.000  H
  H39      1.0000 0.02826  0.24799  0.80123  Biso   1.000  H
  H40      1.0000 0.25026  0.96180  0.30107  Biso   1.000  H
  H41      1.0000 0.77014  0.77094  0.54479  Biso   1.000  H
  H42      1.0000 0.48484  0.18702  0.78289  Biso   1.000  H
  H43      1.0000 0.72354  0.47691  0.27949  Biso   1.000  H
  H44      1.0000 0.25340  0.27361  0.98648  Biso   1.000  H
  H45      1.0000 0.48699  0.69274  0.74790  Biso   1.000  H
  H46      1.0000 0.27902  0.43044  0.30787  Biso   1.000  H
  H47      1.0000 0.75256  0.27491  0.54960  Biso   1.000  H
  H48      1.0000 0.06023  0.69676  0.76953  Biso   1.000  H
  H49      1.0000 0.22767  0.48019  0.24544  Biso   1.000  H
  H50      1.0000 0.30292  0.24396  0.53715  Biso   1.000  H
  H51      1.0000 0.55235  0.21727  0.22636  Biso   1.000  H
  H52      1.0000 0.79181  0.50177  0.21728  Biso   1.000  H
  H53      1.0000 0.73740  0.18937  0.98838  Biso   1.000  H
  H54      1.0000 0.04784  0.27010  0.24948  Biso   1.000  H
  H55      1.0000 0.29548  0.02587  0.25356  Biso   1.000  H
  H56      1.0000 0.26476  0.69394  0.53811  Biso   1.000  H
  H57      1.0000 0.00062  0.77263  0.27625  Biso   1.000  H
  H58      1.0000 0.80909  0.98368  0.29058  Biso   1.000  H
  H59      1.0000 0.72871  0.73955  0.97490  Biso   1.000  H
  H60      1.0000 0.51222  0.71652  0.29349  Biso   1.000  H
  H61      1.0000 0.79114  0.48232  0.77799  Biso   1.000  H
  H62      1.0000 0.71979  0.72479  0.47869  Biso   1.000  H
  H63      1.0000 0.55476  0.73802  0.79534  Biso   1.000  H
  H64      1.0000 0.23922  0.47556  0.81151  Biso   1.000  H
  H65      1.0000 0.22042  0.72442  0.02390  Biso   1.000  H
  H66      1.0000 0.98196  0.73328  0.73926  Biso   1.000  H
  H67      1.0000 0.71625  0.00487  0.78749  Biso   1.000  H
  H68      1.0000 0.80926  0.20908  0.51609  Biso   1.000  H
  H69      1.0000 0.98029  0.19140  0.74180  Biso   1.000  H
  H70      1.0000 0.21635  0.97369  0.74166  Biso   1.000  H
  H71      1.0000 0.28738  0.23345  0.06372  Biso   1.000  H
  H72      1.0000 0.54031  0.23895  0.73000  Biso   1.000  H
  H73      1.0000 0.76443  0.52194  0.79572  Biso   1.000  H
  H74      1.0000 0.73867  0.69117  0.53396  Biso   1.000  H
  H75      1.0000 0.55265  0.76765  0.76546  Biso   1.000  H
  H76      1.0000 0.25516  0.54095  0.73868  Biso   1.000  H
  H77      1.0000 0.29514  0.75200  0.96387  Biso   1.000  H
  H78      1.0000 0.05215  0.71695  0.80485  Biso   1.000  H
  H79      1.0000 0.79777  0.01281  0.76103  Biso   1.000  H
  H80      1.0000 0.77937  0.18628  0.55540  Biso   1.000  H
  H81      1.0000 0.02098  0.27708  0.77413  Biso   1.000  H
  H82      1.0000 0.29089  0.97483  0.77382  Biso   1.000  H
  H83      1.0000 0.21456  0.25769  0.99836  Biso   1.000  H
  H84      1.0000 0.48327  0.21533  0.80684  Biso   1.000  H
  H85      1.0000 0.25557  0.43553  0.21623  Biso   1.000  H
  H86      1.0000 0.22871  0.23052  0.47070  Biso   1.000  H
  H87      1.0000 0.51772  0.25125  0.31639  Biso   1.000  H
  H88      1.0000 0.81220  0.46156  0.24611  Biso   1.000  H
  H89      1.0000 0.71379  0.21860  0.98154  Biso   1.000  H
  H90      1.0000 0.99015  0.19100  0.27401  Biso   1.000  H
  H91      1.0000 0.22550  0.03639  0.26926  Biso   1.000  H
  H92      1.0000 0.25155  0.76949  0.47540  Biso   1.000  H
  H93      1.0000 0.00247  0.69199  0.24759  Biso   1.000  H
  H94      1.0000 0.77890  0.94177  0.31236  Biso   1.000  H
  H95      1.0000 0.80224  0.71636  0.04394  Biso   1.000  H
  H96      1.0000 0.44928  0.69880  0.25934  Biso   1.000  H
  H97      1.0000 0.87769  0.97229  0.92791  Biso   1.000  H
  H98      1.0000 0.91782  0.85003  0.01979  Biso   1.000  H
  H99      1.0000 0.02119  0.89464  0.87728  Biso   1.000  H
  H100     1.0000 0.38078  0.98117  0.60646  Biso   1.000  H
  H101     1.0000 0.41957  0.84812  0.52222  Biso   1.000  H
  H102     1.0000 0.50965  0.89164  0.64080  Biso   1.000  H
  H103     1.0000 0.63692  0.47948  0.92011  Biso   1.000  H
  H104     1.0000 0.59516  0.35260  0.00356  Biso   1.000  H
  H105     1.0000 0.49875  0.39598  0.88643  Biso   1.000  H
  H106     1.0000 0.14108  0.49619  0.59895  Biso   1.000  H
  H107     1.0000 0.10686  0.34993  0.51681  Biso   1.000  H
  H108     1.0000 0.01212  0.39576  0.64369  Biso   1.000  H
  H109     1.0000 0.14163  0.99314  0.10651  Biso   1.000  H
  H110     1.0000 0.09485  0.12396  0.01255  Biso   1.000  H
  H111     1.0000 0.00051  0.06938  0.14242  Biso   1.000  H
  H112     1.0000 0.64317  0.97696  0.42609  Biso   1.000  H
  H113     1.0000 0.60585  0.11785  0.52745  Biso   1.000  H
  H114     1.0000 0.51877  0.07381  0.38541  Biso   1.000  H
  H115     1.0000 0.38504  0.48911  0.11065  Biso   1.000  H
  H116     1.0000 0.41544  0.62004  0.00218  Biso   1.000  H
  H117     1.0000 0.52568  0.57375  0.14832  Biso   1.000  H
  H118     1.0000 0.88489  0.49040  0.41886  Biso   1.000  H
  H119     1.0000 0.91467  0.61372  0.51441  Biso   1.000  H
  H120     1.0000 0.02865  0.57626  0.38643  Biso   1.000  H
  H121     1.0000 0.10045  0.99230  0.87699  Biso   1.000  H
  H122     1.0000 0.87196  0.07454  0.00508  Biso   1.000  H
  H123     1.0000 0.02143  0.84833  0.10124  Biso   1.000  H
  H124     1.0000 0.60459  0.99328  0.64942  Biso   1.000  H
  H125     1.0000 0.38223  0.07502  0.51770  Biso   1.000  H
  H126     1.0000 0.50444  0.85012  0.41327  Biso   1.000  H
  H127     1.0000 0.41511  0.49460  0.88280  Biso   1.000  H
  H128     1.0000 0.64512  0.57494  0.01255  Biso   1.000  H
  H129     1.0000 0.52255  0.35424  0.11135  Biso   1.000  H
  H130     1.0000 0.91933  0.48666  0.64673  Biso   1.000  H
  H131     1.0000 0.14292  0.57530  0.51025  Biso   1.000  H
  H132     1.0000 0.02512  0.35406  0.41974  Biso   1.000  H
  H133     1.0000 0.92275  0.98305  0.15066  Biso   1.000  H
  H134     1.0000 0.13880  0.89929  0.01844  Biso   1.000  H
  H135     1.0000 0.00122  0.12426  0.92014  Biso   1.000  H
  H136     1.0000 0.42050  0.98871  0.37576  Biso   1.000  H
  H137     1.0000 0.64288  0.89252  0.52541  Biso   1.000  H
  H138     1.0000 0.50947  0.11740  0.60726  Biso   1.000  H
  H139     1.0000 0.60910  0.49196  0.14627  Biso   1.000  H
  H140     1.0000 0.37627  0.39452  0.02944  Biso   1.000  H
  H141     1.0000 0.49418  0.62276  0.91986  Biso   1.000  H
  H142     1.0000 0.10644  0.47417  0.37381  Biso   1.000  H
  H143     1.0000 0.88805  0.38703  0.50841  Biso   1.000  H
  H144     1.0000 0.00863  0.61970  0.60346  Biso   1.000  H
  H145     1.0000 0.59476  0.48663  0.87721  Biso   1.000  H
  H146     1.0000 0.87721  0.57452  0.51119  Biso   1.000  H
  H147     1.0000 0.51241  0.84650  0.59635  Biso   1.000  H
  H148     1.0000 0.10114  0.48078  0.63935  Biso   1.000  H
  H149     1.0000 0.37379  0.58429  0.00396  Biso   1.000  H
  H150     1.0000 0.02428  0.85453  0.91935  Biso   1.000  H
  H151     1.0000 0.91713  0.96932  0.88394  Biso   1.000  H
  H152     1.0000 0.64806  0.07708  0.52233  Biso   1.000  H
  H153     1.0000 0.00898  0.34880  0.59947  Biso   1.000  H
  H154     1.0000 0.41881  0.98604  0.64816  Biso   1.000  H
  H155     1.0000 0.13733  0.08139  0.01373  Biso   1.000  H
  H156     1.0000 0.49900  0.35101  0.93077  Biso   1.000  H
  H157     1.0000 0.42954  0.48293  0.15149  Biso   1.000  H
  H158     1.0000 0.14640  0.39351  0.52913  Biso   1.000  H
  H159     1.0000 0.52253  0.11333  0.43055  Biso   1.000  H
  H160     1.0000 0.92245  0.50070  0.38032  Biso   1.000  H
  H161     1.0000 0.63699  0.39386  0.00169  Biso   1.000  H
  H162     1.0000 0.99903  0.11317  0.10083  Biso   1.000  H
  H163     1.0000 0.09909  0.00356  0.14914  Biso   1.000  H
  H164     1.0000 0.37796  0.89028  0.51818  Biso   1.000  H
  H165     1.0000 0.01774  0.61714  0.42243  Biso   1.000  H
  H166     1.0000 0.60194  0.97258  0.38417  Biso   1.000  H
  H167     1.0000 0.87865  0.88960  0.03303  Biso   1.000  H
  H168     1.0000 0.51898  0.61190  0.10326  Biso   1.000  H
  H169     1.0000 0.00194  0.07694  0.87561  Biso   1.000  H
  H170     1.0000 0.87905  0.99460  0.11157  Biso   1.000  H
  H171     1.0000 0.10272  0.85808  0.01291  Biso   1.000  H
  H172     1.0000 0.51394  0.07175  0.64724  Biso   1.000  H
  H173     1.0000 0.37753  0.97990  0.41940  Biso   1.000  H
  H174     1.0000 0.59960  0.85195  0.51210  Biso   1.000  H
  H175     1.0000 0.49720  0.57628  0.87948  Biso   1.000  H
  H176     1.0000 0.64701  0.49192  0.10448  Biso   1.000  H
  H177     1.0000 0.41770  0.35274  0.03966  Biso   1.000  H
  H178     1.0000 0.01373  0.57292  0.64249  Biso   1.000  H
  H179     1.0000 0.14532  0.47153  0.41797  Biso   1.000  H
  H180     1.0000 0.92802  0.34700  0.51021  Biso   1.000  H
  H181     1.0000 0.02515  0.89272  0.14572  Biso   1.000  H
  H182     1.0000 0.13856  0.99857  0.91724  Biso   1.000  H
  H183     1.0000 0.91051  0.11875  0.00404  Biso   1.000  H
  H184     1.0000 0.50088  0.89287  0.37711  Biso   1.000  H
  H185     1.0000 0.64354  0.99233  0.61021  Biso   1.000  H
  H186     1.0000 0.42161  0.11509  0.51382  Biso   1.000  H
  H187     1.0000 0.52913  0.39281  0.15313  Biso   1.000  H
  H188     1.0000 0.37425  0.49490  0.92863  Biso   1.000  H
  H189     1.0000 0.60342  0.61316  0.01246  Biso   1.000  H
  H190     1.0000 0.01590  0.39407  0.37517  Biso   1.000  H
  H191     1.0000 0.87358  0.48545  0.60203  Biso   1.000  H
  H192     1.0000 0.09655  0.61939  0.51548  Biso   1.000  H
  H193     1.0000 0.28216  0.83833  0.50594  Biso   1.000  H
  H194     1.0000 0.50976  0.25374  0.87722  Biso   1.000  H
  H195     1.0000 0.87479  0.50951  0.28126  Biso   1.000  H
  H196     1.0000 0.77897  0.83947  0.02876  Biso   1.000  H
  H197     1.0000 0.99744  0.25466  0.65335  Biso   1.000  H
  H198     1.0000 0.37722  0.47189  0.24929  Biso   1.000  H
  H199     1.0000 0.24534  0.34780  0.50765  Biso   1.000  H
  H200     1.0000 0.02310  0.75556  0.86872  Biso   1.000  H
  H201     1.0000 0.65530  0.95245  0.28913  Biso   1.000  H
  H202     1.0000 0.73605  0.34380  0.98834  Biso   1.000  H
  H203     1.0000 0.52591  0.75062  0.65474  Biso   1.000  H
  H204     1.0000 0.15568  0.00160  0.24454  Biso   1.000  H
  H205     1.0000 0.74340  0.13101  0.51443  Biso   1.000  H
  H206     1.0000 0.50184  0.71062  0.15039  Biso   1.000  H
  H207     1.0000 0.14865  0.49528  0.73840  Biso   1.000  H
  H208     1.0000 0.22994  0.14190  0.00999  Biso   1.000  H
  H209     1.0000 0.01645  0.71366  0.36826  Biso   1.000  H
  H210     1.0000 0.64168  0.49908  0.77834  Biso   1.000  H
  H211     1.0000 0.77704  0.62080  0.51087  Biso   1.000  H
  H212     1.0000 0.00599  0.20999  0.15290  Biso   1.000  H
  H213     1.0000 0.36639  0.99808  0.74284  Biso   1.000  H
  H214     1.0000 0.28001  0.63858  0.00866  Biso   1.000  H
  H215     1.0000 0.54524  0.21245  0.38208  Biso   1.000  H
  H216     1.0000 0.86094  0.96484  0.78971  Biso   1.000  H
  H217     1.0000 0.24397  0.46226  0.37045  Biso   1.000  H
  H218     1.0000 0.36864  0.21235  0.50799  Biso   1.000  H
  H219     1.0000 0.55042  0.33634  0.24699  Biso   1.000  H
  H220     1.0000 0.74880  0.48603  0.15214  Biso   1.000  H
  H221     1.0000 0.85455  0.21261  0.00466  Biso   1.000  H
  H222     1.0000 0.02052  0.34149  0.27864  Biso   1.000  H
  H223     1.0000 0.28426  0.00332  0.36940  Biso   1.000  H
  H224     1.0000 0.14481  0.71934  0.51067  Biso   1.000  H
  H225     1.0000 0.03751  0.83779  0.24205  Biso   1.000  H
  H226     1.0000 0.78675  0.99549  0.16958  Biso   1.000  H
  H227     1.0000 0.65532  0.71176  0.01174  Biso   1.000  H
  H228     1.0000 0.49122  0.84232  0.27613  Biso   1.000  H
  H229     1.0000 0.77408  0.47590  0.65345  Biso   1.000  H
  H230     1.0000 0.65518  0.75541  0.50318  Biso   1.000  H
  H231     1.0000 0.51558  0.62110  0.78263  Biso   1.000  H
  H232     1.0000 0.27630  0.50969  0.87732  Biso   1.000  H
  H233     1.0000 0.15407  0.76127  0.00300  Biso   1.000  H
  H234     1.0000 0.02842  0.62379  0.74116  Biso   1.000  H
  H235     1.0000 0.73787  0.00893  0.66485  Biso   1.000  H
  H236     1.0000 0.88012  0.24909  0.53557  Biso   1.000  H
  H237     1.0000 0.00405  0.12869  0.77975  Biso   1.000  H
  H238     1.0000 0.23723  0.00268  0.86780  Biso   1.000  H
  H239     1.0000 0.36107  0.25698  0.03355  Biso   1.000  H
  H240     1.0000 0.51542  0.11692  0.74843  Biso   1.000  H
  H241     1.0000 0.73176  0.49261  0.86349  Biso   1.000  H
  H242     1.0000 0.86222  0.71310  0.53157  Biso   1.000  H
  H243     1.0000 0.51126  0.83444  0.73826  Biso   1.000  H
  H244     1.0000 0.23520  0.51478  0.65621  Biso   1.000  H
  H245     1.0000 0.37218  0.72303  0.99947  Biso   1.000  H
  H246     1.0000 0.04148  0.83820  0.78541  Biso   1.000  H
  H247     1.0000 0.77629  0.97224  0.88085  Biso   1.000  H
  H248     1.0000 0.66087  0.21372  0.53609  Biso   1.000  H
  H249     1.0000 0.98681  0.34316  0.73820  Biso   1.000  H
  H250     1.0000 0.28219  0.97812  0.65533  Biso   1.000  H
  H251     1.0000 0.14412  0.22052  0.02501  Biso   1.000  H
  H252     1.0000 0.50461  0.33689  0.78897  Biso   1.000  H
  H253     1.0000 0.29265  0.48373  0.16595  Biso   1.000  H
  H254     1.0000 0.16383  0.25528  0.50246  Biso   1.000  H
  H255     1.0000 0.51530  0.13410  0.29379  Biso   1.000  H
  H256     1.0000 0.78839  0.48259  0.36155  Biso   1.000  H
  H257     1.0000 0.64811  0.25682  0.99865  Biso   1.000  H
  H258     1.0000 0.01689  0.12634  0.23809  Biso   1.000  H
  H259     1.0000 0.23788  0.98847  0.15668  Biso   1.000  H
  H260     1.0000 0.36660  0.75173  0.51238  Biso   1.000  H
  H261     1.0000 0.04191  0.62461  0.28568  Biso   1.000  H
  H262     1.0000 0.74356  0.97735  0.37625  Biso   1.000  H
  H263     1.0000 0.86637  0.75571  0.01222  Biso   1.000  H
  H264     1.0000 0.48391  0.62309  0.23884  Biso   1.000  H
  H265     1.0000 0.99666  0.21541  0.86405  Biso   1.000  H
  H266     1.0000 0.87402  0.95824  0.24772  Biso   1.000  H
  H267     1.0000 0.23856  0.85198  0.02229  Biso   1.000  H
  H268     1.0000 0.50239  0.20891  0.66505  Biso   1.000  H
  H269     1.0000 0.36285  0.98948  0.27970  Biso   1.000  H
  H270     1.0000 0.73995  0.84001  0.52049  Biso   1.000  H
  H271     1.0000 0.52077  0.71091  0.85965  Biso   1.000  H
  H272     1.0000 0.66265  0.52385  0.23894  Biso   1.000  H
  H273     1.0000 0.27608  0.34624  0.01919  Biso   1.000  H
  H274     1.0000 0.01792  0.71195  0.66419  Biso   1.000  H
  H275     1.0000 0.16199  0.45877  0.27903  Biso   1.000  H
  H276     1.0000 0.79128  0.33197  0.50724  Biso   1.000  H
  H277     1.0000 0.01659  0.75472  0.15707  Biso   1.000  H
  H278     1.0000 0.14910  0.99259  0.77673  Biso   1.000  H
  H279     1.0000 0.77183  0.12065  0.02406  Biso   1.000  H
  H280     1.0000 0.48708  0.75458  0.36217  Biso   1.000  H
  H281     1.0000 0.65089  0.97011  0.74628  Biso   1.000  H
  H282     1.0000 0.28737  0.12677  0.50704  Biso   1.000  H
  H283     1.0000 0.52134  0.25367  0.16228  Biso   1.000  H
  H284     1.0000 0.35973  0.49773  0.78783  Biso   1.000  H
  H285     1.0000 0.74057  0.62886  0.99787  Biso   1.000  H
  H286     1.0000 0.01564  0.25288  0.36723  Biso   1.000  H
  H287     1.0000 0.86613  0.50268  0.74188  Biso   1.000  H
  H288     1.0000 0.23315  0.63385  0.49469  Biso   1.000  H
  H289     1.0000 0.08790  0.21835  0.01945  Biso   1.000  H
  H290     1.0000 0.01599  0.07355  0.23752  Biso   1.000  H
  H291     1.0000 0.23768  0.98467  0.10431  Biso   1.000  H
  H292     1.0000 0.60678  0.21142  0.53950  Biso   1.000  H
  H293     1.0000 0.50884  0.08218  0.29142  Biso   1.000  H
  H294     1.0000 0.73807  0.98284  0.42757  Biso   1.000  H
  H295     1.0000 0.42389  0.71556  0.98958  Biso   1.000  H
  H296     1.0000 0.49664  0.57015  0.23923  Biso   1.000  H
  H297     1.0000 0.28754  0.48606  0.11078  Biso   1.000  H
  H298     1.0000 0.91801  0.70965  0.52974  Biso   1.000  H
  H299     1.0000 0.04915  0.57115  0.29191  Biso   1.000  H
  H300     1.0000 0.78835  0.47501  0.41496  Biso   1.000  H
  H301     1.0000 0.92218  0.75522  0.00905  Biso   1.000  H
  H302     1.0000 0.03058  0.89053  0.78119  Biso   1.000  H
  H303     1.0000 0.78155  0.97080  0.93515  Biso   1.000  H
  H304     1.0000 0.42127  0.75173  0.51985  Biso   1.000  H
  H305     1.0000 0.50770  0.88712  0.73819  Biso   1.000  H
  H306     1.0000 0.28635  0.97781  0.60043  Biso   1.000  H
  H307     1.0000 0.59621  0.25425  0.00676  Biso   1.000  H
  H308     1.0000 0.50550  0.39160  0.78816  Biso   1.000  H
  H309     1.0000 0.73222  0.48168  0.91416  Biso   1.000  H
  H310     1.0000 0.11102  0.25686  0.49966  Biso   1.000  H
  H311     1.0000 0.99385  0.39573  0.73766  Biso   1.000  H
  H312     1.0000 0.23429  0.50929  0.60132  Biso   1.000  H
  H313     1.0000 0.23551  0.00334  0.92085  Biso   1.000  H
  H314     1.0000 0.90964  0.21400  0.00509  Biso   1.000  H
  H315     1.0000 0.03435  0.89202  0.24437  Biso   1.000  H
  H316     1.0000 0.73800  0.00882  0.61148  Biso   1.000  H
  H317     1.0000 0.42444  0.21007  0.50362  Biso   1.000  H
  H318     1.0000 0.50071  0.89808  0.27918  Biso   1.000  H
  H319     1.0000 0.27914  0.50002  0.93166  Biso   1.000  H
  H320     1.0000 0.59910  0.71118  0.01464  Biso   1.000  H
  H321     1.0000 0.55619  0.39015  0.24651  Biso   1.000  H
  H322     1.0000 0.78078  0.47234  0.60076  Biso   1.000  H
  H323     1.0000 0.09280  0.71514  0.51419  Biso   1.000  H
  H324     1.0000 0.02851  0.39583  0.28195  Biso   1.000  H
  H325     1.0000 0.78392  0.99953  0.11436  Biso   1.000  H
  H326     1.0000 0.10144  0.76329  0.00636  Biso   1.000  H
  H327     1.0000 0.00404  0.06946  0.78092  Biso   1.000  H
  H328     1.0000 0.28838  0.00262  0.42739  Biso   1.000  H
  H329     1.0000 0.59988  0.75566  0.50233  Biso   1.000  H
  H330     1.0000 0.51777  0.06184  0.74497  Biso   1.000  H
  H331     1.0000 0.74166  0.47940  0.09960  Biso   1.000  H
  H332     1.0000 0.41643  0.25391  0.04183  Biso   1.000  H
  H333     1.0000 0.50654  0.56973  0.78327  Biso   1.000  H
  H334     1.0000 0.23776  0.46269  0.42478  Biso   1.000  H
  H335     1.0000 0.93305  0.25543  0.53605  Biso   1.000  H
  H336     1.0000 0.03492  0.57175  0.73802  Biso   1.000  H
  H337     1.0000 0.98743  0.21581  0.91818  Biso   1.000  H
  H338     1.0000 0.92967  0.95065  0.24027  Biso   1.000  H
  H339     1.0000 0.23338  0.90917  0.02380  Biso   1.000  H
  H340     1.0000 0.50751  0.21325  0.61149  Biso   1.000  H
  H341     1.0000 0.41873  0.99564  0.28112  Biso   1.000  H
  H342     1.0000 0.73919  0.89368  0.52839  Biso   1.000  H
  H343     1.0000 0.52002  0.71634  0.91344  Biso   1.000  H
  H344     1.0000 0.60619  0.51721  0.23805  Biso   1.000  H
  H345     1.0000 0.27990  0.39609  0.02054  Biso   1.000  H
  H346     1.0000 0.00607  0.71642  0.60593  Biso   1.000  H
  H347     1.0000 0.10549  0.46507  0.27675  Biso   1.000  H
  H348     1.0000 0.79198  0.38615  0.50180  Biso   1.000  H
  H349     1.0000 0.01898  0.75385  0.10282  Biso   1.000  H
  H350     1.0000 0.09654  0.98928  0.78085  Biso   1.000  H
  H351     1.0000 0.77922  0.06535  0.02140  Biso   1.000  H
  H352     1.0000 0.49617  0.75296  0.41601  Biso   1.000  H
  H353     1.0000 0.59827  0.96830  0.74077  Biso   1.000  H
  H354     1.0000 0.28614  0.07013  0.51186  Biso   1.000  H
  H355     1.0000 0.51412  0.25802  0.10985  Biso   1.000  H
  H356     1.0000 0.41453  0.48580  0.78824  Biso   1.000  H
  H357     1.0000 0.74354  0.57605  0.00097  Biso   1.000  H
  H358     1.0000 0.01551  0.25531  0.41962  Biso   1.000  H
  H359     1.0000 0.91834  0.49459  0.74310  Biso   1.000  H
  H360     1.0000 0.23513  0.58144  0.49271  Biso   1.000  H
  H361     1.0000 0.01018  0.71179  0.42236  Biso   1.000  H
  H362     1.0000 0.42207  0.98958  0.74439  Biso   1.000  H
  H363     1.0000 0.73164  0.39830  0.98592  Biso   1.000  H
  H364     1.0000 0.51476  0.70681  0.09851  Biso   1.000  H
  H365     1.0000 0.91369  0.96364  0.78794  Biso   1.000  H
  H366     1.0000 0.24488  0.39871  0.51751  Biso   1.000  H
  H367     1.0000 0.54312  0.20870  0.43427  Biso   1.000  H
  H368     1.0000 0.09669  0.47983  0.73552  Biso   1.000  H
  H369     1.0000 0.78101  0.89393  0.03072  Biso   1.000  H
  H370     1.0000 0.00360  0.21082  0.09699  Biso   1.000  H
  H371     1.0000 0.58776  0.48558  0.78066  Biso   1.000  H
  H372     1.0000 0.28515  0.89277  0.50619  Biso   1.000  H
  H373     1.0000 0.00625  0.25383  0.60174  Biso   1.000  H
  H374     1.0000 0.60089  0.95262  0.29034  Biso   1.000  H
  H375     1.0000 0.27879  0.58297  0.02194  Biso   1.000  H
  H376     1.0000 0.50125  0.25365  0.93084  Biso   1.000  H
  H377     1.0000 0.10325  0.99881  0.24486  Biso   1.000  H
  H378     1.0000 0.78292  0.56938  0.50197  Biso   1.000  H
  H379     1.0000 0.52606  0.75319  0.59895  Biso   1.000  H
  H380     1.0000 0.92941  0.50189  0.28348  Biso   1.000  H
  H381     1.0000 0.23194  0.08604  0.00497  Biso   1.000  H
  H382     1.0000 0.01964  0.75712  0.92363  Biso   1.000  H
  H383     1.0000 0.42851  0.46730  0.24832  Biso   1.000  H
  H384     1.0000 0.74446  0.07491  0.50530  Biso   1.000  H
  H385     1.0000 0.24001  0.43202  0.34275  Biso   1.000  H
  H386     1.0000 0.29113  0.15849  0.47269  Biso   1.000  H
  H387     1.0000 0.51280  0.31322  0.25290  Biso   1.000  H
  H388     1.0000 0.68643  0.49078  0.24740  Biso   1.000  H
  H389     1.0000 0.82978  0.20771  0.04135  Biso   1.000  H
  H390     1.0000 0.98419  0.25705  0.33475  Biso   1.000  H
  H391     1.0000 0.28521  0.96108  0.34161  Biso   1.000  H
  H392     1.0000 0.17563  0.72224  0.48148  Biso   1.000  H
  H393     1.0000 0.05382  0.75410  0.18165  Biso   1.000  H
  H394     1.0000 0.78693  0.95242  0.19081  Biso   1.000  H
  H395     1.0000 0.72893  0.65631  0.04518  Biso   1.000  H
  H396     1.0000 0.45577  0.80929  0.28136  Biso   1.000  H
  H397     1.0000 0.77896  0.51332  0.67645  Biso   1.000  H
  H398     1.0000 0.73159  0.80839  0.54853  Biso   1.000  H
  H399     1.0000 0.48241  0.65800  0.78444  Biso   1.000  H
  H400     1.0000 0.33203  0.53182  0.78954  Biso   1.000  H
  H401     1.0000 0.24190  0.82397  0.98323  Biso   1.000  H
  H402     1.0000 0.05764  0.65665  0.73166  Biso   1.000  H
  H403     1.0000 0.73959  0.96562  0.68805  Biso   1.000  H
  H404     1.0000 0.78997  0.31174  0.54561  Biso   1.000  H
  H405     1.0000 0.03248  0.20650  0.83344  Biso   1.000  H
  H406     1.0000 0.23312  0.03645  0.82873  Biso   1.000  H
  H407     1.0000 0.28636  0.31192  0.98951  Biso   1.000  H
  H408     1.0000 0.48192  0.15140  0.74674  Biso   1.000  H
  H409     1.0000 0.29081  0.44677  0.18407  Biso   1.000  H
  H410     1.0000 0.19426  0.27067  0.47070  Biso   1.000  H
  H411     1.0000 0.51311  0.21300  0.35201  Biso   1.000  H
  H412     1.0000 0.84799  0.46420  0.28397  Biso   1.000  H
  H413     1.0000 0.67663  0.25536  0.97717  Biso   1.000  H
  H414     1.0000 0.98563  0.15615  0.23906  Biso   1.000  H
  H415     1.0000 0.18914  0.03541  0.23182  Biso   1.000  H
  H416     1.0000 0.29502  0.80089  0.46861  Biso   1.000  H
  H417     1.0000 0.00259  0.65315  0.28412  Biso   1.000  H
  H418     1.0000 0.74044  0.93897  0.34981  Biso   1.000  H
  H419     1.0000 0.83377  0.75525  0.05402  Biso   1.000  H
  H420     1.0000 0.45767  0.65664  0.22798  Biso   1.000  H
  H421     1.0000 0.72679  0.52610  0.83507  Biso   1.000  H
  H422     1.0000 0.77535  0.65135  0.53735  Biso   1.000  H
  H423     1.0000 0.55085  0.80453  0.72866  Biso   1.000  H
  H424     1.0000 0.22257  0.53963  0.69460  Biso   1.000  H
  H425     1.0000 0.33748  0.71756  0.96468  Biso   1.000  H
  H426     1.0000 0.05956  0.75546  0.84291  Biso   1.000  H
  H427     1.0000 0.83662  0.00424  0.79666  Biso   1.000  H
  H428     1.0000 0.74434  0.15019  0.55163  Biso   1.000  H
  H429     1.0000 0.02158  0.31727  0.73267  Biso   1.000  H
  H430     1.0000 0.32876  0.96213  0.74110  Biso   1.000  H
  H431     1.0000 0.17728  0.22434  0.99276  Biso   1.000  H
  H432     1.0000 0.47812  0.25399  0.84700  Biso   1.000  H
  H433     1.0000 0.28636  0.02217  0.67860  Biso   1.000  H
  H434     1.0000 0.73219  0.31626  0.02714  Biso   1.000  H
  H435     1.0000 0.05248  0.71251  0.33999  Biso   1.000  H
  H436     1.0000 0.77724  0.94695  0.84304  Biso   1.000  H
  H437     1.0000 0.24080  0.31170  0.54143  Biso   1.000  H
  H438     1.0000 0.53100  0.70604  0.18926  Biso   1.000  H
  H439     1.0000 0.18288  0.46092  0.73625  Biso   1.000  H
  H440     1.0000 0.78257  0.81031  0.99361  Biso   1.000  H
  H441     1.0000 0.55460  0.15180  0.29437  Biso   1.000  H
  H442     1.0000 0.67445  0.46891  0.77773  Biso   1.000  H
  H443     1.0000 0.32811  0.76731  0.55121  Biso   1.000  H
  H444     1.0000 0.03552  0.21115  0.17797  Biso   1.000  H
  H445     1.0000 0.68911  0.99579  0.29095  Biso   1.000  H
  H446     1.0000 0.29562  0.67652  0.04446  Biso   1.000  H
  H447     1.0000 0.96158  0.26403  0.68375  Biso   1.000  H
  H448     1.0000 0.22945  0.95735  0.19312  Biso   1.000  H
  H449     1.0000 0.83585  0.70959  0.49392  Biso   1.000  H
  H450     1.0000 0.53343  0.30812  0.79083  Biso   1.000  H
  H451     1.0000 0.78677  0.51999  0.33722  Biso   1.000  H
  H452     1.0000 0.22640  0.16440  0.04973  Biso   1.000  H
  H453     1.0000 0.48940  0.75434  0.68013  Biso   1.000  H
  H454     1.0000 0.34498  0.49053  0.25268  Biso   1.000  H
  H455     1.0000 0.68891  0.21320  0.50231  Biso   1.000  H
  H456     1.0000 0.00366  0.80994  0.78736  Biso   1.000  H
  H457     1.0000 0.68382  0.76331  0.47763  Biso   1.000  H
  H458     1.0000 0.55270  0.69986  0.83297  Biso   1.000  H
  H459     1.0000 0.83337  0.46946  0.74555  Biso   1.000  H
  H460     1.0000 0.18361  0.76256  0.03280  Biso   1.000  H
  H461     1.0000 0.98306  0.70531  0.69359  Biso   1.000  H
  H462     1.0000 0.27586  0.47487  0.84526  Biso   1.000  H
  H463     1.0000 0.84846  0.24433  0.50788  Biso   1.000  H
  H464     1.0000 0.97201  0.15840  0.77712  Biso   1.000  H
  H465     1.0000 0.67792  0.00846  0.75250  Biso   1.000  H
  H466     1.0000 0.32534  0.26659  0.06525  Biso   1.000  H
  H467     1.0000 0.54136  0.20114  0.69389  Biso   1.000  H
  H468     1.0000 0.18482  0.96865  0.78552  Biso   1.000  H
  H469     1.0000 0.33936  0.20579  0.53995  Biso   1.000  H
  H470     1.0000 0.55326  0.25307  0.18956  Biso   1.000  H
  H471     1.0000 0.19154  0.48899  0.27846  Biso   1.000  H
  H472     1.0000 0.77251  0.15322  0.98779  Biso   1.000  H
  H473     1.0000 0.04851  0.30933  0.28522  Biso   1.000  H
  H474     1.0000 0.75520  0.51151  0.18029  Biso   1.000  H
  H475     1.0000 0.22961  0.65823  0.53280  Biso   1.000  H
  H476     1.0000 0.99830  0.81012  0.23968  Biso   1.000  H
  H477     1.0000 0.33114  0.02773  0.29097  Biso   1.000  H
  H478     1.0000 0.68790  0.70815  0.97404  Biso   1.000  H
  H479     1.0000 0.51970  0.75375  0.33157  Biso   1.000  H
  H480     1.0000 0.84616  0.98854  0.26038  Biso   1.000  H
  N1       1.0000 0.69185  0.15981  0.52723  Biso   1.000  N
  N2       1.0000 0.49859  0.65869  0.18550  Biso   1.000  N
  N3       1.0000 0.18166  0.50201  0.68698  Biso   1.000  N
  N4       1.0000 0.17770  0.16961  0.02001  Biso   1.000  N
  N5       1.0000 0.02934  0.65940  0.33797  Biso   1.000  N
  N6       1.0000 0.67758  0.49298  0.83129  Biso   1.000  N
  N7       1.0000 0.83078  0.65780  0.51989  Biso   1.000  N
  N8       1.0000 0.00837  0.15857  0.18431  Biso   1.000  N
  N9       1.0000 0.33380  0.98881  0.68882  Biso   1.000  N
  N10      1.0000 0.33640  0.67021  0.00491  Biso   1.000  N
  N11      1.0000 0.53079  0.16113  0.34579  Biso   1.000  N
  N12      1.0000 0.82876  0.97045  0.84485  Biso   1.000  N
  N13      1.0000 0.33471  0.80542  0.50945  Biso   1.000  N
  N14      1.0000 0.50393  0.30626  0.84239  Biso   1.000  N
  N15      1.0000 0.84188  0.49295  0.33238  Biso   1.000  N
  N16      1.0000 0.83257  0.80613  0.02420  Biso   1.000  N
  N17      1.0000 0.99542  0.31019  0.68548  Biso   1.000  N
  N18      1.0000 0.34406  0.47707  0.19640  Biso   1.000  N
  N19      1.0000 0.19406  0.31326  0.50987  Biso   1.000  N
  N20      1.0000 0.03027  0.80837  0.83763  Biso   1.000  N
  N21      1.0000 0.68871  0.96555  0.34166  Biso   1.000  N
  N22      1.0000 0.67998  0.31019  0.99878  Biso   1.000  N
  N23      1.0000 0.51858  0.80418  0.68390  Biso   1.000  N
  N24      1.0000 0.18757  0.99722  0.18970  Biso   1.000  N
  N25      1.0000 0.83149  0.48923  0.68945  Biso   1.000  N
  N26      1.0000 0.68564  0.80814  0.51601  Biso   1.000  N
  N27      1.0000 0.51417  0.65741  0.83321  Biso   1.000  N
  N28      1.0000 0.32785  0.50087  0.84234  Biso   1.000  N
  N29      1.0000 0.18793  0.81609  0.00910  Biso   1.000  N
  N30      1.0000 0.01891  0.65746  0.68941  Biso   1.000  N
  N31      1.0000 0.68539  0.98946  0.69517  Biso   1.000  N
  N32      1.0000 0.84274  0.30253  0.52050  Biso   1.000  N
  N33      1.0000 0.00210  0.16145  0.83150  Biso   1.000  N
  N34      1.0000 0.18310  0.00193  0.83085  Biso   1.000  N
  N35      1.0000 0.33258  0.31113  0.02946  Biso   1.000  N
  N36      1.0000 0.51182  0.15399  0.69596  Biso   1.000  N
  N37      1.0000 0.19116  0.46263  0.33463  Biso   1.000  N
  N38      1.0000 0.33782  0.15878  0.50865  Biso   1.000  N
  N39      1.0000 0.53299  0.30781  0.19704  Biso   1.000  N
  N40      1.0000 0.69568  0.50229  0.18805  Biso   1.000  N
  N41      1.0000 0.82387  0.15624  0.01246  Biso   1.000  N
  N42      1.0000 0.01653  0.30974  0.33338  Biso   1.000  N
  N43      1.0000 0.33419  0.99451  0.33616  Biso   1.000  N
  N44      1.0000 0.17998  0.66603  0.50411  Biso   1.000  N
  N45      1.0000 0.02786  0.80586  0.18915  Biso   1.000  N
  N46      1.0000 0.83895  0.97786  0.19881  Biso   1.000  N
  N47      1.0000 0.68681  0.65888  0.01005  Biso   1.000  N
  N48      1.0000 0.49276  0.80746  0.32921  Biso   1.000  N
  O1       1.0000 0.35363  0.53333  0.02161  Biso   1.000  O
  O2       1.0000 0.02241  0.32543  0.55432  Biso   1.000  O
  O3       1.0000 0.55434  0.98028  0.35902  Biso   1.000  O
  O4       1.0000 0.85108  0.52241  0.51315  Biso   1.000  O
  O5       1.0000 0.50344  0.32735  0.97721  Biso   1.000  O
  O6       1.0000 0.05469  0.98579  0.17171  Biso   1.000  O
  O7       1.0000 0.16240  0.03341  0.01025  Biso   1.000  O
  O8       1.0000 0.51565  0.82382  0.54736  Biso   1.000  O
  O9       1.0000 0.97477  0.48813  0.35730  Biso   1.000  O
  O10      1.0000 0.67138  0.02775  0.51163  Biso   1.000  O
  O11      1.0000 0.00699  0.83345  0.97027  Biso   1.000  O
  O12      1.0000 0.47824  0.48110  0.17378  Biso   1.000  O
  O13      1.0000 0.66000  0.44249  0.01089  Biso   1.000  O
  O14      1.0000 0.00614  0.64329  0.47359  Biso   1.000  O
  O15      1.0000 0.46846  0.98167  0.67002  Biso   1.000  O
  O16      1.0000 0.16613  0.44416  0.51860  Biso   1.000  O
  O17      1.0000 0.50884  0.63985  0.05038  Biso   1.000  O
  O18      1.0000 0.96664  0.97320  0.85829  Biso   1.000  O
  O19      1.0000 0.85406  0.93990  0.02704  Biso   1.000  O
  O20      1.0000 0.51759  0.13784  0.47758  Biso   1.000  O
  O21      1.0000 0.04883  0.48003  0.66170  Biso   1.000  O
  O22      1.0000 0.35912  0.93961  0.51259  Biso   1.000  O
  O23      1.0000 0.99851  0.13972  0.04813  Biso   1.000  O
  O24      1.0000 0.54422  0.48459  0.85458  Biso   1.000  O
  O25      1.0000 0.97244  0.97170  0.16968  Biso   1.000  O
  O26      1.0000 0.16098  0.95091  0.00835  Biso   1.000  O
  O27      1.0000 0.00529  0.14487  0.96505  Biso   1.000  O
  O28      1.0000 0.46969  0.98696  0.35083  Biso   1.000  O
  O29      1.0000 0.66677  0.94206  0.52378  Biso   1.000  O
  O30      1.0000 0.51524  0.13884  0.56154  Biso   1.000  O
  O31      1.0000 0.56112  0.48594  0.17288  Biso   1.000  O
  O32      1.0000 0.35412  0.44516  0.02650  Biso   1.000  O
  O33      1.0000 0.51061  0.64417  0.96689  Biso   1.000  O
  O34      1.0000 0.05948  0.47196  0.35433  Biso   1.000  O
  O35      1.0000 0.85977  0.43651  0.51149  Biso   1.000  O
  O36      1.0000 0.00166  0.64496  0.55633  Biso   1.000  O
  O37      1.0000 0.04827  0.99180  0.85148  Biso   1.000  O
  O38      1.0000 0.85135  0.02570  0.01709  Biso   1.000  O
  O39      1.0000 0.01427  0.82929  0.05531  Biso   1.000  O
  O40      1.0000 0.55095  0.98001  0.67176  Biso   1.000  O
  O41      1.0000 0.35861  0.02345  0.51255  Biso   1.000  O
  O42      1.0000 0.50899  0.82615  0.46428  Biso   1.000  O
  O43      1.0000 0.45958  0.48256  0.85862  Biso   1.000  O
  O44      1.0000 0.66790  0.52718  0.01252  Biso   1.000  O
  O45      1.0000 0.51605  0.33134  0.06064  Biso   1.000  O
  O46      1.0000 0.96500  0.48610  0.66825  Biso   1.000  O
  O47      1.0000 0.16431  0.52765  0.50231  Biso   1.000  O
  O48      1.0000 0.01623  0.33015  0.46732  Biso   1.000  O
  O49      1.0000 0.02308  0.93998  0.17106  Biso   1.000  O
  O50      1.0000 0.16226  0.99668  0.96792  Biso   1.000  O
  O51      1.0000 0.96018  0.14179  0.00361  Biso   1.000  O
  O52      1.0000 0.51270  0.94074  0.35570  Biso   1.000  O
  O53      1.0000 0.66794  0.99205  0.56108  Biso   1.000  O
  O54      1.0000 0.47403  0.14099  0.52221  Biso   1.000  O
  O55      1.0000 0.52436  0.44042  0.17848  Biso   1.000  O
  O56      1.0000 0.35269  0.48847  0.97775  Biso   1.000  O
  O57      1.0000 0.55126  0.63745  0.01217  Biso   1.000  O
  O58      1.0000 0.00787  0.44277  0.35112  Biso   1.000  O
  O59      1.0000 0.84999  0.48038  0.55457  Biso   1.000  O
  O60      1.0000 0.04692  0.64204  0.51824  Biso   1.000  O
  O61      1.0000 0.00097  0.02672  0.85474  Biso   1.000  O
  O62      1.0000 0.85294  0.98550  0.06262  Biso   1.000  O
  O63      1.0000 0.05183  0.83359  0.00764  Biso   1.000  O
  O64      1.0000 0.51526  0.02111  0.67033  Biso   1.000  O
  O65      1.0000 0.35780  0.97760  0.47033  Biso   1.000  O
  O66      1.0000 0.54976  0.82774  0.50368  Biso   1.000  O
  O67      1.0000 0.50035  0.52232  0.85587  Biso   1.000  O
  O68      1.0000 0.66723  0.48145  0.05460  Biso   1.000  O
  O69      1.0000 0.46664  0.32832  0.02828  Biso   1.000  O
  O70      1.0000 0.01348  0.52478  0.66335  Biso   1.000  O
  O71      1.0000 0.16864  0.47767  0.46842  Biso   1.000  O
  O72      1.0000 0.97799  0.32760  0.51149  Biso   1.000  O
  O73      1.0000 0.00443  0.44198  0.66508  Biso   1.000  O
  O74      1.0000 0.66613  0.98029  0.47580  Biso   1.000  O
  O75      1.0000 0.46536  0.64186  0.00970  Biso   1.000  O
  O76      1.0000 0.50360  0.44235  0.85969  Biso   1.000  O
  O77      1.0000 0.16340  0.99155  0.05271  Biso   1.000  O
  O78      1.0000 0.96498  0.64085  0.51153  Biso   1.000  O
  O79      1.0000 0.50940  0.93813  0.66528  Biso   1.000  O
  O80      1.0000 0.85811  0.48211  0.47172  Biso   1.000  O
  O81      1.0000 0.04269  0.14342  0.01226  Biso   1.000  O
  O82      1.0000 0.01723  0.94252  0.85150  Biso   1.000  O
  O83      1.0000 0.35872  0.49015  0.06139  Biso   1.000  O
  O84      1.0000 0.55797  0.13931  0.51872  Biso   1.000  O
  O85      1.0000 0.02354  0.52509  0.36242  Biso   1.000  O
  O86      1.0000 0.35836  0.97927  0.55407  Biso   1.000  O
  O87      1.0000 0.54892  0.33069  0.01399  Biso   1.000  O
  O88      1.0000 0.51516  0.52509  0.16763  Biso   1.000  O
  O89      1.0000 0.85275  0.97860  0.98031  Biso   1.000  O
  O90      1.0000 0.06117  0.32451  0.50938  Biso   1.000  O
  O91      1.0000 0.51489  0.02599  0.36016  Biso   1.000  O
  O92      1.0000 0.16631  0.49147  0.55259  Biso   1.000  O
  O93      1.0000 0.97015  0.82662  0.01690  Biso   1.000  O
  O94      1.0000 0.00550  0.02204  0.16657  Biso   1.000  O
  O95      1.0000 0.66273  0.48607  0.96742  Biso   1.000  O
  O96      1.0000 0.46771  0.82486  0.51087  Biso   1.000  O
  O97      1.0000 0.47399  0.18996  0.51775  Biso   1.000  O
  O98      1.0000 0.52833  0.44113  0.22809  Biso   1.000  O
  O99      1.0000 0.21639  0.47877  0.46825  Biso   1.000  O
  O100     1.0000 0.95907  0.19044  0.99857  Biso   1.000  O
  O101     1.0000 0.00768  0.44311  0.30269  Biso   1.000  O
  O102     1.0000 0.71526  0.48190  0.05118  Biso   1.000  O
  O103     1.0000 0.04712  0.68984  0.50863  Biso   1.000  O
  O104     1.0000 0.02331  0.94043  0.21994  Biso   1.000  O
  O105     1.0000 0.30929  0.98580  0.47288  Biso   1.000  O
  O106     1.0000 0.55191  0.68689  0.01185  Biso   1.000  O
  O107     1.0000 0.51212  0.94356  0.30787  Biso   1.000  O
  O108     1.0000 0.80573  0.99098  0.06532  Biso   1.000  O
  O109     1.0000 0.55327  0.77975  0.49611  Biso   1.000  O
  O110     1.0000 0.49523  0.52473  0.80800  Biso   1.000  O
  O111     1.0000 0.80306  0.47473  0.54935  Biso   1.000  O
  O112     1.0000 0.05358  0.78441  0.01002  Biso   1.000  O
  O113     1.0000 0.02093  0.52357  0.71214  Biso   1.000  O
  O114     1.0000 0.30396  0.48942  0.97837  Biso   1.000  O
  O115     1.0000 0.97779  0.27828  0.51307  Biso   1.000  O
  O116     1.0000 0.99690  0.02325  0.80592  Biso   1.000  O
  O117     1.0000 0.71669  0.99204  0.55949  Biso   1.000  O
  O118     1.0000 0.46723  0.27945  0.03143  Biso   1.000  O
  O119     1.0000 0.51608  0.01713  0.71976  Biso   1.000  O
  O120     1.0000 0.21193  0.99374  0.96977  Biso   1.000  O
  O121     1.0000 0.05033  0.47034  0.71091  Biso   1.000  O
  O122     1.0000 0.71992  0.02426  0.51508  Biso   1.000  O
  O123     1.0000 0.51018  0.68890  0.05200  Biso   1.000  O
  O124     1.0000 0.54218  0.48397  0.80606  Biso   1.000  O
  O125     1.0000 0.21012  0.03743  0.01101  Biso   1.000  O
  O126     1.0000 0.00255  0.69085  0.46898  Biso   1.000  O
  O127     1.0000 0.46927  0.98122  0.71888  Biso   1.000  O
  O128     1.0000 0.80298  0.52098  0.50776  Biso   1.000  O
  O129     1.0000 0.99540  0.18890  0.04894  Biso   1.000  O
  O130     1.0000 0.96409  0.97426  0.81032  Biso   1.000  O
  O131     1.0000 0.30426  0.53318  0.02077  Biso   1.000  O
  O132     1.0000 0.51766  0.18752  0.47906  Biso   1.000  O
  O133     1.0000 0.97400  0.49263  0.30800  Biso   1.000  O
  O134     1.0000 0.31052  0.94207  0.51320  Biso   1.000  O
  O135     1.0000 0.49648  0.27865  0.98114  Biso   1.000  O
  O136     1.0000 0.48042  0.47393  0.22165  Biso   1.000  O
  O137     1.0000 0.80480  0.94240  0.03106  Biso   1.000  O
  O138     1.0000 0.01984  0.27649  0.55373  Biso   1.000  O
  O139     1.0000 0.55559  0.98130  0.31016  Biso   1.000  O
  O140     1.0000 0.21463  0.44763  0.51458  Biso   1.000  O
  O141     1.0000 0.01292  0.78455  0.97206  Biso   1.000  O
  O142     1.0000 0.05606  0.99014  0.22126  Biso   1.000  O
  O143     1.0000 0.70991  0.44115  0.00703  Biso   1.000  O
  O144     1.0000 0.52068  0.77448  0.54726  Biso   1.000  O
  O145     1.0000 0.56253  0.49225  0.22097  Biso   1.000  O
  O146     1.0000 0.21444  0.52904  0.49967  Biso   1.000  O
  O147     1.0000 0.50779  0.18655  0.56079  Biso   1.000  O
  O148     1.0000 0.05714  0.47504  0.30524  Biso   1.000  O
  O149     1.0000 0.71707  0.52339  0.00833  Biso   1.000  O
  O150     1.0000 0.00286  0.19533  0.96630  Biso   1.000  O
  O151     1.0000 0.97403  0.97178  0.21838  Biso   1.000  O
  O152     1.0000 0.31017  0.02504  0.51194  Biso   1.000  O
  O153     1.0000 0.00224  0.69376  0.55592  Biso   1.000  O
  O154     1.0000 0.47031  0.98690  0.30133  Biso   1.000  O
  O155     1.0000 0.80394  0.02165  0.01130  Biso   1.000  O
  O156     1.0000 0.51123  0.69135  0.96839  Biso   1.000  O
  O157     1.0000 0.45733  0.47779  0.81005  Biso   1.000  O
  O158     1.0000 0.81208  0.43691  0.50876  Biso   1.000  O
  O159     1.0000 0.50697  0.77589  0.46280  Biso   1.000  O
  O160     1.0000 0.96805  0.49067  0.71730  Biso   1.000  O
  O161     1.0000 0.30637  0.44822  0.01706  Biso   1.000  O
  O162     1.0000 0.01502  0.78021  0.05456  Biso   1.000  O
  O163     1.0000 0.04848  0.99093  0.80335  Biso   1.000  O
  O164     1.0000 0.71623  0.94098  0.52599  Biso   1.000  O
  O165     1.0000 0.01691  0.28096  0.47016  Biso   1.000  O
  O166     1.0000 0.55305  0.97213  0.72014  Biso   1.000  O
  O167     1.0000 0.21005  0.95072  0.01836  Biso   1.000  O
  O168     1.0000 0.51455  0.28154  0.06206  Biso   1.000  O
  O169     1.0000 0.00589  0.02602  0.21512  Biso   1.000  O
  O170     1.0000 0.21194  0.99502  0.05310  Biso   1.000  O
  O171     1.0000 0.04032  0.19238  0.00628  Biso   1.000  O
  O172     1.0000 0.51389  0.02926  0.31184  Biso   1.000  O
  O173     1.0000 0.71535  0.97793  0.47543  Biso   1.000  O
  O174     1.0000 0.55655  0.18710  0.52874  Biso   1.000  O
  O175     1.0000 0.51590  0.52401  0.21621  Biso   1.000  O
  O176     1.0000 0.31065  0.48948  0.06201  Biso   1.000  O
  O177     1.0000 0.47040  0.69081  0.00843  Biso   1.000  O
  O178     1.0000 0.02540  0.52663  0.31432  Biso   1.000  O
  O179     1.0000 0.80928  0.47807  0.46445  Biso   1.000  O
  O180     1.0000 0.96253  0.68964  0.51090  Biso   1.000  O
  O181     1.0000 0.01387  0.94057  0.80332  Biso   1.000  O
  O182     1.0000 0.80393  0.96898  0.98089  Biso   1.000  O
  O183     1.0000 0.96789  0.77833  0.01460  Biso   1.000  O
  O184     1.0000 0.50461  0.93641  0.71479  Biso   1.000  O
  O185     1.0000 0.31080  0.98705  0.55466  Biso   1.000  O
  O186     1.0000 0.47160  0.77634  0.51485  Biso   1.000  O
  O187     1.0000 0.50248  0.43980  0.81072  Biso   1.000  O
  O188     1.0000 0.71024  0.48110  0.96679  Biso   1.000  O
  O189     1.0000 0.54675  0.28218  0.01661  Biso   1.000  O
  O190     1.0000 0.99672  0.44527  0.71421  Biso   1.000  O
  O191     1.0000 0.21575  0.49303  0.55211  Biso   1.000  O
  O192     1.0000 0.06233  0.27550  0.50937  Biso   1.000  O
