data_image0
_cell_length_a       46.5616
_cell_length_b       47.3946
_cell_length_c       46.6074
_cell_angle_alpha    90
_cell_angle_beta     90
_cell_angle_gamma    90

_symmetry_space_group_name_H-M    "P 1"
_symmetry_int_tables_number       1

loop_
  _symmetry_equiv_pos_as_xyz
  'x, y, z'

loop_
  _atom_site_label
  _atom_site_occupancy
  _atom_site_fract_x
  _atom_site_fract_y
  _atom_site_fract_z
  _atom_site_thermal_displace_type
  _atom_site_B_iso_or_equiv
  _atom_site_type_symbol
  C1       1.0000 0.57301  0.95915  0.32686  Biso   1.000  C
  C2       1.0000 0.34288  0.51592  0.02619  Biso   1.000  C
  C3       1.0000 0.04332  0.28984  0.55350  Biso   1.000  C
  C4       1.0000 0.07321  0.96958  0.19238  Biso   1.000  C
  C5       1.0000 0.84315  0.50927  0.51845  Biso   1.000  C
  C6       1.0000 0.54039  0.29102  0.95192  Biso   1.000  C
  C7       1.0000 0.97437  0.47836  0.33491  Biso   1.000  C
  C8       1.0000 0.20804  0.01707  0.00380  Biso   1.000  C
  C9       1.0000 0.50815  0.79110  0.57570  Biso   1.000  C
  C10      1.0000 0.46874  0.45701  0.19933  Biso   1.000  C
  C11      1.0000 0.70964  0.01324  0.51054  Biso   1.000  C
  C12      1.0000 0.00777  0.79355  0.96538  Biso   1.000  C
  C13      1.0000 0.47571  0.98638  0.69114  Biso   1.000  C
  C14      1.0000 0.70648  0.42546  0.01584  Biso   1.000  C
  C15      1.0000 0.01144  0.65986  0.46494  Biso   1.000  C
  C16      1.0000 0.97082  0.98276  0.82731  Biso   1.000  C
  C17      1.0000 0.20585  0.43534  0.52041  Biso   1.000  C
  C18      1.0000 0.52310  0.64544  0.07760  Biso   1.000  C
  C19      1.0000 0.07921  0.46886  0.69554  Biso   1.000  C
  C20      1.0000 0.84441  0.92293  0.01689  Biso   1.000  C
  C21      1.0000 0.54347  0.14516  0.45174  Biso   1.000  C
  C22      1.0000 0.58500  0.48325  0.82743  Biso   1.000  C
  C23      1.0000 0.34065  0.93231  0.51412  Biso   1.000  C
  C24      1.0000 0.03563  0.15328  0.05835  Biso   1.000  C
  C25      1.0000 0.34989  0.04186  0.49697  Biso   1.000  C
  C26      1.0000 0.52145  0.28797  0.06262  Biso   1.000  C
  C27      1.0000 0.08484  0.47608  0.33283  Biso   1.000  C
  C28      1.0000 0.84411  0.03266  0.01299  Biso   1.000  C
  C29      1.0000 0.04505  0.29311  0.44763  Biso   1.000  C
  C30      1.0000 0.57926  0.46077  0.19398  Biso   1.000  C
  C31      1.0000 0.20427  0.54304  0.50809  Biso   1.000  C
  C32      1.0000 0.02608  0.79390  0.07291  Biso   1.000  C
  C33      1.0000 0.46226  0.96068  0.33150  Biso   1.000  C
  C34      1.0000 0.70352  0.53402  0.01794  Biso   1.000  C
  C35      1.0000 0.51039  0.78231  0.46852  Biso   1.000  C
  C36      1.0000 0.96652  0.98394  0.19462  Biso   1.000  C
  C37      1.0000 0.69839  0.90430  0.50849  Biso   1.000  C
  C38      1.0000 0.51771  0.65491  0.96954  Biso   1.000  C
  C39      1.0000 0.97175  0.46365  0.69242  Biso   1.000  C
  C40      1.0000 0.20722  0.90951  0.01133  Biso   1.000  C
  C41      1.0000 0.00694  0.64786  0.57407  Biso   1.000  C
  C42      1.0000 0.47628  0.48257  0.83112  Biso   1.000  C
  C43      1.0000 0.84692  0.40085  0.50309  Biso   1.000  C
  C44      1.0000 0.02746  0.15452  0.94972  Biso   1.000  C
  C45      1.0000 0.58502  0.98187  0.68882  Biso   1.000  C
  C46      1.0000 0.34407  0.40732  0.01200  Biso   1.000  C
  C47      1.0000 0.53053  0.16061  0.55850  Biso   1.000  C
  C48      1.0000 0.07999  0.97121  0.82930  Biso   1.000  C
  C49      1.0000 0.02887  0.02956  0.82642  Biso   1.000  C
  C50      1.0000 0.84381  0.97710  0.06681  Biso   1.000  C
  C51      1.0000 0.07130  0.79135  0.01143  Biso   1.000  C
  C52      1.0000 0.52822  0.03870  0.69362  Biso   1.000  C
  C53      1.0000 0.34042  0.98270  0.45567  Biso   1.000  C
  C54      1.0000 0.56188  0.78560  0.52125  Biso   1.000  C
  C55      1.0000 0.52944  0.53703  0.83551  Biso   1.000  C
  C56      1.0000 0.70675  0.47406  0.07207  Biso   1.000  C
  C57      1.0000 0.47820  0.28917  0.99723  Biso   1.000  C
  C58      1.0000 0.02745  0.51913  0.70159  Biso   1.000  C
  C59      1.0000 0.20633  0.48676  0.46275  Biso   1.000  C
  C60      1.0000 0.98317  0.28535  0.49872  Biso   1.000  C
  C61      1.0000 0.01482  0.92582  0.19201  Biso   1.000  C
  C62      1.0000 0.21244  0.96166  0.95277  Biso   1.000  C
  C63      1.0000 0.97630  0.15354  0.01263  Biso   1.000  C
  C64      1.0000 0.51372  0.90275  0.33551  Biso   1.000  C
  C65      1.0000 0.70700  0.95479  0.56329  Biso   1.000  C
  C66      1.0000 0.48469  0.15901  0.49903  Biso   1.000  C
  C67      1.0000 0.52822  0.40441  0.19863  Biso   1.000  C
  C68      1.0000 0.34604  0.46850  0.96193  Biso   1.000  C
  C69      1.0000 0.57373  0.65145  0.02204  Biso   1.000  C
  C70      1.0000 0.02800  0.42546  0.33429  Biso   1.000  C
  C71      1.0000 0.84365  0.44843  0.56949  Biso   1.000  C
  C72      1.0000 0.06161  0.65232  0.51872  Biso   1.000  C
  C73      1.0000 0.03307  0.53309  0.33546  Biso   1.000  C
  C74      1.0000 0.34897  0.99060  0.56234  Biso   1.000  C
  C75      1.0000 0.58315  0.29590  0.01791  Biso   1.000  C
  C76      1.0000 0.52365  0.51350  0.20102  Biso   1.000  C
  C77      1.0000 0.84590  0.97343  0.95753  Biso   1.000  C
  C78      1.0000 0.09373  0.29768  0.50090  Biso   1.000  C
  C79      1.0000 0.52208  0.01184  0.33296  Biso   1.000  C
  C80      1.0000 0.20381  0.49243  0.57165  Biso   1.000  C
  C81      1.0000 0.96360  0.78957  0.03069  Biso   1.000  C
  C82      1.0000 0.02944  0.03385  0.19348  Biso   1.000  C
  C83      1.0000 0.70998  0.48216  0.95990  Biso   1.000  C
  C84      1.0000 0.45379  0.79475  0.51761  Biso   1.000  C
  C85      1.0000 0.02636  0.41196  0.68393  Biso   1.000  C
  C86      1.0000 0.70137  0.96294  0.45582  Biso   1.000  C
  C87      1.0000 0.46509  0.64948  0.02835  Biso   1.000  C
  C88      1.0000 0.53108  0.42812  0.82962  Biso   1.000  C
  C89      1.0000 0.20117  0.96477  0.06163  Biso   1.000  C
  C90      1.0000 0.95308  0.65118  0.52095  Biso   1.000  C
  C91      1.0000 0.52670  0.92964  0.69013  Biso   1.000  C
  C92      1.0000 0.84865  0.46192  0.46110  Biso   1.000  C
  C93      1.0000 0.08528  0.14684  0.99563  Biso   1.000  C
  C94      1.0000 0.01971  0.91787  0.83395  Biso   1.000  C
  C95      1.0000 0.34187  0.45905  0.07122  Biso   1.000  C
  C96      1.0000 0.59181  0.14847  0.51356  Biso   1.000  C
  C97      1.0000 0.71305  0.04508  0.51607  Biso   1.000  C
  C98      1.0000 0.52051  0.64329  0.10993  Biso   1.000  C
  C99      1.0000 0.11033  0.47594  0.69814  Biso   1.000  C
  C100     1.0000 0.21046  0.04829  0.99610  Biso   1.000  C
  C101     1.0000 0.01785  0.66032  0.43291  Biso   1.000  C
  C102     1.0000 0.61677  0.48073  0.82879  Biso   1.000  C
  C103     1.0000 0.83875  0.54140  0.52120  Biso   1.000  C
  C104     1.0000 0.03814  0.15610  0.08950  Biso   1.000  C
  C105     1.0000 0.44348  0.98540  0.69207  Biso   1.000  C
  C106     1.0000 0.34238  0.54799  0.02730  Biso   1.000  C
  C107     1.0000 0.54065  0.14169  0.41976  Biso   1.000  C
  C108     1.0000 0.93968  0.98941  0.83116  Biso   1.000  C
  C109     1.0000 0.33748  0.90105  0.50801  Biso   1.000  C
  C110     1.0000 0.53905  0.29311  0.91968  Biso   1.000  C
  C111     1.0000 0.94284  0.47659  0.33509  Biso   1.000  C
  C112     1.0000 0.84477  0.89242  0.02850  Biso   1.000  C
  C113     1.0000 0.05216  0.28988  0.58406  Biso   1.000  C
  C114     1.0000 0.43683  0.45753  0.19823  Biso   1.000  C
  C115     1.0000 0.20995  0.40343  0.51558  Biso   1.000  C
  C116     1.0000 0.00227  0.79397  0.93362  Biso   1.000  C
  C117     1.0000 0.60571  0.96484  0.32714  Biso   1.000  C
  C118     1.0000 0.70681  0.39278  0.01554  Biso   1.000  C
  C119     1.0000 0.50507  0.79514  0.60752  Biso   1.000  C
  C120     1.0000 0.10404  0.96103  0.19224  Biso   1.000  C
  C121     1.0000 0.84073  0.97861  0.09856  Biso   1.000  C
  C122     1.0000 0.10318  0.78935  0.00821  Biso   1.000  C
  C123     1.0000 0.02755  0.06241  0.82514  Biso   1.000  C
  C124     1.0000 0.33899  0.98181  0.42405  Biso   1.000  C
  C125     1.0000 0.59343  0.78430  0.52133  Biso   1.000  C
  C126     1.0000 0.52599  0.07048  0.69226  Biso   1.000  C
  C127     1.0000 0.70735  0.46779  0.10403  Biso   1.000  C
  C128     1.0000 0.44500  0.28498  0.00059  Biso   1.000  C
  C129     1.0000 0.52811  0.57037  0.83802  Biso   1.000  C
  C130     1.0000 0.20782  0.48476  0.43092  Biso   1.000  C
  C131     1.0000 0.95108  0.28344  0.49862  Biso   1.000  C
  C132     1.0000 0.02717  0.55215  0.70225  Biso   1.000  C
  C133     1.0000 0.21150  0.96161  0.92105  Biso   1.000  C
  C134     1.0000 0.94351  0.15426  0.01487  Biso   1.000  C
  C135     1.0000 0.02396  0.89459  0.19316  Biso   1.000  C
  C136     1.0000 0.70874  0.95624  0.59509  Biso   1.000  C
  C137     1.0000 0.45274  0.16288  0.49646  Biso   1.000  C
  C138     1.0000 0.50699  0.87165  0.33707  Biso   1.000  C
  C139     1.0000 0.34727  0.47074  0.92885  Biso   1.000  C
  C140     1.0000 0.60467  0.65316  0.02278  Biso   1.000  C
  C141     1.0000 0.52396  0.37182  0.19651  Biso   1.000  C
  C142     1.0000 0.84407  0.44399  0.60155  Biso   1.000  C
  C143     1.0000 0.09206  0.65772  0.51692  Biso   1.000  C
  C144     1.0000 0.03066  0.39309  0.32971  Biso   1.000  C
  C145     1.0000 0.34051  0.46276  0.10250  Biso   1.000  C
  C146     1.0000 0.12588  0.30152  0.49700  Biso   1.000  C
  C147     1.0000 0.51675  0.04432  0.33377  Biso   1.000  C
  C148     1.0000 0.84978  0.45964  0.42928  Biso   1.000  C
  C149     1.0000 0.61343  0.29796  0.02681  Biso   1.000  C
  C150     1.0000 0.02994  0.06703  0.19111  Biso   1.000  C
  C151     1.0000 0.19899  0.97135  0.09250  Biso   1.000  C
  C152     1.0000 0.42255  0.79605  0.51321  Biso   1.000  C
  C153     1.0000 0.04093  0.56489  0.33749  Biso   1.000  C
  C154     1.0000 0.69948  0.97012  0.42474  Biso   1.000  C
  C155     1.0000 0.93334  0.79160  0.03858  Biso   1.000  C
  C156     1.0000 0.52370  0.54590  0.20248  Biso   1.000  C
  C157     1.0000 0.70897  0.48170  0.92819  Biso   1.000  C
  C158     1.0000 0.92122  0.64772  0.52386  Biso   1.000  C
  C159     1.0000 0.52686  0.89786  0.69105  Biso   1.000  C
  C160     1.0000 0.20468  0.49673  0.60461  Biso   1.000  C
  C161     1.0000 0.43291  0.64896  0.02751  Biso   1.000  C
  C162     1.0000 0.01630  0.88499  0.83604  Biso   1.000  C
  C163     1.0000 0.84668  0.96967  0.92575  Biso   1.000  C
  C164     1.0000 0.62311  0.14678  0.51647  Biso   1.000  C
  C165     1.0000 0.02253  0.38115  0.67966  Biso   1.000  C
  C166     1.0000 0.34909  0.98693  0.59501  Biso   1.000  C
  C167     1.0000 0.11733  0.14623  0.98980  Biso   1.000  C
  C168     1.0000 0.53205  0.39641  0.82720  Biso   1.000  C
  C169     1.0000 0.02478  0.79429  0.10463  Biso   1.000  C
  C170     1.0000 0.11231  0.96906  0.82935  Biso   1.000  C
  C171     1.0000 0.84451  0.06439  0.01691  Biso   1.000  C
  C172     1.0000 0.51019  0.78216  0.43631  Biso   1.000  C
  C173     1.0000 0.61746  0.98368  0.68934  Biso   1.000  C
  C174     1.0000 0.35199  0.07351  0.49284  Biso   1.000  C
  C175     1.0000 0.52066  0.28358  0.09467  Biso   1.000  C
  C176     1.0000 0.44411  0.48018  0.83199  Biso   1.000  C
  C177     1.0000 0.70320  0.56396  0.02695  Biso   1.000  C
  C178     1.0000 0.04790  0.29291  0.41611  Biso   1.000  C
  C179     1.0000 0.94029  0.46247  0.69181  Biso   1.000  C
  C180     1.0000 0.19877  0.57458  0.50473  Biso   1.000  C
  C181     1.0000 0.02444  0.15524  0.91784  Biso   1.000  C
  C182     1.0000 0.93434  0.97964  0.19540  Biso   1.000  C
  C183     1.0000 0.20502  0.87791  0.01656  Biso   1.000  C
  C184     1.0000 0.52790  0.16246  0.59015  Biso   1.000  C
  C185     1.0000 0.42997  0.95791  0.33225  Biso   1.000  C
  C186     1.0000 0.69613  0.87179  0.50509  Biso   1.000  C
  C187     1.0000 0.51923  0.65828  0.93826  Biso   1.000  C
  C188     1.0000 0.61190  0.45782  0.19689  Biso   1.000  C
  C189     1.0000 0.34585  0.37513  0.01225  Biso   1.000  C
  C190     1.0000 0.00704  0.64870  0.60713  Biso   1.000  C
  C191     1.0000 0.11586  0.47326  0.33593  Biso   1.000  C
  C192     1.0000 0.84966  0.37111  0.49462  Biso   1.000  C
  C193     1.0000 0.87407  0.97311  0.90970  Biso   1.000  C
  C194     1.0000 0.92003  0.82070  0.03735  Biso   1.000  C
  C195     1.0000 0.01246  0.86924  0.86311  Biso   1.000  C
  C196     1.0000 0.37632  0.98377  0.61194  Biso   1.000  C
  C197     1.0000 0.40890  0.82414  0.51010  Biso   1.000  C
  C198     1.0000 0.52165  0.87928  0.66613  Biso   1.000  C
  C199     1.0000 0.68102  0.48090  0.91067  Biso   1.000  C
  C200     1.0000 0.62926  0.32621  0.02526  Biso   1.000  C
  C201     1.0000 0.53305  0.38035  0.85393  Biso   1.000  C
  C202     1.0000 0.17830  0.49017  0.62079  Biso   1.000  C
  C203     1.0000 0.13662  0.33162  0.49933  Biso   1.000  C
  C204     1.0000 0.03224  0.37061  0.65216  Biso   1.000  C
  C205     1.0000 0.17295  0.97103  0.10983  Biso   1.000  C
  C206     1.0000 0.13314  0.11803  0.99085  Biso   1.000  C
  C207     1.0000 0.02774  0.08299  0.16304  Biso   1.000  C
  C208     1.0000 0.67349  0.96632  0.40667  Biso   1.000  C
  C209     1.0000 0.63762  0.11936  0.51786  Biso   1.000  C
  C210     1.0000 0.52318  0.06024  0.35985  Biso   1.000  C
  C211     1.0000 0.36741  0.46259  0.11840  Biso   1.000  C
  C212     1.0000 0.41972  0.62089  0.02569  Biso   1.000  C
  C213     1.0000 0.51960  0.56311  0.17649  Biso   1.000  C
  C214     1.0000 0.87666  0.45962  0.41230  Biso   1.000  C
  C215     1.0000 0.90649  0.61983  0.52790  Biso   1.000  C
  C216     1.0000 0.03675  0.57986  0.36548  Biso   1.000  C
  C217     1.0000 0.13048  0.96797  0.85677  Biso   1.000  C
  C218     1.0000 0.87209  0.07859  0.01518  Biso   1.000  C
  C219     1.0000 0.02344  0.82205  0.11793  Biso   1.000  C
  C220     1.0000 0.63222  0.97610  0.66373  Biso   1.000  C
  C221     1.0000 0.38017  0.08841  0.49173  Biso   1.000  C
  C222     1.0000 0.50525  0.80802  0.41911  Biso   1.000  C
  C223     1.0000 0.42854  0.47620  0.85941  Biso   1.000  C
  C224     1.0000 0.67516  0.57961  0.02541  Biso   1.000  C
  C225     1.0000 0.52076  0.30840  0.11233  Biso   1.000  C
  C226     1.0000 0.92379  0.45770  0.66472  Biso   1.000  C
  C227     1.0000 0.17023  0.58703  0.50657  Biso   1.000  C
  C228     1.0000 0.04589  0.32109  0.40118  Biso   1.000  C
  C229     1.0000 0.91845  0.97423  0.16814  Biso   1.000  C
  C230     1.0000 0.17603  0.86371  0.01344  Biso   1.000  C
  C231     1.0000 0.02778  0.12928  0.90205  Biso   1.000  C
  C232     1.0000 0.41324  0.96537  0.35736  Biso   1.000  C
  C233     1.0000 0.66687  0.85861  0.50343  Biso   1.000  C
  C234     1.0000 0.53027  0.13492  0.60842  Biso   1.000  C
  C235     1.0000 0.62824  0.45815  0.17053  Biso   1.000  C
  C236     1.0000 0.37455  0.36046  0.01167  Biso   1.000  C
  C237     1.0000 0.52036  0.63236  0.92084  Biso   1.000  C
  C238     1.0000 0.13234  0.48190  0.36128  Biso   1.000  C
  C239     1.0000 0.87770  0.35712  0.49598  Biso   1.000  C
  C240     1.0000 0.00983  0.62054  0.62248  Biso   1.000  C
  C241     1.0000 0.63137  0.48416  0.85718  Biso   1.000  C
  C242     1.0000 0.86359  0.56116  0.52235  Biso   1.000  C
  C243     1.0000 0.50759  0.82431  0.62077  Biso   1.000  C
  C244     1.0000 0.12789  0.48048  0.67200  Biso   1.000  C
  C245     1.0000 0.36863  0.56603  0.02928  Biso   1.000  C
  C246     1.0000 0.00590  0.81913  0.91591  Biso   1.000  C
  C247     1.0000 0.92417  0.98282  0.85844  Biso   1.000  C
  C248     1.0000 0.68638  0.06319  0.51716  Biso   1.000  C
  C249     1.0000 0.04827  0.31760  0.59880  Biso   1.000  C
  C250     1.0000 0.42715  0.98632  0.66481  Biso   1.000  C
  C251     1.0000 0.18358  0.06509  0.99356  Biso   1.000  C
  C252     1.0000 0.53910  0.32128  0.90491  Biso   1.000  C
  C253     1.0000 0.42059  0.45809  0.17103  Biso   1.000  C
  C254     1.0000 0.18329  0.38520  0.51220  Biso   1.000  C
  C255     1.0000 0.53626  0.11313  0.40714  Biso   1.000  C
  C256     1.0000 0.92701  0.47133  0.36068  Biso   1.000  C
  C257     1.0000 0.68126  0.37607  0.01973  Biso   1.000  C
  C258     1.0000 0.03353  0.13093  0.10719  Biso   1.000  C
  C259     1.0000 0.11979  0.95816  0.16450  Biso   1.000  C
  C260     1.0000 0.36312  0.88299  0.51086  Biso   1.000  C
  C261     1.0000 0.02136  0.63298  0.41644  Biso   1.000  C
  C262     1.0000 0.62367  0.96496  0.35255  Biso   1.000  C
  C263     1.0000 0.87198  0.87585  0.03060  Biso   1.000  C
  C264     1.0000 0.52163  0.61510  0.12470  Biso   1.000  C
  C265     1.0000 0.02997  0.07858  0.85160  Biso   1.000  C
  C266     1.0000 0.86733  0.97680  0.11499  Biso   1.000  C
  C267     1.0000 0.12122  0.81425  0.00884  Biso   1.000  C
  C268     1.0000 0.52763  0.08499  0.66353  Biso   1.000  C
  C269     1.0000 0.36445  0.97734  0.40723  Biso   1.000  C
  C270     1.0000 0.61154  0.81079  0.51453  Biso   1.000  C
  C271     1.0000 0.52883  0.58478  0.86533  Biso   1.000  C
  C272     1.0000 0.67966  0.46238  0.11929  Biso   1.000  C
  C273     1.0000 0.42657  0.31021  0.00642  Biso   1.000  C
  C274     1.0000 0.02259  0.56912  0.67530  Biso   1.000  C
  C275     1.0000 0.18226  0.48543  0.41381  Biso   1.000  C
  C276     1.0000 0.93398  0.30917  0.49840  Biso   1.000  C
  C277     1.0000 0.02464  0.87827  0.16775  Biso   1.000  C
  C278     1.0000 0.18325  0.96603  0.90613  Biso   1.000  C
  C279     1.0000 0.92731  0.12746  0.01370  Biso   1.000  C
  C280     1.0000 0.50787  0.85563  0.36425  Biso   1.000  C
  C281     1.0000 0.68213  0.96114  0.61119  Biso   1.000  C
  C282     1.0000 0.43463  0.13681  0.49786  Biso   1.000  C
  C283     1.0000 0.52404  0.35713  0.16842  Biso   1.000  C
  C284     1.0000 0.37444  0.46938  0.91298  Biso   1.000  C
  C285     1.0000 0.62223  0.62731  0.02457  Biso   1.000  C
  C286     1.0000 0.03926  0.37592  0.35468  Biso   1.000  C
  C287     1.0000 0.87131  0.44799  0.61682  Biso   1.000  C
  C288     1.0000 0.11073  0.63366  0.51267  Biso   1.000  C
  C289     1.0000 0.35940  0.85064  0.51044  Biso   1.000  C
  C290     1.0000 0.53385  0.32280  0.87372  Biso   1.000  C
  C291     1.0000 0.89485  0.46629  0.35886  Biso   1.000  C
  C292     1.0000 0.86941  0.84402  0.03445  Biso   1.000  C
  C293     1.0000 0.04417  0.31685  0.62989  Biso   1.000  C
  C294     1.0000 0.38823  0.45874  0.17185  Biso   1.000  C
  C295     1.0000 0.18818  0.35531  0.50614  Biso   1.000  C
  C296     1.0000 0.00699  0.81621  0.88499  Biso   1.000  C
  C297     1.0000 0.65329  0.97281  0.35246  Biso   1.000  C
  C298     1.0000 0.68152  0.34524  0.02133  Biso   1.000  C
  C299     1.0000 0.51244  0.82594  0.65136  Biso   1.000  C
  C300     1.0000 0.15051  0.96434  0.16415  Biso   1.000  C
  C301     1.0000 0.68921  0.09395  0.51693  Biso   1.000  C
  C302     1.0000 0.52176  0.61521  0.15615  Biso   1.000  C
  C303     1.0000 0.15899  0.48452  0.67369  Biso   1.000  C
  C304     1.0000 0.18374  0.09617  0.99475  Biso   1.000  C
  C305     1.0000 0.02689  0.63352  0.38561  Biso   1.000  C
  C306     1.0000 0.66156  0.47606  0.85843  Biso   1.000  C
  C307     1.0000 0.85692  0.59212  0.52365  Biso   1.000  C
  C308     1.0000 0.03393  0.13368  0.13854  Biso   1.000  C
  C309     1.0000 0.39568  0.98529  0.66655  Biso   1.000  C
  C310     1.0000 0.36657  0.59756  0.02798  Biso   1.000  C
  C311     1.0000 0.52904  0.11379  0.37612  Biso   1.000  C
  C312     1.0000 0.89353  0.98271  0.85723  Biso   1.000  C
  C313     1.0000 0.18352  0.47846  0.38345  Biso   1.000  C
  C314     1.0000 0.40321  0.13887  0.49389  Biso   1.000  C
  C315     1.0000 0.52116  0.32541  0.16717  Biso   1.000  C
  C316     1.0000 0.68131  0.46448  0.15066  Biso   1.000  C
  C317     1.0000 0.89612  0.12995  0.01648  Biso   1.000  C
  C318     1.0000 0.04307  0.34484  0.34943  Biso   1.000  C
  C319     1.0000 0.36242  0.97041  0.37691  Biso   1.000  C
  C320     1.0000 0.14244  0.63722  0.51301  Biso   1.000  C
  C321     1.0000 0.02528  0.84618  0.17004  Biso   1.000  C
  C322     1.0000 0.86509  0.97619  0.14804  Biso   1.000  C
  C323     1.0000 0.65251  0.63105  0.02510  Biso   1.000  C
  C324     1.0000 0.50644  0.82451  0.36460  Biso   1.000  C
  C325     1.0000 0.86993  0.44954  0.64747  Biso   1.000  C
  C326     1.0000 0.64303  0.80818  0.51135  Biso   1.000  C
  C327     1.0000 0.52482  0.61592  0.86780  Biso   1.000  C
  C328     1.0000 0.37286  0.47247  0.88106  Biso   1.000  C
  C329     1.0000 0.15229  0.81164  0.01081  Biso   1.000  C
  C330     1.0000 0.01633  0.60046  0.67572  Biso   1.000  C
  C331     1.0000 0.68503  0.96829  0.64126  Biso   1.000  C
  C332     1.0000 0.90259  0.30588  0.49225  Biso   1.000  C
  C333     1.0000 0.02741  0.11002  0.84963  Biso   1.000  C
  C334     1.0000 0.18311  0.96381  0.87327  Biso   1.000  C
  C335     1.0000 0.39630  0.30788  0.00451  Biso   1.000  C
  C336     1.0000 0.52718  0.11682  0.66349  Biso   1.000  C
  C337     1.0000 0.68290  0.47495  0.88042  Biso   1.000  C
  C338     1.0000 0.87513  0.61795  0.52559  Biso   1.000  C
  C339     1.0000 0.51775  0.84821  0.67079  Biso   1.000  C
  C340     1.0000 0.18057  0.48947  0.65179  Biso   1.000  C
  C341     1.0000 0.38798  0.61938  0.02673  Biso   1.000  C
  C342     1.0000 0.00918  0.83792  0.86287  Biso   1.000  C
  C343     1.0000 0.87312  0.97884  0.87900  Biso   1.000  C
  C344     1.0000 0.66834  0.11744  0.51702  Biso   1.000  C
  C345     1.0000 0.03578  0.33852  0.65085  Biso   1.000  C
  C346     1.0000 0.37514  0.98516  0.64315  Biso   1.000  C
  C347     1.0000 0.16389  0.11917  0.99197  Biso   1.000  C
  C348     1.0000 0.53227  0.34754  0.85351  Biso   1.000  C
  C349     1.0000 0.36629  0.46084  0.14982  Biso   1.000  C
  C350     1.0000 0.16868  0.33294  0.50063  Biso   1.000  C
  C351     1.0000 0.52317  0.09134  0.35684  Biso   1.000  C
  C352     1.0000 0.87315  0.46322  0.38134  Biso   1.000  C
  C353     1.0000 0.66013  0.32475  0.02409  Biso   1.000  C
  C354     1.0000 0.03333  0.11317  0.16116  Biso   1.000  C
  C355     1.0000 0.17337  0.96746  0.14132  Biso   1.000  C
  C356     1.0000 0.37725  0.82563  0.51044  Biso   1.000  C
  C357     1.0000 0.03459  0.61233  0.36463  Biso   1.000  C
  C358     1.0000 0.67353  0.97311  0.37516  Biso   1.000  C
  C359     1.0000 0.88852  0.82100  0.03745  Biso   1.000  C
  C360     1.0000 0.51986  0.59423  0.17795  Biso   1.000  C
  C361     1.0000 0.02942  0.13157  0.87041  Biso   1.000  C
  C362     1.0000 0.88761  0.97615  0.16957  Biso   1.000  C
  C363     1.0000 0.17525  0.83155  0.01335  Biso   1.000  C
  C364     1.0000 0.52877  0.13710  0.64081  Biso   1.000  C
  C365     1.0000 0.38264  0.96635  0.35521  Biso   1.000  C
  C366     1.0000 0.66598  0.82744  0.50800  Biso   1.000  C
  C367     1.0000 0.52192  0.63589  0.88965  Biso   1.000  C
  C368     1.0000 0.65956  0.46026  0.17149  Biso   1.000  C
  C369     1.0000 0.37418  0.32900  0.00859  Biso   1.000  C
  C370     1.0000 0.00970  0.62189  0.65445  Biso   1.000  C
  C371     1.0000 0.16225  0.47605  0.36180  Biso   1.000  C
  C372     1.0000 0.87884  0.32595  0.49294  Biso   1.000  C
  C373     1.0000 0.02388  0.82277  0.14899  Biso   1.000  C
  C374     1.0000 0.16134  0.96422  0.85264  Biso   1.000  C
  C375     1.0000 0.87217  0.10975  0.01852  Biso   1.000  C
  C376     1.0000 0.50498  0.80402  0.38774  Biso   1.000  C
  C377     1.0000 0.66302  0.97391  0.66280  Biso   1.000  C
  C378     1.0000 0.38064  0.11913  0.49211  Biso   1.000  C
  C379     1.0000 0.52060  0.30544  0.14360  Biso   1.000  C
  C380     1.0000 0.39597  0.47604  0.86016  Biso   1.000  C
  C381     1.0000 0.67587  0.61076  0.02483  Biso   1.000  C
  C382     1.0000 0.04479  0.32153  0.36981  Biso   1.000  C
  C383     1.0000 0.89208  0.45368  0.66767  Biso   1.000  C
  C384     1.0000 0.16671  0.61916  0.50950  Biso   1.000  C
  C385     1.0000 0.21064  0.11163  0.99583  Biso   1.000  C
  C386     1.0000 0.03952  0.16054  0.15260  Biso   1.000  C
  C387     1.0000 0.16624  0.96765  0.19053  Biso   1.000  C
  C388     1.0000 0.71778  0.10785  0.51694  Biso   1.000  C
  C389     1.0000 0.52952  0.14045  0.35880  Biso   1.000  C
  C390     1.0000 0.66772  0.98310  0.32748  Biso   1.000  C
  C391     1.0000 0.33861  0.61189  0.02856  Biso   1.000  C
  C392     1.0000 0.52161  0.64321  0.17217  Biso   1.000  C
  C393     1.0000 0.37173  0.45668  0.19804  Biso   1.000  C
  C394     1.0000 0.82855  0.60514  0.52160  Biso   1.000  C
  C395     1.0000 0.02718  0.66100  0.36969  Biso   1.000  C
  C396     1.0000 0.87915  0.46915  0.33269  Biso   1.000  C
  C397     1.0000 0.84125  0.82958  0.03574  Biso   1.000  C
  C398     1.0000 0.00489  0.78916  0.86984  Biso   1.000  C
  C399     1.0000 0.87703  0.98433  0.83046  Biso   1.000  C
  C400     1.0000 0.33014  0.83707  0.50973  Biso   1.000  C
  C401     1.0000 0.51364  0.79929  0.67058  Biso   1.000  C
  C402     1.0000 0.38038  0.98741  0.69385  Biso   1.000  C
  C403     1.0000 0.70888  0.32920  0.02075  Biso   1.000  C
  C404     1.0000 0.53106  0.29698  0.85788  Biso   1.000  C
  C405     1.0000 0.67800  0.46805  0.83321  Biso   1.000  C
  C406     1.0000 0.21644  0.34308  0.50493  Biso   1.000  C
  C407     1.0000 0.04475  0.28984  0.64734  Biso   1.000  C
  C408     1.0000 0.17370  0.48642  0.70044  Biso   1.000  C
  C409     1.0000 0.17612  0.96365  0.82531  Biso   1.000  C
  C410     1.0000 0.84561  0.12607  0.02260  Biso   1.000  C
  C411     1.0000 0.02347  0.79512  0.16722  Biso   1.000  C
  C412     1.0000 0.68175  0.97906  0.68856  Biso   1.000  C
  C413     1.0000 0.35458  0.13627  0.49098  Biso   1.000  C
  C414     1.0000 0.50798  0.77734  0.37336  Biso   1.000  C
  C415     1.0000 0.37924  0.48111  0.83267  Biso   1.000  C
  C416     1.0000 0.70200  0.62740  0.02735  Biso   1.000  C
  C417     1.0000 0.51855  0.27706  0.15754  Biso   1.000  C
  C418     1.0000 0.87629  0.45443  0.69454  Biso   1.000  C
  C419     1.0000 0.19161  0.63806  0.51258  Biso   1.000  C
  C420     1.0000 0.04382  0.29627  0.35250  Biso   1.000  C
  C421     1.0000 0.87015  0.98242  0.19430  Biso   1.000  C
  C422     1.0000 0.20240  0.81485  0.01507  Biso   1.000  C
  C423     1.0000 0.02748  0.15793  0.85482  Biso   1.000  C
  C424     1.0000 0.36660  0.96146  0.32911  Biso   1.000  C
  C425     1.0000 0.69167  0.80996  0.50968  Biso   1.000  C
  C426     1.0000 0.52573  0.16479  0.65454  Biso   1.000  C
  C427     1.0000 0.67419  0.46278  0.19893  Biso   1.000  C
  C428     1.0000 0.34873  0.31245  0.01110  Biso   1.000  C
  C429     1.0000 0.52098  0.66412  0.87587  Biso   1.000  C
  C430     1.0000 0.17714  0.46454  0.33783  Biso   1.000  C
  C431     1.0000 0.85284  0.30871  0.48886  Biso   1.000  C
  C432     1.0000 0.00640  0.64862  0.67017  Biso   1.000  C
  C433     1.0000 0.02517  0.12553  0.82282  Biso   1.000  C
  C434     1.0000 0.83760  0.98143  0.16257  Biso   1.000  C
  C435     1.0000 0.16582  0.78327  0.01099  Biso   1.000  C
  C436     1.0000 0.52365  0.13299  0.68905  Biso   1.000  C
  C437     1.0000 0.33482  0.96906  0.36229  Biso   1.000  C
  C438     1.0000 0.65659  0.77977  0.51380  Biso   1.000  C
  C439     1.0000 0.52317  0.63301  0.84201  Biso   1.000  C
  C440     1.0000 0.70821  0.46841  0.16658  Biso   1.000  C
  C441     1.0000 0.38071  0.28020  0.00436  Biso   1.000  C
  C442     1.0000 0.01520  0.61513  0.70286  Biso   1.000  C
  C443     1.0000 0.21090  0.47133  0.36932  Biso   1.000  C
  C444     1.0000 0.88818  0.27711  0.49012  Biso   1.000  C
  C445     1.0000 0.02643  0.83117  0.19792  Biso   1.000  C
  C446     1.0000 0.21000  0.96031  0.85678  Biso   1.000  C
  C447     1.0000 0.88142  0.15662  0.01972  Biso   1.000  C
  C448     1.0000 0.50527  0.80875  0.33851  Biso   1.000  C
  C449     1.0000 0.71291  0.96845  0.65510  Biso   1.000  C
  C450     1.0000 0.38961  0.16799  0.49358  Biso   1.000  C
  C451     1.0000 0.51678  0.30690  0.19246  Biso   1.000  C
  C452     1.0000 0.34647  0.47688  0.86513  Biso   1.000  C
  C453     1.0000 0.66648  0.65916  0.02355  Biso   1.000  C
  C454     1.0000 0.04000  0.33170  0.32176  Biso   1.000  C
  C455     1.0000 0.84361  0.44476  0.66329  Biso   1.000  C
  C456     1.0000 0.15481  0.66625  0.51702  Biso   1.000  C
  C457     1.0000 0.03637  0.62910  0.33862  Biso   1.000  C
  C458     1.0000 0.34741  0.98688  0.65836  Biso   1.000  C
  C459     1.0000 0.67610  0.29741  0.02398  Biso   1.000  C
  C460     1.0000 0.51901  0.61026  0.20508  Biso   1.000  C
  C461     1.0000 0.84592  0.97778  0.86347  Biso   1.000  C
  C462     1.0000 0.18835  0.30766  0.49740  Biso   1.000  C
  C463     1.0000 0.51781  0.10645  0.32932  Biso   1.000  C
  C464     1.0000 0.20681  0.49362  0.66797  Biso   1.000  C
  C465     1.0000 0.87152  0.79482  0.03964  Biso   1.000  C
  C466     1.0000 0.03869  0.12964  0.18698  Biso   1.000  C
  C467     1.0000 0.70981  0.46681  0.86629  Biso   1.000  C
  C468     1.0000 0.35942  0.80034  0.51151  Biso   1.000  C
  C469     1.0000 0.02904  0.32112  0.67623  Biso   1.000  C
  C470     1.0000 0.69892  0.98509  0.36075  Biso   1.000  C
  C471     1.0000 0.37133  0.64449  0.02859  Biso   1.000  C
  C472     1.0000 0.52855  0.33251  0.82654  Biso   1.000  C
  C473     1.0000 0.19945  0.97049  0.15661  Biso   1.000  C
  C474     1.0000 0.85620  0.64187  0.52443  Biso   1.000  C
  C475     1.0000 0.52041  0.83508  0.69880  Biso   1.000  C
  C476     1.0000 0.84650  0.46302  0.36589  Biso   1.000  C
  C477     1.0000 0.18017  0.14636  0.99137  Biso   1.000  C
  C478     1.0000 0.00826  0.82239  0.83649  Biso   1.000  C
  C479     1.0000 0.33965  0.46026  0.16468  Biso   1.000  C
  C480     1.0000 0.68622  0.14337  0.51701  Biso   1.000  C
  C481     1.0000 0.37361  0.77198  0.51349  Biso   1.000  C
  C482     1.0000 0.52546  0.34860  0.79951  Biso   1.000  C
  C483     1.0000 0.81988  0.45902  0.38370  Biso   1.000  C
  C484     1.0000 0.88551  0.76526  0.04240  Biso   1.000  C
  C485     1.0000 0.01437  0.33295  0.70168  Biso   1.000  C
  C486     1.0000 0.31164  0.46105  0.14820  Biso   1.000  C
  C487     1.0000 0.17668  0.27841  0.49349  Biso   1.000  C
  C488     1.0000 0.01271  0.83740  0.80899  Biso   1.000  C
  C489     1.0000 0.72355  0.99339  0.37997  Biso   1.000  C
  C490     1.0000 0.66091  0.27096  0.02715  Biso   1.000  C
  C491     1.0000 0.52707  0.85200  0.72405  Biso   1.000  C
  C492     1.0000 0.22823  0.97256  0.13840  Biso   1.000  C
  C493     1.0000 0.67170  0.17098  0.51447  Biso   1.000  C
  C494     1.0000 0.52128  0.59254  0.23131  Biso   1.000  C
  C495     1.0000 0.23418  0.49854  0.65235  Biso   1.000  C
  C496     1.0000 0.16536  0.17442  0.99105  Biso   1.000  C
  C497     1.0000 0.04404  0.61454  0.31176  Biso   1.000  C
  C498     1.0000 0.73771  0.46723  0.88357  Biso   1.000  C
  C499     1.0000 0.87075  0.67119  0.52353  Biso   1.000  C
  C500     1.0000 0.03812  0.11536  0.21510  Biso   1.000  C
  C501     1.0000 0.32062  0.98446  0.64224  Biso   1.000  C
  C502     1.0000 0.38555  0.67406  0.03032  Biso   1.000  C
  C503     1.0000 0.50846  0.08977  0.30409  Biso   1.000  C
  C504     1.0000 0.81949  0.97062  0.87912  Biso   1.000  C
  C505     1.0000 0.66357  0.46732  0.80506  Biso   1.000  C
  C506     1.0000 0.80474  0.58519  0.51933  Biso   1.000  C
  C507     1.0000 0.50877  0.77206  0.65733  Biso   1.000  C
  C508     1.0000 0.15642  0.48330  0.72761  Biso   1.000  C
  C509     1.0000 0.31171  0.59440  0.02845  Biso   1.000  C
  C510     1.0000 0.99832  0.76424  0.88807  Biso   1.000  C
  C511     1.0000 0.89244  0.99304  0.80291  Biso   1.000  C
  C512     1.0000 0.74358  0.09035  0.51563  Biso   1.000  C
  C513     1.0000 0.05575  0.26318  0.63281  Biso   1.000  C
  C514     1.0000 0.39644  0.98971  0.71970  Biso   1.000  C
  C515     1.0000 0.23873  0.09653  0.99671  Biso   1.000  C
  C516     1.0000 0.53034  0.26738  0.87291  Biso   1.000  C
  C517     1.0000 0.38673  0.45149  0.22526  Biso   1.000  C
  C518     1.0000 0.24276  0.36058  0.51072  Biso   1.000  C
  C519     1.0000 0.53566  0.16700  0.37176  Biso   1.000  C
  C520     1.0000 0.89665  0.47543  0.30570  Biso   1.000  C
  C521     1.0000 0.73527  0.34599  0.01589  Biso   1.000  C
  C522     1.0000 0.04292  0.18632  0.13562  Biso   1.000  C
  C523     1.0000 0.15081  0.96997  0.21707  Biso   1.000  C
  C524     1.0000 0.30487  0.85608  0.50423  Biso   1.000  C
  C525     1.0000 0.01992  0.68712  0.38578  Biso   1.000  C
  C526     1.0000 0.65116  0.98445  0.30056  Biso   1.000  C
  C527     1.0000 0.81464  0.84654  0.03629  Biso   1.000  C
  C528     1.0000 0.52085  0.67163  0.15719  Biso   1.000  C
  C529     1.0000 0.81825  0.11068  0.02545  Biso   1.000  C
  C530     1.0000 0.02365  0.76693  0.15310  Biso   1.000  C
  C531     1.0000 0.15958  0.96535  0.79907  Biso   1.000  C
  C532     1.0000 0.32623  0.12090  0.49107  Biso   1.000  C
  C533     1.0000 0.51217  0.75092  0.39131  Biso   1.000  C
  C534     1.0000 0.66677  0.98620  0.71521  Biso   1.000  C
  C535     1.0000 0.73094  0.61296  0.02869  Biso   1.000  C
  C536     1.0000 0.51777  0.25084  0.14045  Biso   1.000  C
  C537     1.0000 0.39509  0.48386  0.80452  Biso   1.000  C
  C538     1.0000 0.22112  0.62604  0.50877  Biso   1.000  C
  C539     1.0000 0.04533  0.26686  0.36869  Biso   1.000  C
  C540     1.0000 0.89147  0.46188  0.72085  Biso   1.000  C
  C541     1.0000 0.22931  0.82964  0.02203  Biso   1.000  C
  C542     1.0000 0.02434  0.18609  0.87021  Biso   1.000  C
  C543     1.0000 0.88637  0.98585  0.22182  Biso   1.000  C
  C544     1.0000 0.72040  0.82284  0.50756  Biso   1.000  C
  C545     1.0000 0.51917  0.19053  0.63541  Biso   1.000  C
  C546     1.0000 0.38353  0.95127  0.30398  Biso   1.000  C
  C547     1.0000 0.32028  0.32757  0.01494  Biso   1.000  C
  C548     1.0000 0.52070  0.69121  0.89304  Biso   1.000  C
  C549     1.0000 0.65870  0.46135  0.22630  Biso   1.000  C
  C550     1.0000 0.82406  0.32281  0.48476  Biso   1.000  C
  C551     1.0000 0.00392  0.67614  0.65404  Biso   1.000  C
  C552     1.0000 0.16200  0.45500  0.31136  Biso   1.000  C
  C553     1.0000 0.02072  0.10890  0.79629  Biso   1.000  C
  C554     1.0000 0.81105  0.98624  0.14498  Biso   1.000  C
  C555     1.0000 0.14780  0.75772  0.00664  Biso   1.000  C
  C556     1.0000 0.52297  0.11846  0.71703  Biso   1.000  C
  C557     1.0000 0.30771  0.97597  0.37857  Biso   1.000  C
  C558     1.0000 0.63889  0.75431  0.52100  Biso   1.000  C
  C559     1.0000 0.52318  0.62004  0.81274  Biso   1.000  C
  C560     1.0000 0.73586  0.47048  0.15007  Biso   1.000  C
  C561     1.0000 0.39902  0.25498  0.00031  Biso   1.000  C
  C562     1.0000 0.01574  0.59713  0.72816  Biso   1.000  C
  C563     1.0000 0.23838  0.47065  0.38590  Biso   1.000  C
  C564     1.0000 0.90702  0.25082  0.49297  Biso   1.000  C
  C565     1.0000 0.02559  0.84814  0.22313  Biso   1.000  C
  C566     1.0000 0.23649  0.95655  0.87305  Biso   1.000  C
  C567     1.0000 0.89732  0.18328  0.01878  Biso   1.000  C
  C568     1.0000 0.50033  0.82466  0.31099  Biso   1.000  C
  C569     1.0000 0.73989  0.95839  0.64075  Biso   1.000  C
  C570     1.0000 0.40849  0.19512  0.49436  Biso   1.000  C
  C571     1.0000 0.51333  0.32190  0.21969  Biso   1.000  C
  C572     1.0000 0.31901  0.47771  0.88208  Biso   1.000  C
  C573     1.0000 0.64904  0.68543  0.02350  Biso   1.000  C
  C574     1.0000 0.03376  0.34921  0.29677  Biso   1.000  C
  C575     1.0000 0.81602  0.44013  0.64816  Biso   1.000  C
  C576     1.0000 0.13624  0.69047  0.52383  Biso   1.000  C
  C577     1.0000 0.31225  0.46300  0.11678  Biso   1.000  C
  C578     1.0000 0.14484  0.27525  0.49378  Biso   1.000  C
  C579     1.0000 0.50616  0.05933  0.30647  Biso   1.000  C
  C580     1.0000 0.82143  0.45825  0.41508  Biso   1.000  C
  C581     1.0000 0.62974  0.27041  0.02865  Biso   1.000  C
  C582     1.0000 0.03245  0.08368  0.21782  Biso   1.000  C
  C583     1.0000 0.22651  0.97318  0.10707  Biso   1.000  C
  C584     1.0000 0.40465  0.76964  0.51499  Biso   1.000  C
  C585     1.0000 0.04486  0.58316  0.31157  Biso   1.000  C
  C586     1.0000 0.72436  0.98409  0.41027  Biso   1.000  C
  C587     1.0000 0.91720  0.76453  0.03917  Biso   1.000  C
  C588     1.0000 0.52399  0.56051  0.23016  Biso   1.000  C
  C589     1.0000 0.73685  0.47529  0.91457  Biso   1.000  C
  C590     1.0000 0.90187  0.67445  0.52262  Biso   1.000  C
  C591     1.0000 0.52938  0.88320  0.72139  Biso   1.000  C
  C592     1.0000 0.23208  0.50081  0.62059  Biso   1.000  C
  C593     1.0000 0.41601  0.67594  0.02946  Biso   1.000  C
  C594     1.0000 0.01580  0.86836  0.80957  Biso   1.000  C
  C595     1.0000 0.81869  0.97048  0.91054  Biso   1.000  C
  C596     1.0000 0.64067  0.17278  0.51406  Biso   1.000  C
  C597     1.0000 0.01171  0.36356  0.70330  Biso   1.000  C
  C598     1.0000 0.32104  0.98598  0.61134  Biso   1.000  C
  C599     1.0000 0.13339  0.17481  0.98934  Biso   1.000  C
  C600     1.0000 0.52843  0.38073  0.80001  Biso   1.000  C
  C601     1.0000 0.23737  0.95625  0.90322  Biso   1.000  C
  C602     1.0000 0.92803  0.18179  0.01668  Biso   1.000  C
  C603     1.0000 0.02507  0.87983  0.22122  Biso   1.000  C
  C604     1.0000 0.73711  0.95399  0.60976  Biso   1.000  C
  C605     1.0000 0.43956  0.19238  0.49565  Biso   1.000  C
  C606     1.0000 0.50023  0.85549  0.31163  Biso   1.000  C
  C607     1.0000 0.32004  0.47285  0.91350  Biso   1.000  C
  C608     1.0000 0.61880  0.68114  0.02197  Biso   1.000  C
  C609     1.0000 0.51856  0.35304  0.22249  Biso   1.000  C
  C610     1.0000 0.81563  0.44185  0.61738  Biso   1.000  C
  C611     1.0000 0.10607  0.68623  0.52464  Biso   1.000  C
  C612     1.0000 0.02731  0.38048  0.30097  Biso   1.000  C
  C613     1.0000 0.81275  0.98462  0.11355  Biso   1.000  C
  C614     1.0000 0.11614  0.76106  0.00850  Biso   1.000  C
  C615     1.0000 0.02257  0.07732  0.79785  Biso   1.000  C
  C616     1.0000 0.30984  0.98251  0.40910  Biso   1.000  C
  C617     1.0000 0.60759  0.75581  0.52630  Biso   1.000  C
  C618     1.0000 0.52516  0.08605  0.71965  Biso   1.000  C
  C619     1.0000 0.73526  0.47011  0.11853  Biso   1.000  C
  C620     1.0000 0.43095  0.25700  0.99744  Biso   1.000  C
  C621     1.0000 0.52321  0.58759  0.81157  Biso   1.000  C
  C622     1.0000 0.23625  0.47863  0.41625  Biso   1.000  C
  C623     1.0000 0.93721  0.25516  0.49602  Biso   1.000  C
  C624     1.0000 0.02292  0.56689  0.72864  Biso   1.000  C
  C625     1.0000 0.02426  0.18288  0.90146  Biso   1.000  C
  C626     1.0000 0.91890  0.98415  0.22205  Biso   1.000  C
  C627     1.0000 0.23084  0.86146  0.02304  Biso   1.000  C
  C628     1.0000 0.52139  0.18985  0.60312  Biso   1.000  C
  C629     1.0000 0.41513  0.95106  0.30485  Biso   1.000  C
  C630     1.0000 0.72333  0.85467  0.50411  Biso   1.000  C
  C631     1.0000 0.51999  0.68725  0.92487  Biso   1.000  C
  C632     1.0000 0.62741  0.45755  0.22456  Biso   1.000  C
  C633     1.0000 0.31905  0.35924  0.01330  Biso   1.000  C
  C634     1.0000 0.00575  0.67581  0.62251  Biso   1.000  C
  C635     1.0000 0.12982  0.45910  0.31179  Biso   1.000  C
  C636     1.0000 0.82350  0.35410  0.48875  Biso   1.000  C
  C637     1.0000 0.02188  0.76677  0.12170  Biso   1.000  C
  C638     1.0000 0.12719  0.96584  0.80146  Biso   1.000  C
  C639     1.0000 0.81790  0.07988  0.02233  Biso   1.000  C
  C640     1.0000 0.51398  0.75344  0.42305  Biso   1.000  C
  C641     1.0000 0.63539  0.98686  0.71500  Biso   1.000  C
  C642     1.0000 0.32539  0.09038  0.49208  Biso   1.000  C
  C643     1.0000 0.52044  0.25404  0.10877  Biso   1.000  C
  C644     1.0000 0.42735  0.48367  0.80492  Biso   1.000  C
  C645     1.0000 0.73123  0.57968  0.03001  Biso   1.000  C
  C646     1.0000 0.04679  0.26575  0.40062  Biso   1.000  C
  C647     1.0000 0.92386  0.46562  0.71943  Biso   1.000  C
  C648     1.0000 0.22436  0.59492  0.50573  Biso   1.000  C
  C649     1.0000 0.01715  0.68729  0.41670  Biso   1.000  C
  C650     1.0000 0.42857  0.98666  0.71923  Biso   1.000  C
  C651     1.0000 0.73481  0.37802  0.01423  Biso   1.000  C
  C652     1.0000 0.51904  0.67132  0.12520  Biso   1.000  C
  C653     1.0000 0.92368  0.99433  0.80448  Biso   1.000  C
  C654     1.0000 0.23991  0.39173  0.51356  Biso   1.000  C
  C655     1.0000 0.54009  0.16851  0.40294  Biso   1.000  C
  C656     1.0000 0.12487  0.47912  0.72574  Biso   1.000  C
  C657     1.0000 0.81713  0.87770  0.03178  Biso   1.000  C
  C658     1.0000 0.04188  0.18469  0.10429  Biso   1.000  C
  C659     1.0000 0.63291  0.47330  0.80318  Biso   1.000  C
  C660     1.0000 0.30797  0.88760  0.50387  Biso   1.000  C
  C661     1.0000 0.05918  0.26350  0.60195  Biso   1.000  C
  C662     1.0000 0.61994  0.97528  0.30042  Biso   1.000  C
  C663     1.0000 0.31338  0.56247  0.02710  Biso   1.000  C
  C664     1.0000 0.53371  0.26654  0.90402  Biso   1.000  C
  C665     1.0000 0.12015  0.96518  0.21815  Biso   1.000  C
  C666     1.0000 0.81001  0.55412  0.52054  Biso   1.000  C
  C667     1.0000 0.50502  0.76927  0.62654  Biso   1.000  C
  C668     1.0000 0.92822  0.47859  0.30737  Biso   1.000  C
  C669     1.0000 0.23856  0.06340  0.99568  Biso   1.000  C
  C670     1.0000 0.99610  0.76680  0.91898  Biso   1.000  C
  C671     1.0000 0.41890  0.45325  0.22508  Biso   1.000  C
  C672     1.0000 0.74134  0.05837  0.51576  Biso   1.000  C
  C673     1.0000 0.22374  0.96395  0.81048  Biso   1.000  C
  C674     1.0000 0.83534  0.17405  0.02168  Biso   1.000  C
  C675     1.0000 0.02483  0.78349  0.21234  Biso   1.000  C
  C676     1.0000 0.72871  0.97695  0.70078  Biso   1.000  C
  C677     1.0000 0.34302  0.18445  0.49283  Biso   1.000  C
  C678     1.0000 0.51091  0.76332  0.32736  Biso   1.000  C
  C679     1.0000 0.33144  0.48731  0.82071  Biso   1.000  C
  C680     1.0000 0.71308  0.67452  0.03112  Biso   1.000  C
  C681     1.0000 0.51427  0.25870  0.20268  Biso   1.000  C
  C682     1.0000 0.82954  0.45394  0.70852  Biso   1.000  C
  C683     1.0000 0.20138  0.68434  0.51973  Biso   1.000  C
  C684     1.0000 0.04045  0.28563  0.30474  Biso   1.000  C
  C685     1.0000 0.82285  0.99172  0.20872  Biso   1.000  C
  C686     1.0000 0.21422  0.76811  0.01194  Biso   1.000  C
  C687     1.0000 0.02586  0.17142  0.80526  Biso   1.000  C
  C688     1.0000 0.31845  0.96770  0.31552  Biso   1.000  C
  C689     1.0000 0.70017  0.76057  0.51404  Biso   1.000  C
  C690     1.0000 0.52123  0.17942  0.70100  Biso   1.000  C
  C691     1.0000 0.71944  0.46609  0.21479  Biso   1.000  C
  C692     1.0000 0.33505  0.26485  0.00822  Biso   1.000  C
  C693     1.0000 0.52147  0.68007  0.82963  Biso   1.000  C
  C694     1.0000 0.22193  0.46201  0.32224  Biso   1.000  C
  C695     1.0000 0.84107  0.26288  0.49042  Biso   1.000  C
  C696     1.0000 0.00781  0.66132  0.71810  Biso   1.000  C
  C697     1.0000 0.71413  0.99419  0.31558  Biso   1.000  C
  C698     1.0000 0.32508  0.65892  0.02917  Biso   1.000  C
  C699     1.0000 0.03227  0.27399  0.69201  Biso   1.000  C
  C700     1.0000 0.21356  0.96893  0.20336  Biso   1.000  C
  C701     1.0000 0.80751  0.64991  0.52030  Biso   1.000  C
  C702     1.0000 0.52096  0.28786  0.81008  Biso   1.000  C
  C703     1.0000 0.83335  0.46744  0.31919  Biso   1.000  C
  C704     1.0000 0.22746  0.15752  0.99592  Biso   1.000  C
  C705     1.0000 0.51734  0.78678  0.71812  Biso   1.000  C
  C706     1.0000 0.32502  0.45437  0.21087  Biso   1.000  C
  C707     1.0000 0.73559  0.15331  0.51483  Biso   1.000  C
  C708     1.0000 0.00687  0.77562  0.82295  Biso   1.000  C
  C709     1.0000 0.33234  0.98225  0.70454  Biso   1.000  C
  C710     1.0000 0.72344  0.28426  0.02182  Biso   1.000  C
  C711     1.0000 0.03005  0.67537  0.32249  Biso   1.000  C
  C712     1.0000 0.83125  0.97902  0.81640  Biso   1.000  C
  C713     1.0000 0.23567  0.29650  0.49701  Biso   1.000  C
  C714     1.0000 0.51856  0.65690  0.21873  Biso   1.000  C
  C715     1.0000 0.22241  0.49326  0.71255  Biso   1.000  C
  C716     1.0000 0.82303  0.78408  0.03873  Biso   1.000  C
  C717     1.0000 0.52058  0.15138  0.31138  Biso   1.000  C
  C718     1.0000 0.72357  0.45937  0.81957  Biso   1.000  C
  C719     1.0000 0.31184  0.79176  0.51004  Biso   1.000  C
  C720     1.0000 0.04442  0.17794  0.19787  Biso   1.000  C
  C721     1.0000 0.52469  0.76904  0.30004  Biso   1.000  C
  C722     1.0000 0.33395  0.51058  0.79893  Biso   1.000  C
  C723     1.0000 0.81625  0.26435  0.51034  Biso   1.000  C
  C724     1.0000 0.00668  0.75671  0.21050  Biso   1.000  C
  C725     1.0000 0.80024  0.46510  0.70363  Biso   1.000  C
  C726     1.0000 0.30674  0.26997  0.99330  Biso   1.000  C
  C727     1.0000 0.02894  0.25555  0.30717  Biso   1.000  C
  C728     1.0000 0.24981  0.98093  0.81549  Biso   1.000  C
  C729     1.0000 0.72834  0.76414  0.52855  Biso   1.000  C
  C730     1.0000 0.49293  0.25862  0.22449  Biso   1.000  C
  C731     1.0000 0.75125  0.95378  0.70376  Biso   1.000  C
  C732     1.0000 0.24332  0.77228  0.00275  Biso   1.000  C
  C733     1.0000 0.50448  0.17565  0.72779  Biso   1.000  C
  C734     1.0000 0.72017  0.44447  0.23795  Biso   1.000  C
  C735     1.0000 0.19750  0.71422  0.50999  Biso   1.000  C
  C736     1.0000 0.01254  0.20003  0.80749  Biso   1.000  C
  C737     1.0000 0.24733  0.44318  0.32738  Biso   1.000  C
  C738     1.0000 0.73588  0.67252  0.05150  Biso   1.000  C
  C739     1.0000 0.02797  0.65999  0.74401  Biso   1.000  C
  C740     1.0000 0.79321  0.97853  0.20570  Biso   1.000  C
  C741     1.0000 0.31560  0.18290  0.47572  Biso   1.000  C
  C742     1.0000 0.54218  0.68015  0.80548  Biso   1.000  C
  C743     1.0000 0.28891  0.95940  0.32068  Biso   1.000  C
  C744     1.0000 0.83744  0.20100  0.03816  Biso   1.000  C
  C745     1.0000 0.04093  0.70467  0.32902  Biso   1.000  C
  C746     1.0000 0.30317  0.99535  0.70158  Biso   1.000  C
  C747     1.0000 0.75031  0.28674  0.03630  Biso   1.000  C
  C748     1.0000 0.53691  0.68238  0.21728  Biso   1.000  C
  C749     1.0000 0.83793  0.96517  0.78879  Biso   1.000  C
  C750     1.0000 0.25900  0.29340  0.51855  Biso   1.000  C
  C751     1.0000 0.52796  0.14304  0.28284  Biso   1.000  C
  C752     1.0000 0.25107  0.48024  0.70993  Biso   1.000  C
  C753     1.0000 0.80010  0.78572  0.01641  Biso   1.000  C
  C754     1.0000 0.05886  0.17291  0.22694  Biso   1.000  C
  C755     1.0000 0.72002  0.43870  0.79559  Biso   1.000  C
  C756     1.0000 0.28582  0.79837  0.52783  Biso   1.000  C
  C757     1.0000 0.02469  0.24390  0.68555  Biso   1.000  C
  C758     1.0000 0.70927  0.01001  0.28854  Biso   1.000  C
  C759     1.0000 0.29796  0.65865  0.04929  Biso   1.000  C
  C760     1.0000 0.53863  0.29079  0.78380  Biso   1.000  C
  C761     1.0000 0.23797  0.98992  0.20311  Biso   1.000  C
  C762     1.0000 0.81038  0.67762  0.50307  Biso   1.000  C
  C763     1.0000 0.50684  0.79422  0.74715  Biso   1.000  C
  C764     1.0000 0.80419  0.47767  0.32647  Biso   1.000  C
  C765     1.0000 0.24624  0.15643  0.02093  Biso   1.000  C
  C766     1.0000 0.99557  0.78118  0.79393  Biso   1.000  C
  C767     1.0000 0.32939  0.47030  0.23810  Biso   1.000  C
  C768     1.0000 0.73403  0.17663  0.49374  Biso   1.000  C
  C769     1.0000 0.50081  0.70504  0.83184  Biso   1.000  C
  C770     1.0000 0.83370  0.43776  0.73583  Biso   1.000  C
  C771     1.0000 0.69269  0.73169  0.50025  Biso   1.000  C
  C772     1.0000 0.98985  0.68868  0.71453  Biso   1.000  C
  C773     1.0000 0.30573  0.46823  0.82069  Biso   1.000  C
  C774     1.0000 0.20575  0.73851  0.02250  Biso   1.000  C
  C775     1.0000 0.04051  0.16480  0.77940  Biso   1.000  C
  C776     1.0000 0.72641  0.99696  0.72444  Biso   1.000  C
  C777     1.0000 0.84412  0.23532  0.47433  Biso   1.000  C
  C778     1.0000 0.53589  0.20655  0.69767  Biso   1.000  C
  C779     1.0000 0.21996  0.94820  0.78308  Biso   1.000  C
  C780     1.0000 0.34045  0.23563  0.02047  Biso   1.000  C
  C781     1.0000 0.53418  0.23492  0.20030  Biso   1.000  C
  C782     1.0000 0.21833  0.47523  0.29376  Biso   1.000  C
  C783     1.0000 0.34929  0.21313  0.50787  Biso   1.000  C
  C784     1.0000 0.05455  0.29325  0.27678  Biso   1.000  C
  C785     1.0000 0.74138  0.48921  0.21288  Biso   1.000  C
  C786     1.0000 0.80869  0.17007  0.00402  Biso   1.000  C
  C787     1.0000 0.04379  0.78558  0.23719  Biso   1.000  C
  C788     1.0000 0.32578  0.97838  0.28630  Biso   1.000  C
  C789     1.0000 0.22828  0.67832  0.53655  Biso   1.000  C
  C790     1.0000 0.49554  0.73540  0.33068  Biso   1.000  C
  C791     1.0000 0.82838  0.00907  0.23522  Biso   1.000  C
  C792     1.0000 0.71172  0.70200  0.01512  Biso   1.000  C
  C793     1.0000 0.50923  0.18120  0.31512  Biso   1.000  C
  C794     1.0000 0.29764  0.43965  0.20685  Biso   1.000  C
  C795     1.0000 0.23595  0.27534  0.47383  Biso   1.000  C
  C796     1.0000 0.03274  0.20777  0.19089  Biso   1.000  C
  C797     1.0000 0.83726  0.45708  0.28933  Biso   1.000  C
  C798     1.0000 0.72073  0.25800  0.00521  Biso   1.000  C
  C799     1.0000 0.01552  0.66898  0.29571  Biso   1.000  C
  C800     1.0000 0.21282  0.94832  0.22668  Biso   1.000  C
  C801     1.0000 0.31199  0.76110  0.49770  Biso   1.000  C
  C802     1.0000 0.49574  0.65415  0.24104  Biso   1.000  C
  C803     1.0000 0.74402  0.98171  0.32098  Biso   1.000  C
  C804     1.0000 0.82369  0.75943  0.06028  Biso   1.000  C
  C805     1.0000 0.52857  0.75730  0.71285  Biso   1.000  C
  C806     1.0000 0.74990  0.47667  0.81904  Biso   1.000  C
  C807     1.0000 0.77997  0.64417  0.53559  Biso   1.000  C
  C808     1.0000 0.01821  0.74575  0.82921  Biso   1.000  C
  C809     1.0000 0.21905  0.51026  0.73941  Biso   1.000  C
  C810     1.0000 0.32657  0.68193  0.00632  Biso   1.000  C
  C811     1.0000 0.04182  0.28301  0.72064  Biso   1.000  C
  C812     1.0000 0.80075  0.98775  0.82086  Biso   1.000  C
  C813     1.0000 0.76314  0.14984  0.53027  Biso   1.000  C
  C814     1.0000 0.50010  0.26257  0.81148  Biso   1.000  C
  C815     1.0000 0.33854  0.96398  0.73112  Biso   1.000  C
  C816     1.0000 0.23007  0.18049  0.97493  Biso   1.000  C
  C817     1.0000 0.01451  0.21951  0.78554  Biso   1.000  C
  C818     1.0000 0.77242  0.98339  0.22560  Biso   1.000  C
  C819     1.0000 0.26368  0.74941  0.00724  Biso   1.000  C
  C820     1.0000 0.50327  0.19694  0.74815  Biso   1.000  C
  C821     1.0000 0.26960  0.95950  0.29753  Biso   1.000  C
  C822     1.0000 0.74768  0.74077  0.52820  Biso   1.000  C
  C823     1.0000 0.53988  0.70178  0.78494  Biso   1.000  C
  C824     1.0000 0.74279  0.44813  0.25828  Biso   1.000  C
  C825     1.0000 0.28599  0.24833  0.99109  Biso   1.000  C
  C826     1.0000 0.02883  0.68277  0.76337  Biso   1.000  C
  C827     1.0000 0.26753  0.44078  0.30561  Biso   1.000  C
  C828     1.0000 0.79879  0.24100  0.51429  Biso   1.000  C
  C829     1.0000 0.00530  0.73753  0.23239  Biso   1.000  C
  C830     1.0000 0.27125  0.98108  0.79360  Biso   1.000  C
  C831     1.0000 0.81541  0.22193  0.03727  Biso   1.000  C
  C832     1.0000 0.52425  0.74747  0.27896  Biso   1.000  C
  C833     1.0000 0.76819  0.95076  0.72968  Biso   1.000  C
  C834     1.0000 0.29535  0.20576  0.47727  Biso   1.000  C
  C835     1.0000 0.49131  0.23407  0.24336  Biso   1.000  C
  C836     1.0000 0.31159  0.51331  0.77805  Biso   1.000  C
  C837     1.0000 0.75421  0.69603  0.05620  Biso   1.000  C
  C838     1.0000 0.03350  0.23540  0.28552  Biso   1.000  C
  C839     1.0000 0.78011  0.46396  0.72523  Biso   1.000  C
  C840     1.0000 0.21906  0.73452  0.51638  Biso   1.000  C
  C841     1.0000 0.24103  0.95152  0.76189  Biso   1.000  C
  C842     1.0000 0.78644  0.19186  0.00472  Biso   1.000  C
  C843     1.0000 0.04371  0.76361  0.25797  Biso   1.000  C
  C844     1.0000 0.74555  0.99527  0.74784  Biso   1.000  C
  C845     1.0000 0.33023  0.23668  0.50301  Biso   1.000  C
  C846     1.0000 0.49331  0.71612  0.30922  Biso   1.000  C
  C847     1.0000 0.28456  0.47344  0.80025  Biso   1.000  C
  C848     1.0000 0.73072  0.72385  0.01970  Biso   1.000  C
  C849     1.0000 0.53192  0.21207  0.21952  Biso   1.000  C
  C850     1.0000 0.81241  0.43950  0.75686  Biso   1.000  C
  C851     1.0000 0.25126  0.69879  0.53925  Biso   1.000  C
  C852     1.0000 0.05692  0.27145  0.25582  Biso   1.000  C
  C853     1.0000 0.80720  0.00949  0.25548  Biso   1.000  C
  C854     1.0000 0.22657  0.71707  0.02491  Biso   1.000  C
  C855     1.0000 0.04339  0.18597  0.75831  Biso   1.000  C
  C856     1.0000 0.30554  0.97863  0.26400  Biso   1.000  C
  C857     1.0000 0.71243  0.71022  0.50357  Biso   1.000  C
  C858     1.0000 0.53617  0.22645  0.71963  Biso   1.000  C
  C859     1.0000 0.76322  0.48929  0.23351  Biso   1.000  C
  C860     1.0000 0.32040  0.21456  0.01419  Biso   1.000  C
  C861     1.0000 0.50106  0.72684  0.81054  Biso   1.000  C
  C862     1.0000 0.23750  0.46912  0.27215  Biso   1.000  C
  C863     1.0000 0.82520  0.21144  0.47946  Biso   1.000  C
  C864     1.0000 0.99259  0.70912  0.73641  Biso   1.000  C
  C865     1.0000 0.74077  0.43640  0.77291  Biso   1.000  C
  C866     1.0000 0.78644  0.69642  0.50251  Biso   1.000  C
  C867     1.0000 0.50631  0.77314  0.76890  Biso   1.000  C
  C868     1.0000 0.27334  0.48256  0.72985  Biso   1.000  C
  C869     1.0000 0.27687  0.67946  0.04418  Biso   1.000  C
  C870     1.0000 0.99652  0.75812  0.77475  Biso   1.000  C
  C871     1.0000 0.81660  0.96549  0.76736  Biso   1.000  C
  C872     1.0000 0.75684  0.19582  0.48977  Biso   1.000  C
  C873     1.0000 0.02286  0.22380  0.70854  Biso   1.000  C
  C874     1.0000 0.28283  0.99160  0.72306  Biso   1.000  C
  C875     1.0000 0.26812  0.17741  0.02313  Biso   1.000  C
  C876     1.0000 0.53915  0.26867  0.76403  Biso   1.000  C
  C877     1.0000 0.30805  0.46970  0.25999  Biso   1.000  C
  C878     1.0000 0.28104  0.27510  0.51423  Biso   1.000  C
  C879     1.0000 0.52387  0.16195  0.25909  Biso   1.000  C
  C880     1.0000 0.78186  0.47643  0.30665  Biso   1.000  C
  C881     1.0000 0.77187  0.26589  0.03519  Biso   1.000  C
  C882     1.0000 0.06139  0.19642  0.24593  Biso   1.000  C
  C883     1.0000 0.25845  0.98973  0.22495  Biso   1.000  C
  C884     1.0000 0.26469  0.77652  0.53225  Biso   1.000  C
  C885     1.0000 0.03755  0.72572  0.30605  Biso   1.000  C
  C886     1.0000 0.73245  0.01295  0.26887  Biso   1.000  C
  C887     1.0000 0.77794  0.76606  0.01759  Biso   1.000  C
  C888     1.0000 0.53539  0.70233  0.24063  Biso   1.000  C
  C889     1.0000 0.76633  0.98434  0.30032  Biso   1.000  C
  C890     1.0000 0.30358  0.70207  0.00281  Biso   1.000  C
  C891     1.0000 0.04002  0.26228  0.74328  Biso   1.000  C
  C892     1.0000 0.23302  0.94844  0.24867  Biso   1.000  C
  C893     1.0000 0.75837  0.66424  0.53498  Biso   1.000  C
  C894     1.0000 0.50010  0.24408  0.78909  Biso   1.000  C
  C895     1.0000 0.81564  0.46021  0.26887  Biso   1.000  C
  C896     1.0000 0.25302  0.19980  0.97590  Biso   1.000  C
  C897     1.0000 0.52714  0.73736  0.73598  Biso   1.000  C
  C898     1.0000 0.27676  0.43856  0.22970  Biso   1.000  C
  C899     1.0000 0.78456  0.16950  0.52402  Biso   1.000  C
  C900     1.0000 0.02249  0.72388  0.80830  Biso   1.000  C
  C901     1.0000 0.31656  0.95877  0.75128  Biso   1.000  C
  C902     1.0000 0.74067  0.23491  0.00522  Biso   1.000  C
  C903     1.0000 0.01210  0.69048  0.27460  Biso   1.000  C
  C904     1.0000 0.78012  0.98418  0.79984  Biso   1.000  C
  C905     1.0000 0.25936  0.25552  0.46997  Biso   1.000  C
  C906     1.0000 0.49289  0.67553  0.26125  Biso   1.000  C
  C907     1.0000 0.24014  0.50889  0.76131  Biso   1.000  C
  C908     1.0000 0.80026  0.74069  0.05954  Biso   1.000  C
  C909     1.0000 0.50822  0.20115  0.29244  Biso   1.000  C
  C910     1.0000 0.76985  0.47302  0.79691  Biso   1.000  C
  C911     1.0000 0.29020  0.74146  0.50567  Biso   1.000  C
  C912     1.0000 0.03500  0.22905  0.21239  Biso   1.000  C
  C913     1.0000 0.78560  0.45269  0.75223  Biso   1.000  C
  C914     1.0000 0.74054  0.71380  0.51505  Biso   1.000  C
  C915     1.0000 0.51876  0.72376  0.78667  Biso   1.000  C
  C916     1.0000 0.28896  0.49401  0.77961  Biso   1.000  C
  C917     1.0000 0.25601  0.72220  0.01874  Biso   1.000  C
  C918     1.0000 0.01188  0.70766  0.75902  Biso   1.000  C
  C919     1.0000 0.76595  0.97284  0.75035  Biso   1.000  C
  C920     1.0000 0.80349  0.21598  0.50047  Biso   1.000  C
  C921     1.0000 0.02831  0.21163  0.76013  Biso   1.000  C
  C922     1.0000 0.26643  0.96643  0.76741  Biso   1.000  C
  C923     1.0000 0.29388  0.22002  0.00056  Biso   1.000  C
  C924     1.0000 0.51909  0.22267  0.74403  Biso   1.000  C
  C925     1.0000 0.26179  0.45223  0.27789  Biso   1.000  C
  C926     1.0000 0.30308  0.23208  0.48887  Biso   1.000  C
  C927     1.0000 0.51243  0.21167  0.24231  Biso   1.000  C
  C928     1.0000 0.76372  0.46987  0.25690  Biso   1.000  C
  C929     1.0000 0.79045  0.21718  0.02109  Biso   1.000  C
  C930     1.0000 0.04883  0.24352  0.26114  Biso   1.000  C
  C931     1.0000 0.27691  0.97024  0.27000  Biso   1.000  C
  C932     1.0000 0.24550  0.72719  0.52896  Biso   1.000  C
  C933     1.0000 0.02395  0.73996  0.25635  Biso   1.000  C
  C934     1.0000 0.77923  0.99744  0.25119  Biso   1.000  C
  C935     1.0000 0.75255  0.72196  0.03987  Biso   1.000  C
  C936     1.0000 0.50878  0.72164  0.28451  Biso   1.000  C
  C937     1.0000 0.76772  0.24084  0.01877  Biso   1.000  C
  C938     1.0000 0.02453  0.71873  0.27977  Biso   1.000  C
  C939     1.0000 0.28960  0.96970  0.74484  Biso   1.000  C
  C940     1.0000 0.28140  0.25662  0.49056  Biso   1.000  C
  C941     1.0000 0.51327  0.69910  0.26149  Biso   1.000  C
  C942     1.0000 0.78895  0.97242  0.77380  Biso   1.000  C
  C943     1.0000 0.77783  0.74276  0.03776  Biso   1.000  C
  C944     1.0000 0.51384  0.19039  0.26525  Biso   1.000  C
  C945     1.0000 0.26730  0.49542  0.75605  Biso   1.000  C
  C946     1.0000 0.26852  0.74743  0.52472  Biso   1.000  C
  C947     1.0000 0.05029  0.22326  0.23786  Biso   1.000  C
  C948     1.0000 0.76583  0.45299  0.77484  Biso   1.000  C
  C949     1.0000 0.27993  0.70020  0.02239  Biso   1.000  C
  C950     1.0000 0.02882  0.23430  0.73603  Biso   1.000  C
  C951     1.0000 0.75815  0.99749  0.27451  Biso   1.000  C
  C952     1.0000 0.76063  0.69042  0.51757  Biso   1.000  C
  C953     1.0000 0.51800  0.24663  0.76485  Biso   1.000  C
  C954     1.0000 0.25602  0.96735  0.24688  Biso   1.000  C
  C955     1.0000 0.27092  0.19806  0.99972  Biso   1.000  C
  C956     1.0000 0.51595  0.74527  0.76276  Biso   1.000  C
  C957     1.0000 0.78778  0.46940  0.27804  Biso   1.000  C
  C958     1.0000 0.78099  0.19364  0.50535  Biso   1.000  C
  C959     1.0000 0.00888  0.73072  0.78182  Biso   1.000  C
  C960     1.0000 0.28319  0.45263  0.25532  Biso   1.000  C
  Cu1      1.0000 0.02521  0.46862  0.66723  Biso   1.000  Cu
  Cu2      1.0000 0.67819  0.95899  0.51147  Biso   1.000  Cu
  Cu3      1.0000 0.51942  0.62394  0.02336  Biso   1.000  Cu
  Cu4      1.0000 0.53008  0.48084  0.85841  Biso   1.000  Cu
  Cu5      1.0000 0.18085  0.96371  0.00757  Biso   1.000  Cu
  Cu6      1.0000 0.00851  0.62366  0.51804  Biso   1.000  Cu
  Cu7      1.0000 0.52831  0.98351  0.66604  Biso   1.000  Cu
  Cu8      1.0000 0.87215  0.45539  0.51291  Biso   1.000  Cu
  Cu9      1.0000 0.03046  0.12393  0.00603  Biso   1.000  Cu
  Cu10     1.0000 0.02545  0.97518  0.85628  Biso   1.000  Cu
  Cu11     1.0000 0.37080  0.46224  0.01829  Biso   1.000  Cu
  Cu12     1.0000 0.53637  0.12608  0.50933  Biso   1.000  Cu
  Cu13     1.0000 0.02880  0.47741  0.36143  Biso   1.000  Cu
  Cu14     1.0000 0.37257  0.98584  0.50757  Biso   1.000  Cu
  Cu15     1.0000 0.52868  0.31781  0.00806  Biso   1.000  Cu
  Cu16     1.0000 0.52407  0.46122  0.17173  Biso   1.000  Cu
  Cu17     1.0000 0.87256  0.97696  0.01186  Biso   1.000  Cu
  Cu18     1.0000 0.03620  0.31689  0.50052  Biso   1.000  Cu
  Cu19     1.0000 0.51817  0.95863  0.36030  Biso   1.000  Cu
  Cu20     1.0000 0.17826  0.48780  0.51690  Biso   1.000  Cu
  Cu21     1.0000 0.01782  0.81861  0.01860  Biso   1.000  Cu
  Cu22     1.0000 0.01824  0.97953  0.16717  Biso   1.000  Cu
  Cu23     1.0000 0.67971  0.47881  0.01635  Biso   1.000  Cu
  Cu24     1.0000 0.50910  0.81681  0.51866  Biso   1.000  Cu
  Cu25     1.0000 0.23572  0.96083  0.01033  Biso   1.000  Cu
  Cu26     1.0000 0.03234  0.17793  0.00439  Biso   1.000  Cu
  Cu27     1.0000 0.02223  0.97949  0.22247  Biso   1.000  Cu
  Cu28     1.0000 0.73067  0.95583  0.50869  Biso   1.000  Cu
  Cu29     1.0000 0.54128  0.17952  0.50323  Biso   1.000  Cu
  Cu30     1.0000 0.52008  0.95817  0.30466  Biso   1.000  Cu
  Cu31     1.0000 0.31652  0.46090  0.01588  Biso   1.000  Cu
  Cu32     1.0000 0.52035  0.67861  0.02607  Biso   1.000  Cu
  Cu33     1.0000 0.52489  0.45668  0.22600  Biso   1.000  Cu
  Cu34     1.0000 0.81811  0.45542  0.51262  Biso   1.000  Cu
  Cu35     1.0000 0.00454  0.67797  0.52040  Biso   1.000  Cu
  Cu36     1.0000 0.02917  0.47964  0.30647  Biso   1.000  Cu
  Cu37     1.0000 0.81785  0.97746  0.01105  Biso   1.000  Cu
  Cu38     1.0000 0.01639  0.76430  0.02160  Biso   1.000  Cu
  Cu39     1.0000 0.02096  0.97224  0.80235  Biso   1.000  Cu
  Cu40     1.0000 0.31799  0.98941  0.50928  Biso   1.000  Cu
  Cu41     1.0000 0.50562  0.76101  0.52487  Biso   1.000  Cu
  Cu42     1.0000 0.52970  0.98315  0.71994  Biso   1.000  Cu
  Cu43     1.0000 0.73339  0.47893  0.01490  Biso   1.000  Cu
  Cu44     1.0000 0.53263  0.26486  0.00621  Biso   1.000  Cu
  Cu45     1.0000 0.52872  0.48364  0.80362  Biso   1.000  Cu
  Cu46     1.0000 0.23292  0.49148  0.51796  Biso   1.000  Cu
  Cu47     1.0000 0.04198  0.26466  0.50054  Biso   1.000  Cu
  Cu48     1.0000 0.02390  0.46011  0.71993  Biso   1.000  Cu
  H1       1.0000 0.24535  0.78234  0.54442  Biso   1.000  H
  H2       1.0000 0.55248  0.26817  0.74495  Biso   1.000  H
  H3       1.0000 0.75921  0.48209  0.31334  Biso   1.000  H
  H4       1.0000 0.76061  0.76776  0.00129  Biso   1.000  H
  H5       1.0000 0.01628  0.20199  0.70496  Biso   1.000  H
  H6       1.0000 0.31185  0.48233  0.27933  Biso   1.000  H
  H7       1.0000 0.29958  0.27803  0.52877  Biso   1.000  H
  H8       1.0000 0.99018  0.76052  0.75284  Biso   1.000  H
  H9       1.0000 0.73043  0.02325  0.24745  Biso   1.000  H
  H10      1.0000 0.79129  0.27181  0.04670  Biso   1.000  H
  H11      1.0000 0.50094  0.77878  0.79061  Biso   1.000  H
  H12      1.0000 0.27492  0.00754  0.22443  Biso   1.000  H
  H13      1.0000 0.75524  0.21077  0.47099  Biso   1.000  H
  H14      1.0000 0.55170  0.71988  0.24381  Biso   1.000  H
  H15      1.0000 0.29581  0.47383  0.72411  Biso   1.000  H
  H16      1.0000 0.28291  0.17962  0.04127  Biso   1.000  H
  H17      1.0000 0.04678  0.74771  0.30922  Biso   1.000  H
  H18      1.0000 0.73730  0.42468  0.75277  Biso   1.000  H
  H19      1.0000 0.78643  0.71799  0.49216  Biso   1.000  H
  H20      1.0000 0.07250  0.19270  0.26655  Biso   1.000  H
  H21      1.0000 0.26174  0.00231  0.72035  Biso   1.000  H
  H22      1.0000 0.25724  0.67792  0.05738  Biso   1.000  H
  H23      1.0000 0.52838  0.15366  0.23795  Biso   1.000  H
  H24      1.0000 0.82078  0.95643  0.74677  Biso   1.000  H
  H25      1.0000 0.29193  0.99318  0.79760  Biso   1.000  H
  H26      1.0000 0.81852  0.23917  0.05135  Biso   1.000  H
  H27      1.0000 0.98793  0.72006  0.22871  Biso   1.000  H
  H28      1.0000 0.78271  0.93322  0.73201  Biso   1.000  H
  H29      1.0000 0.27533  0.20007  0.46534  Biso   1.000  H
  H30      1.0000 0.53623  0.75236  0.25913  Biso   1.000  H
  H31      1.0000 0.31204  0.52943  0.76046  Biso   1.000  H
  H32      1.0000 0.77374  0.69246  0.07014  Biso   1.000  H
  H33      1.0000 0.47367  0.23625  0.25991  Biso   1.000  H
  H34      1.0000 0.75762  0.47262  0.71971  Biso   1.000  H
  H35      1.0000 0.21365  0.75668  0.50922  Biso   1.000  H
  H36      1.0000 0.02492  0.21333  0.28752  Biso   1.000  H
  H37      1.0000 0.75029  0.97501  0.22570  Biso   1.000  H
  H38      1.0000 0.28554  0.75158  0.99987  Biso   1.000  H
  H39      1.0000 0.00552  0.24214  0.78789  Biso   1.000  H
  H40      1.0000 0.24738  0.95463  0.30460  Biso   1.000  H
  H41      1.0000 0.76790  0.74457  0.53858  Biso   1.000  H
  H42      1.0000 0.49086  0.19285  0.76855  Biso   1.000  H
  H43      1.0000 0.74415  0.42988  0.27388  Biso   1.000  H
  H44      1.0000 0.26691  0.25059  0.97828  Biso   1.000  H
  H45      1.0000 0.55618  0.70108  0.76864  Biso   1.000  H
  H46      1.0000 0.28534  0.42552  0.30881  Biso   1.000  H
  H47      1.0000 0.77924  0.24445  0.52831  Biso   1.000  H
  H48      1.0000 0.04481  0.68262  0.78118  Biso   1.000  H
  H49      1.0000 0.23425  0.47886  0.25059  Biso   1.000  H
  H50      1.0000 0.33725  0.25769  0.51151  Biso   1.000  H
  H51      1.0000 0.54813  0.19632  0.21453  Biso   1.000  H
  H52      1.0000 0.77875  0.50667  0.23200  Biso   1.000  H
  H53      1.0000 0.76707  0.18921  0.99202  Biso   1.000  H
  H54      1.0000 0.06673  0.27829  0.23515  Biso   1.000  H
  H55      1.0000 0.31431  0.98516  0.24281  Biso   1.000  H
  H56      1.0000 0.27185  0.69544  0.55046  Biso   1.000  H
  H57      1.0000 0.05762  0.76702  0.27689  Biso   1.000  H
  H58      1.0000 0.81191  0.02266  0.27572  Biso   1.000  H
  H59      1.0000 0.72846  0.74458  0.00722  Biso   1.000  H
  H60      1.0000 0.48003  0.69753  0.31020  Biso   1.000  H
  H61      1.0000 0.81446  0.43047  0.77890  Biso   1.000  H
  H62      1.0000 0.70864  0.68790  0.49596  Biso   1.000  H
  H63      1.0000 0.48333  0.74324  0.81170  Biso   1.000  H
  H64      1.0000 0.26397  0.46211  0.80080  Biso   1.000  H
  H65      1.0000 0.22056  0.69496  0.03384  Biso   1.000  H
  H66      1.0000 0.97866  0.72806  0.73265  Biso   1.000  H
  H67      1.0000 0.74545  0.01338  0.76566  Biso   1.000  H
  H68      1.0000 0.82795  0.19019  0.47119  Biso   1.000  H
  H69      1.0000 0.05420  0.17855  0.73865  Biso   1.000  H
  H70      1.0000 0.24007  0.94075  0.74102  Biso   1.000  H
  H71      1.0000 0.32505  0.19197  0.01758  Biso   1.000  H
  H72      1.0000 0.55163  0.24353  0.71789  Biso   1.000  H
  H73      1.0000 0.78830  0.48787  0.79410  Biso   1.000  H
  H74      1.0000 0.73779  0.66100  0.54741  Biso   1.000  H
  H75      1.0000 0.53518  0.71477  0.73449  Biso   1.000  H
  H76      1.0000 0.23588  0.51870  0.78092  Biso   1.000  H
  H77      1.0000 0.30288  0.71688  0.98366  Biso   1.000  H
  H78      1.0000 0.03496  0.70577  0.81428  Biso   1.000  H
  H79      1.0000 0.75800  0.98984  0.80510  Biso   1.000  H
  H80      1.0000 0.80602  0.16433  0.53410  Biso   1.000  H
  H81      1.0000 0.04596  0.26807  0.76476  Biso   1.000  H
  H82      1.0000 0.32020  0.94476  0.77000  Biso   1.000  H
  H83      1.0000 0.25495  0.21577  0.95752  Biso   1.000  H
  H84      1.0000 0.48281  0.22666  0.79010  Biso   1.000  H
  H85      1.0000 0.25662  0.42783  0.22559  Biso   1.000  H
  H86      1.0000 0.25932  0.24202  0.45133  Biso   1.000  H
  H87      1.0000 0.50378  0.22489  0.29591  Biso   1.000  H
  H88      1.0000 0.81923  0.45382  0.24624  Biso   1.000  H
  H89      1.0000 0.73284  0.21568  0.99435  Biso   1.000  H
  H90      1.0000 0.02570  0.24924  0.20858  Biso   1.000  H
  H91      1.0000 0.23242  0.93241  0.26564  Biso   1.000  H
  H92      1.0000 0.29012  0.71974  0.49850  Biso   1.000  H
  H93      1.0000 0.99962  0.68404  0.25392  Biso   1.000  H
  H94      1.0000 0.78694  0.97283  0.30258  Biso   1.000  H
  H95      1.0000 0.79921  0.72364  0.07715  Biso   1.000  H
  H96      1.0000 0.47377  0.67460  0.27667  Biso   1.000  H
  H97      1.0000 0.89326  0.97341  0.92394  Biso   1.000  H
  H98      1.0000 0.93227  0.84147  0.03337  Biso   1.000  H
  H99      1.0000 0.01059  0.87944  0.88431  Biso   1.000  H
  H100     1.0000 0.39546  0.98483  0.59977  Biso   1.000  H
  H101     1.0000 0.42036  0.84571  0.50799  Biso   1.000  H
  H102     1.0000 0.51541  0.88714  0.64615  Biso   1.000  H
  H103     1.0000 0.66047  0.48847  0.91947  Biso   1.000  H
  H104     1.0000 0.61868  0.34811  0.02390  Biso   1.000  H
  H105     1.0000 0.53423  0.39100  0.87464  Biso   1.000  H
  H106     1.0000 0.15721  0.48451  0.61108  Biso   1.000  H
  H107     1.0000 0.12213  0.35026  0.50303  Biso   1.000  H
  H108     1.0000 0.03979  0.38511  0.63565  Biso   1.000  H
  H109     1.0000 0.15238  0.97278  0.09805  Biso   1.000  H
  H110     1.0000 0.12131  0.09700  0.98966  Biso   1.000  H
  H111     1.0000 0.02340  0.07090  0.14409  Biso   1.000  H
  H112     1.0000 0.65381  0.95703  0.41783  Biso   1.000  H
  H113     1.0000 0.62575  0.09921  0.51731  Biso   1.000  H
  H114     1.0000 0.52641  0.04885  0.37943  Biso   1.000  H
  H115     1.0000 0.38839  0.46453  0.10898  Biso   1.000  H
  H116     1.0000 0.43171  0.60023  0.02403  Biso   1.000  H
  H117     1.0000 0.51851  0.55178  0.15609  Biso   1.000  H
  H118     1.0000 0.89740  0.46095  0.42204  Biso   1.000  H
  H119     1.0000 0.91722  0.59890  0.52988  Biso   1.000  H
  H120     1.0000 0.03365  0.56849  0.38636  Biso   1.000  H
  H121     1.0000 0.12006  0.97267  0.87640  Biso   1.000  H
  H122     1.0000 0.89072  0.06521  0.01142  Biso   1.000  H
  H123     1.0000 0.02483  0.84320  0.10632  Biso   1.000  H
  H124     1.0000 0.62159  0.96998  0.64304  Biso   1.000  H
  H125     1.0000 0.40048  0.07841  0.49460  Biso   1.000  H
  H126     1.0000 0.50251  0.82864  0.42997  Biso   1.000  H
  H127     1.0000 0.44056  0.47440  0.87981  Biso   1.000  H
  H128     1.0000 0.65462  0.56599  0.02459  Biso   1.000  H
  H129     1.0000 0.51920  0.32959  0.10252  Biso   1.000  H
  H130     1.0000 0.93401  0.46030  0.64276  Biso   1.000  H
  H131     1.0000 0.15143  0.57334  0.50606  Biso   1.000  H
  H132     1.0000 0.04710  0.34134  0.41374  Biso   1.000  H
  H133     1.0000 0.93014  0.97340  0.14689  Biso   1.000  H
  H134     1.0000 0.15446  0.87301  0.00791  Biso   1.000  H
  H135     1.0000 0.02731  0.10689  0.91287  Biso   1.000  H
  H136     1.0000 0.42220  0.97099  0.37886  Biso   1.000  H
  H137     1.0000 0.64630  0.87183  0.50450  Biso   1.000  H
  H138     1.0000 0.53121  0.11339  0.60119  Biso   1.000  H
  H139     1.0000 0.61731  0.45349  0.15091  Biso   1.000  H
  H140     1.0000 0.39281  0.37512  0.01272  Biso   1.000  H
  H141     1.0000 0.51831  0.61080  0.93201  Biso   1.000  H
  H142     1.0000 0.12298  0.49501  0.37911  Biso   1.000  H
  H143     1.0000 0.89663  0.37084  0.49742  Biso   1.000  H
  H144     1.0000 0.01093  0.59988  0.61067  Biso   1.000  H
  H145     1.0000 0.61864  0.48955  0.87609  Biso   1.000  H
  H146     1.0000 0.88546  0.55252  0.52451  Biso   1.000  H
  H147     1.0000 0.50426  0.84510  0.60972  Biso   1.000  H
  H148     1.0000 0.11649  0.48538  0.65181  Biso   1.000  H
  H149     1.0000 0.39007  0.55583  0.03140  Biso   1.000  H
  H150     1.0000 0.00592  0.84097  0.92410  Biso   1.000  H
  H151     1.0000 0.93509  0.97741  0.87905  Biso   1.000  H
  H152     1.0000 0.66422  0.05459  0.51876  Biso   1.000  H
  H153     1.0000 0.04400  0.33590  0.58467  Biso   1.000  H
  H154     1.0000 0.43822  0.98478  0.64260  Biso   1.000  H
  H155     1.0000 0.16243  0.05394  0.99152  Biso   1.000  H
  H156     1.0000 0.54288  0.34118  0.91649  Biso   1.000  H
  H157     1.0000 0.43318  0.45967  0.15041  Biso   1.000  H
  H158     1.0000 0.16095  0.39481  0.51244  Biso   1.000  H
  H159     1.0000 0.53639  0.09260  0.42115  Biso   1.000  H
  H160     1.0000 0.93992  0.46872  0.38093  Biso   1.000  H
  H161     1.0000 0.66055  0.38778  0.02157  Biso   1.000  H
  H162     1.0000 0.03130  0.10870  0.09754  Biso   1.000  H
  H163     1.0000 0.10667  0.95242  0.14516  Biso   1.000  H
  H164     1.0000 0.38439  0.89313  0.51356  Biso   1.000  H
  H165     1.0000 0.02382  0.61203  0.42759  Biso   1.000  H
  H166     1.0000 0.61570  0.95804  0.37412  Biso   1.000  H
  H167     1.0000 0.89182  0.88911  0.02623  Biso   1.000  H
  H168     1.0000 0.51863  0.59278  0.11411  Biso   1.000  H
  H169     1.0000 0.03283  0.06780  0.87243  Biso   1.000  H
  H170     1.0000 0.88870  0.97300  0.10528  Biso   1.000  H
  H171     1.0000 0.11088  0.83622  0.00769  Biso   1.000  H
  H172     1.0000 0.52599  0.07210  0.64434  Biso   1.000  H
  H173     1.0000 0.38497  0.97958  0.41913  Biso   1.000  H
  H174     1.0000 0.60138  0.83210  0.50852  Biso   1.000  H
  H175     1.0000 0.53221  0.57234  0.88563  Biso   1.000  H
  H176     1.0000 0.65699  0.46142  0.11092  Biso   1.000  H
  H177     1.0000 0.43672  0.33083  0.01157  Biso   1.000  H
  H178     1.0000 0.02909  0.55782  0.65592  Biso   1.000  H
  H179     1.0000 0.15938  0.49295  0.42272  Biso   1.000  H
  H180     1.0000 0.94370  0.32902  0.50698  Biso   1.000  H
  H181     1.0000 0.02567  0.88863  0.14683  Biso   1.000  H
  H182     1.0000 0.16383  0.96986  0.91753  Biso   1.000  H
  H183     1.0000 0.93932  0.10685  0.00998  Biso   1.000  H
  H184     1.0000 0.51060  0.86662  0.38376  Biso   1.000  H
  H185     1.0000 0.66052  0.96314  0.60333  Biso   1.000  H
  H186     1.0000 0.44378  0.11513  0.50052  Biso   1.000  H
  H187     1.0000 0.52552  0.36846  0.14763  Biso   1.000  H
  H188     1.0000 0.39571  0.46684  0.92377  Biso   1.000  H
  H189     1.0000 0.61300  0.60617  0.02091  Biso   1.000  H
  H190     1.0000 0.03720  0.38479  0.37717  Biso   1.000  H
  H191     1.0000 0.89208  0.44952  0.60599  Biso   1.000  H
  H192     1.0000 0.10237  0.61409  0.50457  Biso   1.000  H
  H193     1.0000 0.28416  0.84614  0.49898  Biso   1.000  H
  H194     1.0000 0.52706  0.24689  0.86113  Biso   1.000  H
  H195     1.0000 0.88663  0.47910  0.28622  Biso   1.000  H
  H196     1.0000 0.79431  0.83628  0.04248  Biso   1.000  H
  H197     1.0000 0.06026  0.24135  0.64227  Biso   1.000  H
  H198     1.0000 0.37555  0.44724  0.24562  Biso   1.000  H
  H199     1.0000 0.26463  0.35014  0.51161  Biso   1.000  H
  H200     1.0000 0.99179  0.74260  0.87955  Biso   1.000  H
  H201     1.0000 0.66176  0.99304  0.28223  Biso   1.000  H
  H202     1.0000 0.75582  0.33418  0.01139  Biso   1.000  H
  H203     1.0000 0.50689  0.75058  0.66768  Biso   1.000  H
  H204     1.0000 0.16071  0.97096  0.23812  Biso   1.000  H
  H205     1.0000 0.76597  0.09844  0.51185  Biso   1.000  H
  H206     1.0000 0.51576  0.69131  0.16914  Biso   1.000  H
  H207     1.0000 0.16579  0.48264  0.75061  Biso   1.000  H
  H208     1.0000 0.25780  0.10988  0.99437  Biso   1.000  H
  H209     1.0000 0.01514  0.70828  0.37413  Biso   1.000  H
  H210     1.0000 0.67646  0.46367  0.78532  Biso   1.000  H
  H211     1.0000 0.78256  0.59388  0.51871  Biso   1.000  H
  H212     1.0000 0.04856  0.20625  0.14470  Biso   1.000  H
  H213     1.0000 0.38441  0.99181  0.73869  Biso   1.000  H
  H214     1.0000 0.29083  0.60610  0.03133  Biso   1.000  H
  H215     1.0000 0.54003  0.18629  0.35848  Biso   1.000  H
  H216     1.0000 0.88049  0.99449  0.78256  Biso   1.000  H
  H217     1.0000 0.25920  0.46512  0.37599  Biso   1.000  H
  H218     1.0000 0.39823  0.21625  0.49470  Biso   1.000  H
  H219     1.0000 0.51048  0.30688  0.23850  Biso   1.000  H
  H220     1.0000 0.75603  0.47196  0.16115  Biso   1.000  H
  H221     1.0000 0.88751  0.20522  0.01838  Biso   1.000  H
  H222     1.0000 0.02847  0.33975  0.27576  Biso   1.000  H
  H223     1.0000 0.28630  0.97897  0.36807  Biso   1.000  H
  H224     1.0000 0.14477  0.71073  0.53080  Biso   1.000  H
  H225     1.0000 0.02530  0.84191  0.24627  Biso   1.000  H
  H226     1.0000 0.78975  0.99070  0.15400  Biso   1.000  H
  H227     1.0000 0.65931  0.70682  0.02528  Biso   1.000  H
  H228     1.0000 0.49751  0.81433  0.29029  Biso   1.000  H
  H229     1.0000 0.79432  0.43665  0.65857  Biso   1.000  H
  H230     1.0000 0.64798  0.73349  0.52451  Biso   1.000  H
  H231     1.0000 0.52250  0.63440  0.79368  Biso   1.000  H
  H232     1.0000 0.29747  0.48241  0.86928  Biso   1.000  H
  H233     1.0000 0.15638  0.73634  0.00222  Biso   1.000  H
  H234     1.0000 0.01324  0.60835  0.74871  Biso   1.000  H
  H235     1.0000 0.76048  0.95648  0.65125  Biso   1.000  H
  H236     1.0000 0.90005  0.22798  0.48913  Biso   1.000  H
  H237     1.0000 0.01506  0.11888  0.77489  Biso   1.000  H
  H238     1.0000 0.25676  0.95269  0.86146  Biso   1.000  H
  H239     1.0000 0.38700  0.23428  0.99853  Biso   1.000  H
  H240     1.0000 0.52653  0.12857  0.73734  Biso   1.000  H
  H241     1.0000 0.75873  0.46456  0.87451  Biso   1.000  H
  H242     1.0000 0.85722  0.69092  0.52765  Biso   1.000  H
  H243     1.0000 0.53282  0.84284  0.74527  Biso   1.000  H
  H244     1.0000 0.25400  0.50115  0.66288  Biso   1.000  H
  H245     1.0000 0.37321  0.69396  0.03248  Biso   1.000  H
  H246     1.0000 0.01564  0.82504  0.78812  Biso   1.000  H
  H247     1.0000 0.79969  0.96771  0.86780  Biso   1.000  H
  H248     1.0000 0.68426  0.19062  0.51646  Biso   1.000  H
  H249     1.0000 0.00142  0.31998  0.71805  Biso   1.000  H
  H250     1.0000 0.29964  0.98143  0.65511  Biso   1.000  H
  H251     1.0000 0.17544  0.19563  0.99148  Biso   1.000  H
  H252     1.0000 0.52278  0.33856  0.77916  Biso   1.000  H
  H253     1.0000 0.29065  0.46329  0.16065  Biso   1.000  H
  H254     1.0000 0.19045  0.25832  0.49567  Biso   1.000  H
  H255     1.0000 0.49902  0.10119  0.28473  Biso   1.000  H
  H256     1.0000 0.79846  0.45631  0.37383  Biso   1.000  H
  H257     1.0000 0.67279  0.25067  0.02902  Biso   1.000  H
  H258     1.0000 0.03706  0.12686  0.23493  Biso   1.000  H
  H259     1.0000 0.25055  0.97216  0.14730  Biso   1.000  H
  H260     1.0000 0.36427  0.75059  0.51354  Biso   1.000  H
  H261     1.0000 0.04838  0.62598  0.29113  Biso   1.000  H
  H262     1.0000 0.73772  0.00910  0.36950  Biso   1.000  H
  H263     1.0000 0.87009  0.74701  0.04501  Biso   1.000  H
  H264     1.0000 0.51881  0.60199  0.25269  Biso   1.000  H
  H265     1.0000 0.02513  0.20877  0.86072  Biso   1.000  H
  H266     1.0000 0.87410  0.98762  0.24115  Biso   1.000  H
  H267     1.0000 0.24867  0.81608  0.02532  Biso   1.000  H
  H268     1.0000 0.51223  0.21091  0.64556  Biso   1.000  H
  H269     1.0000 0.37394  0.94421  0.28423  Biso   1.000  H
  H270     1.0000 0.73873  0.81024  0.50620  Biso   1.000  H
  H271     1.0000 0.52092  0.71388  0.88371  Biso   1.000  H
  H272     1.0000 0.67133  0.46464  0.24546  Biso   1.000  H
  H273     1.0000 0.30051  0.31546  0.01919  Biso   1.000  H
  H274     1.0000 0.00532  0.69768  0.66465  Biso   1.000  H
  H275     1.0000 0.17328  0.44707  0.29282  Biso   1.000  H
  H276     1.0000 0.80342  0.31078  0.48031  Biso   1.000  H
  H277     1.0000 0.02249  0.74495  0.16524  Biso   1.000  H
  H278     1.0000 0.16740  0.96701  0.77707  Biso   1.000  H
  H279     1.0000 0.79737  0.12100  0.02847  Biso   1.000  H
  H280     1.0000 0.51499  0.72889  0.38172  Biso   1.000  H
  H281     1.0000 0.67769  0.98922  0.73549  Biso   1.000  H
  H282     1.0000 0.30619  0.13360  0.49266  Biso   1.000  H
  H283     1.0000 0.51646  0.22932  0.15088  Biso   1.000  H
  H284     1.0000 0.38183  0.48447  0.78410  Biso   1.000  H
  H285     1.0000 0.75037  0.62385  0.03472  Biso   1.000  H
  H286     1.0000 0.04305  0.24735  0.35639  Biso   1.000  H
  H287     1.0000 0.88128  0.46368  0.74188  Biso   1.000  H
  H288     1.0000 0.24255  0.63826  0.50831  Biso   1.000  H
  H289     1.0000 0.12064  0.19553  0.98895  Biso   1.000  H
  H290     1.0000 0.03211  0.07200  0.23916  Biso   1.000  H
  H291     1.0000 0.24791  0.97031  0.09542  Biso   1.000  H
  H292     1.0000 0.62916  0.19340  0.51346  Biso   1.000  H
  H293     1.0000 0.49995  0.04600  0.28901  Biso   1.000  H
  H294     1.0000 0.74393  0.99025  0.42281  Biso   1.000  H
  H295     1.0000 0.42701  0.69770  0.02933  Biso   1.000  H
  H296     1.0000 0.52463  0.54820  0.25102  Biso   1.000  H
  H297     1.0000 0.29285  0.46030  0.10561  Biso   1.000  H
  H298     1.0000 0.91299  0.69504  0.52575  Biso   1.000  H
  H299     1.0000 0.05545  0.57371  0.29213  Biso   1.000  H
  H300     1.0000 0.80234  0.45129  0.42657  Biso   1.000  H
  H301     1.0000 0.92766  0.74382  0.03898  Biso   1.000  H
  H302     1.0000 0.01818  0.88130  0.78956  Biso   1.000  H
  H303     1.0000 0.79700  0.96889  0.92242  Biso   1.000  H
  H304     1.0000 0.41381  0.74789  0.51802  Biso   1.000  H
  H305     1.0000 0.53526  0.89657  0.74082  Biso   1.000  H
  H306     1.0000 0.29983  0.98546  0.59973  Biso   1.000  H
  H307     1.0000 0.61823  0.24927  0.03225  Biso   1.000  H
  H308     1.0000 0.53034  0.39223  0.78032  Biso   1.000  H
  H309     1.0000 0.75616  0.47955  0.92677  Biso   1.000  H
  H310     1.0000 0.13671  0.25316  0.49511  Biso   1.000  H
  H311     1.0000 0.00004  0.37288  0.72218  Biso   1.000  H
  H312     1.0000 0.25070  0.50265  0.60741  Biso   1.000  H
  H313     1.0000 0.25649  0.95458  0.91582  Biso   1.000  H
  H314     1.0000 0.93994  0.20280  0.01305  Biso   1.000  H
  H315     1.0000 0.02664  0.89158  0.24209  Biso   1.000  H
  H316     1.0000 0.75510  0.94860  0.59621  Biso   1.000  H
  H317     1.0000 0.45253  0.21218  0.49511  Biso   1.000  H
  H318     1.0000 0.49462  0.86608  0.29080  Biso   1.000  H
  H319     1.0000 0.29952  0.47400  0.92605  Biso   1.000  H
  H320     1.0000 0.60634  0.70161  0.02562  Biso   1.000  H
  H321     1.0000 0.51906  0.36066  0.24461  Biso   1.000  H
  H322     1.0000 0.79491  0.43905  0.60519  Biso   1.000  H
  H323     1.0000 0.09275  0.70405  0.53102  Biso   1.000  H
  H324     1.0000 0.01782  0.39221  0.28336  Biso   1.000  H
  H325     1.0000 0.79283  0.98496  0.10127  Biso   1.000  H
  H326     1.0000 0.10231  0.74269  0.00748  Biso   1.000  H
  H327     1.0000 0.02026  0.06547  0.77881  Biso   1.000  H
  H328     1.0000 0.29007  0.98826  0.42226  Biso   1.000  H
  H329     1.0000 0.59268  0.73668  0.53008  Biso   1.000  H
  H330     1.0000 0.52768  0.07693  0.74106  Biso   1.000  H
  H331     1.0000 0.75651  0.47032  0.10739  Biso   1.000  H
  H332     1.0000 0.44396  0.23652  0.99449  Biso   1.000  H
  H333     1.0000 0.52001  0.57720  0.79043  Biso   1.000  H
  H334     1.0000 0.25695  0.47861  0.42880  Biso   1.000  H
  H335     1.0000 0.95122  0.23374  0.49803  Biso   1.000  H
  H336     1.0000 0.02338  0.55556  0.74865  Biso   1.000  H
  H337     1.0000 0.02232  0.20222  0.91558  Biso   1.000  H
  H338     1.0000 0.93021  0.98493  0.24317  Biso   1.000  H
  H339     1.0000 0.24949  0.87464  0.02691  Biso   1.000  H
  H340     1.0000 0.51776  0.20986  0.59128  Biso   1.000  H
  H341     1.0000 0.42602  0.94665  0.28486  Biso   1.000  H
  H342     1.0000 0.74518  0.86335  0.50209  Biso   1.000  H
  H343     1.0000 0.51957  0.70755  0.93625  Biso   1.000  H
  H344     1.0000 0.61513  0.45796  0.24509  Biso   1.000  H
  H345     1.0000 0.29828  0.37105  0.01123  Biso   1.000  H
  H346     1.0000 0.00366  0.69549  0.60967  Biso   1.000  H
  H347     1.0000 0.11604  0.45363  0.29375  Biso   1.000  H
  H348     1.0000 0.80281  0.36462  0.48760  Biso   1.000  H
  H349     1.0000 0.01751  0.74660  0.11165  Biso   1.000  H
  H350     1.0000 0.11628  0.96950  0.78057  Biso   1.000  H
  H351     1.0000 0.79759  0.06750  0.02264  Biso   1.000  H
  H352     1.0000 0.52038  0.73429  0.43650  Biso   1.000  H
  H353     1.0000 0.62394  0.99364  0.73467  Biso   1.000  H
  H354     1.0000 0.30366  0.08157  0.49333  Biso   1.000  H
  H355     1.0000 0.51909  0.23348  0.09652  Biso   1.000  H
  H356     1.0000 0.43750  0.48909  0.78441  Biso   1.000  H
  H357     1.0000 0.75121  0.56738  0.03557  Biso   1.000  H
  H358     1.0000 0.04715  0.24589  0.41297  Biso   1.000  H
  H359     1.0000 0.93488  0.47387  0.73982  Biso   1.000  H
  H360     1.0000 0.24591  0.58465  0.50252  Biso   1.000  H
  H361     1.0000 0.01542  0.70942  0.42605  Biso   1.000  H
  H362     1.0000 0.44022  0.98265  0.73957  Biso   1.000  H
  H363     1.0000 0.75587  0.39022  0.01239  Biso   1.000  H
  H364     1.0000 0.51496  0.69103  0.11260  Biso   1.000  H
  H365     1.0000 0.93428  0.99808  0.78270  Biso   1.000  H
  H366     1.0000 0.25926  0.40536  0.51607  Biso   1.000  H
  H367     1.0000 0.54387  0.18942  0.41166  Biso   1.000  H
  H368     1.0000 0.11341  0.47462  0.74675  Biso   1.000  H
  H369     1.0000 0.79835  0.89182  0.03371  Biso   1.000  H
  H370     1.0000 0.04516  0.20477  0.09238  Biso   1.000  H
  H371     1.0000 0.62170  0.46903  0.78183  Biso   1.000  H
  H372     1.0000 0.28991  0.90178  0.50135  Biso   1.000  H
  H373     1.0000 0.06449  0.24299  0.59310  Biso   1.000  H
  H374     1.0000 0.60933  0.97643  0.27864  Biso   1.000  H
  H375     1.0000 0.29502  0.55000  0.02263  Biso   1.000  H
  H376     1.0000 0.53291  0.24414  0.91467  Biso   1.000  H
  H377     1.0000 0.10865  0.96446  0.23824  Biso   1.000  H
  H378     1.0000 0.79045  0.54065  0.51804  Biso   1.000  H
  H379     1.0000 0.50063  0.74835  0.61817  Biso   1.000  H
  H380     1.0000 0.94120  0.48114  0.28751  Biso   1.000  H
  H381     1.0000 0.25656  0.04898  0.99073  Biso   1.000  H
  H382     1.0000 0.99253  0.74714  0.93131  Biso   1.000  H
  H383     1.0000 0.42924  0.45555  0.24592  Biso   1.000  H
  H384     1.0000 0.76004  0.04419  0.51729  Biso   1.000  H
  H385     1.0000 0.24759  0.43225  0.34725  Biso   1.000  H
  H386     1.0000 0.31222  0.16523  0.46170  Biso   1.000  H
  H387     1.0000 0.47623  0.27593  0.22590  Biso   1.000  H
  H388     1.0000 0.70573  0.42562  0.23579  Biso   1.000  H
  H389     1.0000 0.85687  0.20296  0.05101  Biso   1.000  H
  H390     1.0000 0.01646  0.24880  0.32599  Biso   1.000  H
  H391     1.0000 0.28357  0.94844  0.34090  Biso   1.000  H
  H392     1.0000 0.17784  0.71979  0.49848  Biso   1.000  H
  H393     1.0000 0.99042  0.75248  0.19372  Biso   1.000  H
  H394     1.0000 0.78665  0.96327  0.18958  Biso   1.000  H
  H395     1.0000 0.73745  0.65277  0.06471  Biso   1.000  H
  H396     1.0000 0.53813  0.78813  0.29630  Biso   1.000  H
  H397     1.0000 0.79419  0.47425  0.68324  Biso   1.000  H
  H398     1.0000 0.73669  0.78351  0.53976  Biso   1.000  H
  H399     1.0000 0.55724  0.66167  0.80400  Biso   1.000  H
  H400     1.0000 0.35297  0.52538  0.79848  Biso   1.000  H
  H401     1.0000 0.25150  0.79027  0.99008  Biso   1.000  H
  H402     1.0000 0.04255  0.64159  0.74550  Biso   1.000  H
  H403     1.0000 0.75432  0.93748  0.68629  Biso   1.000  H
  H404     1.0000 0.81116  0.28267  0.52387  Biso   1.000  H
  H405     1.0000 0.00063  0.20558  0.82602  Biso   1.000  H
  H406     1.0000 0.25230  0.99083  0.83638  Biso   1.000  H
  H407     1.0000 0.29812  0.28997  0.98275  Biso   1.000  H
  H408     1.0000 0.49163  0.15648  0.73077  Biso   1.000  H
  H409     1.0000 0.29425  0.42808  0.18687  Biso   1.000  H
  H410     1.0000 0.21740  0.27565  0.45842  Biso   1.000  H
  H411     1.0000 0.50204  0.18889  0.33662  Biso   1.000  H
  H412     1.0000 0.85776  0.44624  0.28292  Biso   1.000  H
  H413     1.0000 0.70158  0.25408  0.98953  Biso   1.000  H
  H414     1.0000 0.02220  0.21511  0.16999  Biso   1.000  H
  H415     1.0000 0.19712  0.93146  0.22568  Biso   1.000  H
  H416     1.0000 0.32910  0.75295  0.48407  Biso   1.000  H
  H417     1.0000 0.00593  0.64671  0.29192  Biso   1.000  H
  H418     1.0000 0.74845  0.96829  0.33945  Biso   1.000  H
  H419     1.0000 0.83935  0.75906  0.07792  Biso   1.000  H
  H420     1.0000 0.47909  0.63864  0.23990  Biso   1.000  H
  H421     1.0000 0.75438  0.49344  0.83515  Biso   1.000  H
  H422     1.0000 0.77696  0.62394  0.54700  Biso   1.000  H
  H423     1.0000 0.53982  0.75235  0.69300  Biso   1.000  H
  H424     1.0000 0.19951  0.52232  0.74399  Biso   1.000  H
  H425     1.0000 0.34573  0.68243  0.99127  Biso   1.000  H
  H426     1.0000 0.02713  0.74154  0.85128  Biso   1.000  H
  H427     1.0000 0.79393  0.99725  0.84112  Biso   1.000  H
  H428     1.0000 0.76444  0.13235  0.54581  Biso   1.000  H
  H429     1.0000 0.05198  0.30382  0.72586  Biso   1.000  H
  H430     1.0000 0.36024  0.95259  0.73802  Biso   1.000  H
  H431     1.0000 0.21628  0.18497  0.95658  Biso   1.000  H
  H432     1.0000 0.48444  0.25969  0.83007  Biso   1.000  H
  H433     1.0000 0.29817  0.01205  0.68557  Biso   1.000  H
  H434     1.0000 0.75608  0.30682  0.04796  Biso   1.000  H
  H435     1.0000 0.05507  0.71050  0.34582  Biso   1.000  H
  H436     1.0000 0.85873  0.95451  0.78360  Biso   1.000  H
  H437     1.0000 0.25992  0.30846  0.53616  Biso   1.000  H
  H438     1.0000 0.55434  0.68375  0.20126  Biso   1.000  H
  H439     1.0000 0.25452  0.46671  0.69289  Biso   1.000  H
  H440     1.0000 0.79844  0.79889  0.99545  Biso   1.000  H
  H441     1.0000 0.53932  0.12194  0.27862  Biso   1.000  H
  H442     1.0000 0.69959  0.42746  0.79113  Biso   1.000  H
  H443     1.0000 0.28552  0.81977  0.53722  Biso   1.000  H
  H444     1.0000 0.06879  0.15413  0.23535  Biso   1.000  H
  H445     1.0000 0.68935  0.02217  0.28391  Biso   1.000  H
  H446     1.0000 0.29563  0.64300  0.06770  Biso   1.000  H
  H447     1.0000 0.01871  0.23947  0.66254  Biso   1.000  H
  H448     1.0000 0.23742  0.00676  0.18599  Biso   1.000  H
  H449     1.0000 0.82917  0.68299  0.49095  Biso   1.000  H
  H450     1.0000 0.55509  0.30977  0.77945  Biso   1.000  H
  H451     1.0000 0.80076  0.49153  0.34572  Biso   1.000  H
  H452     1.0000 0.24355  0.14027  0.03813  Biso   1.000  H
  H453     1.0000 0.49947  0.81576  0.75383  Biso   1.000  H
  H454     1.0000 0.34873  0.48305  0.24141  Biso   1.000  H
  H455     1.0000 0.71495  0.18168  0.48119  Biso   1.000  H
  H456     1.0000 0.98293  0.80036  0.78741  Biso   1.000  H
  H457     1.0000 0.67247  0.72912  0.48715  Biso   1.000  H
  H458     1.0000 0.48600  0.70452  0.84937  Biso   1.000  H
  H459     1.0000 0.85258  0.42376  0.74061  Biso   1.000  H
  H460     1.0000 0.18466  0.73462  0.03262  Biso   1.000  H
  H461     1.0000 0.97540  0.69381  0.69638  Biso   1.000  H
  H462     1.0000 0.30327  0.45142  0.83712  Biso   1.000  H
  H463     1.0000 0.86386  0.23139  0.46096  Biso   1.000  H
  H464     1.0000 0.05288  0.14461  0.77740  Biso   1.000  H
  H465     1.0000 0.71240  0.01519  0.72188  Biso   1.000  H
  H466     1.0000 0.35864  0.22900  0.03336  Biso   1.000  H
  H467     1.0000 0.54946  0.21494  0.67898  Biso   1.000  H
  H468     1.0000 0.20180  0.93360  0.77918  Biso   1.000  H
  H469     1.0000 0.36780  0.21639  0.52152  Biso   1.000  H
  H470     1.0000 0.55090  0.23339  0.18555  Biso   1.000  H
  H471     1.0000 0.20121  0.49042  0.28999  Biso   1.000  H
  H472     1.0000 0.80648  0.15177  0.98865  Biso   1.000  H
  H473     1.0000 0.06242  0.31523  0.27159  Biso   1.000  H
  H474     1.0000 0.73948  0.50489  0.19494  Biso   1.000  H
  H475     1.0000 0.22994  0.65950  0.55101  Biso   1.000  H
  H476     1.0000 0.05948  0.80242  0.23980  Biso   1.000  H
  H477     1.0000 0.34759  0.98325  0.28073  Biso   1.000  H
  H478     1.0000 0.69457  0.70503  0.99903  Biso   1.000  H
  H479     1.0000 0.48358  0.72782  0.35180  Biso   1.000  H
  H480     1.0000 0.84881  0.02162  0.23786  Biso   1.000  H
  N1       1.0000 0.71403  0.13525  0.51724  Biso   1.000  N
  N2       1.0000 0.52034  0.63709  0.19914  Biso   1.000  N
  N3       1.0000 0.20089  0.49083  0.69563  Biso   1.000  N
  N4       1.0000 0.20692  0.13895  0.99433  Biso   1.000  N
  N5       1.0000 0.03245  0.65622  0.34294  Biso   1.000  N
  N6       1.0000 0.70389  0.46243  0.83915  Biso   1.000  N
  N7       1.0000 0.82983  0.63301  0.52214  Biso   1.000  N
  N8       1.0000 0.04178  0.15739  0.18063  Biso   1.000  N
  N9       1.0000 0.35341  0.98720  0.68607  Biso   1.000  N
  N10      1.0000 0.34398  0.63950  0.02943  Biso   1.000  N
  N11      1.0000 0.52358  0.13419  0.33270  Biso   1.000  N
  N12      1.0000 0.85036  0.98076  0.83603  Biso   1.000  N
  N13      1.0000 0.33286  0.80910  0.50968  Biso   1.000  N
  N14      1.0000 0.52705  0.30510  0.83059  Biso   1.000  N
  N15      1.0000 0.85271  0.46677  0.33846  Biso   1.000  N
  N16      1.0000 0.84431  0.80251  0.03752  Biso   1.000  N
  N17      1.0000 0.03469  0.29442  0.67266  Biso   1.000  N
  N18      1.0000 0.34448  0.45741  0.19196  Biso   1.000  N
  N19      1.0000 0.21526  0.31587  0.49886  Biso   1.000  N
  N20      1.0000 0.00631  0.79515  0.84211  Biso   1.000  N
  N21      1.0000 0.69424  0.98868  0.33421  Biso   1.000  N
  N22      1.0000 0.70244  0.30225  0.02187  Biso   1.000  N
  N23      1.0000 0.51717  0.80581  0.69720  Biso   1.000  N
  N24      1.0000 0.19351  0.96848  0.18400  Biso   1.000  N
  N25      1.0000 0.84910  0.45137  0.68910  Biso   1.000  N
  N26      1.0000 0.68472  0.78388  0.51175  Biso   1.000  N
  N27      1.0000 0.52238  0.66027  0.84883  Biso   1.000  N
  N28      1.0000 0.35225  0.48114  0.83786  Biso   1.000  N
  N29      1.0000 0.19390  0.78735  0.01241  Biso   1.000  N
  N30      1.0000 0.00954  0.64255  0.69791  Biso   1.000  N
  N31      1.0000 0.70902  0.97671  0.68134  Biso   1.000  N
  N32      1.0000 0.86063  0.28193  0.48965  Biso   1.000  N
  N33      1.0000 0.02641  0.15350  0.82714  Biso   1.000  N
  N34      1.0000 0.20401  0.96171  0.82989  Biso   1.000  N
  N35      1.0000 0.35333  0.28528  0.00770  Biso   1.000  N
  N36      1.0000 0.52395  0.15960  0.68235  Biso   1.000  N
  N37      1.0000 0.20476  0.46586  0.34303  Biso   1.000  N
  N38      1.0000 0.36119  0.16439  0.49324  Biso   1.000  N
  N39      1.0000 0.51544  0.28020  0.18455  Biso   1.000  N
  N40      1.0000 0.70172  0.46598  0.19452  Biso   1.000  N
  N41      1.0000 0.85357  0.15298  0.02169  Biso   1.000  N
  N42      1.0000 0.04170  0.30391  0.32528  Biso   1.000  N
  N43      1.0000 0.33924  0.96520  0.33470  Biso   1.000  N
  N44      1.0000 0.18258  0.66460  0.51673  Biso   1.000  N
  N45      1.0000 0.02460  0.80351  0.19331  Biso   1.000  N
  N46      1.0000 0.84185  0.98409  0.18991  Biso   1.000  N
  N47      1.0000 0.69487  0.65447  0.02821  Biso   1.000  N
  N48      1.0000 0.50899  0.78264  0.34585  Biso   1.000  N
  O1       1.0000 0.36714  0.50338  0.02629  Biso   1.000  O
  O2       1.0000 0.03391  0.31249  0.54150  Biso   1.000  O
  O3       1.0000 0.55946  0.95568  0.35067  Biso   1.000  O
  O4       1.0000 0.86825  0.49838  0.51819  Biso   1.000  O
  O5       1.0000 0.53709  0.31555  0.96560  Biso   1.000  O
  O6       1.0000 0.05964  0.97159  0.16803  Biso   1.000  O
  O7       1.0000 0.18301  0.00630  0.00745  Biso   1.000  O
  O8       1.0000 0.50881  0.81525  0.56040  Biso   1.000  O
  O9       1.0000 0.98766  0.47632  0.35836  Biso   1.000  O
  O10      1.0000 0.68428  0.00299  0.51239  Biso   1.000  O
  O11      1.0000 0.00944  0.81872  0.97646  Biso   1.000  O
  O12      1.0000 0.48031  0.46037  0.17395  Biso   1.000  O
  O13      1.0000 0.68236  0.43724  0.01783  Biso   1.000  O
  O14      1.0000 0.01095  0.63415  0.47696  Biso   1.000  O
  O15      1.0000 0.48892  0.98272  0.66782  Biso   1.000  O
  O16      1.0000 0.17934  0.44577  0.52250  Biso   1.000  O
  O17      1.0000 0.51867  0.62160  0.06428  Biso   1.000  O
  O18      1.0000 0.98350  0.97586  0.85190  Biso   1.000  O
  O19      1.0000 0.86920  0.93501  0.01497  Biso   1.000  O
  O20      1.0000 0.54402  0.12262  0.46754  Biso   1.000  O
  O21      1.0000 0.06663  0.47051  0.67068  Biso   1.000  O
  O22      1.0000 0.36570  0.94370  0.51705  Biso   1.000  O
  O23      1.0000 0.03139  0.12879  0.04806  Biso   1.000  O
  O24      1.0000 0.57223  0.48672  0.85214  Biso   1.000  O
  O25      1.0000 0.97817  0.98648  0.17010  Biso   1.000  O
  O26      1.0000 0.18399  0.92326  0.00733  Biso   1.000  O
  O27      1.0000 0.02852  0.13000  0.96333  Biso   1.000  O
  O28      1.0000 0.47615  0.96050  0.35515  Biso   1.000  O
  O29      1.0000 0.67385  0.91742  0.50953  Biso   1.000  O
  O30      1.0000 0.52665  0.13549  0.54860  Biso   1.000  O
  O31      1.0000 0.56730  0.46399  0.17064  Biso   1.000  O
  O32      1.0000 0.36694  0.42140  0.01275  Biso   1.000  O
  O33      1.0000 0.51900  0.62955  0.98130  Biso   1.000  O
  O34      1.0000 0.07192  0.47953  0.35784  Biso   1.000  O
  O35      1.0000 0.87052  0.41502  0.50475  Biso   1.000  O
  O36      1.0000 0.00942  0.62341  0.56079  Biso   1.000  O
  O37      1.0000 0.06812  0.97057  0.85361  Biso   1.000  O
  O38      1.0000 0.86797  0.01993  0.01101  Biso   1.000  O
  O39      1.0000 0.02443  0.81934  0.06054  Biso   1.000  O
  O40      1.0000 0.57199  0.98215  0.66415  Biso   1.000  O
  O41      1.0000 0.37264  0.02800  0.49781  Biso   1.000  O
  O42      1.0000 0.51222  0.80795  0.47807  Biso   1.000  O
  O43      1.0000 0.48737  0.47809  0.85584  Biso   1.000  O
  O44      1.0000 0.67925  0.52075  0.01577  Biso   1.000  O
  O45      1.0000 0.52201  0.31285  0.04957  Biso   1.000  O
  O46      1.0000 0.98374  0.46862  0.66868  Biso   1.000  O
  O47      1.0000 0.18078  0.52835  0.50988  Biso   1.000  O
  O48      1.0000 0.04125  0.31712  0.46000  Biso   1.000  O
  O49      1.0000 0.01079  0.93762  0.16810  Biso   1.000  O
  O50      1.0000 0.18915  0.96312  0.96570  Biso   1.000  O
  O51      1.0000 0.98834  0.12789  0.01114  Biso   1.000  O
  O52      1.0000 0.51424  0.91588  0.35854  Biso   1.000  O
  O53      1.0000 0.68135  0.95656  0.55358  Biso   1.000  O
  O54      1.0000 0.49606  0.13327  0.49852  Biso   1.000  O
  O55      1.0000 0.53074  0.41847  0.17342  Biso   1.000  O
  O56      1.0000 0.36958  0.47026  0.97597  Biso   1.000  O
  O57      1.0000 0.56192  0.62654  0.02174  Biso   1.000  O
  O58      1.0000 0.02978  0.43510  0.36112  Biso   1.000  O
  O59      1.0000 0.86729  0.44638  0.55357  Biso   1.000  O
  O60      1.0000 0.05060  0.62608  0.51730  Biso   1.000  O
  O61      1.0000 0.02923  0.01754  0.85121  Biso   1.000  O
  O62      1.0000 0.86919  0.97771  0.05629  Biso   1.000  O
  O63      1.0000 0.05982  0.81726  0.01034  Biso   1.000  O
  O64      1.0000 0.52723  0.02598  0.66896  Biso   1.000  O
  O65      1.0000 0.36604  0.98040  0.46708  Biso   1.000  O
  O66      1.0000 0.55106  0.81040  0.52080  Biso   1.000  O
  O67      1.0000 0.52567  0.52221  0.85728  Biso   1.000  O
  O68      1.0000 0.68243  0.47634  0.05966  Biso   1.000  O
  O69      1.0000 0.48872  0.31508  0.99752  Biso   1.000  O
  O70      1.0000 0.02766  0.51009  0.67551  Biso   1.000  O
  O71      1.0000 0.18198  0.48229  0.47412  Biso   1.000  O
  O72      1.0000 0.99346  0.31003  0.49638  Biso   1.000  O
  O73      1.0000 0.02692  0.42786  0.66153  Biso   1.000  O
  O74      1.0000 0.67807  0.96254  0.47032  Biso   1.000  O
  O75      1.0000 0.47815  0.62415  0.02657  Biso   1.000  O
  O76      1.0000 0.53520  0.44024  0.85398  Biso   1.000  O
  O77      1.0000 0.17694  0.96004  0.05008  Biso   1.000  O
  O78      1.0000 0.96627  0.62669  0.51840  Biso   1.000  O
  O79      1.0000 0.52634  0.94247  0.66626  Biso   1.000  O
  O80      1.0000 0.87364  0.46263  0.47198  Biso   1.000  O
  O81      1.0000 0.07138  0.12299  0.99979  Biso   1.000  O
  O82      1.0000 0.02106  0.93265  0.85666  Biso   1.000  O
  O83      1.0000 0.36741  0.46000  0.05832  Biso   1.000  O
  O84      1.0000 0.57759  0.12493  0.51675  Biso   1.000  O
  O85      1.0000 0.02846  0.52060  0.35966  Biso   1.000  O
  O86      1.0000 0.37257  0.99146  0.54907  Biso   1.000  O
  O87      1.0000 0.56997  0.31923  0.01432  Biso   1.000  O
  O88      1.0000 0.52350  0.50285  0.17620  Biso   1.000  O
  O89      1.0000 0.86959  0.97476  0.97087  Biso   1.000  O
  O90      1.0000 0.07858  0.32034  0.50258  Biso   1.000  O
  O91      1.0000 0.52238  0.99887  0.35684  Biso   1.000  O
  O92      1.0000 0.17914  0.49034  0.55854  Biso   1.000  O
  O93      1.0000 0.97705  0.81250  0.02505  Biso   1.000  O
  O94      1.0000 0.02940  0.02036  0.16976  Biso   1.000  O
  O95      1.0000 0.68513  0.47881  0.97201  Biso   1.000  O
  O96      1.0000 0.46844  0.81727  0.51366  Biso   1.000  O
  O97      1.0000 0.49964  0.18161  0.50205  Biso   1.000  O
  O98      1.0000 0.52808  0.41647  0.22375  Biso   1.000  O
  O99      1.0000 0.22955  0.49113  0.47586  Biso   1.000  O
  O100     1.0000 0.98834  0.17815  0.01258  Biso   1.000  O
  O101     1.0000 0.02530  0.43989  0.31091  Biso   1.000  O
  O102     1.0000 0.73100  0.47631  0.05871  Biso   1.000  O
  O103     1.0000 0.04659  0.67589  0.52258  Biso   1.000  O
  O104     1.0000 0.01591  0.93845  0.21568  Biso   1.000  O
  O105     1.0000 0.31644  0.98393  0.46846  Biso   1.000  O
  O106     1.0000 0.56056  0.67530  0.02120  Biso   1.000  O
  O107     1.0000 0.51526  0.91354  0.31079  Biso   1.000  O
  O108     1.0000 0.81988  0.97629  0.05339  Biso   1.000  O
  O109     1.0000 0.54722  0.76158  0.52277  Biso   1.000  O
  O110     1.0000 0.53318  0.52570  0.81033  Biso   1.000  O
  O111     1.0000 0.81981  0.45537  0.55744  Biso   1.000  O
  O112     1.0000 0.05766  0.76746  0.01442  Biso   1.000  O
  O113     1.0000 0.02341  0.50352  0.72480  Biso   1.000  O
  O114     1.0000 0.32074  0.46583  0.97318  Biso   1.000  O
  O115     1.0000 0.99955  0.26228  0.50096  Biso   1.000  O
  O116     1.0000 0.02662  0.01577  0.80302  Biso   1.000  O
  O117     1.0000 0.72981  0.95374  0.54863  Biso   1.000  O
  O118     1.0000 0.49186  0.26585  0.99763  Biso   1.000  O
  O119     1.0000 0.53083  0.02610  0.71798  Biso   1.000  O
  O120     1.0000 0.23610  0.95997  0.96626  Biso   1.000  O
  O121     1.0000 0.06655  0.46416  0.71904  Biso   1.000  O
  O122     1.0000 0.73301  0.99872  0.50762  Biso   1.000  O
  O123     1.0000 0.52782  0.67080  0.06687  Biso   1.000  O
  O124     1.0000 0.57335  0.48224  0.80320  Biso   1.000  O
  O125     1.0000 0.23165  0.00387  0.00766  Biso   1.000  O
  O126     1.0000 0.00888  0.68252  0.47903  Biso   1.000  O
  O127     1.0000 0.48776  0.98683  0.71627  Biso   1.000  O
  O128     1.0000 0.81921  0.49547  0.51880  Biso   1.000  O
  O129     1.0000 0.04033  0.17713  0.04512  Biso   1.000  O
  O130     1.0000 0.98097  0.97905  0.80255  Biso   1.000  O
  O131     1.0000 0.31952  0.50284  0.02316  Biso   1.000  O
  O132     1.0000 0.54376  0.17064  0.46189  Biso   1.000  O
  O133     1.0000 0.98596  0.47972  0.30913  Biso   1.000  O
  O134     1.0000 0.31637  0.94610  0.51234  Biso   1.000  O
  O135     1.0000 0.54069  0.26704  0.96525  Biso   1.000  O
  O136     1.0000 0.48308  0.45578  0.22363  Biso   1.000  O
  O137     1.0000 0.82149  0.93446  0.01188  Biso   1.000  O
  O138     1.0000 0.04590  0.26493  0.54215  Biso   1.000  O
  O139     1.0000 0.56072  0.95989  0.30320  Biso   1.000  O
  O140     1.0000 0.23024  0.44823  0.52203  Biso   1.000  O
  O141     1.0000 0.00991  0.76912  0.97973  Biso   1.000  O
  O142     1.0000 0.06178  0.97319  0.21708  Biso   1.000  O
  O143     1.0000 0.73143  0.43802  0.01407  Biso   1.000  O
  O144     1.0000 0.50524  0.76496  0.56583  Biso   1.000  O
  O145     1.0000 0.56684  0.45902  0.21860  Biso   1.000  O
  O146     1.0000 0.23005  0.53170  0.51222  Biso   1.000  O
  O147     1.0000 0.53780  0.18385  0.54539  Biso   1.000  O
  O148     1.0000 0.07238  0.47382  0.30902  Biso   1.000  O
  O149     1.0000 0.72817  0.52311  0.01423  Biso   1.000  O
  O150     1.0000 0.02626  0.17872  0.96229  Biso   1.000  O
  O151     1.0000 0.97941  0.98212  0.21849  Biso   1.000  O
  O152     1.0000 0.32483  0.03206  0.50279  Biso   1.000  O
  O153     1.0000 0.99924  0.67174  0.56175  Biso   1.000  O
  O154     1.0000 0.47344  0.95994  0.30682  Biso   1.000  O
  O155     1.0000 0.81976  0.02049  0.01200  Biso   1.000  O
  O156     1.0000 0.51514  0.67960  0.98246  Biso   1.000  O
  O157     1.0000 0.48775  0.48777  0.80707  Biso   1.000  O
  O158     1.0000 0.82119  0.41091  0.50605  Biso   1.000  O
  O159     1.0000 0.50805  0.75850  0.48298  Biso   1.000  O
  O160     1.0000 0.98267  0.45700  0.71606  Biso   1.000  O
  O161     1.0000 0.32004  0.41927  0.00881  Biso   1.000  O
  O162     1.0000 0.02603  0.76984  0.06080  Biso   1.000  O
  O163     1.0000 0.06575  0.97332  0.80578  Biso   1.000  O
  O164     1.0000 0.72314  0.91570  0.50811  Biso   1.000  O
  O165     1.0000 0.04337  0.26891  0.45993  Biso   1.000  O
  O166     1.0000 0.57159  0.98313  0.71341  Biso   1.000  O
  O167     1.0000 0.23217  0.92105  0.01343  Biso   1.000  O
  O168     1.0000 0.52328  0.26395  0.04865  Biso   1.000  O
  O169     1.0000 0.02653  0.02243  0.21781  Biso   1.000  O
  O170     1.0000 0.22598  0.96591  0.05035  Biso   1.000  O
  O171     1.0000 0.07308  0.17172  0.99544  Biso   1.000  O
  O172     1.0000 0.52207  0.00074  0.30805  Biso   1.000  O
  O173     1.0000 0.72621  0.95783  0.46573  Biso   1.000  O
  O174     1.0000 0.58158  0.17266  0.50754  Biso   1.000  O
  O175     1.0000 0.52371  0.49901  0.22528  Biso   1.000  O
  O176     1.0000 0.31862  0.45476  0.05875  Biso   1.000  O
  O177     1.0000 0.47882  0.67440  0.03061  Biso   1.000  O
  O178     1.0000 0.03449  0.52168  0.31052  Biso   1.000  O
  O179     1.0000 0.82384  0.45951  0.47250  Biso   1.000  O
  O180     1.0000 0.96290  0.67729  0.52077  Biso   1.000  O
  O181     1.0000 0.02434  0.92941  0.80989  Biso   1.000  O
  O182     1.0000 0.82058  0.97510  0.97009  Biso   1.000  O
  O183     1.0000 0.97494  0.76483  0.03020  Biso   1.000  O
  O184     1.0000 0.52614  0.94154  0.71459  Biso   1.000  O
  O185     1.0000 0.32486  0.99330  0.54961  Biso   1.000  O
  O186     1.0000 0.46375  0.76918  0.52220  Biso   1.000  O
  O187     1.0000 0.52654  0.44275  0.80701  Biso   1.000  O
  O188     1.0000 0.73356  0.48458  0.97342  Biso   1.000  O
  O189     1.0000 0.57355  0.27040  0.01552  Biso   1.000  O
  O190     1.0000 0.02711  0.42010  0.70997  Biso   1.000  O
  O191     1.0000 0.22830  0.49284  0.55905  Biso   1.000  O
  O192     1.0000 0.08394  0.27161  0.50074  Biso   1.000  O
