data_image0
_cell_length_a       46.964
_cell_length_b       46.481
_cell_length_c       46.4381
_cell_angle_alpha    90
_cell_angle_beta     90
_cell_angle_gamma    90

_symmetry_space_group_name_H-M    "P 1"
_symmetry_int_tables_number       1

loop_
  _symmetry_equiv_pos_as_xyz
  'x, y, z'

loop_
  _atom_site_label
  _atom_site_occupancy
  _atom_site_fract_x
  _atom_site_fract_y
  _atom_site_fract_z
  _atom_site_thermal_displace_type
  _atom_site_B_iso_or_equiv
  _atom_site_type_symbol
  C1       1.0000 0.54136  0.95104  0.33559  Biso   1.000  C
  C2       1.0000 0.31603  0.53481  0.03843  Biso   1.000  C
  C3       1.0000 0.99649  0.30173  0.58813  Biso   1.000  C
  C4       1.0000 0.04453  0.95954  0.19377  Biso   1.000  C
  C5       1.0000 0.82777  0.52876  0.51620  Biso   1.000  C
  C6       1.0000 0.48395  0.30138  0.95181  Biso   1.000  C
  C7       1.0000 0.94793  0.45398  0.32716  Biso   1.000  C
  C8       1.0000 0.17609  0.03468  0.01606  Biso   1.000  C
  C9       1.0000 0.50374  0.79817  0.57797  Biso   1.000  C
  C10      1.0000 0.45580  0.46035  0.20350  Biso   1.000  C
  C11      1.0000 0.67578  0.03083  0.49101  Biso   1.000  C
  C12      1.0000 0.00839  0.80148  0.94125  Biso   1.000  C
  C13      1.0000 0.46232  0.98300  0.69941  Biso   1.000  C
  C14      1.0000 0.67575  0.42733  0.99505  Biso   1.000  C
  C15      1.0000 0.99582  0.65314  0.43972  Biso   1.000  C
  C16      1.0000 0.95878  0.98940  0.83247  Biso   1.000  C
  C17      1.0000 0.17844  0.42650  0.52156  Biso   1.000  C
  C18      1.0000 0.49997  0.65522  0.07665  Biso   1.000  C
  C19      1.0000 0.04575  0.49219  0.69930  Biso   1.000  C
  C20      1.0000 0.82086  0.92541  0.01196  Biso   1.000  C
  C21      1.0000 0.50489  0.15331  0.45025  Biso   1.000  C
  C22      1.0000 0.53989  0.49618  0.82684  Biso   1.000  C
  C23      1.0000 0.33007  0.92499  0.51948  Biso   1.000  C
  C24      1.0000 0.00029  0.15547  0.08498  Biso   1.000  C
  C25      1.0000 0.32249  0.03199  0.52877  Biso   1.000  C
  C26      1.0000 0.50493  0.29288  0.05656  Biso   1.000  C
  C27      1.0000 0.05633  0.46121  0.33660  Biso   1.000  C
  C28      1.0000 0.81855  0.03207  0.00757  Biso   1.000  C
  C29      1.0000 0.00240  0.28794  0.47828  Biso   1.000  C
  C30      1.0000 0.56233  0.45918  0.19295  Biso   1.000  C
  C31      1.0000 0.18240  0.53581  0.52529  Biso   1.000  C
  C32      1.0000 0.98858  0.78785  0.04558  Biso   1.000  C
  C33      1.0000 0.43716  0.96678  0.33223  Biso   1.000  C
  C34      1.0000 0.67688  0.53704  0.99994  Biso   1.000  C
  C35      1.0000 0.50982  0.78576  0.46980  Biso   1.000  C
  C36      1.0000 0.93386  0.95646  0.19169  Biso   1.000  C
  C37      1.0000 0.68843  0.92612  0.51639  Biso   1.000  C
  C38      1.0000 0.49418  0.66724  0.96727  Biso   1.000  C
  C39      1.0000 0.93742  0.49828  0.69110  Biso   1.000  C
  C40      1.0000 0.17938  0.92648  0.02195  Biso   1.000  C
  C41      1.0000 0.01414  0.65762  0.54857  Biso   1.000  C
  C42      1.0000 0.42889  0.48151  0.83877  Biso   1.000  C
  C43      1.0000 0.81832  0.42201  0.50043  Biso   1.000  C
  C44      1.0000 0.99447  0.16632  0.97750  Biso   1.000  C
  C45      1.0000 0.57322  0.98162  0.69646  Biso   1.000  C
  C46      1.0000 0.32129  0.42635  0.02349  Biso   1.000  C
  C47      1.0000 0.49100  0.16307  0.56120  Biso   1.000  C
  C48      1.0000 0.06488  0.99483  0.83072  Biso   1.000  C
  C49      1.0000 0.00899  0.04946  0.83310  Biso   1.000  C
  C50      1.0000 0.82030  0.97716  0.06210  Biso   1.000  C
  C51      1.0000 0.05305  0.79627  0.00473  Biso   1.000  C
  C52      1.0000 0.51898  0.03805  0.68951  Biso   1.000  C
  C53      1.0000 0.32160  0.98247  0.47028  Biso   1.000  C
  C54      1.0000 0.56082  0.79134  0.52469  Biso   1.000  C
  C55      1.0000 0.47416  0.54318  0.83962  Biso   1.000  C
  C56      1.0000 0.68066  0.48372  0.05575  Biso   1.000  C
  C57      1.0000 0.44425  0.29913  0.01298  Biso   1.000  C
  C58      1.0000 0.99601  0.55005  0.68984  Biso   1.000  C
  C59      1.0000 0.17890  0.48468  0.46981  Biso   1.000  C
  C60      1.0000 0.94503  0.29529  0.52929  Biso   1.000  C
  C61      1.0000 0.99329  0.90338  0.18132  Biso   1.000  C
  C62      1.0000 0.17835  0.97614  0.96426  Biso   1.000  C
  C63      1.0000 0.94129  0.16064  0.03510  Biso   1.000  C
  C64      1.0000 0.47901  0.90433  0.33686  Biso   1.000  C
  C65      1.0000 0.69068  0.99322  0.55797  Biso   1.000  C
  C66      1.0000 0.44401  0.15882  0.49955  Biso   1.000  C
  C67      1.0000 0.50860  0.40355  0.19923  Biso   1.000  C
  C68      1.0000 0.31517  0.48224  0.97862  Biso   1.000  C
  C69      1.0000 0.55099  0.66340  0.01940  Biso   1.000  C
  C70      1.0000 0.00535  0.40282  0.33693  Biso   1.000  C
  C71      1.0000 0.81749  0.47036  0.55805  Biso   1.000  C
  C72      1.0000 0.05978  0.65849  0.48518  Biso   1.000  C
  C73      1.0000 0.99613  0.51172  0.33034  Biso   1.000  C
  C74      1.0000 0.33323  0.97554  0.57912  Biso   1.000  C
  C75      1.0000 0.55174  0.30002  0.99720  Biso   1.000  C
  C76      1.0000 0.50232  0.51360  0.19485  Biso   1.000  C
  C77      1.0000 0.82700  0.98299  0.95228  Biso   1.000  C
  C78      1.0000 0.05541  0.29421  0.53522  Biso   1.000  C
  C79      1.0000 0.49793  0.01329  0.33356  Biso   1.000  C
  C80      1.0000 0.17919  0.47960  0.57994  Biso   1.000  C
  C81      1.0000 0.94434  0.79797  0.98926  Biso   1.000  C
  C82      1.0000 0.99177  0.01211  0.19892  Biso   1.000  C
  C83      1.0000 0.67088  0.48345  0.94644  Biso   1.000  C
  C84      1.0000 0.45299  0.79647  0.51992  Biso   1.000  C
  C85      1.0000 0.98670  0.44201  0.69796  Biso   1.000  C
  C86      1.0000 0.67615  0.96029  0.45532  Biso   1.000  C
  C87      1.0000 0.44459  0.66284  0.02631  Biso   1.000  C
  C88      1.0000 0.49343  0.43575  0.83036  Biso   1.000  C
  C89      1.0000 0.17616  0.98320  0.07284  Biso   1.000  C
  C90      1.0000 0.94974  0.65893  0.50168  Biso   1.000  C
  C91      1.0000 0.51200  0.92975  0.70522  Biso   1.000  C
  C92      1.0000 0.82497  0.48280  0.45182  Biso   1.000  C
  C93      1.0000 0.05033  0.15931  0.02625  Biso   1.000  C
  C94      1.0000 0.01614  0.93868  0.82761  Biso   1.000  C
  C95      1.0000 0.31993  0.47684  0.08826  Biso   1.000  C
  C96      1.0000 0.55178  0.16157  0.51146  Biso   1.000  C
  C97      1.0000 0.67390  0.06274  0.48970  Biso   1.000  C
  C98      1.0000 0.50344  0.64990  0.10857  Biso   1.000  C
  C99      1.0000 0.07782  0.48666  0.70132  Biso   1.000  C
  C100     1.0000 0.17458  0.06613  0.00753  Biso   1.000  C
  C101     1.0000 0.99148  0.65144  0.40734  Biso   1.000  C
  C102     1.0000 0.57195  0.49689  0.82386  Biso   1.000  C
  C103     1.0000 0.82675  0.56032  0.51758  Biso   1.000  C
  C104     1.0000 0.99887  0.15137  0.11682  Biso   1.000  C
  C105     1.0000 0.43099  0.97815  0.70347  Biso   1.000  C
  C106     1.0000 0.31628  0.56610  0.04215  Biso   1.000  C
  C107     1.0000 0.50890  0.14919  0.41857  Biso   1.000  C
  C108     1.0000 0.92648  0.98496  0.83079  Biso   1.000  C
  C109     1.0000 0.33071  0.89256  0.51209  Biso   1.000  C
  C110     1.0000 0.47798  0.30487  0.92094  Biso   1.000  C
  C111     1.0000 0.91669  0.45548  0.32621  Biso   1.000  C
  C112     1.0000 0.82089  0.89389  0.01675  Biso   1.000  C
  C113     1.0000 0.99904  0.30478  0.62086  Biso   1.000  C
  C114     1.0000 0.42435  0.46408  0.20647  Biso   1.000  C
  C115     1.0000 0.17871  0.39502  0.52049  Biso   1.000  C
  C116     1.0000 0.01259  0.80492  0.90945  Biso   1.000  C
  C117     1.0000 0.57354  0.95018  0.33372  Biso   1.000  C
  C118     1.0000 0.67842  0.39499  0.99895  Biso   1.000  C
  C119     1.0000 0.49936  0.80145  0.60974  Biso   1.000  C
  C120     1.0000 0.07630  0.96088  0.19360  Biso   1.000  C
  C121     1.0000 0.81633  0.97549  0.09390  Biso   1.000  C
  C122     1.0000 0.08385  0.79623  0.01296  Biso   1.000  C
  C123     1.0000 0.00532  0.08125  0.83718  Biso   1.000  C
  C124     1.0000 0.31761  0.97797  0.43905  Biso   1.000  C
  C125     1.0000 0.59319  0.79245  0.52734  Biso   1.000  C
  C126     1.0000 0.51985  0.07170  0.68965  Biso   1.000  C
  C127     1.0000 0.68253  0.48572  0.08848  Biso   1.000  C
  C128     1.0000 0.41153  0.29993  0.01530  Biso   1.000  C
  C129     1.0000 0.46435  0.57427  0.84350  Biso   1.000  C
  C130     1.0000 0.17955  0.48152  0.43649  Biso   1.000  C
  C131     1.0000 0.91279  0.29689  0.53299  Biso   1.000  C
  C132     1.0000 0.00540  0.58092  0.68543  Biso   1.000  C
  C133     1.0000 0.18121  0.97195  0.93225  Biso   1.000  C
  C134     1.0000 0.90946  0.16123  0.03408  Biso   1.000  C
  C135     1.0000 0.99607  0.87085  0.18000  Biso   1.000  C
  C136     1.0000 0.69247  0.99272  0.59177  Biso   1.000  C
  C137     1.0000 0.41378  0.15832  0.50612  Biso   1.000  C
  C138     1.0000 0.47626  0.87146  0.34077  Biso   1.000  C
  C139     1.0000 0.31139  0.47968  0.94643  Biso   1.000  C
  C140     1.0000 0.58137  0.66323  0.00844  Biso   1.000  C
  C141     1.0000 0.50675  0.37123  0.19746  Biso   1.000  C
  C142     1.0000 0.81661  0.47225  0.59062  Biso   1.000  C
  C143     1.0000 0.09220  0.65787  0.48726  Biso   1.000  C
  C144     1.0000 0.00627  0.37072  0.34048  Biso   1.000  C
  C145     1.0000 0.32354  0.47141  0.11997  Biso   1.000  C
  C146     1.0000 0.08676  0.29625  0.53649  Biso   1.000  C
  C147     1.0000 0.49612  0.04549  0.33091  Biso   1.000  C
  C148     1.0000 0.82396  0.48203  0.41902  Biso   1.000  C
  C149     1.0000 0.58442  0.29842  0.99843  Biso   1.000  C
  C150     1.0000 0.99130  0.04454  0.20288  Biso   1.000  C
  C151     1.0000 0.17385  0.98809  0.10468  Biso   1.000  C
  C152     1.0000 0.42060  0.79613  0.51219  Biso   1.000  C
  C153     1.0000 0.99446  0.54305  0.32681  Biso   1.000  C
  C154     1.0000 0.67597  0.95344  0.42325  Biso   1.000  C
  C155     1.0000 0.91200  0.79972  0.99112  Biso   1.000  C
  C156     1.0000 0.49889  0.54524  0.19509  Biso   1.000  C
  C157     1.0000 0.66900  0.47649  0.91451  Biso   1.000  C
  C158     1.0000 0.91921  0.66103  0.51165  Biso   1.000  C
  C159     1.0000 0.50353  0.89906  0.70518  Biso   1.000  C
  C160     1.0000 0.17752  0.47947  0.61250  Biso   1.000  C
  C161     1.0000 0.41290  0.66239  0.03298  Biso   1.000  C
  C162     1.0000 0.02032  0.90564  0.82330  Biso   1.000  C
  C163     1.0000 0.82728  0.98776  0.92065  Biso   1.000  C
  C164     1.0000 0.58428  0.16121  0.51504  Biso   1.000  C
  C165     1.0000 0.98223  0.41063  0.70271  Biso   1.000  C
  C166     1.0000 0.33512  0.97703  0.61086  Biso   1.000  C
  C167     1.0000 0.08011  0.16098  0.01435  Biso   1.000  C
  C168     1.0000 0.49214  0.40332  0.82976  Biso   1.000  C
  C169     1.0000 0.99004  0.78388  0.07742  Biso   1.000  C
  C170     1.0000 0.09655  0.98955  0.83042  Biso   1.000  C
  C171     1.0000 0.81972  0.06360  0.00237  Biso   1.000  C
  C172     1.0000 0.51287  0.78459  0.43710  Biso   1.000  C
  C173     1.0000 0.60486  0.98142  0.69481  Biso   1.000  C
  C174     1.0000 0.32160  0.06507  0.52757  Biso   1.000  C
  C175     1.0000 0.50583  0.28976  0.09015  Biso   1.000  C
  C176     1.0000 0.39765  0.47629  0.84111  Biso   1.000  C
  C177     1.0000 0.67736  0.56893  0.00304  Biso   1.000  C
  C178     1.0000 0.00304  0.28587  0.44625  Biso   1.000  C
  C179     1.0000 0.90561  0.49478  0.68852  Biso   1.000  C
  C180     1.0000 0.18264  0.56793  0.51911  Biso   1.000  C
  C181     1.0000 0.99425  0.16731  0.94544  Biso   1.000  C
  C182     1.0000 0.90248  0.95609  0.19073  Biso   1.000  C
  C183     1.0000 0.17872  0.89382  0.02288  Biso   1.000  C
  C184     1.0000 0.49157  0.16398  0.59322  Biso   1.000  C
  C185     1.0000 0.40562  0.96901  0.33455  Biso   1.000  C
  C186     1.0000 0.68835  0.89299  0.51629  Biso   1.000  C
  C187     1.0000 0.48711  0.66918  0.93608  Biso   1.000  C
  C188     1.0000 0.59372  0.45754  0.18990  Biso   1.000  C
  C189     1.0000 0.32016  0.39548  0.01336  Biso   1.000  C
  C190     1.0000 0.02019  0.66200  0.58019  Biso   1.000  C
  C191     1.0000 0.08895  0.46348  0.33881  Biso   1.000  C
  C192     1.0000 0.81643  0.38899  0.50474  Biso   1.000  C
  C193     1.0000 0.85459  0.98870  0.90517  Biso   1.000  C
  C194     1.0000 0.89805  0.82675  0.99505  Biso   1.000  C
  C195     1.0000 0.01816  0.88879  0.84944  Biso   1.000  C
  C196     1.0000 0.36248  0.97666  0.62649  Biso   1.000  C
  C197     1.0000 0.40601  0.82447  0.51681  Biso   1.000  C
  C198     1.0000 0.50619  0.88168  0.67869  Biso   1.000  C
  C199     1.0000 0.64152  0.47996  0.90045  Biso   1.000  C
  C200     1.0000 0.60041  0.32588  0.99904  Biso   1.000  C
  C201     1.0000 0.48913  0.38734  0.85687  Biso   1.000  C
  C202     1.0000 0.14805  0.47885  0.62679  Biso   1.000  C
  C203     1.0000 0.10321  0.32248  0.53482  Biso   1.000  C
  C204     1.0000 0.98962  0.39102  0.67930  Biso   1.000  C
  C205     1.0000 0.14573  0.98394  0.11998  Biso   1.000  C
  C206     1.0000 0.09572  0.13376  0.00943  Biso   1.000  C
  C207     1.0000 0.99342  0.06387  0.17703  Biso   1.000  C
  C208     1.0000 0.64615  0.95119  0.40987  Biso   1.000  C
  C209     1.0000 0.59777  0.13347  0.51015  Biso   1.000  C
  C210     1.0000 0.49695  0.06437  0.35709  Biso   1.000  C
  C211     1.0000 0.35222  0.47224  0.13165  Biso   1.000  C
  C212     1.0000 0.39579  0.63616  0.03806  Biso   1.000  C
  C213     1.0000 0.49740  0.56271  0.16958  Biso   1.000  C
  C214     1.0000 0.84989  0.47805  0.40293  Biso   1.000  C
  C215     1.0000 0.90357  0.63144  0.51539  Biso   1.000  C
  C216     1.0000 0.99413  0.56273  0.35065  Biso   1.000  C
  C217     1.0000 0.11072  0.98424  0.85722  Biso   1.000  C
  C218     1.0000 0.84385  0.08000  0.01028  Biso   1.000  C
  C219     1.0000 0.99093  0.80956  0.09542  Biso   1.000  C
  C220     1.0000 0.62002  0.98055  0.66620  Biso   1.000  C
  C221     1.0000 0.34722  0.08050  0.51880  Biso   1.000  C
  C222     1.0000 0.50479  0.81133  0.42162  Biso   1.000  C
  C223     1.0000 0.38317  0.47439  0.86933  Biso   1.000  C
  C224     1.0000 0.64996  0.58510  0.00413  Biso   1.000  C
  C225     1.0000 0.50951  0.31472  0.11024  Biso   1.000  C
  C226     1.0000 0.88995  0.49254  0.66204  Biso   1.000  C
  C227     1.0000 0.15862  0.58380  0.50923  Biso   1.000  C
  C228     1.0000 0.00610  0.31239  0.42858  Biso   1.000  C
  C229     1.0000 0.88811  0.96069  0.16395  Biso   1.000  C
  C230     1.0000 0.15186  0.87513  0.01974  Biso   1.000  C
  C231     1.0000 0.99703  0.14052  0.92741  Biso   1.000  C
  C232     1.0000 0.39122  0.97193  0.36353  Biso   1.000  C
  C233     1.0000 0.66008  0.87698  0.51786  Biso   1.000  C
  C234     1.0000 0.50301  0.13841  0.60937  Biso   1.000  C
  C235     1.0000 0.60924  0.46185  0.16229  Biso   1.000  C
  C236     1.0000 0.34646  0.38076  0.01077  Biso   1.000  C
  C237     1.0000 0.48132  0.64307  0.92046  Biso   1.000  C
  C238     1.0000 0.10378  0.47099  0.36607  Biso   1.000  C
  C239     1.0000 0.84412  0.37373  0.51101  Biso   1.000  C
  C240     1.0000 0.01760  0.63786  0.59909  Biso   1.000  C
  C241     1.0000 0.58792  0.49301  0.85064  Biso   1.000  C
  C242     1.0000 0.85248  0.57884  0.52033  Biso   1.000  C
  C243     1.0000 0.50452  0.82811  0.62598  Biso   1.000  C
  C244     1.0000 0.09485  0.48543  0.67512  Biso   1.000  C
  C245     1.0000 0.34292  0.58322  0.04153  Biso   1.000  C
  C246     1.0000 0.01239  0.83249  0.89614  Biso   1.000  C
  C247     1.0000 0.90826  0.98695  0.85659  Biso   1.000  C
  C248     1.0000 0.64847  0.07822  0.49983  Biso   1.000  C
  C249     1.0000 0.99689  0.33510  0.63460  Biso   1.000  C
  C250     1.0000 0.41482  0.97459  0.67751  Biso   1.000  C
  C251     1.0000 0.14789  0.08145  0.00910  Biso   1.000  C
  C252     1.0000 0.48388  0.33405  0.90721  Biso   1.000  C
  C253     1.0000 0.40759  0.46640  0.18024  Biso   1.000  C
  C254     1.0000 0.15279  0.37729  0.52425  Biso   1.000  C
  C255     1.0000 0.50456  0.11972  0.40562  Biso   1.000  C
  C256     1.0000 0.90052  0.46271  0.35422  Biso   1.000  C
  C257     1.0000 0.65074  0.37716  0.99984  Biso   1.000  C
  C258     1.0000 0.99415  0.12173  0.12869  Biso   1.000  C
  C259     1.0000 0.09253  0.96507  0.16755  Biso   1.000  C
  C260     1.0000 0.35650  0.87612  0.51265  Biso   1.000  C
  C261     1.0000 0.99149  0.62296  0.39472  Biso   1.000  C
  C262     1.0000 0.59118  0.94612  0.35975  Biso   1.000  C
  C263     1.0000 0.84725  0.87875  0.01163  Biso   1.000  C
  C264     1.0000 0.50461  0.62145  0.12225  Biso   1.000  C
  C265     1.0000 0.00671  0.09371  0.86646  Biso   1.000  C
  C266     1.0000 0.84032  0.96916  0.11224  Biso   1.000  C
  C267     1.0000 0.09962  0.82341  0.01280  Biso   1.000  C
  C268     1.0000 0.51685  0.08649  0.66242  Biso   1.000  C
  C269     1.0000 0.34270  0.97726  0.41900  Biso   1.000  C
  C270     1.0000 0.60830  0.82067  0.52551  Biso   1.000  C
  C271     1.0000 0.46966  0.59001  0.87091  Biso   1.000  C
  C272     1.0000 0.65661  0.48017  0.10774  Biso   1.000  C
  C273     1.0000 0.39516  0.32636  0.01581  Biso   1.000  C
  C274     1.0000 0.01043  0.59327  0.65598  Biso   1.000  C
  C275     1.0000 0.15156  0.47896  0.42080  Biso   1.000  C
  C276     1.0000 0.89714  0.32223  0.52648  Biso   1.000  C
  C277     1.0000 0.99549  0.85628  0.15110  Biso   1.000  C
  C278     1.0000 0.15654  0.97208  0.91273  Biso   1.000  C
  C279     1.0000 0.89333  0.13439  0.02908  Biso   1.000  C
  C280     1.0000 0.48569  0.85825  0.36879  Biso   1.000  C
  C281     1.0000 0.66691  0.98996  0.61003  Biso   1.000  C
  C282     1.0000 0.39904  0.13037  0.51133  Biso   1.000  C
  C283     1.0000 0.50580  0.35807  0.16863  Biso   1.000  C
  C284     1.0000 0.33558  0.47348  0.92604  Biso   1.000  C
  C285     1.0000 0.59792  0.63591  0.01142  Biso   1.000  C
  C286     1.0000 0.00572  0.35847  0.37003  Biso   1.000  C
  C287     1.0000 0.84317  0.48127  0.60688  Biso   1.000  C
  C288     1.0000 0.10804  0.63251  0.49498  Biso   1.000  C
  C289     1.0000 0.35389  0.84510  0.50997  Biso   1.000  C
  C290     1.0000 0.48572  0.33364  0.87534  Biso   1.000  C
  C291     1.0000 0.87035  0.46925  0.35002  Biso   1.000  C
  C292     1.0000 0.84620  0.84731  0.00626  Biso   1.000  C
  C293     1.0000 0.99370  0.33703  0.66576  Biso   1.000  C
  C294     1.0000 0.37629  0.46835  0.18392  Biso   1.000  C
  C295     1.0000 0.15468  0.34571  0.52722  Biso   1.000  C
  C296     1.0000 0.01777  0.83502  0.86488  Biso   1.000  C
  C297     1.0000 0.62363  0.94736  0.35696  Biso   1.000  C
  C298     1.0000 0.65351  0.34609  0.00059  Biso   1.000  C
  C299     1.0000 0.49787  0.82875  0.65737  Biso   1.000  C
  C300     1.0000 0.12356  0.97284  0.17107  Biso   1.000  C
  C301     1.0000 0.65014  0.11008  0.50258  Biso   1.000  C
  C302     1.0000 0.49824  0.61765  0.15407  Biso   1.000  C
  C303     1.0000 0.12552  0.48188  0.67856  Biso   1.000  C
  C304     1.0000 0.14850  0.11267  0.00584  Biso   1.000  C
  C305     1.0000 0.99134  0.61740  0.36386  Biso   1.000  C
  C306     1.0000 0.61930  0.48755  0.84933  Biso   1.000  C
  C307     1.0000 0.85158  0.61013  0.52227  Biso   1.000  C
  C308     1.0000 0.99163  0.11715  0.16084  Biso   1.000  C
  C309     1.0000 0.38414  0.97455  0.67921  Biso   1.000  C
  C310     1.0000 0.34174  0.61394  0.03937  Biso   1.000  C
  C311     1.0000 0.50594  0.11830  0.37338  Biso   1.000  C
  C312     1.0000 0.87799  0.98687  0.85318  Biso   1.000  C
  C313     1.0000 0.15546  0.47370  0.38963  Biso   1.000  C
  C314     1.0000 0.36821  0.13350  0.51593  Biso   1.000  C
  C315     1.0000 0.50368  0.32718  0.16479  Biso   1.000  C
  C316     1.0000 0.65975  0.47331  0.13858  Biso   1.000  C
  C317     1.0000 0.86303  0.13437  0.02054  Biso   1.000  C
  C318     1.0000 0.00174  0.32759  0.37360  Biso   1.000  C
  C319     1.0000 0.34039  0.97240  0.38756  Biso   1.000  C
  C320     1.0000 0.13921  0.63504  0.49771  Biso   1.000  C
  C321     1.0000 0.99171  0.82496  0.15037  Biso   1.000  C
  C322     1.0000 0.83729  0.96898  0.14396  Biso   1.000  C
  C323     1.0000 0.62909  0.63737  0.00833  Biso   1.000  C
  C324     1.0000 0.48850  0.82766  0.36948  Biso   1.000  C
  C325     1.0000 0.83958  0.48396  0.63861  Biso   1.000  C
  C326     1.0000 0.63949  0.82171  0.52359  Biso   1.000  C
  C327     1.0000 0.47363  0.62110  0.86936  Biso   1.000  C
  C328     1.0000 0.33218  0.47496  0.89516  Biso   1.000  C
  C329     1.0000 0.13016  0.82270  0.02180  Biso   1.000  C
  C330     1.0000 0.01665  0.62333  0.65275  Biso   1.000  C
  C331     1.0000 0.67007  0.98675  0.64168  Biso   1.000  C
  C332     1.0000 0.86522  0.32145  0.52314  Biso   1.000  C
  C333     1.0000 0.00254  0.12491  0.87108  Biso   1.000  C
  C334     1.0000 0.16207  0.97659  0.88157  Biso   1.000  C
  C335     1.0000 0.36542  0.32582  0.01205  Biso   1.000  C
  C336     1.0000 0.51119  0.11654  0.66401  Biso   1.000  C
  C337     1.0000 0.63968  0.48124  0.86955  Biso   1.000  C
  C338     1.0000 0.87221  0.63217  0.51919  Biso   1.000  C
  C339     1.0000 0.49945  0.85056  0.67853  Biso   1.000  C
  C340     1.0000 0.14713  0.47947  0.65781  Biso   1.000  C
  C341     1.0000 0.36391  0.63638  0.03653  Biso   1.000  C
  C342     1.0000 0.02017  0.85789  0.84583  Biso   1.000  C
  C343     1.0000 0.85518  0.98593  0.87336  Biso   1.000  C
  C344     1.0000 0.62899  0.13176  0.50755  Biso   1.000  C
  C345     1.0000 0.98944  0.35932  0.68559  Biso   1.000  C
  C346     1.0000 0.36236  0.97594  0.65805  Biso   1.000  C
  C347     1.0000 0.12731  0.13471  0.00711  Biso   1.000  C
  C348     1.0000 0.48861  0.35542  0.85454  Biso   1.000  C
  C349     1.0000 0.35411  0.47076  0.16409  Biso   1.000  C
  C350     1.0000 0.13407  0.32232  0.53114  Biso   1.000  C
  C351     1.0000 0.50260  0.09529  0.35325  Biso   1.000  C
  C352     1.0000 0.84818  0.47438  0.37156  Biso   1.000  C
  C353     1.0000 0.63213  0.32436  0.00035  Biso   1.000  C
  C354     1.0000 0.99115  0.09412  0.18078  Biso   1.000  C
  C355     1.0000 0.14559  0.98118  0.15048  Biso   1.000  C
  C356     1.0000 0.37542  0.82334  0.51131  Biso   1.000  C
  C357     1.0000 0.99055  0.59285  0.34552  Biso   1.000  C
  C358     1.0000 0.64563  0.94903  0.37731  Biso   1.000  C
  C359     1.0000 0.86659  0.82642  0.00009  Biso   1.000  C
  C360     1.0000 0.49491  0.59388  0.17354  Biso   1.000  C
  C361     1.0000 0.99839  0.14346  0.89593  Biso   1.000  C
  C362     1.0000 0.85806  0.96568  0.16524  Biso   1.000  C
  C363     1.0000 0.15220  0.84384  0.02376  Biso   1.000  C
  C364     1.0000 0.50630  0.13762  0.64219  Biso   1.000  C
  C365     1.0000 0.36025  0.97087  0.36382  Biso   1.000  C
  C366     1.0000 0.65999  0.84489  0.52050  Biso   1.000  C
  C367     1.0000 0.47599  0.64362  0.89029  Biso   1.000  C
  C368     1.0000 0.64093  0.46600  0.16093  Biso   1.000  C
  C369     1.0000 0.34493  0.34792  0.00986  Biso   1.000  C
  C370     1.0000 0.02035  0.64276  0.62969  Biso   1.000  C
  C371     1.0000 0.13383  0.46886  0.36829  Biso   1.000  C
  C372     1.0000 0.84399  0.34331  0.51684  Biso   1.000  C
  C373     1.0000 0.99052  0.80453  0.12631  Biso   1.000  C
  C374     1.0000 0.14296  0.98147  0.85888  Biso   1.000  C
  C375     1.0000 0.84358  0.11187  0.01099  Biso   1.000  C
  C376     1.0000 0.49771  0.80708  0.39127  Biso   1.000  C
  C377     1.0000 0.65078  0.98249  0.66384  Biso   1.000  C
  C378     1.0000 0.34640  0.11247  0.51987  Biso   1.000  C
  C379     1.0000 0.50536  0.30807  0.14056  Biso   1.000  C
  C380     1.0000 0.35189  0.47506  0.87119  Biso   1.000  C
  C381     1.0000 0.65116  0.61638  0.00635  Biso   1.000  C
  C382     1.0000 0.00288  0.30996  0.39754  Biso   1.000  C
  C383     1.0000 0.85935  0.48965  0.66150  Biso   1.000  C
  C384     1.0000 0.16048  0.61382  0.50353  Biso   1.000  C
  C385     1.0000 0.17478  0.12917  0.00302  Biso   1.000  C
  C386     1.0000 0.99304  0.14260  0.17876  Biso   1.000  C
  C387     1.0000 0.13715  0.97388  0.19863  Biso   1.000  C
  C388     1.0000 0.67733  0.12555  0.50107  Biso   1.000  C
  C389     1.0000 0.51260  0.14296  0.35410  Biso   1.000  C
  C390     1.0000 0.63722  0.94892  0.32891  Biso   1.000  C
  C391     1.0000 0.31461  0.62911  0.04182  Biso   1.000  C
  C392     1.0000 0.49462  0.64269  0.17224  Biso   1.000  C
  C393     1.0000 0.36292  0.46748  0.21180  Biso   1.000  C
  C394     1.0000 0.82427  0.62436  0.52443  Biso   1.000  C
  C395     1.0000 0.98802  0.64103  0.34429  Biso   1.000  C
  C396     1.0000 0.85561  0.46907  0.32296  Biso   1.000  C
  C397     1.0000 0.81855  0.83125  0.00709  Biso   1.000  C
  C398     1.0000 0.02386  0.80897  0.84754  Biso   1.000  C
  C399     1.0000 0.86458  0.98262  0.82593  Biso   1.000  C
  C400     1.0000 0.32665  0.83013  0.50800  Biso   1.000  C
  C401     1.0000 0.48692  0.80301  0.67070  Biso   1.000  C
  C402     1.0000 0.36976  0.97803  0.70663  Biso   1.000  C
  C403     1.0000 0.68045  0.33061  0.00232  Biso   1.000  C
  C404     1.0000 0.48652  0.30679  0.85833  Biso   1.000  C
  C405     1.0000 0.63335  0.48733  0.82142  Biso   1.000  C
  C406     1.0000 0.18167  0.33100  0.52354  Biso   1.000  C
  C407     1.0000 0.99092  0.31166  0.68378  Biso   1.000  C
  C408     1.0000 0.13929  0.48054  0.70620  Biso   1.000  C
  C409     1.0000 0.16047  0.98579  0.83387  Biso   1.000  C
  C410     1.0000 0.81733  0.12783  0.00157  Biso   1.000  C
  C411     1.0000 0.98906  0.77612  0.14007  Biso   1.000  C
  C412     1.0000 0.66844  0.98484  0.69003  Biso   1.000  C
  C413     1.0000 0.32181  0.12907  0.52533  Biso   1.000  C
  C414     1.0000 0.49862  0.77968  0.37546  Biso   1.000  C
  C415     1.0000 0.33433  0.47766  0.84550  Biso   1.000  C
  C416     1.0000 0.67774  0.63167  0.00690  Biso   1.000  C
  C417     1.0000 0.50312  0.27903  0.15273  Biso   1.000  C
  C418     1.0000 0.84362  0.48896  0.68831  Biso   1.000  C
  C419     1.0000 0.18663  0.63109  0.50733  Biso   1.000  C
  C420     1.0000 0.00025  0.28000  0.38516  Biso   1.000  C
  C421     1.0000 0.84045  0.96714  0.19150  Biso   1.000  C
  C422     1.0000 0.17823  0.82962  0.03058  Biso   1.000  C
  C423     1.0000 0.99528  0.17200  0.88312  Biso   1.000  C
  C424     1.0000 0.34141  0.97135  0.33884  Biso   1.000  C
  C425     1.0000 0.68749  0.82935  0.52044  Biso   1.000  C
  C426     1.0000 0.50126  0.16430  0.65706  Biso   1.000  C
  C427     1.0000 0.65926  0.46193  0.18517  Biso   1.000  C
  C428     1.0000 0.31692  0.33337  0.00843  Biso   1.000  C
  C429     1.0000 0.47545  0.67047  0.87434  Biso   1.000  C
  C430     1.0000 0.15039  0.46343  0.34160  Biso   1.000  C
  C431     1.0000 0.81732  0.32702  0.51611  Biso   1.000  C
  C432     1.0000 0.02776  0.67116  0.64196  Biso   1.000  C
  C433     1.0000 0.99813  0.14473  0.84637  Biso   1.000  C
  C434     1.0000 0.81056  0.97342  0.15728  Biso   1.000  C
  C435     1.0000 0.14539  0.79636  0.02758  Biso   1.000  C
  C436     1.0000 0.50970  0.13410  0.69185  Biso   1.000  C
  C437     1.0000 0.31205  0.97288  0.37377  Biso   1.000  C
  C438     1.0000 0.65575  0.79570  0.52466  Biso   1.000  C
  C439     1.0000 0.46825  0.63582  0.84353  Biso   1.000  C
  C440     1.0000 0.68807  0.47518  0.15173  Biso   1.000  C
  C441     1.0000 0.34853  0.29995  0.01252  Biso   1.000  C
  C442     1.0000 0.02270  0.64202  0.67784  Biso   1.000  C
  C443     1.0000 0.18307  0.46978  0.37478  Biso   1.000  C
  C444     1.0000 0.84950  0.29468  0.52740  Biso   1.000  C
  C445     1.0000 0.98974  0.80699  0.17591  Biso   1.000  C
  C446     1.0000 0.19004  0.97883  0.86816  Biso   1.000  C
  C447     1.0000 0.84723  0.16076  0.01695  Biso   1.000  C
  C448     1.0000 0.48390  0.81048  0.34408  Biso   1.000  C
  C449     1.0000 0.69813  0.98842  0.65373  Biso   1.000  C
  C450     1.0000 0.35274  0.16072  0.51572  Biso   1.000  C
  C451     1.0000 0.50001  0.30873  0.19061  Biso   1.000  C
  C452     1.0000 0.30452  0.47982  0.88202  Biso   1.000  C
  C453     1.0000 0.64554  0.66376  0.00574  Biso   1.000  C
  C454     1.0000 0.99651  0.30888  0.34921  Biso   1.000  C
  C455     1.0000 0.81319  0.47975  0.65435  Biso   1.000  C
  C456     1.0000 0.15588  0.66126  0.49735  Biso   1.000  C
  C457     1.0000 0.98852  0.60427  0.31645  Biso   1.000  C
  C458     1.0000 0.33666  0.97791  0.67461  Biso   1.000  C
  C459     1.0000 0.64688  0.29804  0.00064  Biso   1.000  C
  C460     1.0000 0.48864  0.60650  0.20186  Biso   1.000  C
  C461     1.0000 0.82930  0.98293  0.85554  Biso   1.000  C
  C462     1.0000 0.14977  0.29579  0.52848  Biso   1.000  C
  C463     1.0000 0.50563  0.10805  0.32415  Biso   1.000  C
  C464     1.0000 0.17314  0.47500  0.67492  Biso   1.000  C
  C465     1.0000 0.85071  0.79861  0.99888  Biso   1.000  C
  C466     1.0000 0.99055  0.10745  0.20923  Biso   1.000  C
  C467     1.0000 0.66600  0.47872  0.85252  Biso   1.000  C
  C468     1.0000 0.35817  0.79691  0.50622  Biso   1.000  C
  C469     1.0000 0.98423  0.34683  0.71386  Biso   1.000  C
  C470     1.0000 0.67161  0.94954  0.35925  Biso   1.000  C
  C471     1.0000 0.34840  0.66349  0.03578  Biso   1.000  C
  C472     1.0000 0.49167  0.33990  0.82726  Biso   1.000  C
  C473     1.0000 0.17162  0.98681  0.16858  Biso   1.000  C
  C474     1.0000 0.85659  0.65908  0.52062  Biso   1.000  C
  C475     1.0000 0.48938  0.83570  0.70421  Biso   1.000  C
  C476     1.0000 0.82229  0.47632  0.35471  Biso   1.000  C
  C477     1.0000 0.14348  0.16255  0.00534  Biso   1.000  C
  C478     1.0000 0.02602  0.84446  0.81705  Biso   1.000  C
  C479     1.0000 0.32780  0.46905  0.18158  Biso   1.000  C
  C480     1.0000 0.64598  0.15866  0.50894  Biso   1.000  C
  C481     1.0000 0.37330  0.76925  0.50186  Biso   1.000  C
  C482     1.0000 0.49671  0.35697  0.80055  Biso   1.000  C
  C483     1.0000 0.79549  0.48449  0.37122  Biso   1.000  C
  C484     1.0000 0.86601  0.77147  0.99329  Biso   1.000  C
  C485     1.0000 0.97594  0.36676  0.73808  Biso   1.000  C
  C486     1.0000 0.29900  0.46949  0.16992  Biso   1.000  C
  C487     1.0000 0.13396  0.26933  0.53156  Biso   1.000  C
  C488     1.0000 0.02997  0.86167  0.78998  Biso   1.000  C
  C489     1.0000 0.69893  0.95164  0.37409  Biso   1.000  C
  C490     1.0000 0.63019  0.27085  0.99816  Biso   1.000  C
  C491     1.0000 0.48993  0.85252  0.73256  Biso   1.000  C
  C492     1.0000 0.19898  0.99369  0.15388  Biso   1.000  C
  C493     1.0000 0.63253  0.18624  0.51471  Biso   1.000  C
  C494     1.0000 0.48926  0.58876  0.22729  Biso   1.000  C
  C495     1.0000 0.20169  0.47363  0.65939  Biso   1.000  C
  C496     1.0000 0.12736  0.18873  0.00547  Biso   1.000  C
  C497     1.0000 0.99062  0.58521  0.29105  Biso   1.000  C
  C498     1.0000 0.69434  0.47723  0.86550  Biso   1.000  C
  C499     1.0000 0.87313  0.68693  0.51813  Biso   1.000  C
  C500     1.0000 0.98887  0.08994  0.23474  Biso   1.000  C
  C501     1.0000 0.30943  0.97620  0.65920  Biso   1.000  C
  C502     1.0000 0.36543  0.69084  0.03475  Biso   1.000  C
  C503     1.0000 0.50179  0.08962  0.29891  Biso   1.000  C
  C504     1.0000 0.80252  0.98530  0.87196  Biso   1.000  C
  C505     1.0000 0.61825  0.49365  0.79447  Biso   1.000  C
  C506     1.0000 0.79885  0.60573  0.52407  Biso   1.000  C
  C507     1.0000 0.48134  0.77659  0.65503  Biso   1.000  C
  C508     1.0000 0.12162  0.47896  0.73135  Biso   1.000  C
  C509     1.0000 0.28681  0.61409  0.04457  Biso   1.000  C
  C510     1.0000 0.02337  0.78058  0.86064  Biso   1.000  C
  C511     1.0000 0.88214  0.97780  0.80039  Biso   1.000  C
  C512     1.0000 0.70244  0.11049  0.49298  Biso   1.000  C
  C513     1.0000 0.99779  0.28214  0.66963  Biso   1.000  C
  C514     1.0000 0.38621  0.98266  0.73360  Biso   1.000  C
  C515     1.0000 0.20180  0.11350  0.99839  Biso   1.000  C
  C516     1.0000 0.47763  0.27935  0.87193  Biso   1.000  C
  C517     1.0000 0.38081  0.46638  0.23815  Biso   1.000  C
  C518     1.0000 0.20802  0.34855  0.51664  Biso   1.000  C
  C519     1.0000 0.51814  0.17096  0.36759  Biso   1.000  C
  C520     1.0000 0.87188  0.45971  0.29597  Biso   1.000  C
  C521     1.0000 0.70704  0.34972  0.00128  Biso   1.000  C
  C522     1.0000 0.99624  0.17142  0.16756  Biso   1.000  C
  C523     1.0000 0.12012  0.96850  0.22582  Biso   1.000  C
  C524     1.0000 0.30107  0.84752  0.50727  Biso   1.000  C
  C525     1.0000 0.98374  0.66956  0.35623  Biso   1.000  C
  C526     1.0000 0.61947  0.95041  0.30206  Biso   1.000  C
  C527     1.0000 0.79201  0.84739  0.01435  Biso   1.000  C
  C528     1.0000 0.49601  0.67133  0.15730  Biso   1.000  C
  C529     1.0000 0.79185  0.10994  0.99254  Biso   1.000  C
  C530     1.0000 0.98991  0.75152  0.12229  Biso   1.000  C
  C531     1.0000 0.14414  0.98893  0.80576  Biso   1.000  C
  C532     1.0000 0.29708  0.11247  0.53705  Biso   1.000  C
  C533     1.0000 0.51007  0.75405  0.39018  Biso   1.000  C
  C534     1.0000 0.65454  0.98335  0.71862  Biso   1.000  C
  C535     1.0000 0.70477  0.61622  0.00804  Biso   1.000  C
  C536     1.0000 0.50257  0.25489  0.13223  Biso   1.000  C
  C537     1.0000 0.34832  0.47700  0.81720  Biso   1.000  C
  C538     1.0000 0.21204  0.61521  0.51734  Biso   1.000  C
  C539     1.0000 0.99839  0.25346  0.40294  Biso   1.000  C
  C540     1.0000 0.85967  0.49214  0.71602  Biso   1.000  C
  C541     1.0000 0.20472  0.84702  0.03541  Biso   1.000  C
  C542     1.0000 0.99618  0.19824  0.90135  Biso   1.000  C
  C543     1.0000 0.85413  0.95872  0.21890  Biso   1.000  C
  C544     1.0000 0.71537  0.84523  0.51847  Biso   1.000  C
  C545     1.0000 0.49219  0.19155  0.64024  Biso   1.000  C
  C546     1.0000 0.35581  0.96575  0.31055  Biso   1.000  C
  C547     1.0000 0.28968  0.35122  0.00874  Biso   1.000  C
  C548     1.0000 0.48321  0.69690  0.89039  Biso   1.000  C
  C549     1.0000 0.64353  0.45638  0.21383  Biso   1.000  C
  C550     1.0000 0.79040  0.34046  0.50755  Biso   1.000  C
  C551     1.0000 0.03523  0.69489  0.62173  Biso   1.000  C
  C552     1.0000 0.13663  0.45493  0.31396  Biso   1.000  C
  C553     1.0000 0.99509  0.13163  0.81806  Biso   1.000  C
  C554     1.0000 0.78614  0.97907  0.13906  Biso   1.000  C
  C555     1.0000 0.13056  0.76945  0.02239  Biso   1.000  C
  C556     1.0000 0.51361  0.11889  0.71838  Biso   1.000  C
  C557     1.0000 0.28731  0.97483  0.39404  Biso   1.000  C
  C558     1.0000 0.64093  0.76738  0.52934  Biso   1.000  C
  C559     1.0000 0.45947  0.62067  0.81675  Biso   1.000  C
  C560     1.0000 0.71407  0.47943  0.13202  Biso   1.000  C
  C561     1.0000 0.36309  0.27237  0.00991  Biso   1.000  C
  C562     1.0000 0.01721  0.63128  0.70679  Biso   1.000  C
  C563     1.0000 0.20978  0.47653  0.39034  Biso   1.000  C
  C564     1.0000 0.86476  0.26902  0.53632  Biso   1.000  C
  C565     1.0000 0.98945  0.82233  0.20580  Biso   1.000  C
  C566     1.0000 0.21428  0.97551  0.88697  Biso   1.000  C
  C567     1.0000 0.86235  0.18891  0.02494  Biso   1.000  C
  C568     1.0000 0.47359  0.82322  0.31647  Biso   1.000  C
  C569     1.0000 0.72460  0.99171  0.63648  Biso   1.000  C
  C570     1.0000 0.36783  0.18715  0.50917  Biso   1.000  C
  C571     1.0000 0.50061  0.32084  0.22067  Biso   1.000  C
  C572     1.0000 0.27997  0.48460  0.90065  Biso   1.000  C
  C573     1.0000 0.62988  0.69114  0.00370  Biso   1.000  C
  C574     1.0000 0.99726  0.32134  0.31933  Biso   1.000  C
  C575     1.0000 0.78781  0.47170  0.63745  Biso   1.000  C
  C576     1.0000 0.13956  0.68739  0.48991  Biso   1.000  C
  C577     1.0000 0.29744  0.46873  0.13787  Biso   1.000  C
  C578     1.0000 0.10258  0.26871  0.53605  Biso   1.000  C
  C579     1.0000 0.49754  0.05794  0.30206  Biso   1.000  C
  C580     1.0000 0.79639  0.48409  0.40257  Biso   1.000  C
  C581     1.0000 0.59970  0.27187  0.99624  Biso   1.000  C
  C582     1.0000 0.99022  0.05889  0.23162  Biso   1.000  C
  C583     1.0000 0.19966  0.99253  0.12171  Biso   1.000  C
  C584     1.0000 0.40452  0.76880  0.50353  Biso   1.000  C
  C585     1.0000 0.99329  0.55408  0.29714  Biso   1.000  C
  C586     1.0000 0.70294  0.95424  0.40621  Biso   1.000  C
  C587     1.0000 0.89720  0.77258  0.99180  Biso   1.000  C
  C588     1.0000 0.49595  0.55857  0.22467  Biso   1.000  C
  C589     1.0000 0.69442  0.47513  0.89681  Biso   1.000  C
  C590     1.0000 0.90422  0.68773  0.51321  Biso   1.000  C
  C591     1.0000 0.49787  0.88416  0.73272  Biso   1.000  C
  C592     1.0000 0.20341  0.47610  0.62884  Biso   1.000  C
  C593     1.0000 0.39613  0.68962  0.03297  Biso   1.000  C
  C594     1.0000 0.02543  0.89298  0.79317  Biso   1.000  C
  C595     1.0000 0.79975  0.98740  0.90288  Biso   1.000  C
  C596     1.0000 0.60183  0.18746  0.51771  Biso   1.000  C
  C597     1.0000 0.97620  0.39814  0.73274  Biso   1.000  C
  C598     1.0000 0.30819  0.97663  0.62796  Biso   1.000  C
  C599     1.0000 0.09702  0.18773  0.01230  Biso   1.000  C
  C600     1.0000 0.49704  0.38815  0.80197  Biso   1.000  C
  C601     1.0000 0.20987  0.97284  0.91927  Biso   1.000  C
  C602     1.0000 0.89367  0.18868  0.03385  Biso   1.000  C
  C603     1.0000 0.99272  0.85345  0.20689  Biso   1.000  C
  C604     1.0000 0.72084  0.99322  0.60410  Biso   1.000  C
  C605     1.0000 0.39840  0.18527  0.50514  Biso   1.000  C
  C606     1.0000 0.46815  0.85405  0.31604  Biso   1.000  C
  C607     1.0000 0.28314  0.48446  0.93312  Biso   1.000  C
  C608     1.0000 0.59779  0.69120  0.00531  Biso   1.000  C
  C609     1.0000 0.50489  0.35253  0.22365  Biso   1.000  C
  C610     1.0000 0.78861  0.46754  0.60621  Biso   1.000  C
  C611     1.0000 0.10802  0.68591  0.48579  Biso   1.000  C
  C612     1.0000 0.00364  0.35093  0.31576  Biso   1.000  C
  C613     1.0000 0.78788  0.98069  0.10751  Biso   1.000  C
  C614     1.0000 0.09842  0.76846  0.01770  Biso   1.000  C
  C615     1.0000 0.99853  0.10062  0.81389  Biso   1.000  C
  C616     1.0000 0.28980  0.97532  0.42539  Biso   1.000  C
  C617     1.0000 0.60905  0.76617  0.52947  Biso   1.000  C
  C618     1.0000 0.51701  0.08708  0.71775  Biso   1.000  C
  C619     1.0000 0.71008  0.48813  0.10089  Biso   1.000  C
  C620     1.0000 0.39536  0.27279  0.01200  Biso   1.000  C
  C621     1.0000 0.45735  0.58961  0.81712  Biso   1.000  C
  C622     1.0000 0.20755  0.48160  0.42107  Biso   1.000  C
  C623     1.0000 0.89606  0.26984  0.54013  Biso   1.000  C
  C624     1.0000 0.00951  0.60097  0.71035  Biso   1.000  C
  C625     1.0000 0.99509  0.19530  0.93208  Biso   1.000  C
  C626     1.0000 0.88552  0.95469  0.21824  Biso   1.000  C
  C627     1.0000 0.20413  0.87829  0.02977  Biso   1.000  C
  C628     1.0000 0.48609  0.19041  0.60867  Biso   1.000  C
  C629     1.0000 0.38759  0.96537  0.30877  Biso   1.000  C
  C630     1.0000 0.71430  0.87701  0.51597  Biso   1.000  C
  C631     1.0000 0.48952  0.69659  0.92129  Biso   1.000  C
  C632     1.0000 0.61202  0.45429  0.21592  Biso   1.000  C
  C633     1.0000 0.29150  0.38257  0.01331  Biso   1.000  C
  C634     1.0000 0.03025  0.69023  0.59112  Biso   1.000  C
  C635     1.0000 0.10465  0.45309  0.31308  Biso   1.000  C
  C636     1.0000 0.79026  0.37190  0.50290  Biso   1.000  C
  C637     1.0000 0.98692  0.75521  0.09100  Biso   1.000  C
  C638     1.0000 0.11323  0.99132  0.80317  Biso   1.000  C
  C639     1.0000 0.79488  0.07818  0.99230  Biso   1.000  C
  C640     1.0000 0.51727  0.75607  0.42124  Biso   1.000  C
  C641     1.0000 0.62284  0.98228  0.72062  Biso   1.000  C
  C642     1.0000 0.29576  0.08091  0.53463  Biso   1.000  C
  C643     1.0000 0.50432  0.25977  0.10164  Biso   1.000  C
  C644     1.0000 0.38058  0.47697  0.81408  Biso   1.000  C
  C645     1.0000 0.70434  0.58485  0.00521  Biso   1.000  C
  C646     1.0000 0.99912  0.25717  0.43446  Biso   1.000  C
  C647     1.0000 0.89033  0.49505  0.71504  Biso   1.000  C
  C648     1.0000 0.20946  0.58382  0.52399  Biso   1.000  C
  C649     1.0000 0.98587  0.67539  0.38729  Biso   1.000  C
  C650     1.0000 0.41740  0.98224  0.73141  Biso   1.000  C
  C651     1.0000 0.70587  0.38155  0.00043  Biso   1.000  C
  C652     1.0000 0.50107  0.67518  0.12670  Biso   1.000  C
  C653     1.0000 0.91233  0.98082  0.80251  Biso   1.000  C
  C654     1.0000 0.20669  0.38070  0.51760  Biso   1.000  C
  C655     1.0000 0.51518  0.17445  0.39933  Biso   1.000  C
  C656     1.0000 0.09160  0.48182  0.72950  Biso   1.000  C
  C657     1.0000 0.79369  0.87899  0.01952  Biso   1.000  C
  C658     1.0000 0.00093  0.17616  0.13603  Biso   1.000  C
  C659     1.0000 0.58741  0.49881  0.79595  Biso   1.000  C
  C660     1.0000 0.30294  0.87840  0.50581  Biso   1.000  C
  C661     1.0000 0.00146  0.27982  0.63835  Biso   1.000  C
  C662     1.0000 0.58802  0.95075  0.30432  Biso   1.000  C
  C663     1.0000 0.28809  0.58179  0.04395  Biso   1.000  C
  C664     1.0000 0.47276  0.27822  0.90352  Biso   1.000  C
  C665     1.0000 0.09037  0.96096  0.22226  Biso   1.000  C
  C666     1.0000 0.79896  0.57544  0.51807  Biso   1.000  C
  C667     1.0000 0.49022  0.77576  0.62512  Biso   1.000  C
  C668     1.0000 0.90207  0.45276  0.29836  Biso   1.000  C
  C669     1.0000 0.20178  0.08200  0.99857  Biso   1.000  C
  C670     1.0000 0.01804  0.77916  0.89181  Biso   1.000  C
  C671     1.0000 0.41113  0.46381  0.23420  Biso   1.000  C
  C672     1.0000 0.70116  0.07957  0.48519  Biso   1.000  C
  C673     1.0000 0.20731  0.98836  0.82332  Biso   1.000  C
  C674     1.0000 0.80291  0.17557  0.00411  Biso   1.000  C
  C675     1.0000 0.98973  0.75894  0.18563  Biso   1.000  C
  C676     1.0000 0.71516  0.98625  0.69975  Biso   1.000  C
  C677     1.0000 0.30685  0.17810  0.52368  Biso   1.000  C
  C678     1.0000 0.48964  0.76446  0.32989  Biso   1.000  C
  C679     1.0000 0.28741  0.47886  0.83527  Biso   1.000  C
  C680     1.0000 0.69355  0.67776  0.00468  Biso   1.000  C
  C681     1.0000 0.49696  0.25927  0.19631  Biso   1.000  C
  C682     1.0000 0.79761  0.48195  0.70105  Biso   1.000  C
  C683     1.0000 0.20351  0.67609  0.49919  Biso   1.000  C
  C684     1.0000 0.99470  0.26151  0.33902  Biso   1.000  C
  C685     1.0000 0.79359  0.97176  0.20384  Biso   1.000  C
  C686     1.0000 0.19225  0.78315  0.03421  Biso   1.000  C
  C687     1.0000 0.98931  0.19255  0.83775  Biso   1.000  C
  C688     1.0000 0.29564  0.97297  0.32699  Biso   1.000  C
  C689     1.0000 0.70185  0.78125  0.52282  Biso   1.000  C
  C690     1.0000 0.50016  0.18190  0.70290  Biso   1.000  C
  C691     1.0000 0.70537  0.46375  0.19743  Biso   1.000  C
  C692     1.0000 0.30227  0.28658  0.00644  Biso   1.000  C
  C693     1.0000 0.46826  0.68267  0.82723  Biso   1.000  C
  C694     1.0000 0.19858  0.46293  0.33048  Biso   1.000  C
  C695     1.0000 0.80361  0.27916  0.51980  Biso   1.000  C
  C696     1.0000 0.03097  0.68869  0.68827  Biso   1.000  C
  C697     1.0000 0.68433  0.95423  0.31296  Biso   1.000  C
  C698     1.0000 0.30164  0.67611  0.04025  Biso   1.000  C
  C699     1.0000 0.98113  0.30064  0.73097  Biso   1.000  C
  C700     1.0000 0.18368  0.97901  0.21543  Biso   1.000  C
  C701     1.0000 0.80924  0.67155  0.52210  Biso   1.000  C
  C702     1.0000 0.48848  0.29461  0.80927  Biso   1.000  C
  C703     1.0000 0.81017  0.47215  0.30703  Biso   1.000  C
  C704     1.0000 0.19072  0.17687  0.99989  Biso   1.000  C
  C705     1.0000 0.47991  0.79203  0.71891  Biso   1.000  C
  C706     1.0000 0.31609  0.46538  0.22990  Biso   1.000  C
  C707     1.0000 0.69376  0.17132  0.50425  Biso   1.000  C
  C708     1.0000 0.03136  0.79733  0.80128  Biso   1.000  C
  C709     1.0000 0.32345  0.98444  0.72338  Biso   1.000  C
  C710     1.0000 0.69412  0.28336  0.00342  Biso   1.000  C
  C711     1.0000 0.98994  0.64999  0.29666  Biso   1.000  C
  C712     1.0000 0.81957  0.97894  0.80804  Biso   1.000  C
  C713     1.0000 0.19679  0.28487  0.52404  Biso   1.000  C
  C714     1.0000 0.48791  0.65310  0.21879  Biso   1.000  C
  C715     1.0000 0.18390  0.47636  0.72488  Biso   1.000  C
  C716     1.0000 0.80465  0.78488  0.99879  Biso   1.000  C
  C717     1.0000 0.50960  0.15166  0.30446  Biso   1.000  C
  C718     1.0000 0.67772  0.47902  0.80257  Biso   1.000  C
  C719     1.0000 0.31242  0.78322  0.50004  Biso   1.000  C
  C720     1.0000 0.99012  0.15222  0.22689  Biso   1.000  C
  C721     1.0000 0.49647  0.76931  0.29966  Biso   1.000  C
  C722     1.0000 0.28965  0.49727  0.80977  Biso   1.000  C
  C723     1.0000 0.77476  0.28189  0.53182  Biso   1.000  C
  C724     1.0000 0.97473  0.73028  0.18040  Biso   1.000  C
  C725     1.0000 0.77143  0.49722  0.69505  Biso   1.000  C
  C726     1.0000 0.27694  0.29039  0.98844  Biso   1.000  C
  C727     1.0000 0.97077  0.26092  0.31853  Biso   1.000  C
  C728     1.0000 0.23522  0.00168  0.83039  Biso   1.000  C
  C729     1.0000 0.73127  0.78590  0.53295  Biso   1.000  C
  C730     1.0000 0.47620  0.25788  0.22041  Biso   1.000  C
  C731     1.0000 0.73878  0.96557  0.69717  Biso   1.000  C
  C732     1.0000 0.22045  0.78614  0.02000  Biso   1.000  C
  C733     1.0000 0.48485  0.17757  0.72937  Biso   1.000  C
  C734     1.0000 0.70608  0.44446  0.22181  Biso   1.000  C
  C735     1.0000 0.19942  0.70655  0.51175  Biso   1.000  C
  C736     1.0000 0.97046  0.21635  0.84497  Biso   1.000  C
  C737     1.0000 0.22503  0.44855  0.33693  Biso   1.000  C
  C738     1.0000 0.69039  0.70716  0.01535  Biso   1.000  C
  C739     1.0000 0.04920  0.68519  0.71356  Biso   1.000  C
  C740     1.0000 0.76417  0.95852  0.19669  Biso   1.000  C
  C741     1.0000 0.27668  0.17155  0.51599  Biso   1.000  C
  C742     1.0000 0.48428  0.67764  0.79841  Biso   1.000  C
  C743     1.0000 0.26852  0.95673  0.32966  Biso   1.000  C
  C744     1.0000 0.80128  0.19706  0.02824  Biso   1.000  C
  C745     1.0000 0.00815  0.67631  0.29923  Biso   1.000  C
  C746     1.0000 0.29705  0.00048  0.71561  Biso   1.000  C
  C747     1.0000 0.72120  0.28859  0.01890  Biso   1.000  C
  C748     1.0000 0.50903  0.67656  0.21945  Biso   1.000  C
  C749     1.0000 0.79298  0.96118  0.81015  Biso   1.000  C
  C750     1.0000 0.22412  0.29067  0.53887  Biso   1.000  C
  C751     1.0000 0.52487  0.14586  0.27603  Biso   1.000  C
  C752     1.0000 0.21191  0.46170  0.72236  Biso   1.000  C
  C753     1.0000 0.77959  0.79085  0.98086  Biso   1.000  C
  C754     1.0000 0.00443  0.14788  0.25557  Biso   1.000  C
  C755     1.0000 0.68119  0.50262  0.78306  Biso   1.000  C
  C756     1.0000 0.28775  0.78802  0.48102  Biso   1.000  C
  C757     1.0000 0.96798  0.27152  0.72619  Biso   1.000  C
  C758     1.0000 0.68257  0.97872  0.29211  Biso   1.000  C
  C759     1.0000 0.27955  0.67841  0.06395  Biso   1.000  C
  C760     1.0000 0.50109  0.26505  0.81253  Biso   1.000  C
  C761     1.0000 0.20814  0.99920  0.21851  Biso   1.000  C
  C762     1.0000 0.81208  0.69664  0.50131  Biso   1.000  C
  C763     1.0000 0.46277  0.79441  0.74503  Biso   1.000  C
  C764     1.0000 0.78257  0.45777  0.30960  Biso   1.000  C
  C765     1.0000 0.21932  0.17219  0.01206  Biso   1.000  C
  C766     1.0000 0.01750  0.80116  0.77421  Biso   1.000  C
  C767     1.0000 0.31940  0.47690  0.26003  Biso   1.000  C
  C768     1.0000 0.68971  0.19903  0.49107  Biso   1.000  C
  C769     1.0000 0.45674  0.71147  0.83252  Biso   1.000  C
  C770     1.0000 0.79906  0.46593  0.72819  Biso   1.000  C
  C771     1.0000 0.69522  0.75137  0.51133  Biso   1.000  C
  C772     1.0000 0.01736  0.71669  0.68395  Biso   1.000  C
  C773     1.0000 0.26203  0.46147  0.84036  Biso   1.000  C
  C774     1.0000 0.18672  0.75656  0.05124  Biso   1.000  C
  C775     1.0000 0.00633  0.19598  0.80974  Biso   1.000  C
  C776     1.0000 0.71389  0.00535  0.72490  Biso   1.000  C
  C777     1.0000 0.81046  0.25111  0.50440  Biso   1.000  C
  C778     1.0000 0.51098  0.21060  0.69690  Biso   1.000  C
  C779     1.0000 0.20607  0.97571  0.79348  Biso   1.000  C
  C780     1.0000 0.30305  0.26032  0.02443  Biso   1.000  C
  C781     1.0000 0.51615  0.23502  0.19196  Biso   1.000  C
  C782     1.0000 0.19748  0.47683  0.30193  Biso   1.000  C
  C783     1.0000 0.31527  0.20777  0.53190  Biso   1.000  C
  C784     1.0000 0.01681  0.23946  0.33476  Biso   1.000  C
  C785     1.0000 0.72868  0.48405  0.19517  Biso   1.000  C
  C786     1.0000 0.78200  0.17646  0.98086  Biso   1.000  C
  C787     1.0000 0.00737  0.76058  0.21130  Biso   1.000  C
  C788     1.0000 0.29758  0.98998  0.30136  Biso   1.000  C
  C789     1.0000 0.23132  0.66807  0.48664  Biso   1.000  C
  C790     1.0000 0.48214  0.73402  0.33695  Biso   1.000  C
  C791     1.0000 0.79956  0.98257  0.23393  Biso   1.000  C
  C792     1.0000 0.71973  0.67137  0.98728  Biso   1.000  C
  C793     1.0000 0.49493  0.17870  0.30910  Biso   1.000  C
  C794     1.0000 0.28818  0.45028  0.22457  Biso   1.000  C
  C795     1.0000 0.19491  0.25727  0.50888  Biso   1.000  C
  C796     1.0000 0.97353  0.17863  0.22474  Biso   1.000  C
  C797     1.0000 0.81773  0.48602  0.27825  Biso   1.000  C
  C798     1.0000 0.69090  0.25563  0.99009  Biso   1.000  C
  C799     1.0000 0.97523  0.64439  0.26905  Biso   1.000  C
  C800     1.0000 0.18216  0.95715  0.23725  Biso   1.000  C
  C801     1.0000 0.31515  0.75495  0.51595  Biso   1.000  C
  C802     1.0000 0.46687  0.65115  0.24139  Biso   1.000  C
  C803     1.0000 0.70761  0.93394  0.30937  Biso   1.000  C
  C804     1.0000 0.80720  0.75716  0.01396  Biso   1.000  C
  C805     1.0000 0.49559  0.76477  0.71613  Biso   1.000  C
  C806     1.0000 0.69865  0.45580  0.80014  Biso   1.000  C
  C807     1.0000 0.78353  0.66907  0.53855  Biso   1.000  C
  C808     1.0000 0.04962  0.77198  0.80440  Biso   1.000  C
  C809     1.0000 0.17824  0.48976  0.75368  Biso   1.000  C
  C810     1.0000 0.30073  0.69726  0.01678  Biso   1.000  C
  C811     1.0000 0.99077  0.30795  0.76050  Biso   1.000  C
  C812     1.0000 0.82512  0.99608  0.78226  Biso   1.000  C
  C813     1.0000 0.72121  0.16515  0.51706  Biso   1.000  C
  C814     1.0000 0.47607  0.29979  0.77980  Biso   1.000  C
  C815     1.0000 0.32573  0.97338  0.75307  Biso   1.000  C
  C816     1.0000 0.18654  0.20698  0.98811  Biso   1.000  C
  C817     1.0000 0.97007  0.23984  0.82593  Biso   1.000  C
  C818     1.0000 0.74203  0.95768  0.21811  Biso   1.000  C
  C819     1.0000 0.24089  0.76475  0.02416  Biso   1.000  C
  C820     1.0000 0.48018  0.20069  0.74867  Biso   1.000  C
  C821     1.0000 0.24705  0.95531  0.30805  Biso   1.000  C
  C822     1.0000 0.75095  0.76465  0.53020  Biso   1.000  C
  C823     1.0000 0.48231  0.69904  0.77682  Biso   1.000  C
  C824     1.0000 0.72901  0.44419  0.24058  Biso   1.000  C
  C825     1.0000 0.25642  0.26801  0.98629  Biso   1.000  C
  C826     1.0000 0.05038  0.70704  0.73508  Biso   1.000  C
  C827     1.0000 0.24853  0.44978  0.31879  Biso   1.000  C
  C828     1.0000 0.75434  0.26006  0.52882  Biso   1.000  C
  C829     1.0000 0.97584  0.70839  0.20057  Biso   1.000  C
  C830     1.0000 0.25802  0.00530  0.81147  Biso   1.000  C
  C831     1.0000 0.77814  0.21713  0.02684  Biso   1.000  C
  C832     1.0000 0.49411  0.74761  0.27840  Biso   1.000  C
  C833     1.0000 0.75919  0.96277  0.71850  Biso   1.000  C
  C834     1.0000 0.25761  0.19268  0.51497  Biso   1.000  C
  C835     1.0000 0.47807  0.23557  0.24043  Biso   1.000  C
  C836     1.0000 0.26767  0.49692  0.78874  Biso   1.000  C
  C837     1.0000 0.71059  0.72828  0.01212  Biso   1.000  C
  C838     1.0000 0.96765  0.23835  0.29816  Biso   1.000  C
  C839     1.0000 0.74697  0.49598  0.71467  Biso   1.000  C
  C840     1.0000 0.22088  0.72751  0.50721  Biso   1.000  C
  C841     1.0000 0.23065  0.97698  0.77498  Biso   1.000  C
  C842     1.0000 0.76340  0.20067  0.97890  Biso   1.000  C
  C843     1.0000 0.01078  0.73856  0.22964  Biso   1.000  C
  C844     1.0000 0.73652  0.00534  0.74375  Biso   1.000  C
  C845     1.0000 0.29400  0.22968  0.52910  Biso   1.000  C
  C846     1.0000 0.48265  0.71181  0.31587  Biso   1.000  C
  C847     1.0000 0.24084  0.45906  0.81919  Biso   1.000  C
  C848     1.0000 0.74069  0.69359  0.98308  Biso   1.000  C
  C849     1.0000 0.51703  0.21322  0.21161  Biso   1.000  C
  C850     1.0000 0.77378  0.46481  0.74590  Biso   1.000  C
  C851     1.0000 0.25235  0.69003  0.48751  Biso   1.000  C
  C852     1.0000 0.01611  0.22026  0.31124  Biso   1.000  C
  C853     1.0000 0.77679  0.97835  0.25335  Biso   1.000  C
  C854     1.0000 0.20936  0.73699  0.05445  Biso   1.000  C
  C855     1.0000 0.99908  0.21663  0.78963  Biso   1.000  C
  C856     1.0000 0.27561  0.98910  0.28067  Biso   1.000  C
  C857     1.0000 0.71673  0.73049  0.50782  Biso   1.000  C
  C858     1.0000 0.50647  0.23327  0.71776  Biso   1.000  C
  C859     1.0000 0.74935  0.48689  0.21593  Biso   1.000  C
  C860     1.0000 0.28041  0.23942  0.02204  Biso   1.000  C
  C861     1.0000 0.46045  0.73257  0.81199  Biso   1.000  C
  C862     1.0000 0.22127  0.47634  0.28288  Biso   1.000  C
  C863     1.0000 0.78797  0.23075  0.50054  Biso   1.000  C
  C864     1.0000 0.01964  0.73808  0.70523  Biso   1.000  C
  C865     1.0000 0.70199  0.50280  0.76077  Biso   1.000  C
  C866     1.0000 0.79053  0.71716  0.50018  Biso   1.000  C
  C867     1.0000 0.45975  0.77327  0.76599  Biso   1.000  C
  C868     1.0000 0.23070  0.46067  0.74627  Biso   1.000  C
  C869     1.0000 0.25693  0.69842  0.06145  Biso   1.000  C
  C870     1.0000 0.01788  0.78098  0.75150  Biso   1.000  C
  C871     1.0000 0.77365  0.96019  0.78838  Biso   1.000  C
  C872     1.0000 0.71204  0.22050  0.49378  Biso   1.000  C
  C873     1.0000 0.96601  0.25196  0.74907  Biso   1.000  C
  C874     1.0000 0.27546  0.00402  0.73570  Biso   1.000  C
  C875     1.0000 0.24149  0.19325  0.01207  Biso   1.000  C
  C876     1.0000 0.50184  0.24566  0.78997  Biso   1.000  C
  C877     1.0000 0.29632  0.47615  0.28004  Biso   1.000  C
  C878     1.0000 0.24643  0.27009  0.53934  Biso   1.000  C
  C879     1.0000 0.51740  0.16433  0.25405  Biso   1.000  C
  C880     1.0000 0.76327  0.45706  0.28730  Biso   1.000  C
  C881     1.0000 0.74316  0.26921  0.01709  Biso   1.000  C
  C882     1.0000 0.00314  0.16943  0.27802  Biso   1.000  C
  C883     1.0000 0.22904  0.99704  0.23931  Biso   1.000  C
  C884     1.0000 0.26684  0.76567  0.47876  Biso   1.000  C
  C885     1.0000 0.01097  0.69511  0.27587  Biso   1.000  C
  C886     1.0000 0.70340  0.98232  0.27046  Biso   1.000  C
  C887     1.0000 0.75640  0.77073  0.97778  Biso   1.000  C
  C888     1.0000 0.50770  0.69740  0.24113  Biso   1.000  C
  C889     1.0000 0.72839  0.94000  0.28790  Biso   1.000  C
  C890     1.0000 0.27855  0.71779  0.01717  Biso   1.000  C
  C891     1.0000 0.98632  0.28835  0.78357  Biso   1.000  C
  C892     1.0000 0.20275  0.95680  0.25775  Biso   1.000  C
  C893     1.0000 0.76243  0.69046  0.53604  Biso   1.000  C
  C894     1.0000 0.47763  0.27875  0.75854  Biso   1.000  C
  C895     1.0000 0.79746  0.48317  0.25635  Biso   1.000  C
  C896     1.0000 0.20742  0.22671  0.98959  Biso   1.000  C
  C897     1.0000 0.49477  0.74483  0.73882  Biso   1.000  C
  C898     1.0000 0.26649  0.45143  0.24481  Biso   1.000  C
  C899     1.0000 0.74345  0.18511  0.51775  Biso   1.000  C
  C900     1.0000 0.05128  0.75178  0.78126  Biso   1.000  C
  C901     1.0000 0.30294  0.97865  0.77268  Biso   1.000  C
  C902     1.0000 0.71317  0.23621  0.99080  Biso   1.000  C
  C903     1.0000 0.97823  0.66505  0.24675  Biso   1.000  C
  C904     1.0000 0.80441  0.99445  0.76032  Biso   1.000  C
  C905     1.0000 0.21830  0.23920  0.50614  Biso   1.000  C
  C906     1.0000 0.46711  0.67140  0.26413  Biso   1.000  C
  C907     1.0000 0.19715  0.48824  0.77712  Biso   1.000  C
  C908     1.0000 0.78470  0.73753  0.00761  Biso   1.000  C
  C909     1.0000 0.49245  0.19804  0.28642  Biso   1.000  C
  C910     1.0000 0.72100  0.45741  0.77957  Biso   1.000  C
  C911     1.0000 0.29306  0.73486  0.51277  Biso   1.000  C
  C912     1.0000 0.97270  0.19910  0.24777  Biso   1.000  C
  C913     1.0000 0.74870  0.47974  0.74037  Biso   1.000  C
  C914     1.0000 0.74359  0.73754  0.51851  Biso   1.000  C
  C915     1.0000 0.47250  0.72596  0.78464  Biso   1.000  C
  C916     1.0000 0.24445  0.47655  0.79416  Biso   1.000  C
  C917     1.0000 0.23532  0.74008  0.03985  Biso   1.000  C
  C918     1.0000 0.03653  0.73390  0.73034  Biso   1.000  C
  C919     1.0000 0.75697  0.98190  0.74135  Biso   1.000  C
  C920     1.0000 0.76069  0.23487  0.51221  Biso   1.000  C
  C921     1.0000 0.98165  0.23907  0.79840  Biso   1.000  C
  C922     1.0000 0.25499  0.99271  0.78278  Biso   1.000  C
  C923     1.0000 0.25782  0.24326  0.00305  Biso   1.000  C
  C924     1.0000 0.49219  0.22751  0.74290  Biso   1.000  C
  C925     1.0000 0.24588  0.46342  0.29243  Biso   1.000  C
  C926     1.0000 0.26551  0.22180  0.52140  Biso   1.000  C
  C927     1.0000 0.50006  0.21312  0.23575  Biso   1.000  C
  C928     1.0000 0.75060  0.46553  0.23748  Biso   1.000  C
  C929     1.0000 0.76245  0.22020  0.00218  Biso   1.000  C
  C930     1.0000 0.99080  0.21929  0.29439  Biso   1.000  C
  C931     1.0000 0.24929  0.97239  0.28218  Biso   1.000  C
  C932     1.0000 0.24583  0.71921  0.49422  Biso   1.000  C
  C933     1.0000 0.99459  0.71259  0.22510  Biso   1.000  C
  C934     1.0000 0.74863  0.96732  0.24624  Biso   1.000  C
  C935     1.0000 0.73501  0.72211  0.99504  Biso   1.000  C
  C936     1.0000 0.48714  0.71859  0.28603  Biso   1.000  C
  C937     1.0000 0.74024  0.24265  0.00306  Biso   1.000  C
  C938     1.0000 0.99489  0.69103  0.24898  Biso   1.000  C
  C939     1.0000 0.27961  0.99337  0.76348  Biso   1.000  C
  C940     1.0000 0.24257  0.24443  0.52249  Biso   1.000  C
  C941     1.0000 0.48660  0.69570  0.26345  Biso   1.000  C
  C942     1.0000 0.77828  0.97884  0.76494  Biso   1.000  C
  C943     1.0000 0.75917  0.74417  0.99253  Biso   1.000  C
  C944     1.0000 0.50287  0.19090  0.25753  Biso   1.000  C
  C945     1.0000 0.22324  0.47438  0.77205  Biso   1.000  C
  C946     1.0000 0.27124  0.73850  0.49278  Biso   1.000  C
  C947     1.0000 0.98832  0.19552  0.27363  Biso   1.000  C
  C948     1.0000 0.72254  0.48064  0.76000  Biso   1.000  C
  C949     1.0000 0.25833  0.71913  0.03969  Biso   1.000  C
  C950     1.0000 0.97543  0.26113  0.77629  Biso   1.000  C
  C951     1.0000 0.72682  0.96390  0.26886  Biso   1.000  C
  C952     1.0000 0.76613  0.71433  0.51780  Biso   1.000  C
  C953     1.0000 0.48939  0.25119  0.76399  Biso   1.000  C
  C954     1.0000 0.22586  0.97535  0.26002  Biso   1.000  C
  C955     1.0000 0.23411  0.22086  0.00161  Biso   1.000  C
  C956     1.0000 0.47575  0.74847  0.76243  Biso   1.000  C
  C957     1.0000 0.77082  0.46901  0.26102  Biso   1.000  C
  C958     1.0000 0.73823  0.21262  0.50642  Biso   1.000  C
  C959     1.0000 0.03445  0.75580  0.75611  Biso   1.000  C
  C960     1.0000 0.26980  0.46308  0.27209  Biso   1.000  C
  Cu1      1.0000 0.99403  0.49371  0.66891  Biso   1.000  Cu
  Cu2      1.0000 0.65395  0.97691  0.50855  Biso   1.000  Cu
  Cu3      1.0000 0.49570  0.63523  0.01936  Biso   1.000  Cu
  Cu4      1.0000 0.48687  0.48818  0.86041  Biso   1.000  Cu
  Cu5      1.0000 0.14972  0.98033  0.01658  Biso   1.000  Cu
  Cu6      1.0000 0.00269  0.62872  0.49417  Biso   1.000  Cu
  Cu7      1.0000 0.51653  0.97973  0.67138  Biso   1.000  Cu
  Cu8      1.0000 0.84838  0.47395  0.50570  Biso   1.000  Cu
  Cu9      1.0000 0.99513  0.13302  0.02816  Biso   1.000  Cu
  Cu10     1.0000 0.01103  0.99342  0.85717  Biso   1.000  Cu
  Cu11     1.0000 0.34655  0.48149  0.02975  Biso   1.000  Cu
  Cu12     1.0000 0.49691  0.13134  0.50906  Biso   1.000  Cu
  Cu13     1.0000 0.00047  0.46040  0.36038  Biso   1.000  Cu
  Cu14     1.0000 0.35358  0.98174  0.52127  Biso   1.000  Cu
  Cu15     1.0000 0.49829  0.32428  0.00718  Biso   1.000  Cu
  Cu16     1.0000 0.50735  0.45851  0.17023  Biso   1.000  Cu
  Cu17     1.0000 0.84938  0.97931  0.01082  Biso   1.000  Cu
  Cu18     1.0000 0.99983  0.32145  0.53021  Biso   1.000  Cu
  Cu19     1.0000 0.48841  0.95919  0.36239  Biso   1.000  Cu
  Cu20     1.0000 0.15276  0.48065  0.52614  Biso   1.000  Cu
  Cu21     1.0000 0.00133  0.82219  0.99653  Biso   1.000  Cu
  Cu22     1.0000 0.99124  0.96017  0.16389  Biso   1.000  Cu
  Cu23     1.0000 0.64957  0.48133  0.00125  Biso   1.000  Cu
  Cu24     1.0000 0.50760  0.82116  0.52143  Biso   1.000  Cu
  Cu25     1.0000 0.20593  0.98129  0.01931  Biso   1.000  Cu
  Cu26     1.0000 0.99716  0.18900  0.03606  Biso   1.000  Cu
  Cu27     1.0000 0.98960  0.95477  0.21819  Biso   1.000  Cu
  Cu28     1.0000 0.70827  0.98164  0.50204  Biso   1.000  Cu
  Cu29     1.0000 0.49818  0.18365  0.50296  Biso   1.000  Cu
  Cu30     1.0000 0.48936  0.95728  0.30776  Biso   1.000  Cu
  Cu31     1.0000 0.29264  0.48061  0.03613  Biso   1.000  Cu
  Cu32     1.0000 0.49826  0.68881  0.02533  Biso   1.000  Cu
  Cu33     1.0000 0.51073  0.45835  0.22415  Biso   1.000  Cu
  Cu34     1.0000 0.79393  0.47578  0.50373  Biso   1.000  Cu
  Cu35     1.0000 0.00566  0.68319  0.49173  Biso   1.000  Cu
  Cu36     1.0000 0.00416  0.45657  0.30736  Biso   1.000  Cu
  Cu37     1.0000 0.79607  0.97689  0.00577  Biso   1.000  Cu
  Cu38     1.0000 0.99648  0.76989  0.99001  Biso   1.000  Cu
  Cu39     1.0000 0.01181  0.99659  0.80369  Biso   1.000  Cu
  Cu40     1.0000 0.29866  0.97513  0.52733  Biso   1.000  Cu
  Cu41     1.0000 0.50598  0.76655  0.52545  Biso   1.000  Cu
  Cu42     1.0000 0.51751  0.98598  0.72376  Biso   1.000  Cu
  Cu43     1.0000 0.70382  0.48486  0.99694  Biso   1.000  Cu
  Cu44     1.0000 0.49518  0.27132  0.00133  Biso   1.000  Cu
  Cu45     1.0000 0.48193  0.49131  0.80638  Biso   1.000  Cu
  Cu46     1.0000 0.20627  0.48129  0.52606  Biso   1.000  Cu
  Cu47     1.0000 0.99833  0.26703  0.53569  Biso   1.000  Cu
  Cu48     1.0000 0.99022  0.49959  0.72084  Biso   1.000  Cu
  H1       1.0000 0.24835  0.77029  0.46620  Biso   1.000  H
  H2       1.0000 0.51140  0.22314  0.79484  Biso   1.000  H
  H3       1.0000 0.74082  0.44947  0.29297  Biso   1.000  H
  H4       1.0000 0.73492  0.77676  0.96646  Biso   1.000  H
  H5       1.0000 0.95647  0.22926  0.74442  Biso   1.000  H
  H6       1.0000 0.29690  0.48738  0.30106  Biso   1.000  H
  H7       1.0000 0.26504  0.27325  0.55300  Biso   1.000  H
  H8       1.0000 0.00423  0.78313  0.73118  Biso   1.000  H
  H9       1.0000 0.70135  0.00262  0.25887  Biso   1.000  H
  H10      1.0000 0.76379  0.27583  0.02856  Biso   1.000  H
  H11      1.0000 0.44289  0.77689  0.78331  Biso   1.000  H
  H12      1.0000 0.24744  0.01194  0.23719  Biso   1.000  H
  H13      1.0000 0.70901  0.24090  0.48565  Biso   1.000  H
  H14      1.0000 0.52388  0.71512  0.23808  Biso   1.000  H
  H15      1.0000 0.25254  0.45268  0.74393  Biso   1.000  H
  H16      1.0000 0.26334  0.19044  0.02054  Biso   1.000  H
  H17      1.0000 0.02372  0.71511  0.27948  Biso   1.000  H
  H18      1.0000 0.70169  0.51978  0.74461  Biso   1.000  H
  H19      1.0000 0.79680  0.73563  0.48887  Biso   1.000  H
  H20      1.0000 0.01761  0.16623  0.29550  Biso   1.000  H
  H21      1.0000 0.25584  0.01740  0.73213  Biso   1.000  H
  H22      1.0000 0.23845  0.69483  0.07668  Biso   1.000  H
  H23      1.0000 0.52304  0.15862  0.23128  Biso   1.000  H
  H24      1.0000 0.75401  0.94847  0.78881  Biso   1.000  H
  H25      1.0000 0.27699  0.01704  0.81920  Biso   1.000  H
  H26      1.0000 0.77484  0.23243  0.04471  Biso   1.000  H
  H27      1.0000 0.96443  0.68746  0.19685  Biso   1.000  H
  H28      1.0000 0.77347  0.94443  0.71848  Biso   1.000  H
  H29      1.0000 0.23676  0.18485  0.50548  Biso   1.000  H
  H30      1.0000 0.50259  0.75410  0.25748  Biso   1.000  H
  H31      1.0000 0.26454  0.51197  0.77085  Biso   1.000  H
  H32      1.0000 0.70803  0.74982  0.02076  Biso   1.000  H
  H33      1.0000 0.46151  0.23746  0.25779  Biso   1.000  H
  H34      1.0000 0.72694  0.50626  0.70786  Biso   1.000  H
  H35      1.0000 0.21542  0.74857  0.51477  Biso   1.000  H
  H36      1.0000 0.94931  0.23693  0.28437  Biso   1.000  H
  H37      1.0000 0.71992  0.94907  0.21419  Biso   1.000  H
  H38      1.0000 0.26253  0.76706  0.01271  Biso   1.000  H
  H39      1.0000 0.95828  0.25922  0.83105  Biso   1.000  H
  H40      1.0000 0.22756  0.94305  0.31219  Biso   1.000  H
  H41      1.0000 0.77360  0.77084  0.53874  Biso   1.000  H
  H42      1.0000 0.46932  0.19868  0.77030  Biso   1.000  H
  H43      1.0000 0.72901  0.42570  0.25616  Biso   1.000  H
  H44      1.0000 0.23898  0.26954  0.97130  Biso   1.000  H
  H45      1.0000 0.48962  0.69420  0.75455  Biso   1.000  H
  H46      1.0000 0.27025  0.44310  0.32557  Biso   1.000  H
  H47      1.0000 0.73358  0.26388  0.54026  Biso   1.000  H
  H48      1.0000 0.06308  0.70569  0.75442  Biso   1.000  H
  H49      1.0000 0.21954  0.48891  0.26305  Biso   1.000  H
  H50      1.0000 0.30069  0.25156  0.53519  Biso   1.000  H
  H51      1.0000 0.53472  0.19795  0.20629  Biso   1.000  H
  H52      1.0000 0.76526  0.50486  0.21244  Biso   1.000  H
  H53      1.0000 0.75004  0.20016  0.95853  Biso   1.000  H
  H54      1.0000 0.03597  0.20686  0.30823  Biso   1.000  H
  H55      1.0000 0.28105  0.00182  0.26172  Biso   1.000  H
  H56      1.0000 0.27385  0.68679  0.47621  Biso   1.000  H
  H57      1.0000 0.02444  0.74243  0.24892  Biso   1.000  H
  H58      1.0000 0.77801  0.98841  0.27417  Biso   1.000  H
  H59      1.0000 0.75960  0.69039  0.97013  Biso   1.000  H
  H60      1.0000 0.48207  0.68919  0.32498  Biso   1.000  H
  H61      1.0000 0.77336  0.45137  0.76395  Biso   1.000  H
  H62      1.0000 0.71388  0.70820  0.49853  Biso   1.000  H
  H63      1.0000 0.45312  0.75358  0.81752  Biso   1.000  H
  H64      1.0000 0.22146  0.44461  0.82015  Biso   1.000  H
  H65      1.0000 0.20719  0.72033  0.06972  Biso   1.000  H
  H66      1.0000 0.00821  0.75813  0.70073  Biso   1.000  H
  H67      1.0000 0.73878  0.01924  0.76273  Biso   1.000  H
  H68      1.0000 0.79045  0.20980  0.49004  Biso   1.000  H
  H69      1.0000 0.00750  0.21529  0.76805  Biso   1.000  H
  H70      1.0000 0.23144  0.96453  0.75516  Biso   1.000  H
  H71      1.0000 0.28260  0.22108  0.03634  Biso   1.000  H
  H72      1.0000 0.51538  0.25507  0.71483  Biso   1.000  H
  H73      1.0000 0.73705  0.44012  0.77628  Biso   1.000  H
  H74      1.0000 0.74037  0.68800  0.54785  Biso   1.000  H
  H75      1.0000 0.51250  0.72958  0.73708  Biso   1.000  H
  H76      1.0000 0.19335  0.50100  0.79714  Biso   1.000  H
  H77      1.0000 0.27811  0.72967  0.99745  Biso   1.000  H
  H78      1.0000 0.06684  0.73487  0.78551  Biso   1.000  H
  H79      1.0000 0.81076  0.00754  0.74119  Biso   1.000  H
  H80      1.0000 0.76403  0.17727  0.52526  Biso   1.000  H
  H81      1.0000 0.99689  0.29253  0.80423  Biso   1.000  H
  H82      1.0000 0.30383  0.96969  0.79418  Biso   1.000  H
  H83      1.0000 0.20276  0.24923  0.98122  Biso   1.000  H
  H84      1.0000 0.46787  0.28530  0.73741  Biso   1.000  H
  H85      1.0000 0.24554  0.44078  0.23679  Biso   1.000  H
  H86      1.0000 0.21942  0.22356  0.48708  Biso   1.000  H
  H87      1.0000 0.48282  0.21901  0.29167  Biso   1.000  H
  H88      1.0000 0.80092  0.49282  0.23462  Biso   1.000  H
  H89      1.0000 0.70646  0.21721  0.97802  Biso   1.000  H
  H90      1.0000 0.96274  0.22066  0.24209  Biso   1.000  H
  H91      1.0000 0.20229  0.93805  0.27213  Biso   1.000  H
  H92      1.0000 0.29405  0.71536  0.52521  Biso   1.000  H
  H93      1.0000 0.96856  0.65803  0.22718  Biso   1.000  H
  H94      1.0000 0.74541  0.92511  0.28563  Biso   1.000  H
  H95      1.0000 0.78708  0.71540  0.01569  Biso   1.000  H
  H96      1.0000 0.45154  0.66993  0.28136  Biso   1.000  H
  H97      1.0000 0.87430  0.99091  0.91707  Biso   1.000  H
  H98      1.0000 0.91154  0.84682  0.99698  Biso   1.000  H
  H99      1.0000 0.01323  0.89952  0.86962  Biso   1.000  H
  H100     1.0000 0.38257  0.97602  0.61441  Biso   1.000  H
  H101     1.0000 0.41695  0.84390  0.52362  Biso   1.000  H
  H102     1.0000 0.51453  0.89057  0.65876  Biso   1.000  H
  H103     1.0000 0.62187  0.47922  0.91398  Biso   1.000  H
  H104     1.0000 0.59040  0.34735  0.99912  Biso   1.000  H
  H105     1.0000 0.48698  0.39900  0.87854  Biso   1.000  H
  H106     1.0000 0.12786  0.48100  0.61385  Biso   1.000  H
  H107     1.0000 0.09052  0.34223  0.53294  Biso   1.000  H
  H108     1.0000 0.99355  0.39855  0.65683  Biso   1.000  H
  H109     1.0000 0.12425  0.97998  0.10931  Biso   1.000  H
  H110     1.0000 0.08303  0.11321  0.00981  Biso   1.000  H
  H111     1.0000 0.99130  0.05284  0.15508  Biso   1.000  H
  H112     1.0000 0.62690  0.95044  0.42331  Biso   1.000  H
  H113     1.0000 0.58573  0.11362  0.50496  Biso   1.000  H
  H114     1.0000 0.49267  0.05524  0.37823  Biso   1.000  H
  H115     1.0000 0.37194  0.47638  0.11811  Biso   1.000  H
  H116     1.0000 0.40581  0.61473  0.04380  Biso   1.000  H
  H117     1.0000 0.50166  0.55282  0.14851  Biso   1.000  H
  H118     1.0000 0.87084  0.47707  0.41527  Biso   1.000  H
  H119     1.0000 0.91604  0.61102  0.50941  Biso   1.000  H
  H120     1.0000 0.99622  0.55445  0.37308  Biso   1.000  H
  H121     1.0000 0.09915  0.98106  0.87798  Biso   1.000  H
  H122     1.0000 0.86074  0.06870  0.02044  Biso   1.000  H
  H123     1.0000 0.99136  0.83242  0.08957  Biso   1.000  H
  H124     1.0000 0.61045  0.98011  0.64487  Biso   1.000  H
  H125     1.0000 0.36815  0.07126  0.51314  Biso   1.000  H
  H126     1.0000 0.50463  0.83371  0.43062  Biso   1.000  H
  H127     1.0000 0.39550  0.47265  0.88865  Biso   1.000  H
  H128     1.0000 0.63019  0.57325  0.00272  Biso   1.000  H
  H129     1.0000 0.50947  0.33645  0.10322  Biso   1.000  H
  H130     1.0000 0.90185  0.49407  0.64179  Biso   1.000  H
  H131     1.0000 0.13701  0.57208  0.50981  Biso   1.000  H
  H132     1.0000 0.01014  0.33265  0.44104  Biso   1.000  H
  H133     1.0000 0.89736  0.95985  0.14116  Biso   1.000  H
  H134     1.0000 0.12913  0.88455  0.01776  Biso   1.000  H
  H135     1.0000 0.99885  0.11922  0.93932  Biso   1.000  H
  H136     1.0000 0.40168  0.97185  0.38466  Biso   1.000  H
  H137     1.0000 0.63989  0.89045  0.51842  Biso   1.000  H
  H138     1.0000 0.50805  0.11865  0.59799  Biso   1.000  H
  H139     1.0000 0.59813  0.46511  0.14109  Biso   1.000  H
  H140     1.0000 0.36797  0.39290  0.01087  Biso   1.000  H
  H141     1.0000 0.48205  0.62173  0.93116  Biso   1.000  H
  H142     1.0000 0.09088  0.47807  0.38480  Biso   1.000  H
  H143     1.0000 0.86425  0.38677  0.51243  Biso   1.000  H
  H144     1.0000 0.01112  0.61533  0.59226  Biso   1.000  H
  H145     1.0000 0.57713  0.49115  0.87255  Biso   1.000  H
  H146     1.0000 0.87391  0.57087  0.51801  Biso   1.000  H
  H147     1.0000 0.51367  0.84716  0.61368  Biso   1.000  H
  H148     1.0000 0.08752  0.48906  0.65419  Biso   1.000  H
  H149     1.0000 0.36425  0.57388  0.04178  Biso   1.000  H
  H150     1.0000 0.00954  0.85407  0.90716  Biso   1.000  H
  H151     1.0000 0.91841  0.98747  0.87824  Biso   1.000  H
  H152     1.0000 0.62609  0.06949  0.50499  Biso   1.000  H
  H153     1.0000 0.99834  0.35501  0.62063  Biso   1.000  H
  H154     1.0000 0.42576  0.97392  0.65746  Biso   1.000  H
  H155     1.0000 0.12660  0.07200  0.01264  Biso   1.000  H
  H156     1.0000 0.48766  0.35372  0.91968  Biso   1.000  H
  H157     1.0000 0.41760  0.46786  0.15836  Biso   1.000  H
  H158     1.0000 0.13127  0.38652  0.52448  Biso   1.000  H
  H159     1.0000 0.50043  0.09851  0.41680  Biso   1.000  H
  H160     1.0000 0.91005  0.46088  0.37537  Biso   1.000  H
  H161     1.0000 0.63008  0.38502  0.99647  Biso   1.000  H
  H162     1.0000 0.99485  0.10144  0.11388  Biso   1.000  H
  H163     1.0000 0.08305  0.96392  0.14684  Biso   1.000  H
  H164     1.0000 0.37626  0.88524  0.51297  Biso   1.000  H
  H165     1.0000 0.99378  0.60560  0.41022  Biso   1.000  H
  H166     1.0000 0.58236  0.94626  0.38134  Biso   1.000  H
  H167     1.0000 0.86791  0.89173  0.01060  Biso   1.000  H
  H168     1.0000 0.50834  0.60142  0.10925  Biso   1.000  H
  H169     1.0000 0.00951  0.08062  0.88522  Biso   1.000  H
  H170     1.0000 0.86213  0.96815  0.10449  Biso   1.000  H
  H171     1.0000 0.08917  0.84500  0.00794  Biso   1.000  H
  H172     1.0000 0.51667  0.07576  0.64044  Biso   1.000  H
  H173     1.0000 0.36189  0.98066  0.43047  Biso   1.000  H
  H174     1.0000 0.59441  0.83993  0.52476  Biso   1.000  H
  H175     1.0000 0.47378  0.57854  0.89173  Biso   1.000  H
  H176     1.0000 0.63469  0.48141  0.09817  Biso   1.000  H
  H177     1.0000 0.40879  0.34851  0.01639  Biso   1.000  H
  H178     1.0000 0.00887  0.57919  0.63757  Biso   1.000  H
  H179     1.0000 0.12959  0.47897  0.42979  Biso   1.000  H
  H180     1.0000 0.91022  0.34316  0.52456  Biso   1.000  H
  H181     1.0000 0.99548  0.86774  0.13050  Biso   1.000  H
  H182     1.0000 0.13589  0.97181  0.92309  Biso   1.000  H
  H183     1.0000 0.90286  0.11329  0.03188  Biso   1.000  H
  H184     1.0000 0.49046  0.87167  0.38814  Biso   1.000  H
  H185     1.0000 0.64665  0.98962  0.59888  Biso   1.000  H
  H186     1.0000 0.40516  0.10687  0.51014  Biso   1.000  H
  H187     1.0000 0.50955  0.36931  0.14826  Biso   1.000  H
  H188     1.0000 0.35691  0.47141  0.93524  Biso   1.000  H
  H189     1.0000 0.58528  0.61470  0.01507  Biso   1.000  H
  H190     1.0000 0.00586  0.37257  0.38993  Biso   1.000  H
  H191     1.0000 0.86410  0.48160  0.59606  Biso   1.000  H
  H192     1.0000 0.09639  0.61277  0.49974  Biso   1.000  H
  H193     1.0000 0.27831  0.83823  0.50796  Biso   1.000  H
  H194     1.0000 0.47022  0.25993  0.85955  Biso   1.000  H
  H195     1.0000 0.86250  0.45621  0.27430  Biso   1.000  H
  H196     1.0000 0.77102  0.83722  0.01614  Biso   1.000  H
  H197     1.0000 0.99999  0.26364  0.68232  Biso   1.000  H
  H198     1.0000 0.37108  0.46506  0.26029  Biso   1.000  H
  H199     1.0000 0.22869  0.33933  0.51115  Biso   1.000  H
  H200     1.0000 0.02396  0.76040  0.84926  Biso   1.000  H
  H201     1.0000 0.63196  0.94939  0.28090  Biso   1.000  H
  H202     1.0000 0.72780  0.34018  0.00073  Biso   1.000  H
  H203     1.0000 0.47342  0.75557  0.66362  Biso   1.000  H
  H204     1.0000 0.12824  0.97092  0.24786  Biso   1.000  H
  H205     1.0000 0.72345  0.12084  0.48915  Biso   1.000  H
  H206     1.0000 0.48952  0.68964  0.16936  Biso   1.000  H
  H207     1.0000 0.12892  0.47641  0.75339  Biso   1.000  H
  H208     1.0000 0.22144  0.12444  0.99231  Biso   1.000  H
  H209     1.0000 0.97684  0.68719  0.34147  Biso   1.000  H
  H210     1.0000 0.62641  0.49736  0.77318  Biso   1.000  H
  H211     1.0000 0.77723  0.61475  0.52264  Biso   1.000  H
  H212     1.0000 0.99954  0.19194  0.18093  Biso   1.000  H
  H213     1.0000 0.37486  0.98709  0.75366  Biso   1.000  H
  H214     1.0000 0.26444  0.62305  0.04489  Biso   1.000  H
  H215     1.0000 0.52664  0.18863  0.35484  Biso   1.000  H
  H216     1.0000 0.87440  0.97414  0.77915  Biso   1.000  H
  H217     1.0000 0.23138  0.47607  0.37956  Biso   1.000  H
  H218     1.0000 0.35855  0.20887  0.50910  Biso   1.000  H
  H219     1.0000 0.49714  0.30800  0.23973  Biso   1.000  H
  H220     1.0000 0.73574  0.47749  0.14242  Biso   1.000  H
  H221     1.0000 0.85169  0.20953  0.02426  Biso   1.000  H
  H222     1.0000 0.99311  0.30841  0.30000  Biso   1.000  H
  H223     1.0000 0.26648  0.97963  0.38531  Biso   1.000  H
  H224     1.0000 0.15232  0.70697  0.48533  Biso   1.000  H
  H225     1.0000 0.98956  0.81053  0.22742  Biso   1.000  H
  H226     1.0000 0.76496  0.98314  0.15021  Biso   1.000  H
  H227     1.0000 0.64138  0.71219  0.99908  Biso   1.000  H
  H228     1.0000 0.46885  0.81050  0.29750  Biso   1.000  H
  H229     1.0000 0.76830  0.46635  0.64925  Biso   1.000  H
  H230     1.0000 0.65200  0.74610  0.53121  Biso   1.000  H
  H231     1.0000 0.45488  0.63300  0.79758  Biso   1.000  H
  H232     1.0000 0.25979  0.48679  0.88920  Biso   1.000  H
  H233     1.0000 0.14011  0.74832  0.02614  Biso   1.000  H
  H234     1.0000 0.01504  0.64613  0.72428  Biso   1.000  H
  H235     1.0000 0.74519  0.99091  0.64513  Biso   1.000  H
  H236     1.0000 0.85399  0.24957  0.54048  Biso   1.000  H
  H237     1.0000 0.99092  0.14574  0.79823  Biso   1.000  H
  H238     1.0000 0.23648  0.97631  0.87972  Biso   1.000  H
  H239     1.0000 0.35453  0.25029  0.00794  Biso   1.000  H
  H240     1.0000 0.51210  0.13026  0.73916  Biso   1.000  H
  H241     1.0000 0.71422  0.47618  0.85310  Biso   1.000  H
  H242     1.0000 0.86327  0.70714  0.52174  Biso   1.000  H
  H243     1.0000 0.48860  0.84044  0.75334  Biso   1.000  H
  H244     1.0000 0.22027  0.47468  0.67307  Biso   1.000  H
  H245     1.0000 0.35344  0.71256  0.03505  Biso   1.000  H
  H246     1.0000 0.03264  0.85338  0.76709  Biso   1.000  H
  H247     1.0000 0.78375  0.98564  0.85859  Biso   1.000  H
  H248     1.0000 0.64530  0.20555  0.51979  Biso   1.000  H
  H249     1.0000 0.96947  0.35901  0.75906  Biso   1.000  H
  H250     1.0000 0.28947  0.97324  0.67157  Biso   1.000  H
  H251     1.0000 0.13707  0.21009  0.00303  Biso   1.000  H
  H252     1.0000 0.50349  0.34681  0.77965  Biso   1.000  H
  H253     1.0000 0.27992  0.47284  0.18326  Biso   1.000  H
  H254     1.0000 0.14420  0.24795  0.53227  Biso   1.000  H
  H255     1.0000 0.49803  0.09778  0.27681  Biso   1.000  H
  H256     1.0000 0.77754  0.48767  0.35787  Biso   1.000  H
  H257     1.0000 0.63891  0.25040  0.00209  Biso   1.000  H
  H258     1.0000 0.98624  0.09842  0.25750  Biso   1.000  H
  H259     1.0000 0.21955  0.99884  0.16497  Biso   1.000  H
  H260     1.0000 0.35896  0.74973  0.49956  Biso   1.000  H
  H261     1.0000 0.99099  0.59278  0.26943  Biso   1.000  H
  H262     1.0000 0.71856  0.95238  0.36039  Biso   1.000  H
  H263     1.0000 0.85750  0.75063  0.99135  Biso   1.000  H
  H264     1.0000 0.48769  0.59691  0.24915  Biso   1.000  H
  H265     1.0000 0.99643  0.21918  0.89164  Biso   1.000  H
  H266     1.0000 0.84514  0.95437  0.24023  Biso   1.000  H
  H267     1.0000 0.22453  0.83736  0.04079  Biso   1.000  H
  H268     1.0000 0.48314  0.21102  0.65053  Biso   1.000  H
  H269     1.0000 0.34464  0.96366  0.28928  Biso   1.000  H
  H270     1.0000 0.73628  0.83690  0.52224  Biso   1.000  H
  H271     1.0000 0.48896  0.71738  0.87863  Biso   1.000  H
  H272     1.0000 0.65598  0.44907  0.23223  Biso   1.000  H
  H273     1.0000 0.26805  0.34248  0.01255  Biso   1.000  H
  H274     1.0000 0.04211  0.71556  0.62832  Biso   1.000  H
  H275     1.0000 0.14825  0.44851  0.29359  Biso   1.000  H
  H276     1.0000 0.77061  0.32618  0.50337  Biso   1.000  H
  H277     1.0000 0.99023  0.72951  0.13317  Biso   1.000  H
  H278     1.0000 0.15764  0.99325  0.78736  Biso   1.000  H
  H279     1.0000 0.77351  0.12115  0.98205  Biso   1.000  H
  H280     1.0000 0.51540  0.73480  0.37749  Biso   1.000  H
  H281     1.0000 0.66804  0.98249  0.73780  Biso   1.000  H
  H282     1.0000 0.27915  0.12297  0.54782  Biso   1.000  H
  H283     1.0000 0.50133  0.23273  0.13838  Biso   1.000  H
  H284     1.0000 0.33844  0.47869  0.79657  Biso   1.000  H
  H285     1.0000 0.72647  0.62701  0.01031  Biso   1.000  H
  H286     1.0000 0.99307  0.23317  0.38920  Biso   1.000  H
  H287     1.0000 0.84844  0.49136  0.73697  Biso   1.000  H
  H288     1.0000 0.23268  0.62654  0.52123  Biso   1.000  H
  H289     1.0000 0.08748  0.20968  0.01433  Biso   1.000  H
  H290     1.0000 0.99198  0.04647  0.25144  Biso   1.000  H
  H291     1.0000 0.21864  0.99528  0.10919  Biso   1.000  H
  H292     1.0000 0.59283  0.20767  0.52250  Biso   1.000  H
  H293     1.0000 0.49652  0.04426  0.28239  Biso   1.000  H
  H294     1.0000 0.72425  0.95736  0.41724  Biso   1.000  H
  H295     1.0000 0.40741  0.71083  0.03107  Biso   1.000  H
  H296     1.0000 0.49797  0.54278  0.24274  Biso   1.000  H
  H297     1.0000 0.27663  0.47152  0.12796  Biso   1.000  H
  H298     1.0000 0.91520  0.70828  0.51158  Biso   1.000  H
  H299     1.0000 0.99242  0.53935  0.27929  Biso   1.000  H
  H300     1.0000 0.77786  0.48800  0.41395  Biso   1.000  H
  H301     1.0000 0.90874  0.75187  0.99017  Biso   1.000  H
  H302     1.0000 0.02295  0.90535  0.77183  Biso   1.000  H
  H303     1.0000 0.77844  0.98928  0.91339  Biso   1.000  H
  H304     1.0000 0.41512  0.74896  0.50142  Biso   1.000  H
  H305     1.0000 0.49944  0.89664  0.75223  Biso   1.000  H
  H306     1.0000 0.28708  0.97668  0.61833  Biso   1.000  H
  H307     1.0000 0.58652  0.25187  0.99767  Biso   1.000  H
  H308     1.0000 0.49898  0.40235  0.78315  Biso   1.000  H
  H309     1.0000 0.71564  0.47383  0.90525  Biso   1.000  H
  H310     1.0000 0.08999  0.24883  0.54053  Biso   1.000  H
  H311     1.0000 0.97321  0.41333  0.75114  Biso   1.000  H
  H312     1.0000 0.22337  0.47439  0.61643  Biso   1.000  H
  H313     1.0000 0.22673  0.97049  0.93449  Biso   1.000  H
  H314     1.0000 0.90330  0.21004  0.03991  Biso   1.000  H
  H315     1.0000 0.99123  0.86484  0.22765  Biso   1.000  H
  H316     1.0000 0.74128  0.99438  0.59193  Biso   1.000  H
  H317     1.0000 0.40939  0.20541  0.50193  Biso   1.000  H
  H318     1.0000 0.46043  0.86377  0.29576  Biso   1.000  H
  H319     1.0000 0.26371  0.48663  0.94596  Biso   1.000  H
  H320     1.0000 0.59055  0.71253  0.00450  Biso   1.000  H
  H321     1.0000 0.50564  0.36224  0.24603  Biso   1.000  H
  H322     1.0000 0.77048  0.45939  0.59330  Biso   1.000  H
  H323     1.0000 0.09712  0.70482  0.47867  Biso   1.000  H
  H324     1.0000 0.00462  0.35805  0.29214  Biso   1.000  H
  H325     1.0000 0.76818  0.98301  0.09416  Biso   1.000  H
  H326     1.0000 0.08772  0.74823  0.01730  Biso   1.000  H
  H327     1.0000 0.99494  0.09227  0.79077  Biso   1.000  H
  H328     1.0000 0.26890  0.97622  0.43834  Biso   1.000  H
  H329     1.0000 0.59895  0.74546  0.53087  Biso   1.000  H
  H330     1.0000 0.51856  0.07596  0.73868  Biso   1.000  H
  H331     1.0000 0.72613  0.49491  0.08624  Biso   1.000  H
  H332     1.0000 0.40747  0.25471  0.01785  Biso   1.000  H
  H333     1.0000 0.44990  0.57970  0.79823  Biso   1.000  H
  H334     1.0000 0.22863  0.48557  0.43292  Biso   1.000  H
  H335     1.0000 0.90469  0.24953  0.54742  Biso   1.000  H
  H336     1.0000 0.00631  0.59384  0.73194  Biso   1.000  H
  H337     1.0000 0.99507  0.21468  0.94585  Biso   1.000  H
  H338     1.0000 0.89699  0.95119  0.23769  Biso   1.000  H
  H339     1.0000 0.22495  0.89064  0.03638  Biso   1.000  H
  H340     1.0000 0.47693  0.21025  0.59947  Biso   1.000  H
  H341     1.0000 0.39819  0.96197  0.28810  Biso   1.000  H
  H342     1.0000 0.73328  0.88917  0.51063  Biso   1.000  H
  H343     1.0000 0.49380  0.71755  0.93256  Biso   1.000  H
  H344     1.0000 0.60288  0.45145  0.23699  Biso   1.000  H
  H345     1.0000 0.27118  0.39476  0.01602  Biso   1.000  H
  H346     1.0000 0.03287  0.70751  0.57684  Biso   1.000  H
  H347     1.0000 0.09529  0.44401  0.29400  Biso   1.000  H
  H348     1.0000 0.77078  0.38351  0.49885  Biso   1.000  H
  H349     1.0000 0.98633  0.73582  0.07695  Biso   1.000  H
  H350     1.0000 0.10455  0.99878  0.78197  Biso   1.000  H
  H351     1.0000 0.77969  0.06306  0.98092  Biso   1.000  H
  H352     1.0000 0.52508  0.73780  0.43433  Biso   1.000  H
  H353     1.0000 0.61167  0.98565  0.74107  Biso   1.000  H
  H354     1.0000 0.27524  0.06891  0.53831  Biso   1.000  H
  H355     1.0000 0.50711  0.24075  0.08648  Biso   1.000  H
  H356     1.0000 0.39124  0.48003  0.79299  Biso   1.000  H
  H357     1.0000 0.72495  0.57258  0.00899  Biso   1.000  H
  H358     1.0000 0.99503  0.23851  0.44919  Biso   1.000  H
  H359     1.0000 0.90252  0.49855  0.73483  Biso   1.000  H
  H360     1.0000 0.22835  0.57244  0.52892  Biso   1.000  H
  H361     1.0000 0.98099  0.69683  0.39877  Biso   1.000  H
  H362     1.0000 0.42926  0.98629  0.75137  Biso   1.000  H
  H363     1.0000 0.72632  0.39401  0.00055  Biso   1.000  H
  H364     1.0000 0.50087  0.69713  0.11991  Biso   1.000  H
  H365     1.0000 0.92596  0.97924  0.78223  Biso   1.000  H
  H366     1.0000 0.22624  0.39316  0.51119  Biso   1.000  H
  H367     1.0000 0.51906  0.19564  0.40710  Biso   1.000  H
  H368     1.0000 0.07879  0.48409  0.75016  Biso   1.000  H
  H369     1.0000 0.77468  0.89248  0.02276  Biso   1.000  H
  H370     1.0000 0.00643  0.19761  0.12870  Biso   1.000  H
  H371     1.0000 0.57773  0.50857  0.77729  Biso   1.000  H
  H372     1.0000 0.28187  0.88924  0.50153  Biso   1.000  H
  H373     1.0000 0.00631  0.25761  0.63108  Biso   1.000  H
  H374     1.0000 0.57528  0.95141  0.28475  Biso   1.000  H
  H375     1.0000 0.26806  0.56832  0.04963  Biso   1.000  H
  H376     1.0000 0.46254  0.25875  0.91214  Biso   1.000  H
  H377     1.0000 0.07913  0.95307  0.24177  Biso   1.000  H
  H378     1.0000 0.77920  0.56444  0.51320  Biso   1.000  H
  H379     1.0000 0.48919  0.75539  0.61258  Biso   1.000  H
  H380     1.0000 0.91400  0.44518  0.27909  Biso   1.000  H
  H381     1.0000 0.22168  0.07077  0.99439  Biso   1.000  H
  H382     1.0000 0.02046  0.75769  0.90257  Biso   1.000  H
  H383     1.0000 0.42382  0.45995  0.25403  Biso   1.000  H
  H384     1.0000 0.72176  0.06979  0.47863  Biso   1.000  H
  H385     1.0000 0.22668  0.43655  0.35650  Biso   1.000  H
  H386     1.0000 0.27088  0.14924  0.50827  Biso   1.000  H
  H387     1.0000 0.46088  0.27499  0.22285  Biso   1.000  H
  H388     1.0000 0.69086  0.42498  0.22511  Biso   1.000  H
  H389     1.0000 0.81284  0.19541  0.04830  Biso   1.000  H
  H390     1.0000 0.95362  0.27684  0.31950  Biso   1.000  H
  H391     1.0000 0.26444  0.94210  0.34898  Biso   1.000  H
  H392     1.0000 0.18039  0.71528  0.52167  Biso   1.000  H
  H393     1.0000 0.96062  0.72765  0.16149  Biso   1.000  H
  H394     1.0000 0.76016  0.94920  0.17562  Biso   1.000  H
  H395     1.0000 0.66961  0.71088  0.02718  Biso   1.000  H
  H396     1.0000 0.50419  0.79054  0.29129  Biso   1.000  H
  H397     1.0000 0.77264  0.51001  0.67474  Biso   1.000  H
  H398     1.0000 0.74013  0.80526  0.54409  Biso   1.000  H
  H399     1.0000 0.49707  0.65950  0.79234  Biso   1.000  H
  H400     1.0000 0.30698  0.51209  0.80534  Biso   1.000  H
  H401     1.0000 0.22513  0.80385  0.00480  Biso   1.000  H
  H402     1.0000 0.05823  0.66411  0.71412  Biso   1.000  H
  H403     1.0000 0.74013  0.95213  0.67878  Biso   1.000  H
  H404     1.0000 0.76831  0.30249  0.54176  Biso   1.000  H
  H405     1.0000 0.95794  0.21472  0.86550  Biso   1.000  H
  H406     1.0000 0.23664  0.01113  0.85064  Biso   1.000  H
  H407     1.0000 0.27385  0.30974  0.97632  Biso   1.000  H
  H408     1.0000 0.47536  0.15565  0.73240  Biso   1.000  H
  H409     1.0000 0.28554  0.43967  0.20485  Biso   1.000  H
  H410     1.0000 0.17555  0.25312  0.49576  Biso   1.000  H
  H411     1.0000 0.48478  0.18579  0.32934  Biso   1.000  H
  H412     1.0000 0.83731  0.49878  0.27617  Biso   1.000  H
  H413     1.0000 0.67047  0.25192  0.97848  Biso   1.000  H
  H414     1.0000 0.96090  0.18250  0.20485  Biso   1.000  H
  H415     1.0000 0.16439  0.93898  0.23556  Biso   1.000  H
  H416     1.0000 0.33252  0.75069  0.53125  Biso   1.000  H
  H417     1.0000 0.96131  0.62675  0.26591  Biso   1.000  H
  H418     1.0000 0.70764  0.91730  0.32537  Biso   1.000  H
  H419     1.0000 0.82478  0.75288  0.02943  Biso   1.000  H
  H420     1.0000 0.45064  0.63293  0.24414  Biso   1.000  H
  H421     1.0000 0.69884  0.43598  0.81465  Biso   1.000  H
  H422     1.0000 0.77939  0.64916  0.55130  Biso   1.000  H
  H423     1.0000 0.51038  0.76335  0.69735  Biso   1.000  H
  H424     1.0000 0.15898  0.50238  0.75613  Biso   1.000  H
  H425     1.0000 0.31383  0.69507  0.99659  Biso   1.000  H
  H426     1.0000 0.06167  0.77060  0.82454  Biso   1.000  H
  H427     1.0000 0.84502  0.01007  0.78039  Biso   1.000  H
  H428     1.0000 0.72327  0.14442  0.52556  Biso   1.000  H
  H429     1.0000 0.00466  0.32657  0.76484  Biso   1.000  H
  H430     1.0000 0.34155  0.95760  0.76114  Biso   1.000  H
  H431     1.0000 0.16756  0.21473  0.97684  Biso   1.000  H
  H432     1.0000 0.46225  0.31920  0.77535  Biso   1.000  H
  H433     1.0000 0.29533  0.01298  0.69489  Biso   1.000  H
  H434     1.0000 0.72464  0.30859  0.03136  Biso   1.000  H
  H435     1.0000 0.01822  0.67788  0.31975  Biso   1.000  H
  H436     1.0000 0.78871  0.94843  0.82934  Biso   1.000  H
  H437     1.0000 0.22876  0.31192  0.54937  Biso   1.000  H
  H438     1.0000 0.52663  0.68256  0.20203  Biso   1.000  H
  H439     1.0000 0.21539  0.44810  0.70339  Biso   1.000  H
  H440     1.0000 0.77791  0.81130  0.96792  Biso   1.000  H
  H441     1.0000 0.54027  0.12947  0.27214  Biso   1.000  H
  H442     1.0000 0.66560  0.52020  0.78470  Biso   1.000  H
  H443     1.0000 0.28577  0.80775  0.46686  Biso   1.000  H
  H444     1.0000 0.01951  0.13132  0.25847  Biso   1.000  H
  H445     1.0000 0.66569  0.99411  0.29698  Biso   1.000  H
  H446     1.0000 0.27830  0.66005  0.07988  Biso   1.000  H
  H447     1.0000 0.95818  0.26249  0.70574  Biso   1.000  H
  H448     1.0000 0.21240  0.01656  0.20403  Biso   1.000  H
  H449     1.0000 0.83132  0.69868  0.48777  Biso   1.000  H
  H450     1.0000 0.50986  0.25676  0.83240  Biso   1.000  H
  H451     1.0000 0.77966  0.44614  0.33079  Biso   1.000  H
  H452     1.0000 0.22442  0.15184  0.02288  Biso   1.000  H
  H453     1.0000 0.45081  0.81327  0.74846  Biso   1.000  H
  H454     1.0000 0.33875  0.48723  0.26828  Biso   1.000  H
  H455     1.0000 0.66947  0.20596  0.48109  Biso   1.000  H
  H456     1.0000 0.00321  0.81872  0.77285  Biso   1.000  H
  H457     1.0000 0.67502  0.74781  0.50145  Biso   1.000  H
  H458     1.0000 0.44716  0.71969  0.85304  Biso   1.000  H
  H459     1.0000 0.81571  0.44951  0.73395  Biso   1.000  H
  H460     1.0000 0.16713  0.75386  0.06388  Biso   1.000  H
  H461     1.0000 0.00081  0.71943  0.66775  Biso   1.000  H
  H462     1.0000 0.25897  0.44888  0.85943  Biso   1.000  H
  H463     1.0000 0.82998  0.24894  0.49352  Biso   1.000  H
  H464     1.0000 0.02443  0.18206  0.80406  Biso   1.000  H
  H465     1.0000 0.69538  0.02050  0.72789  Biso   1.000  H
  H466     1.0000 0.32052  0.25580  0.04054  Biso   1.000  H
  H467     1.0000 0.52327  0.21472  0.67666  Biso   1.000  H
  H468     1.0000 0.18865  0.96133  0.78588  Biso   1.000  H
  H469     1.0000 0.33488  0.21361  0.54226  Biso   1.000  H
  H470     1.0000 0.53120  0.23341  0.17472  Biso   1.000  H
  H471     1.0000 0.18006  0.48988  0.29626  Biso   1.000  H
  H472     1.0000 0.78131  0.16156  0.96375  Biso   1.000  H
  H473     1.0000 0.03554  0.24130  0.34787  Biso   1.000  H
  H474     1.0000 0.72807  0.50257  0.17921  Biso   1.000  H
  H475     1.0000 0.23620  0.64718  0.47940  Biso   1.000  H
  H476     1.0000 0.01942  0.77957  0.21728  Biso   1.000  H
  H477     1.0000 0.31582  0.00301  0.29479  Biso   1.000  H
  H478     1.0000 0.72410  0.65121  0.97806  Biso   1.000  H
  H479     1.0000 0.47325  0.72960  0.35781  Biso   1.000  H
  H480     1.0000 0.82006  0.99229  0.24039  Biso   1.000  H
  N1       1.0000 0.67312  0.15327  0.50587  Biso   1.000  N
  N2       1.0000 0.48918  0.63454  0.19812  Biso   1.000  N
  N3       1.0000 0.16685  0.47726  0.70235  Biso   1.000  N
  N4       1.0000 0.17106  0.15681  0.00131  Biso   1.000  N
  N5       1.0000 0.98898  0.63242  0.31747  Biso   1.000  N
  N6       1.0000 0.65995  0.48120  0.82498  Biso   1.000  N
  N7       1.0000 0.82914  0.65242  0.52331  Biso   1.000  N
  N8       1.0000 0.99159  0.13557  0.20529  Biso   1.000  N
  N9       1.0000 0.34266  0.97947  0.70300  Biso   1.000  N
  N10      1.0000 0.32075  0.65649  0.03925  Biso   1.000  N
  N11      1.0000 0.51082  0.13572  0.32662  Biso   1.000  N
  N12      1.0000 0.83678  0.98167  0.82911  Biso   1.000  N
  N13      1.0000 0.33169  0.80254  0.50450  Biso   1.000  N
  N14      1.0000 0.48863  0.31315  0.83035  Biso   1.000  N
  N15      1.0000 0.82913  0.47280  0.32710  Biso   1.000  N
  N16      1.0000 0.82372  0.80451  0.00169  Biso   1.000  N
  N17      1.0000 0.98542  0.31976  0.71024  Biso   1.000  N
  N18      1.0000 0.33490  0.46773  0.20900  Biso   1.000  N
  N19      1.0000 0.17614  0.30374  0.52468  Biso   1.000  N
  N20      1.0000 0.02817  0.81604  0.82065  Biso   1.000  N
  N21      1.0000 0.66521  0.94998  0.33159  Biso   1.000  N
  N22      1.0000 0.67435  0.30299  0.00267  Biso   1.000  N
  N23      1.0000 0.48290  0.80941  0.69827  Biso   1.000  N
  N24      1.0000 0.16425  0.98035  0.19567  Biso   1.000  N
  N25      1.0000 0.81763  0.48360  0.68211  Biso   1.000  N
  N26      1.0000 0.68289  0.80192  0.52261  Biso   1.000  N
  N27      1.0000 0.47038  0.66417  0.84774  Biso   1.000  N
  N28      1.0000 0.30762  0.47807  0.85359  Biso   1.000  N
  N29      1.0000 0.17284  0.80160  0.03203  Biso   1.000  N
  N30      1.0000 0.02748  0.66798  0.66950  Biso   1.000  N
  N31      1.0000 0.69487  0.98732  0.68124  Biso   1.000  N
  N32      1.0000 0.82257  0.29931  0.52138  Biso   1.000  N
  N33      1.0000 0.99279  0.17127  0.85501  Biso   1.000  N
  N34      1.0000 0.18664  0.98440  0.84112  Biso   1.000  N
  N35      1.0000 0.32202  0.30608  0.00911  Biso   1.000  N
  N36      1.0000 0.50419  0.16097  0.68470  Biso   1.000  N
  N37      1.0000 0.17800  0.46394  0.34786  Biso   1.000  N
  N38      1.0000 0.32589  0.15686  0.52264  Biso   1.000  N
  N39      1.0000 0.49939  0.28195  0.18053  Biso   1.000  N
  N40      1.0000 0.68594  0.46726  0.17875  Biso   1.000  N
  N41      1.0000 0.82191  0.15556  0.00676  Biso   1.000  N
  N42      1.0000 0.99697  0.28204  0.35804  Biso   1.000  N
  N43      1.0000 0.31458  0.97208  0.34577  Biso   1.000  N
  N44      1.0000 0.18342  0.65816  0.50092  Biso   1.000  N
  N45      1.0000 0.98845  0.78029  0.16821  Biso   1.000  N
  N46      1.0000 0.81430  0.97192  0.18525  Biso   1.000  N
  N47      1.0000 0.67295  0.65890  0.00531  Biso   1.000  N
  N48      1.0000 0.48998  0.78356  0.34899  Biso   1.000  N
  O1       1.0000 0.34035  0.52413  0.03319  Biso   1.000  O
  O2       1.0000 0.99619  0.32447  0.57275  Biso   1.000  O
  O3       1.0000 0.52956  0.95114  0.36093  Biso   1.000  O
  O4       1.0000 0.85294  0.51683  0.51650  Biso   1.000  O
  O5       1.0000 0.49010  0.32432  0.96706  Biso   1.000  O
  O6       1.0000 0.03235  0.96396  0.16900  Biso   1.000  O
  O7       1.0000 0.15326  0.02135  0.02091  Biso   1.000  O
  O8       1.0000 0.50987  0.82065  0.56356  Biso   1.000  O
  O9       1.0000 0.95938  0.45479  0.35228  Biso   1.000  O
  O10      1.0000 0.65283  0.01732  0.49562  Biso   1.000  O
  O11      1.0000 0.00828  0.82386  0.95640  Biso   1.000  O
  O12      1.0000 0.46633  0.45887  0.17751  Biso   1.000  O
  O13      1.0000 0.65149  0.43945  0.99842  Biso   1.000  O
  O14      1.0000 0.99821  0.62960  0.45431  Biso   1.000  O
  O15      1.0000 0.47356  0.98107  0.67489  Biso   1.000  O
  O16      1.0000 0.15458  0.43878  0.52176  Biso   1.000  O
  O17      1.0000 0.49180  0.63339  0.06139  Biso   1.000  O
  O18      1.0000 0.96913  0.99045  0.85735  Biso   1.000  O
  O19      1.0000 0.84468  0.93851  0.01282  Biso   1.000  O
  O20      1.0000 0.50271  0.13058  0.46549  Biso   1.000  O
  O21      1.0000 0.03506  0.49199  0.67329  Biso   1.000  O
  O22      1.0000 0.35272  0.93981  0.51787  Biso   1.000  O
  O23      1.0000 0.00069  0.13258  0.06899  Biso   1.000  O
  O24      1.0000 0.53017  0.49492  0.85158  Biso   1.000  O
  O25      1.0000 0.94745  0.95674  0.16699  Biso   1.000  O
  O26      1.0000 0.15544  0.93748  0.01951  Biso   1.000  O
  O27      1.0000 0.99190  0.14092  0.98825  Biso   1.000  O
  O28      1.0000 0.44815  0.96552  0.35668  Biso   1.000  O
  O29      1.0000 0.66317  0.93740  0.51909  Biso   1.000  O
  O30      1.0000 0.49008  0.13836  0.54803  Biso   1.000  O
  O31      1.0000 0.54900  0.46069  0.17040  Biso   1.000  O
  O32      1.0000 0.34623  0.44021  0.02260  Biso   1.000  O
  O33      1.0000 0.49799  0.64226  0.97784  Biso   1.000  O
  O34      1.0000 0.04162  0.46033  0.35988  Biso   1.000  O
  O35      1.0000 0.84425  0.43281  0.49955  Biso   1.000  O
  O36      1.0000 0.01157  0.63242  0.53699  Biso   1.000  O
  O37      1.0000 0.05308  0.99571  0.85589  Biso   1.000  O
  O38      1.0000 0.84376  0.02219  0.01072  Biso   1.000  O
  O39      1.0000 0.99198  0.81277  0.03593  Biso   1.000  O
  O40      1.0000 0.56022  0.98046  0.67335  Biso   1.000  O
  O41      1.0000 0.34878  0.02223  0.52860  Biso   1.000  O
  O42      1.0000 0.50564  0.81078  0.48153  Biso   1.000  O
  O43      1.0000 0.44408  0.48229  0.86214  Biso   1.000  O
  O44      1.0000 0.65280  0.52360  0.00241  Biso   1.000  O
  O45      1.0000 0.50689  0.31861  0.04685  Biso   1.000  O
  O46      1.0000 0.95216  0.49612  0.66785  Biso   1.000  O
  O47      1.0000 0.15736  0.52204  0.52813  Biso   1.000  O
  O48      1.0000 0.00451  0.31301  0.48876  Biso   1.000  O
  O49      1.0000 0.99539  0.91861  0.15765  Biso   1.000  O
  O50      1.0000 0.15319  0.97662  0.97419  Biso   1.000  O
  O51      1.0000 0.95259  0.13604  0.03271  Biso   1.000  O
  O52      1.0000 0.48025  0.91962  0.35969  Biso   1.000  O
  O53      1.0000 0.66566  0.98841  0.54811  Biso   1.000  O
  O54      1.0000 0.45574  0.13418  0.50179  Biso   1.000  O
  O55      1.0000 0.50967  0.41703  0.17478  Biso   1.000  O
  O56      1.0000 0.34071  0.48326  0.98752  Biso   1.000  O
  O57      1.0000 0.53812  0.64035  0.02556  Biso   1.000  O
  O58      1.0000 0.00351  0.41719  0.36028  Biso   1.000  O
  O59      1.0000 0.84144  0.47038  0.54653  Biso   1.000  O
  O60      1.0000 0.04716  0.63378  0.48559  Biso   1.000  O
  O61      1.0000 0.00982  0.03549  0.85604  Biso   1.000  O
  O62      1.0000 0.84578  0.97841  0.05290  Biso   1.000  O
  O63      1.0000 0.04095  0.82153  0.00222  Biso   1.000  O
  O64      1.0000 0.52154  0.02283  0.66751  Biso   1.000  O
  O65      1.0000 0.34683  0.98442  0.47937  Biso   1.000  O
  O66      1.0000 0.54840  0.81517  0.52182  Biso   1.000  O
  O67      1.0000 0.48140  0.53107  0.86204  Biso   1.000  O
  O68      1.0000 0.65588  0.48128  0.04417  Biso   1.000  O
  O69      1.0000 0.45686  0.32356  0.01578  Biso   1.000  O
  O70      1.0000 0.99779  0.53486  0.66640  Biso   1.000  O
  O71      1.0000 0.15532  0.48608  0.48393  Biso   1.000  O
  O72      1.0000 0.95926  0.31890  0.52245  Biso   1.000  O
  O73      1.0000 0.98671  0.45261  0.67274  Biso   1.000  O
  O74      1.0000 0.65246  0.96171  0.46808  Biso   1.000  O
  O75      1.0000 0.45521  0.64008  0.01576  Biso   1.000  O
  O76      1.0000 0.49230  0.44611  0.85604  Biso   1.000  O
  O77      1.0000 0.15109  0.98062  0.06023  Biso   1.000  O
  O78      1.0000 0.96131  0.63304  0.49963  Biso   1.000  O
  O79      1.0000 0.51614  0.93859  0.68040  Biso   1.000  O
  O80      1.0000 0.84933  0.48040  0.46436  Biso   1.000  O
  O81      1.0000 0.03721  0.13579  0.02603  Biso   1.000  O
  O82      1.0000 0.01475  0.95083  0.85199  Biso   1.000  O
  O83      1.0000 0.34312  0.47986  0.07254  Biso   1.000  O
  O84      1.0000 0.53861  0.13705  0.51233  Biso   1.000  O
  O85      1.0000 0.99445  0.50291  0.35667  Biso   1.000  O
  O86      1.0000 0.35547  0.97948  0.56354  Biso   1.000  O
  O87      1.0000 0.54074  0.32356  0.00455  Biso   1.000  O
  O88      1.0000 0.50335  0.50029  0.17032  Biso   1.000  O
  O89      1.0000 0.85017  0.98212  0.96640  Biso   1.000  O
  O90      1.0000 0.04453  0.31877  0.53284  Biso   1.000  O
  O91      1.0000 0.49754  0.00284  0.35807  Biso   1.000  O
  O92      1.0000 0.15575  0.47912  0.56533  Biso   1.000  O
  O93      1.0000 0.95898  0.82206  0.99104  Biso   1.000  O
  O94      1.0000 0.98986  0.00304  0.17297  Biso   1.000  O
  O95      1.0000 0.64761  0.48305  0.96045  Biso   1.000  O
  O96      1.0000 0.46614  0.82051  0.52255  Biso   1.000  O
  O97      1.0000 0.45656  0.18256  0.49784  Biso   1.000  O
  O98      1.0000 0.50770  0.41586  0.22433  Biso   1.000  O
  O99      1.0000 0.20335  0.48271  0.48198  Biso   1.000  O
  O100     1.0000 0.95623  0.18400  0.03904  Biso   1.000  O
  O101     1.0000 0.00660  0.41285  0.31158  Biso   1.000  O
  O102     1.0000 0.70384  0.48402  0.04174  Biso   1.000  O
  O103     1.0000 0.04711  0.68173  0.48297  Biso   1.000  O
  O104     1.0000 0.98699  0.91299  0.20693  Biso   1.000  O
  O105     1.0000 0.29850  0.98119  0.48546  Biso   1.000  O
  O106     1.0000 0.53951  0.68827  0.01940  Biso   1.000  O
  O107     1.0000 0.47956  0.91426  0.31108  Biso   1.000  O
  O108     1.0000 0.79660  0.97855  0.04727  Biso   1.000  O
  O109     1.0000 0.54863  0.76663  0.52672  Biso   1.000  O
  O110     1.0000 0.47210  0.53129  0.81444  Biso   1.000  O
  O111     1.0000 0.79449  0.46965  0.54429  Biso   1.000  O
  O112     1.0000 0.03935  0.77177  0.00084  Biso   1.000  O
  O113     1.0000 0.99022  0.54053  0.71495  Biso   1.000  O
  O114     1.0000 0.29222  0.48226  0.99494  Biso   1.000  O
  O115     1.0000 0.95509  0.27087  0.53226  Biso   1.000  O
  O116     1.0000 0.01026  0.03921  0.80780  Biso   1.000  O
  O117     1.0000 0.71348  0.99757  0.54246  Biso   1.000  O
  O118     1.0000 0.45434  0.27450  0.01144  Biso   1.000  O
  O119     1.0000 0.51741  0.02625  0.71423  Biso   1.000  O
  O120     1.0000 0.20119  0.97972  0.97857  Biso   1.000  O
  O121     1.0000 0.03278  0.49814  0.72258  Biso   1.000  O
  O122     1.0000 0.70133  0.02027  0.48968  Biso   1.000  O
  O123     1.0000 0.50052  0.68103  0.06793  Biso   1.000  O
  O124     1.0000 0.52419  0.49695  0.80400  Biso   1.000  O
  O125     1.0000 0.20139  0.02382  0.01514  Biso   1.000  O
  O126     1.0000 0.99584  0.67879  0.45104  Biso   1.000  O
  O127     1.0000 0.47717  0.98563  0.72292  Biso   1.000  O
  O128     1.0000 0.80333  0.51740  0.51160  Biso   1.000  O
  O129     1.0000 0.99915  0.18114  0.07611  Biso   1.000  O
  O130     1.0000 0.97090  0.99325  0.80792  Biso   1.000  O
  O131     1.0000 0.29267  0.52135  0.04245  Biso   1.000  O
  O132     1.0000 0.50298  0.17898  0.46019  Biso   1.000  O
  O133     1.0000 0.96288  0.45048  0.30337  Biso   1.000  O
  O134     1.0000 0.30528  0.93505  0.52465  Biso   1.000  O
  O135     1.0000 0.48316  0.27618  0.96252  Biso   1.000  O
  O136     1.0000 0.46976  0.45806  0.22650  Biso   1.000  O
  O137     1.0000 0.79642  0.93624  0.00716  Biso   1.000  O
  O138     1.0000 0.99539  0.27589  0.57845  Biso   1.000  O
  O139     1.0000 0.52924  0.95148  0.31115  Biso   1.000  O
  O140     1.0000 0.20294  0.43923  0.52221  Biso   1.000  O
  O141     1.0000 0.00701  0.77692  0.95073  Biso   1.000  O
  O142     1.0000 0.03124  0.95474  0.21723  Biso   1.000  O
  O143     1.0000 0.69899  0.44285  0.99165  Biso   1.000  O
  O144     1.0000 0.50126  0.77286  0.56721  Biso   1.000  O
  O145     1.0000 0.55222  0.45789  0.21887  Biso   1.000  O
  O146     1.0000 0.20633  0.52326  0.52570  Biso   1.000  O
  O147     1.0000 0.49253  0.18747  0.54816  Biso   1.000  O
  O148     1.0000 0.04694  0.45859  0.31167  Biso   1.000  O
  O149     1.0000 0.70184  0.52679  0.99668  Biso   1.000  O
  O150     1.0000 0.99677  0.18826  0.99448  Biso   1.000  O
  O151     1.0000 0.94651  0.95681  0.21606  Biso   1.000  O
  O152     1.0000 0.29866  0.01721  0.52957  Biso   1.000  O
  O153     1.0000 0.01422  0.68050  0.53265  Biso   1.000  O
  O154     1.0000 0.45030  0.96686  0.30930  Biso   1.000  O
  O155     1.0000 0.79500  0.01793  0.00779  Biso   1.000  O
  O156     1.0000 0.49414  0.69004  0.98315  Biso   1.000  O
  O157     1.0000 0.44072  0.48478  0.81483  Biso   1.000  O
  O158     1.0000 0.79532  0.43571  0.49683  Biso   1.000  O
  O159     1.0000 0.51176  0.76229  0.48314  Biso   1.000  O
  O160     1.0000 0.94836  0.50039  0.71644  Biso   1.000  O
  O161     1.0000 0.29704  0.43744  0.03139  Biso   1.000  O
  O162     1.0000 0.98831  0.76492  0.03083  Biso   1.000  O
  O163     1.0000 0.05375  0.99764  0.80585  Biso   1.000  O
  O164     1.0000 0.71216  0.94052  0.51394  Biso   1.000  O
  O165     1.0000 0.99744  0.26482  0.49269  Biso   1.000  O
  O166     1.0000 0.55981  0.98279  0.72006  Biso   1.000  O
  O167     1.0000 0.20391  0.94058  0.02292  Biso   1.000  O
  O168     1.0000 0.50247  0.26990  0.04078  Biso   1.000  O
  O169     1.0000 0.99226  0.99709  0.22156  Biso   1.000  O
  O170     1.0000 0.20082  0.98375  0.06059  Biso   1.000  O
  O171     1.0000 0.04004  0.18314  0.03503  Biso   1.000  O
  O172     1.0000 0.49791  0.99838  0.30971  Biso   1.000  O
  O173     1.0000 0.70116  0.96865  0.46440  Biso   1.000  O
  O174     1.0000 0.54011  0.18492  0.50769  Biso   1.000  O
  O175     1.0000 0.50408  0.50056  0.21965  Biso   1.000  O
  O176     1.0000 0.29513  0.47830  0.07740  Biso   1.000  O
  O177     1.0000 0.45856  0.68657  0.03260  Biso   1.000  O
  O178     1.0000 0.00047  0.49665  0.30757  Biso   1.000  O
  O179     1.0000 0.80013  0.48665  0.46379  Biso   1.000  O
  O180     1.0000 0.96359  0.68170  0.49886  Biso   1.000  O
  O181     1.0000 0.01506  0.95236  0.80420  Biso   1.000  O
  O182     1.0000 0.80258  0.98071  0.96390  Biso   1.000  O
  O183     1.0000 0.95560  0.77280  0.98596  Biso   1.000  O
  O184     1.0000 0.51358  0.94407  0.72808  Biso   1.000  O
  O185     1.0000 0.30864  0.97042  0.56906  Biso   1.000  O
  O186     1.0000 0.46531  0.77132  0.51925  Biso   1.000  O
  O187     1.0000 0.49508  0.45078  0.80774  Biso   1.000  O
  O188     1.0000 0.69638  0.48712  0.95666  Biso   1.000  O
  O189     1.0000 0.53779  0.27555  0.99091  Biso   1.000  O
  O190     1.0000 0.98678  0.45688  0.72098  Biso   1.000  O
  O191     1.0000 0.20401  0.48057  0.56770  Biso   1.000  O
  O192     1.0000 0.04044  0.27053  0.53547  Biso   1.000  O
