data_image0
_cell_length_a       47.2346
_cell_length_b       46.9345
_cell_length_c       46.5979
_cell_angle_alpha    90
_cell_angle_beta     90
_cell_angle_gamma    90

_symmetry_space_group_name_H-M    "P 1"
_symmetry_int_tables_number       1

loop_
  _symmetry_equiv_pos_as_xyz
  'x, y, z'

loop_
  _atom_site_label
  _atom_site_occupancy
  _atom_site_fract_x
  _atom_site_fract_y
  _atom_site_fract_z
  _atom_site_thermal_displace_type
  _atom_site_B_iso_or_equiv
  _atom_site_type_symbol
  C1       1.0000 0.57799  0.00088  0.36120  Biso   1.000  C
  C2       1.0000 0.33532  0.55245  0.03206  Biso   1.000  C
  C3       1.0000 0.00034  0.30963  0.59751  Biso   1.000  C
  C4       1.0000 0.07532  0.98450  0.21246  Biso   1.000  C
  C5       1.0000 0.83984  0.55683  0.55101  Biso   1.000  C
  C6       1.0000 0.51711  0.31198  0.99233  Biso   1.000  C
  C7       1.0000 0.95393  0.49525  0.35723  Biso   1.000  C
  C8       1.0000 0.18508  0.05231  0.02345  Biso   1.000  C
  C9       1.0000 0.51448  0.81183  0.58594  Biso   1.000  C
  C10      1.0000 0.45223  0.49870  0.21315  Biso   1.000  C
  C11      1.0000 0.69570  0.06189  0.55150  Biso   1.000  C
  C12      1.0000 0.02319  0.80865  0.97168  Biso   1.000  C
  C13      1.0000 0.44717  0.99068  0.72011  Biso   1.000  C
  C14      1.0000 0.69240  0.43276  0.05544  Biso   1.000  C
  C15      1.0000 0.02716  0.67146  0.47177  Biso   1.000  C
  C16      1.0000 0.94845  0.98948  0.85842  Biso   1.000  C
  C17      1.0000 0.18729  0.43124  0.52510  Biso   1.000  C
  C18      1.0000 0.52711  0.67922  0.08828  Biso   1.000  C
  C19      1.0000 0.07343  0.49370  0.71499  Biso   1.000  C
  C20      1.0000 0.84362  0.93166  0.05187  Biso   1.000  C
  C21      1.0000 0.50123  0.18102  0.48964  Biso   1.000  C
  C22      1.0000 0.57749  0.48655  0.86055  Biso   1.000  C
  C23      1.0000 0.33978  0.93246  0.52774  Biso   1.000  C
  C24      1.0000 0.00662  0.17021  0.09694  Biso   1.000  C
  C25      1.0000 0.33286  0.04084  0.52706  Biso   1.000  C
  C26      1.0000 0.49961  0.31799  0.09605  Biso   1.000  C
  C27      1.0000 0.06032  0.47630  0.34981  Biso   1.000  C
  C28      1.0000 0.83223  0.04088  0.04738  Biso   1.000  C
  C29      1.0000 0.99977  0.31014  0.48735  Biso   1.000  C
  C30      1.0000 0.56129  0.50747  0.22116  Biso   1.000  C
  C31      1.0000 0.19711  0.53888  0.52813  Biso   1.000  C
  C32      1.0000 0.02857  0.80980  0.08358  Biso   1.000  C
  C33      1.0000 0.46854  0.00925  0.35584  Biso   1.000  C
  C34      1.0000 0.69763  0.54085  0.04581  Biso   1.000  C
  C35      1.0000 0.52884  0.81348  0.47645  Biso   1.000  C
  C36      1.0000 0.96763  0.99053  0.22477  Biso   1.000  C
  C37      1.0000 0.69348  0.95338  0.54870  Biso   1.000  C
  C38      1.0000 0.52114  0.66604  0.97937  Biso   1.000  C
  C39      1.0000 0.96728  0.49228  0.72534  Biso   1.000  C
  C40      1.0000 0.19586  0.94496  0.04191  Biso   1.000  C
  C41      1.0000 0.02297  0.67367  0.58172  Biso   1.000  C
  C42      1.0000 0.46822  0.47472  0.85637  Biso   1.000  C
  C43      1.0000 0.83210  0.45273  0.55301  Biso   1.000  C
  C44      1.0000 0.00619  0.17260  0.98738  Biso   1.000  C
  C45      1.0000 0.55417  0.98526  0.72325  Biso   1.000  C
  C46      1.0000 0.33112  0.44385  0.02341  Biso   1.000  C
  C47      1.0000 0.50638  0.17715  0.59861  Biso   1.000  C
  C48      1.0000 0.05707  0.99817  0.85169  Biso   1.000  C
  C49      1.0000 0.99894  0.04901  0.85607  Biso   1.000  C
  C50      1.0000 0.83910  0.99113  0.10188  Biso   1.000  C
  C51      1.0000 0.07854  0.80887  0.02449  Biso   1.000  C
  C52      1.0000 0.50194  0.04162  0.72346  Biso   1.000  C
  C53      1.0000 0.33732  0.98835  0.47408  Biso   1.000  C
  C54      1.0000 0.57537  0.81823  0.54128  Biso   1.000  C
  C55      1.0000 0.51149  0.53624  0.85787  Biso   1.000  C
  C56      1.0000 0.69720  0.48911  0.10437  Biso   1.000  C
  C57      1.0000 0.45200  0.31446  0.03230  Biso   1.000  C
  C58      1.0000 0.01829  0.54779  0.70973  Biso   1.000  C
  C59      1.0000 0.19082  0.49046  0.47428  Biso   1.000  C
  C60      1.0000 0.94677  0.31053  0.54083  Biso   1.000  C
  C61      1.0000 0.02180  0.93146  0.21552  Biso   1.000  C
  C62      1.0000 0.18800  0.99187  0.97739  Biso   1.000  C
  C63      1.0000 0.95315  0.17300  0.04051  Biso   1.000  C
  C64      1.0000 0.52026  0.94968  0.35599  Biso   1.000  C
  C65      1.0000 0.68602  0.00457  0.60614  Biso   1.000  C
  C66      1.0000 0.45217  0.17501  0.54716  Biso   1.000  C
  C67      1.0000 0.51134  0.45122  0.21527  Biso   1.000  C
  C68      1.0000 0.33364  0.49964  0.97183  Biso   1.000  C
  C69      1.0000 0.57847  0.67373  0.03158  Biso   1.000  C
  C70      1.0000 0.99896  0.43339  0.35207  Biso   1.000  C
  C71      1.0000 0.83428  0.50188  0.60620  Biso   1.000  C
  C72      1.0000 0.07789  0.66881  0.52821  Biso   1.000  C
  C73      1.0000 0.01512  0.53787  0.35031  Biso   1.000  C
  C74      1.0000 0.33141  0.98703  0.58061  Biso   1.000  C
  C75      1.0000 0.55922  0.31337  0.05450  Biso   1.000  C
  C76      1.0000 0.50297  0.55850  0.21924  Biso   1.000  C
  C77      1.0000 0.83493  0.98154  0.99582  Biso   1.000  C
  C78      1.0000 0.05393  0.30837  0.54042  Biso   1.000  C
  C79      1.0000 0.52968  0.05862  0.36054  Biso   1.000  C
  C80      1.0000 0.19074  0.48540  0.58374  Biso   1.000  C
  C81      1.0000 0.97075  0.80693  0.03284  Biso   1.000  C
  C82      1.0000 0.02093  0.04115  0.22007  Biso   1.000  C
  C83      1.0000 0.69834  0.48333  0.99520  Biso   1.000  C
  C84      1.0000 0.46805  0.80816  0.52388  Biso   1.000  C
  C85      1.0000 0.01722  0.43851  0.72142  Biso   1.000  C
  C86      1.0000 0.69600  0.00906  0.49630  Biso   1.000  C
  C87      1.0000 0.46957  0.67061  0.03392  Biso   1.000  C
  C88      1.0000 0.53001  0.43019  0.86069  Biso   1.000  C
  C89      1.0000 0.18994  0.00528  0.08464  Biso   1.000  C
  C90      1.0000 0.97013  0.67787  0.52628  Biso   1.000  C
  C91      1.0000 0.49703  0.93167  0.71835  Biso   1.000  C
  C92      1.0000 0.83801  0.50362  0.49582  Biso   1.000  C
  C93      1.0000 0.06261  0.17794  0.04358  Biso   1.000  C
  C94      1.0000 0.01152  0.94020  0.85211  Biso   1.000  C
  C95      1.0000 0.33398  0.49465  0.08108  Biso   1.000  C
  C96      1.0000 0.56035  0.18242  0.54528  Biso   1.000  C
  C97      1.0000 0.69329  0.09509  0.55230  Biso   1.000  C
  C98      1.0000 0.52481  0.68212  0.11957  Biso   1.000  C
  C99      1.0000 0.10543  0.49483  0.71538  Biso   1.000  C
  C100     1.0000 0.18371  0.08568  0.01736  Biso   1.000  C
  C101     1.0000 0.03200  0.66927  0.43971  Biso   1.000  C
  C102     1.0000 0.60895  0.48544  0.86290  Biso   1.000  C
  C103     1.0000 0.84118  0.58957  0.54142  Biso   1.000  C
  C104     1.0000 0.00033  0.16943  0.12813  Biso   1.000  C
  C105     1.0000 0.41535  0.99177  0.71827  Biso   1.000  C
  C106     1.0000 0.33714  0.58356  0.03735  Biso   1.000  C
  C107     1.0000 0.49667  0.17999  0.45737  Biso   1.000  C
  C108     1.0000 0.91549  0.98933  0.86082  Biso   1.000  C
  C109     1.0000 0.34042  0.90005  0.52882  Biso   1.000  C
  C110     1.0000 0.52184  0.30810  0.96111  Biso   1.000  C
  C111     1.0000 0.92179  0.49929  0.36086  Biso   1.000  C
  C112     1.0000 0.84449  0.89926  0.05120  Biso   1.000  C
  C113     1.0000 0.99312  0.31082  0.62891  Biso   1.000  C
  C114     1.0000 0.42306  0.48923  0.21119  Biso   1.000  C
  C115     1.0000 0.18434  0.39859  0.52450  Biso   1.000  C
  C116     1.0000 0.02447  0.80903  0.93909  Biso   1.000  C
  C117     1.0000 0.61070  0.00642  0.36393  Biso   1.000  C
  C118     1.0000 0.69207  0.40060  0.05875  Biso   1.000  C
  C119     1.0000 0.51117  0.81400  0.61819  Biso   1.000  C
  C120     1.0000 0.10724  0.98313  0.21181  Biso   1.000  C
  C121     1.0000 0.83912  0.99465  0.13441  Biso   1.000  C
  C122     1.0000 0.10961  0.81113  0.02975  Biso   1.000  C
  C123     1.0000 0.00042  0.08124  0.85632  Biso   1.000  C
  C124     1.0000 0.33836  0.99160  0.44258  Biso   1.000  C
  C125     1.0000 0.60766  0.82034  0.54026  Biso   1.000  C
  C126     1.0000 0.50485  0.07432  0.72446  Biso   1.000  C
  C127     1.0000 0.69404  0.49136  0.13717  Biso   1.000  C
  C128     1.0000 0.41934  0.31348  0.03019  Biso   1.000  C
  C129     1.0000 0.50429  0.56777  0.85784  Biso   1.000  C
  C130     1.0000 0.18844  0.49045  0.44256  Biso   1.000  C
  C131     1.0000 0.91572  0.31581  0.54539  Biso   1.000  C
  C132     1.0000 0.01576  0.57962  0.70917  Biso   1.000  C
  C133     1.0000 0.18637  0.98938  0.94525  Biso   1.000  C
  C134     1.0000 0.92108  0.17287  0.04034  Biso   1.000  C
  C135     1.0000 0.02560  0.89976  0.21460  Biso   1.000  C
  C136     1.0000 0.68349  0.00712  0.63767  Biso   1.000  C
  C137     1.0000 0.41953  0.17339  0.54729  Biso   1.000  C
  C138     1.0000 0.51642  0.91753  0.35442  Biso   1.000  C
  C139     1.0000 0.33582  0.49575  0.94086  Biso   1.000  C
  C140     1.0000 0.61000  0.67306  0.03414  Biso   1.000  C
  C141     1.0000 0.51029  0.41882  0.21589  Biso   1.000  C
  C142     1.0000 0.83441  0.49952  0.63823  Biso   1.000  C
  C143     1.0000 0.10915  0.66850  0.52370  Biso   1.000  C
  C144     1.0000 0.99652  0.40010  0.35457  Biso   1.000  C
  C145     1.0000 0.33124  0.48941  0.11261  Biso   1.000  C
  C146     1.0000 0.08595  0.30743  0.53914  Biso   1.000  C
  C147     1.0000 0.52684  0.08981  0.36051  Biso   1.000  C
  C148     1.0000 0.83580  0.50000  0.46343  Biso   1.000  C
  C149     1.0000 0.59124  0.31050  0.05613  Biso   1.000  C
  C150     1.0000 0.01080  0.07180  0.22123  Biso   1.000  C
  C151     1.0000 0.19439  0.00467  0.11643  Biso   1.000  C
  C152     1.0000 0.43617  0.80782  0.51678  Biso   1.000  C
  C153     1.0000 0.02285  0.56966  0.35027  Biso   1.000  C
  C154     1.0000 0.69981  0.01073  0.46597  Biso   1.000  C
  C155     1.0000 0.93782  0.80584  0.03078  Biso   1.000  C
  C156     1.0000 0.49873  0.59146  0.21738  Biso   1.000  C
  C157     1.0000 0.69916  0.48740  0.96260  Biso   1.000  C
  C158     1.0000 0.93828  0.68065  0.52757  Biso   1.000  C
  C159     1.0000 0.49168  0.89955  0.71705  Biso   1.000  C
  C160     1.0000 0.19378  0.48599  0.61613  Biso   1.000  C
  C161     1.0000 0.43736  0.67089  0.03995  Biso   1.000  C
  C162     1.0000 0.01914  0.90864  0.84739  Biso   1.000  C
  C163     1.0000 0.83062  0.98248  0.96300  Biso   1.000  C
  C164     1.0000 0.59138  0.18416  0.55431  Biso   1.000  C
  C165     1.0000 0.00745  0.40752  0.72282  Biso   1.000  C
  C166     1.0000 0.32799  0.98706  0.61316  Biso   1.000  C
  C167     1.0000 0.09539  0.18041  0.04075  Biso   1.000  C
  C168     1.0000 0.53111  0.39722  0.86154  Biso   1.000  C
  C169     1.0000 0.03405  0.80834  0.11531  Biso   1.000  C
  C170     1.0000 0.08953  0.99735  0.85057  Biso   1.000  C
  C171     1.0000 0.83195  0.07376  0.04866  Biso   1.000  C
  C172     1.0000 0.53117  0.81709  0.44399  Biso   1.000  C
  C173     1.0000 0.58587  0.98506  0.72576  Biso   1.000  C
  C174     1.0000 0.32969  0.07284  0.53021  Biso   1.000  C
  C175     1.0000 0.50201  0.31844  0.12858  Biso   1.000  C
  C176     1.0000 0.43623  0.47591  0.85563  Biso   1.000  C
  C177     1.0000 0.69927  0.57271  0.04767  Biso   1.000  C
  C178     1.0000 0.99613  0.31013  0.45496  Biso   1.000  C
  C179     1.0000 0.93446  0.49806  0.72685  Biso   1.000  C
  C180     1.0000 0.19957  0.57049  0.52494  Biso   1.000  C
  C181     1.0000 0.00316  0.17073  0.95630  Biso   1.000  C
  C182     1.0000 0.93663  0.99801  0.22676  Biso   1.000  C
  C183     1.0000 0.19869  0.91259  0.04511  Biso   1.000  C
  C184     1.0000 0.50724  0.17623  0.63207  Biso   1.000  C
  C185     1.0000 0.43643  0.00760  0.35241  Biso   1.000  C
  C186     1.0000 0.69622  0.92189  0.54370  Biso   1.000  C
  C187     1.0000 0.51955  0.66598  0.94739  Biso   1.000  C
  C188     1.0000 0.59312  0.51292  0.22201  Biso   1.000  C
  C189     1.0000 0.33060  0.41175  0.02207  Biso   1.000  C
  C190     1.0000 0.02048  0.67516  0.61431  Biso   1.000  C
  C191     1.0000 0.09114  0.48080  0.34953  Biso   1.000  C
  C192     1.0000 0.82834  0.42088  0.54965  Biso   1.000  C
  C193     1.0000 0.85579  0.98387  0.94457  Biso   1.000  C
  C194     1.0000 0.92278  0.83176  0.03505  Biso   1.000  C
  C195     1.0000 0.02869  0.89031  0.87248  Biso   1.000  C
  C196     1.0000 0.35334  0.98831  0.63161  Biso   1.000  C
  C197     1.0000 0.41934  0.83561  0.51483  Biso   1.000  C
  C198     1.0000 0.49664  0.88587  0.68986  Biso   1.000  C
  C199     1.0000 0.67234  0.49057  0.94707  Biso   1.000  C
  C200     1.0000 0.60939  0.33686  0.06009  Biso   1.000  C
  C201     1.0000 0.52780  0.38136  0.88801  Biso   1.000  C
  C202     1.0000 0.16873  0.48633  0.63441  Biso   1.000  C
  C203     1.0000 0.10368  0.33381  0.53791  Biso   1.000  C
  C204     1.0000 0.00711  0.38984  0.69623  Biso   1.000  C
  C205     1.0000 0.16853  0.00386  0.13295  Biso   1.000  C
  C206     1.0000 0.11032  0.15404  0.03470  Biso   1.000  C
  C207     1.0000 0.00947  0.09071  0.19496  Biso   1.000  C
  C208     1.0000 0.67398  0.00909  0.44784  Biso   1.000  C
  C209     1.0000 0.60953  0.15804  0.55637  Biso   1.000  C
  C210     1.0000 0.51894  0.10471  0.38759  Biso   1.000  C
  C211     1.0000 0.35687  0.48659  0.13101  Biso   1.000  C
  C212     1.0000 0.42073  0.64457  0.03619  Biso   1.000  C
  C213     1.0000 0.50659  0.60489  0.18991  Biso   1.000  C
  C214     1.0000 0.86161  0.50311  0.44416  Biso   1.000  C
  C215     1.0000 0.92161  0.65456  0.53052  Biso   1.000  C
  C216     1.0000 0.02781  0.58583  0.37772  Biso   1.000  C
  C217     1.0000 0.10606  0.99494  0.87816  Biso   1.000  C
  C218     1.0000 0.85716  0.09143  0.04539  Biso   1.000  C
  C219     1.0000 0.03273  0.83473  0.13120  Biso   1.000  C
  C220     1.0000 0.60334  0.99060  0.70106  Biso   1.000  C
  C221     1.0000 0.35595  0.09002  0.53511  Biso   1.000  C
  C222     1.0000 0.53261  0.84470  0.42813  Biso   1.000  C
  C223     1.0000 0.41852  0.47948  0.88194  Biso   1.000  C
  C224     1.0000 0.67328  0.59030  0.04679  Biso   1.000  C
  C225     1.0000 0.50445  0.34701  0.14154  Biso   1.000  C
  C226     1.0000 0.91955  0.49942  0.69937  Biso   1.000  C
  C227     1.0000 0.17247  0.58766  0.52313  Biso   1.000  C
  C228     1.0000 0.99834  0.33611  0.43801  Biso   1.000  C
  C229     1.0000 0.91861  0.99607  0.20128  Biso   1.000  C
  C230     1.0000 0.17376  0.89424  0.04233  Biso   1.000  C
  C231     1.0000 0.00603  0.14358  0.93858  Biso   1.000  C
  C232     1.0000 0.41949  0.00167  0.37848  Biso   1.000  C
  C233     1.0000 0.66893  0.90428  0.54205  Biso   1.000  C
  C234     1.0000 0.50379  0.14724  0.64520  Biso   1.000  C
  C235     1.0000 0.61185  0.50616  0.19703  Biso   1.000  C
  C236     1.0000 0.35643  0.39422  0.02668  Biso   1.000  C
  C237     1.0000 0.51594  0.63792  0.93307  Biso   1.000  C
  C238     1.0000 0.10752  0.48318  0.37676  Biso   1.000  C
  C239     1.0000 0.85399  0.40142  0.55034  Biso   1.000  C
  C240     1.0000 0.02279  0.64822  0.63154  Biso   1.000  C
  C241     1.0000 0.62382  0.48117  0.89023  Biso   1.000  C
  C242     1.0000 0.86785  0.60464  0.53877  Biso   1.000  C
  C243     1.0000 0.50550  0.83809  0.63605  Biso   1.000  C
  C244     1.0000 0.12010  0.49382  0.68843  Biso   1.000  C
  C245     1.0000 0.36491  0.59784  0.03566  Biso   1.000  C
  C246     1.0000 0.02711  0.83597  0.92397  Biso   1.000  C
  C247     1.0000 0.90203  0.98595  0.88977  Biso   1.000  C
  C248     1.0000 0.66483  0.10880  0.55356  Biso   1.000  C
  C249     1.0000 0.99743  0.33811  0.64479  Biso   1.000  C
  C250     1.0000 0.40187  0.99230  0.68843  Biso   1.000  C
  C251     1.0000 0.15750  0.10271  0.02138  Biso   1.000  C
  C252     1.0000 0.52222  0.33363  0.94302  Biso   1.000  C
  C253     1.0000 0.40764  0.48722  0.18257  Biso   1.000  C
  C254     1.0000 0.15775  0.38301  0.52743  Biso   1.000  C
  C255     1.0000 0.50629  0.15489  0.44012  Biso   1.000  C
  C256     1.0000 0.90664  0.50085  0.38895  Biso   1.000  C
  C257     1.0000 0.66367  0.38627  0.05878  Biso   1.000  C
  C258     1.0000 0.00391  0.14321  0.14429  Biso   1.000  C
  C259     1.0000 0.12042  0.99003  0.18430  Biso   1.000  C
  C260     1.0000 0.36683  0.88461  0.52394  Biso   1.000  C
  C261     1.0000 0.03027  0.64145  0.42543  Biso   1.000  C
  C262     1.0000 0.62528  0.00484  0.39239  Biso   1.000  C
  C263     1.0000 0.87037  0.88199  0.04550  Biso   1.000  C
  C264     1.0000 0.52088  0.65504  0.13729  Biso   1.000  C
  C265     1.0000 0.00288  0.09520  0.88426  Biso   1.000  C
  C266     1.0000 0.86537  0.99323  0.15156  Biso   1.000  C
  C267     1.0000 0.12378  0.83943  0.03486  Biso   1.000  C
  C268     1.0000 0.50670  0.09137  0.69825  Biso   1.000  C
  C269     1.0000 0.36568  0.99636  0.42641  Biso   1.000  C
  C270     1.0000 0.62169  0.84765  0.54383  Biso   1.000  C
  C271     1.0000 0.50675  0.58489  0.88508  Biso   1.000  C
  C272     1.0000 0.66540  0.49452  0.14921  Biso   1.000  C
  C273     1.0000 0.40560  0.34210  0.02745  Biso   1.000  C
  C274     1.0000 0.02234  0.59582  0.68291  Biso   1.000  C
  C275     1.0000 0.16167  0.48588  0.42658  Biso   1.000  C
  C276     1.0000 0.90168  0.34470  0.54621  Biso   1.000  C
  C277     1.0000 0.02745  0.88535  0.18679  Biso   1.000  C
  C278     1.0000 0.15868  0.99210  0.93053  Biso   1.000  C
  C279     1.0000 0.90731  0.14472  0.04117  Biso   1.000  C
  C280     1.0000 0.51950  0.89924  0.38081  Biso   1.000  C
  C281     1.0000 0.65625  0.00276  0.65323  Biso   1.000  C
  C282     1.0000 0.40501  0.14566  0.54673  Biso   1.000  C
  C283     1.0000 0.51129  0.40095  0.19074  Biso   1.000  C
  C284     1.0000 0.36327  0.49280  0.92728  Biso   1.000  C
  C285     1.0000 0.62427  0.64527  0.03755  Biso   1.000  C
  C286     1.0000 0.99807  0.38449  0.38218  Biso   1.000  C
  C287     1.0000 0.86402  0.50045  0.65126  Biso   1.000  C
  C288     1.0000 0.12563  0.64117  0.52325  Biso   1.000  C
  C289     1.0000 0.36511  0.85367  0.51860  Biso   1.000  C
  C290     1.0000 0.52470  0.32928  0.91209  Biso   1.000  C
  C291     1.0000 0.87553  0.50087  0.39048  Biso   1.000  C
  C292     1.0000 0.86967  0.85086  0.04401  Biso   1.000  C
  C293     1.0000 0.99642  0.33830  0.67548  Biso   1.000  C
  C294     1.0000 0.37677  0.48486  0.18307  Biso   1.000  C
  C295     1.0000 0.15724  0.35251  0.53277  Biso   1.000  C
  C296     1.0000 0.02054  0.83786  0.89270  Biso   1.000  C
  C297     1.0000 0.65668  0.00699  0.39374  Biso   1.000  C
  C298     1.0000 0.66242  0.35468  0.06010  Biso   1.000  C
  C299     1.0000 0.50289  0.83301  0.66693  Biso   1.000  C
  C300     1.0000 0.15187  0.99142  0.18470  Biso   1.000  C
  C301     1.0000 0.66476  0.13928  0.55697  Biso   1.000  C
  C302     1.0000 0.51516  0.65653  0.16729  Biso   1.000  C
  C303     1.0000 0.15117  0.48691  0.68755  Biso   1.000  C
  C304     1.0000 0.16140  0.13455  0.02286  Biso   1.000  C
  C305     1.0000 0.02971  0.64114  0.39431  Biso   1.000  C
  C306     1.0000 0.65532  0.48658  0.89172  Biso   1.000  C
  C307     1.0000 0.86796  0.63591  0.53529  Biso   1.000  C
  C308     1.0000 0.00402  0.14398  0.17566  Biso   1.000  C
  C309     1.0000 0.36983  0.99078  0.68603  Biso   1.000  C
  C310     1.0000 0.36567  0.62899  0.04045  Biso   1.000  C
  C311     1.0000 0.50929  0.15725  0.40939  Biso   1.000  C
  C312     1.0000 0.87083  0.98302  0.89110  Biso   1.000  C
  C313     1.0000 0.16048  0.48895  0.39567  Biso   1.000  C
  C314     1.0000 0.37350  0.14378  0.54183  Biso   1.000  C
  C315     1.0000 0.50969  0.36962  0.19453  Biso   1.000  C
  C316     1.0000 0.66443  0.49966  0.18110  Biso   1.000  C
  C317     1.0000 0.87553  0.14522  0.04010  Biso   1.000  C
  C318     1.0000 0.99765  0.35436  0.38313  Biso   1.000  C
  C319     1.0000 0.36655  0.99802  0.39443  Biso   1.000  C
  C320     1.0000 0.15581  0.64121  0.51965  Biso   1.000  C
  C321     1.0000 0.02966  0.85377  0.18493  Biso   1.000  C
  C322     1.0000 0.86593  0.99711  0.18225  Biso   1.000  C
  C323     1.0000 0.65530  0.64437  0.04340  Biso   1.000  C
  C324     1.0000 0.52266  0.86829  0.37768  Biso   1.000  C
  C325     1.0000 0.86496  0.49929  0.68259  Biso   1.000  C
  C326     1.0000 0.65216  0.84937  0.53819  Biso   1.000  C
  C327     1.0000 0.50785  0.61617  0.88250  Biso   1.000  C
  C328     1.0000 0.36370  0.48279  0.89844  Biso   1.000  C
  C329     1.0000 0.15545  0.84061  0.03988  Biso   1.000  C
  C330     1.0000 0.01972  0.62703  0.68409  Biso   1.000  C
  C331     1.0000 0.65670  0.99837  0.68511  Biso   1.000  C
  C332     1.0000 0.87032  0.34614  0.54858  Biso   1.000  C
  C333     1.0000 0.00396  0.12656  0.88510  Biso   1.000  C
  C334     1.0000 0.15826  0.99344  0.89932  Biso   1.000  C
  C335     1.0000 0.37388  0.34073  0.02299  Biso   1.000  C
  C336     1.0000 0.50780  0.12257  0.69788  Biso   1.000  C
  C337     1.0000 0.67487  0.48948  0.91516  Biso   1.000  C
  C338     1.0000 0.89035  0.65703  0.53189  Biso   1.000  C
  C339     1.0000 0.50087  0.85325  0.68949  Biso   1.000  C
  C340     1.0000 0.17083  0.48468  0.66558  Biso   1.000  C
  C341     1.0000 0.38881  0.64822  0.04276  Biso   1.000  C
  C342     1.0000 0.02153  0.85987  0.87168  Biso   1.000  C
  C343     1.0000 0.85174  0.98264  0.91433  Biso   1.000  C
  C344     1.0000 0.64070  0.15981  0.55759  Biso   1.000  C
  C345     1.0000 0.00013  0.35996  0.69672  Biso   1.000  C
  C346     1.0000 0.35013  0.98924  0.66246  Biso   1.000  C
  C347     1.0000 0.14047  0.15614  0.02775  Biso   1.000  C
  C348     1.0000 0.52729  0.34896  0.88985  Biso   1.000  C
  C349     1.0000 0.35476  0.48548  0.16217  Biso   1.000  C
  C350     1.0000 0.13508  0.33188  0.53640  Biso   1.000  C
  C351     1.0000 0.51510  0.13679  0.38830  Biso   1.000  C
  C352     1.0000 0.85634  0.50323  0.41410  Biso   1.000  C
  C353     1.0000 0.64097  0.33458  0.05774  Biso   1.000  C
  C354     1.0000 0.00686  0.12331  0.19737  Biso   1.000  C
  C355     1.0000 0.17216  0.99737  0.16314  Biso   1.000  C
  C356     1.0000 0.38824  0.83321  0.51412  Biso   1.000  C
  C357     1.0000 0.02705  0.61826  0.37569  Biso   1.000  C
  C358     1.0000 0.67657  0.00971  0.41666  Biso   1.000  C
  C359     1.0000 0.89209  0.83016  0.04063  Biso   1.000  C
  C360     1.0000 0.50860  0.63653  0.18932  Biso   1.000  C
  C361     1.0000 0.00547  0.14743  0.90730  Biso   1.000  C
  C362     1.0000 0.88760  0.99781  0.20318  Biso   1.000  C
  C363     1.0000 0.17650  0.86393  0.04332  Biso   1.000  C
  C364     1.0000 0.50659  0.14546  0.67717  Biso   1.000  C
  C365     1.0000 0.38791  0.00011  0.37471  Biso   1.000  C
  C366     1.0000 0.67258  0.87247  0.53857  Biso   1.000  C
  C367     1.0000 0.51239  0.63877  0.90254  Biso   1.000  C
  C368     1.0000 0.64212  0.50346  0.20146  Biso   1.000  C
  C369     1.0000 0.35280  0.36381  0.02312  Biso   1.000  C
  C370     1.0000 0.02054  0.64914  0.66213  Biso   1.000  C
  C371     1.0000 0.13864  0.48673  0.37432  Biso   1.000  C
  C372     1.0000 0.85036  0.37008  0.54906  Biso   1.000  C
  C373     1.0000 0.03177  0.83397  0.16218  Biso   1.000  C
  C374     1.0000 0.13704  0.99449  0.87729  Biso   1.000  C
  C375     1.0000 0.85463  0.12333  0.04305  Biso   1.000  C
  C376     1.0000 0.52793  0.84516  0.39662  Biso   1.000  C
  C377     1.0000 0.63419  0.99372  0.70550  Biso   1.000  C
  C378     1.0000 0.35329  0.12148  0.53605  Biso   1.000  C
  C379     1.0000 0.50674  0.34751  0.17365  Biso   1.000  C
  C380     1.0000 0.38798  0.47835  0.87941  Biso   1.000  C
  C381     1.0000 0.67619  0.62147  0.04711  Biso   1.000  C
  C382     1.0000 0.99675  0.33469  0.40638  Biso   1.000  C
  C383     1.0000 0.88725  0.50040  0.70272  Biso   1.000  C
  C384     1.0000 0.17585  0.61753  0.52064  Biso   1.000  C
  C385     1.0000 0.18788  0.14926  0.01774  Biso   1.000  C
  C386     1.0000 0.00151  0.17034  0.19177  Biso   1.000  C
  C387     1.0000 0.16993  0.98706  0.21069  Biso   1.000  C
  C388     1.0000 0.68968  0.15787  0.55595  Biso   1.000  C
  C389     1.0000 0.50467  0.18429  0.39239  Biso   1.000  C
  C390     1.0000 0.67351  0.00884  0.36691  Biso   1.000  C
  C391     1.0000 0.34124  0.64668  0.04657  Biso   1.000  C
  C392     1.0000 0.51500  0.68443  0.18104  Biso   1.000  C
  C393     1.0000 0.36157  0.48461  0.21070  Biso   1.000  C
  C394     1.0000 0.84183  0.65244  0.53091  Biso   1.000  C
  C395     1.0000 0.02875  0.66681  0.37812  Biso   1.000  C
  C396     1.0000 0.85658  0.50111  0.36645  Biso   1.000  C
  C397     1.0000 0.84302  0.83483  0.04717  Biso   1.000  C
  C398     1.0000 0.01592  0.81149  0.87736  Biso   1.000  C
  C399     1.0000 0.85370  0.98389  0.86543  Biso   1.000  C
  C400     1.0000 0.33844  0.83722  0.51805  Biso   1.000  C
  C401     1.0000 0.50532  0.80528  0.68118  Biso   1.000  C
  C402     1.0000 0.35205  0.99065  0.71174  Biso   1.000  C
  C403     1.0000 0.68884  0.33815  0.05862  Biso   1.000  C
  C404     1.0000 0.52554  0.30124  0.89865  Biso   1.000  C
  C405     1.0000 0.67200  0.49000  0.86620  Biso   1.000  C
  C406     1.0000 0.18293  0.33585  0.53596  Biso   1.000  C
  C407     1.0000 0.99111  0.31240  0.69142  Biso   1.000  C
  C408     1.0000 0.16766  0.48464  0.71305  Biso   1.000  C
  C409     1.0000 0.15223  0.99755  0.84996  Biso   1.000  C
  C410     1.0000 0.82682  0.13784  0.04297  Biso   1.000  C
  C411     1.0000 0.03108  0.80642  0.17687  Biso   1.000  C
  C412     1.0000 0.64882  0.98823  0.73290  Biso   1.000  C
  C413     1.0000 0.32758  0.13791  0.53309  Biso   1.000  C
  C414     1.0000 0.52697  0.81895  0.38085  Biso   1.000  C
  C415     1.0000 0.37435  0.47237  0.85215  Biso   1.000  C
  C416     1.0000 0.70368  0.63566  0.04865  Biso   1.000  C
  C417     1.0000 0.50941  0.32022  0.19026  Biso   1.000  C
  C418     1.0000 0.87269  0.50108  0.73014  Biso   1.000  C
  C419     1.0000 0.20310  0.63153  0.51915  Biso   1.000  C
  C420     1.0000 0.99400  0.30757  0.39264  Biso   1.000  C
  C421     1.0000 0.87398  0.99897  0.23131  Biso   1.000  C
  C422     1.0000 0.20293  0.84905  0.04804  Biso   1.000  C
  C423     1.0000 0.00047  0.17603  0.89324  Biso   1.000  C
  C424     1.0000 0.37354  0.00008  0.34673  Biso   1.000  C
  C425     1.0000 0.69904  0.85874  0.53459  Biso   1.000  C
  C426     1.0000 0.50968  0.17253  0.69399  Biso   1.000  C
  C427     1.0000 0.65660  0.50480  0.22905  Biso   1.000  C
  C428     1.0000 0.32663  0.34837  0.01394  Biso   1.000  C
  C429     1.0000 0.51132  0.66486  0.88574  Biso   1.000  C
  C430     1.0000 0.15461  0.48704  0.34687  Biso   1.000  C
  C431     1.0000 0.82204  0.35847  0.54823  Biso   1.000  C
  C432     1.0000 0.01848  0.67589  0.67730  Biso   1.000  C
  C433     1.0000 0.99956  0.14425  0.85893  Biso   1.000  C
  C434     1.0000 0.84049  0.00127  0.19906  Biso   1.000  C
  C435     1.0000 0.17191  0.81363  0.04189  Biso   1.000  C
  C436     1.0000 0.50933  0.13817  0.72496  Biso   1.000  C
  C437     1.0000 0.33942  0.99731  0.37796  Biso   1.000  C
  C438     1.0000 0.66958  0.82404  0.53289  Biso   1.000  C
  C439     1.0000 0.50558  0.63044  0.85594  Biso   1.000  C
  C440     1.0000 0.69040  0.49911  0.19963  Biso   1.000  C
  C441     1.0000 0.35853  0.31448  0.01696  Biso   1.000  C
  C442     1.0000 0.01617  0.64293  0.70977  Biso   1.000  C
  C443     1.0000 0.18766  0.49095  0.37928  Biso   1.000  C
  C444     1.0000 0.85208  0.32165  0.54524  Biso   1.000  C
  C445     1.0000 0.02867  0.83709  0.21079  Biso   1.000  C
  C446     1.0000 0.18494  0.99238  0.88307  Biso   1.000  C
  C447     1.0000 0.85893  0.17182  0.03724  Biso   1.000  C
  C448     1.0000 0.51690  0.85454  0.35076  Biso   1.000  C
  C449     1.0000 0.68262  0.99679  0.70247  Biso   1.000  C
  C450     1.0000 0.35799  0.17028  0.54256  Biso   1.000  C
  C451     1.0000 0.51189  0.35475  0.22190  Biso   1.000  C
  C452     1.0000 0.33727  0.47815  0.88102  Biso   1.000  C
  C453     1.0000 0.67197  0.66953  0.04537  Biso   1.000  C
  C454     1.0000 0.99423  0.33674  0.35777  Biso   1.000  C
  C455     1.0000 0.83842  0.49888  0.69931  Biso   1.000  C
  C456     1.0000 0.17188  0.66754  0.51681  Biso   1.000  C
  C457     1.0000 0.02345  0.63298  0.34867  Biso   1.000  C
  C458     1.0000 0.32078  0.98827  0.67595  Biso   1.000  C
  C459     1.0000 0.65660  0.30789  0.05461  Biso   1.000  C
  C460     1.0000 0.50472  0.65438  0.21521  Biso   1.000  C
  C461     1.0000 0.82376  0.98159  0.90024  Biso   1.000  C
  C462     1.0000 0.14962  0.30407  0.54064  Biso   1.000  C
  C463     1.0000 0.51715  0.15411  0.36063  Biso   1.000  C
  C464     1.0000 0.19843  0.48567  0.67996  Biso   1.000  C
  C465     1.0000 0.87722  0.80164  0.04184  Biso   1.000  C
  C466     1.0000 0.00457  0.13678  0.22452  Biso   1.000  C
  C467     1.0000 0.70287  0.49229  0.90189  Biso   1.000  C
  C468     1.0000 0.37289  0.80604  0.51245  Biso   1.000  C
  C469     1.0000 0.99502  0.34641  0.72496  Biso   1.000  C
  C470     1.0000 0.70502  0.01123  0.40297  Biso   1.000  C
  C471     1.0000 0.37615  0.67636  0.04821  Biso   1.000  C
  C472     1.0000 0.52771  0.33146  0.86439  Biso   1.000  C
  C473     1.0000 0.20069  0.99591  0.17711  Biso   1.000  C
  C474     1.0000 0.87515  0.68410  0.52701  Biso   1.000  C
  C475     1.0000 0.49962  0.83605  0.71600  Biso   1.000  C
  C476     1.0000 0.82800  0.50071  0.40236  Biso   1.000  C
  C477     1.0000 0.15542  0.18365  0.02531  Biso   1.000  C
  C478     1.0000 0.01553  0.84491  0.84525  Biso   1.000  C
  C479     1.0000 0.32805  0.48589  0.17689  Biso   1.000  C
  C480     1.0000 0.65463  0.18806  0.55843  Biso   1.000  C
  C481     1.0000 0.39074  0.77835  0.51073  Biso   1.000  C
  C482     1.0000 0.52938  0.34816  0.83763  Biso   1.000  C
  C483     1.0000 0.80258  0.49847  0.42031  Biso   1.000  C
  C484     1.0000 0.89467  0.77496  0.03558  Biso   1.000  C
  C485     1.0000 0.99628  0.36339  0.75215  Biso   1.000  C
  C486     1.0000 0.30238  0.48560  0.15928  Biso   1.000  C
  C487     1.0000 0.13257  0.27750  0.54591  Biso   1.000  C
  C488     1.0000 0.01005  0.86320  0.81829  Biso   1.000  C
  C489     1.0000 0.73214  0.01209  0.42320  Biso   1.000  C
  C490     1.0000 0.63961  0.28263  0.05135  Biso   1.000  C
  C491     1.0000 0.49308  0.85201  0.74295  Biso   1.000  C
  C492     1.0000 0.22748  0.00264  0.16109  Biso   1.000  C
  C493     1.0000 0.63641  0.21503  0.55968  Biso   1.000  C
  C494     1.0000 0.49687  0.64135  0.24227  Biso   1.000  C
  C495     1.0000 0.22494  0.48434  0.66083  Biso   1.000  C
  C496     1.0000 0.13979  0.21059  0.03324  Biso   1.000  C
  C497     1.0000 0.01974  0.61630  0.32244  Biso   1.000  C
  C498     1.0000 0.73044  0.49093  0.91863  Biso   1.000  C
  C499     1.0000 0.89227  0.71074  0.52735  Biso   1.000  C
  C500     1.0000 0.00731  0.11887  0.25106  Biso   1.000  C
  C501     1.0000 0.29517  0.98298  0.65735  Biso   1.000  C
  C502     1.0000 0.39428  0.70219  0.05115  Biso   1.000  C
  C503     1.0000 0.52595  0.13827  0.33318  Biso   1.000  C
  C504     1.0000 0.79834  0.98254  0.91787  Biso   1.000  C
  C505     1.0000 0.65684  0.49284  0.83865  Biso   1.000  C
  C506     1.0000 0.81455  0.63760  0.53038  Biso   1.000  C
  C507     1.0000 0.50903  0.78101  0.66151  Biso   1.000  C
  C508     1.0000 0.15227  0.48286  0.74054  Biso   1.000  C
  C509     1.0000 0.31307  0.63292  0.04770  Biso   1.000  C
  C510     1.0000 0.01658  0.78321  0.89234  Biso   1.000  C
  C511     1.0000 0.86607  0.98880  0.83613  Biso   1.000  C
  C512     1.0000 0.71826  0.14458  0.55101  Biso   1.000  C
  C513     1.0000 0.98685  0.28486  0.67704  Biso   1.000  C
  C514     1.0000 0.36571  0.99086  0.74074  Biso   1.000  C
  C515     1.0000 0.21273  0.13254  0.01091  Biso   1.000  C
  C516     1.0000 0.52721  0.27638  0.91702  Biso   1.000  C
  C517     1.0000 0.37689  0.48574  0.23854  Biso   1.000  C
  C518     1.0000 0.21059  0.34963  0.53084  Biso   1.000  C
  C519     1.0000 0.49616  0.21046  0.40815  Biso   1.000  C
  C520     1.0000 0.87128  0.50164  0.33800  Biso   1.000  C
  C521     1.0000 0.71655  0.35235  0.06364  Biso   1.000  C
  C522     1.0000 0.99643  0.19704  0.17522  Biso   1.000  C
  C523     1.0000 0.15472  0.98253  0.23876  Biso   1.000  C
  C524     1.0000 0.31095  0.85371  0.52192  Biso   1.000  C
  C525     1.0000 0.03230  0.69425  0.39269  Biso   1.000  C
  C526     1.0000 0.66001  0.00819  0.33944  Biso   1.000  C
  C527     1.0000 0.81617  0.85179  0.05250  Biso   1.000  C
  C528     1.0000 0.51693  0.71044  0.16376  Biso   1.000  C
  C529     1.0000 0.80046  0.12026  0.04674  Biso   1.000  C
  C530     1.0000 0.03420  0.77930  0.16031  Biso   1.000  C
  C531     1.0000 0.13494  0.00362  0.82310  Biso   1.000  C
  C532     1.0000 0.30100  0.12148  0.52763  Biso   1.000  C
  C533     1.0000 0.52852  0.79053  0.39643  Biso   1.000  C
  C534     1.0000 0.63174  0.97961  0.75864  Biso   1.000  C
  C535     1.0000 0.73051  0.61787  0.04667  Biso   1.000  C
  C536     1.0000 0.50636  0.29276  0.17533  Biso   1.000  C
  C537     1.0000 0.39057  0.46589  0.82630  Biso   1.000  C
  C538     1.0000 0.22950  0.61623  0.52144  Biso   1.000  C
  C539     1.0000 0.99006  0.28089  0.40978  Biso   1.000  C
  C540     1.0000 0.88893  0.50045  0.75650  Biso   1.000  C
  C541     1.0000 0.22892  0.86489  0.05337  Biso   1.000  C
  C542     1.0000 0.99850  0.20185  0.91048  Biso   1.000  C
  C543     1.0000 0.89138  0.99845  0.25719  Biso   1.000  C
  C544     1.0000 0.72491  0.87547  0.53453  Biso   1.000  C
  C545     1.0000 0.51339  0.20043  0.67948  Biso   1.000  C
  C546     1.0000 0.38988  0.00532  0.32048  Biso   1.000  C
  C547     1.0000 0.30055  0.36753  0.01110  Biso   1.000  C
  C548     1.0000 0.51336  0.69191  0.89990  Biso   1.000  C
  C549     1.0000 0.63971  0.51292  0.25460  Biso   1.000  C
  C550     1.0000 0.79610  0.37850  0.54769  Biso   1.000  C
  C551     1.0000 0.02071  0.70359  0.66285  Biso   1.000  C
  C552     1.0000 0.13816  0.48274  0.32102  Biso   1.000  C
  C553     1.0000 0.99749  0.13104  0.83113  Biso   1.000  C
  C554     1.0000 0.81325  0.00356  0.18134  Biso   1.000  C
  C555     1.0000 0.15826  0.78491  0.03830  Biso   1.000  C
  C556     1.0000 0.50413  0.12109  0.75232  Biso   1.000  C
  C557     1.0000 0.31444  0.99082  0.39427  Biso   1.000  C
  C558     1.0000 0.65714  0.79559  0.53049  Biso   1.000  C
  C559     1.0000 0.49831  0.61478  0.82926  Biso   1.000  C
  C560     1.0000 0.71885  0.49393  0.18675  Biso   1.000  C
  C561     1.0000 0.37328  0.28596  0.01890  Biso   1.000  C
  C562     1.0000 0.01210  0.62717  0.73786  Biso   1.000  C
  C563     1.0000 0.21355  0.49719  0.39520  Biso   1.000  C
  C564     1.0000 0.86503  0.29308  0.54287  Biso   1.000  C
  C565     1.0000 0.02726  0.85049  0.23964  Biso   1.000  C
  C566     1.0000 0.21261  0.98951  0.89747  Biso   1.000  C
  C567     1.0000 0.87324  0.20009  0.03276  Biso   1.000  C
  C568     1.0000 0.50881  0.87254  0.32471  Biso   1.000  C
  C569     1.0000 0.70939  0.00394  0.68666  Biso   1.000  C
  C570     1.0000 0.37153  0.19805  0.54585  Biso   1.000  C
  C571     1.0000 0.51449  0.37343  0.24785  Biso   1.000  C
  C572     1.0000 0.30812  0.48255  0.89381  Biso   1.000  C
  C573     1.0000 0.65593  0.69771  0.04355  Biso   1.000  C
  C574     1.0000 0.99075  0.35045  0.32953  Biso   1.000  C
  C575     1.0000 0.81007  0.49692  0.68684  Biso   1.000  C
  C576     1.0000 0.15586  0.69602  0.51647  Biso   1.000  C
  C577     1.0000 0.30365  0.48932  0.12844  Biso   1.000  C
  C578     1.0000 0.10070  0.28005  0.54526  Biso   1.000  C
  C579     1.0000 0.53154  0.10610  0.33403  Biso   1.000  C
  C580     1.0000 0.80638  0.49560  0.45089  Biso   1.000  C
  C581     1.0000 0.60738  0.28207  0.05234  Biso   1.000  C
  C582     1.0000 0.01096  0.08682  0.24900  Biso   1.000  C
  C583     1.0000 0.22357  0.00591  0.12977  Biso   1.000  C
  C584     1.0000 0.42127  0.78048  0.51358  Biso   1.000  C
  C585     1.0000 0.02131  0.58550  0.32375  Biso   1.000  C
  C586     1.0000 0.72817  0.01158  0.45382  Biso   1.000  C
  C587     1.0000 0.92383  0.77824  0.02782  Biso   1.000  C
  C588     1.0000 0.49316  0.61020  0.24279  Biso   1.000  C
  C589     1.0000 0.72754  0.48702  0.95000  Biso   1.000  C
  C590     1.0000 0.92371  0.70755  0.52659  Biso   1.000  C
  C591     1.0000 0.48780  0.88278  0.74313  Biso   1.000  C
  C592     1.0000 0.22110  0.48532  0.63031  Biso   1.000  C
  C593     1.0000 0.42495  0.69876  0.04667  Biso   1.000  C
  C594     1.0000 0.01106  0.89474  0.82038  Biso   1.000  C
  C595     1.0000 0.80158  0.98256  0.94998  Biso   1.000  C
  C596     1.0000 0.60537  0.21214  0.55739  Biso   1.000  C
  C597     1.0000 0.00079  0.39382  0.75210  Biso   1.000  C
  C598     1.0000 0.29931  0.98510  0.62574  Biso   1.000  C
  C599     1.0000 0.10883  0.20870  0.03952  Biso   1.000  C
  C600     1.0000 0.53095  0.38008  0.83500  Biso   1.000  C
  C601     1.0000 0.21302  0.98691  0.92879  Biso   1.000  C
  C602     1.0000 0.90512  0.20062  0.03579  Biso   1.000  C
  C603     1.0000 0.02581  0.88272  0.24102  Biso   1.000  C
  C604     1.0000 0.71023  0.00824  0.65488  Biso   1.000  C
  C605     1.0000 0.40253  0.19955  0.54833  Biso   1.000  C
  C606     1.0000 0.50969  0.90404  0.32723  Biso   1.000  C
  C607     1.0000 0.30817  0.49087  0.92438  Biso   1.000  C
  C608     1.0000 0.62508  0.69951  0.03871  Biso   1.000  C
  C609     1.0000 0.51192  0.40440  0.24520  Biso   1.000  C
  C610     1.0000 0.80758  0.49822  0.65445  Biso   1.000  C
  C611     1.0000 0.12380  0.69636  0.51822  Biso   1.000  C
  C612     1.0000 0.99211  0.38274  0.32758  Biso   1.000  C
  C613     1.0000 0.81187  0.00094  0.14967  Biso   1.000  C
  C614     1.0000 0.12863  0.78503  0.03091  Biso   1.000  C
  C615     1.0000 0.99517  0.09970  0.83033  Biso   1.000  C
  C616     1.0000 0.31170  0.98884  0.42568  Biso   1.000  C
  C617     1.0000 0.62553  0.79457  0.53112  Biso   1.000  C
  C618     1.0000 0.50024  0.09053  0.75115  Biso   1.000  C
  C619     1.0000 0.72053  0.49167  0.15493  Biso   1.000  C
  C620     1.0000 0.40398  0.28580  0.02555  Biso   1.000  C
  C621     1.0000 0.49772  0.58346  0.83095  Biso   1.000  C
  C622     1.0000 0.21432  0.49588  0.42714  Biso   1.000  C
  C623     1.0000 0.89659  0.29057  0.54481  Biso   1.000  C
  C624     1.0000 0.01100  0.59580  0.73709  Biso   1.000  C
  C625     1.0000 0.99947  0.19993  0.94135  Biso   1.000  C
  C626     1.0000 0.92339  0.99733  0.25396  Biso   1.000  C
  C627     1.0000 0.22676  0.89716  0.05024  Biso   1.000  C
  C628     1.0000 0.51173  0.20282  0.64796  Biso   1.000  C
  C629     1.0000 0.42307  0.00925  0.32309  Biso   1.000  C
  C630     1.0000 0.72341  0.90747  0.53675  Biso   1.000  C
  C631     1.0000 0.51709  0.69306  0.93067  Biso   1.000  C
  C632     1.0000 0.60765  0.51591  0.24934  Biso   1.000  C
  C633     1.0000 0.30323  0.39956  0.01287  Biso   1.000  C
  C634     1.0000 0.02168  0.70232  0.63109  Biso   1.000  C
  C635     1.0000 0.10662  0.48028  0.32244  Biso   1.000  C
  C636     1.0000 0.79906  0.40924  0.54921  Biso   1.000  C
  C637     1.0000 0.03450  0.77923  0.12968  Biso   1.000  C
  C638     1.0000 0.10453  0.00328  0.82410  Biso   1.000  C
  C639     1.0000 0.80407  0.08906  0.05138  Biso   1.000  C
  C640     1.0000 0.52954  0.78982  0.42790  Biso   1.000  C
  C641     1.0000 0.59949  0.97912  0.75457  Biso   1.000  C
  C642     1.0000 0.30381  0.08903  0.52608  Biso   1.000  C
  C643     1.0000 0.50082  0.29259  0.14524  Biso   1.000  C
  C644     1.0000 0.42216  0.46756  0.82814  Biso   1.000  C
  C645     1.0000 0.72724  0.58589  0.04971  Biso   1.000  C
  C646     1.0000 0.99064  0.28204  0.44143  Biso   1.000  C
  C647     1.0000 0.92045  0.49923  0.75486  Biso   1.000  C
  C648     1.0000 0.22805  0.58436  0.52434  Biso   1.000  C
  C649     1.0000 0.03605  0.69410  0.42327  Biso   1.000  C
  C650     1.0000 0.39656  0.99170  0.74371  Biso   1.000  C
  C651     1.0000 0.71853  0.38359  0.06165  Biso   1.000  C
  C652     1.0000 0.52325  0.70988  0.13187  Biso   1.000  C
  C653     1.0000 0.89720  0.99067  0.83537  Biso   1.000  C
  C654     1.0000 0.21077  0.38153  0.52673  Biso   1.000  C
  C655     1.0000 0.49182  0.20727  0.44003  Biso   1.000  C
  C656     1.0000 0.12260  0.48953  0.74099  Biso   1.000  C
  C657     1.0000 0.81819  0.88336  0.05491  Biso   1.000  C
  C658     1.0000 0.99365  0.19668  0.14291  Biso   1.000  C
  C659     1.0000 0.62528  0.49118  0.83751  Biso   1.000  C
  C660     1.0000 0.31274  0.88395  0.52934  Biso   1.000  C
  C661     1.0000 0.98669  0.28474  0.64514  Biso   1.000  C
  C662     1.0000 0.62741  0.00908  0.33651  Biso   1.000  C
  C663     1.0000 0.31206  0.60151  0.04443  Biso   1.000  C
  C664     1.0000 0.52383  0.27920  0.94833  Biso   1.000  C
  C665     1.0000 0.12364  0.97751  0.23845  Biso   1.000  C
  C666     1.0000 0.81446  0.60607  0.53397  Biso   1.000  C
  C667     1.0000 0.51398  0.78564  0.63103  Biso   1.000  C
  C668     1.0000 0.90209  0.49943  0.33528  Biso   1.000  C
  C669     1.0000 0.21102  0.10071  0.01153  Biso   1.000  C
  C670     1.0000 0.02162  0.78183  0.92340  Biso   1.000  C
  C671     1.0000 0.40821  0.48744  0.23878  Biso   1.000  C
  C672     1.0000 0.72070  0.11197  0.55051  Biso   1.000  C
  C673     1.0000 0.19863  0.99494  0.83563  Biso   1.000  C
  C674     1.0000 0.81136  0.18415  0.04296  Biso   1.000  C
  C675     1.0000 0.02912  0.79109  0.22448  Biso   1.000  C
  C676     1.0000 0.69547  0.98745  0.74708  Biso   1.000  C
  C677     1.0000 0.31095  0.18385  0.53961  Biso   1.000  C
  C678     1.0000 0.51869  0.80642  0.33560  Biso   1.000  C
  C679     1.0000 0.32637  0.47111  0.83566  Biso   1.000  C
  C680     1.0000 0.71981  0.68007  0.04519  Biso   1.000  C
  C681     1.0000 0.51444  0.30849  0.23816  Biso   1.000  C
  C682     1.0000 0.82681  0.49945  0.74751  Biso   1.000  C
  C683     1.0000 0.21985  0.67868  0.51571  Biso   1.000  C
  C684     1.0000 0.99337  0.28927  0.34645  Biso   1.000  C
  C685     1.0000 0.82638  0.00512  0.24519  Biso   1.000  C
  C686     1.0000 0.21892  0.80148  0.04936  Biso   1.000  C
  C687     1.0000 0.99260  0.19138  0.84810  Biso   1.000  C
  C688     1.0000 0.32603  0.00275  0.33150  Biso   1.000  C
  C689     1.0000 0.71674  0.81208  0.53290  Biso   1.000  C
  C690     1.0000 0.51403  0.18543  0.74106  Biso   1.000  C
  C691     1.0000 0.70259  0.50313  0.24768  Biso   1.000  C
  C692     1.0000 0.31232  0.30208  0.00917  Biso   1.000  C
  C693     1.0000 0.50915  0.67608  0.83889  Biso   1.000  C
  C694     1.0000 0.20084  0.49216  0.33295  Biso   1.000  C
  C695     1.0000 0.80335  0.31428  0.54236  Biso   1.000  C
  C696     1.0000 0.01533  0.69027  0.72285  Biso   1.000  C
  C697     1.0000 0.72187  0.00583  0.35690  Biso   1.000  C
  C698     1.0000 0.33021  0.69245  0.05259  Biso   1.000  C
  C699     1.0000 0.99034  0.29950  0.73776  Biso   1.000  C
  C700     1.0000 0.21754  0.99518  0.22241  Biso   1.000  C
  C701     1.0000 0.82790  0.69901  0.52825  Biso   1.000  C
  C702     1.0000 0.53113  0.28421  0.85357  Biso   1.000  C
  C703     1.0000 0.80804  0.50067  0.35829  Biso   1.000  C
  C704     1.0000 0.20027  0.19774  0.01425  Biso   1.000  C
  C705     1.0000 0.50516  0.78862  0.72942  Biso   1.000  C
  C706     1.0000 0.31218  0.48551  0.22368  Biso   1.000  C
  C707     1.0000 0.69999  0.20594  0.55495  Biso   1.000  C
  C708     1.0000 0.01046  0.79851  0.83149  Biso   1.000  C
  C709     1.0000 0.30585  0.98945  0.72317  Biso   1.000  C
  C710     1.0000 0.70391  0.29097  0.05478  Biso   1.000  C
  C711     1.0000 0.02554  0.67932  0.33146  Biso   1.000  C
  C712     1.0000 0.80695  0.97985  0.85471  Biso   1.000  C
  C713     1.0000 0.19641  0.28716  0.54111  Biso   1.000  C
  C714     1.0000 0.51058  0.69839  0.22881  Biso   1.000  C
  C715     1.0000 0.21502  0.48192  0.72577  Biso   1.000  C
  C716     1.0000 0.82932  0.78865  0.04552  Biso   1.000  C
  C717     1.0000 0.51190  0.19844  0.34681  Biso   1.000  C
  C718     1.0000 0.71781  0.49260  0.85421  Biso   1.000  C
  C719     1.0000 0.32653  0.79010  0.51573  Biso   1.000  C
  C720     1.0000 0.99654  0.18237  0.23960  Biso   1.000  C
  C721     1.0000 0.49951  0.80896  0.31026  Biso   1.000  C
  C722     1.0000 0.29736  0.45587  0.83628  Biso   1.000  C
  C723     1.0000 0.77950  0.31901  0.56160  Biso   1.000  C
  C724     1.0000 0.04836  0.76560  0.22052  Biso   1.000  C
  C725     1.0000 0.80035  0.51638  0.74385  Biso   1.000  C
  C726     1.0000 0.28195  0.30908  0.01911  Biso   1.000  C
  C727     1.0000 0.97265  0.26528  0.34923  Biso   1.000  C
  C728     1.0000 0.22542  0.00974  0.83747  Biso   1.000  C
  C729     1.0000 0.71471  0.78535  0.54950  Biso   1.000  C
  C730     1.0000 0.50299  0.31481  0.26761  Biso   1.000  C
  C731     1.0000 0.72454  0.97622  0.74054  Biso   1.000  C
  C732     1.0000 0.24684  0.80714  0.03715  Biso   1.000  C
  C733     1.0000 0.50136  0.21466  0.74118  Biso   1.000  C
  C734     1.0000 0.69489  0.48758  0.27336  Biso   1.000  C
  C735     1.0000 0.21749  0.70215  0.49285  Biso   1.000  C
  C736     1.0000 0.00955  0.21732  0.85009  Biso   1.000  C
  C737     1.0000 0.22971  0.47880  0.33734  Biso   1.000  C
  C738     1.0000 0.74360  0.67808  0.06509  Biso   1.000  C
  C739     1.0000 0.02840  0.68904  0.75152  Biso   1.000  C
  C740     1.0000 0.79988  0.98662  0.24367  Biso   1.000  C
  C741     1.0000 0.28477  0.18329  0.52071  Biso   1.000  C
  C742     1.0000 0.52393  0.66983  0.81011  Biso   1.000  C
  C743     1.0000 0.32982  0.98759  0.30189  Biso   1.000  C
  C744     1.0000 0.78164  0.18028  0.03246  Biso   1.000  C
  C745     1.0000 0.00668  0.70447  0.33261  Biso   1.000  C
  C746     1.0000 0.28116  0.97112  0.72069  Biso   1.000  C
  C747     1.0000 0.69756  0.26266  0.06894  Biso   1.000  C
  C748     1.0000 0.52816  0.69222  0.25454  Biso   1.000  C
  C749     1.0000 0.81018  0.96345  0.82940  Biso   1.000  C
  C750     1.0000 0.22476  0.29141  0.55690  Biso   1.000  C
  C751     1.0000 0.52376  0.22637  0.35160  Biso   1.000  C
  C752     1.0000 0.24138  0.49939  0.72362  Biso   1.000  C
  C753     1.0000 0.80023  0.79362  0.03409  Biso   1.000  C
  C754     1.0000 0.00630  0.21168  0.23417  Biso   1.000  C
  C755     1.0000 0.74465  0.50734  0.85849  Biso   1.000  C
  C756     1.0000 0.33091  0.75997  0.52570  Biso   1.000  C
  C757     1.0000 0.96801  0.27843  0.74013  Biso   1.000  C
  C758     1.0000 0.74642  0.02376  0.35777  Biso   1.000  C
  C759     1.0000 0.30606  0.68948  0.07311  Biso   1.000  C
  C760     1.0000 0.54883  0.28759  0.82723  Biso   1.000  C
  C761     1.0000 0.23774  0.01844  0.22113  Biso   1.000  C
  C762     1.0000 0.83032  0.72603  0.51214  Biso   1.000  C
  C763     1.0000 0.49557  0.75888  0.72505  Biso   1.000  C
  C764     1.0000 0.77829  0.51376  0.36304  Biso   1.000  C
  C765     1.0000 0.23057  0.19320  0.01827  Biso   1.000  C
  C766     1.0000 0.99333  0.77156  0.83561  Biso   1.000  C
  C767     1.0000 0.31320  0.47118  0.25185  Biso   1.000  C
  C768     1.0000 0.69441  0.22727  0.53357  Biso   1.000  C
  C769     1.0000 0.49772  0.70555  0.84156  Biso   1.000  C
  C770     1.0000 0.83175  0.48347  0.77449  Biso   1.000  C
  C771     1.0000 0.74225  0.81553  0.51556  Biso   1.000  C
  C772     1.0000 0.99729  0.71635  0.71628  Biso   1.000  C
  C773     1.0000 0.33269  0.48680  0.80840  Biso   1.000  C
  C774     1.0000 0.21475  0.77314  0.06477  Biso   1.000  C
  C775     1.0000 0.97453  0.18830  0.82280  Biso   1.000  C
  C776     1.0000 0.69168  0.99503  0.77654  Biso   1.000  C
  C777     1.0000 0.80267  0.28834  0.52367  Biso   1.000  C
  C778     1.0000 0.53176  0.17610  0.76621  Biso   1.000  C
  C779     1.0000 0.19317  0.97673  0.80950  Biso   1.000  C
  C780     1.0000 0.31693  0.27375  0.99386  Biso   1.000  C
  C781     1.0000 0.52794  0.27859  0.23553  Biso   1.000  C
  C782     1.0000 0.19460  0.50210  0.30278  Biso   1.000  C
  C783     1.0000 0.31310  0.20681  0.55978  Biso   1.000  C
  C784     1.0000 0.01116  0.29010  0.32162  Biso   1.000  C
  C785     1.0000 0.73186  0.51621  0.24776  Biso   1.000  C
  C786     1.0000 0.81822  0.21286  0.05607  Biso   1.000  C
  C787     1.0000 0.00565  0.79091  0.24733  Biso   1.000  C
  C788     1.0000 0.29774  0.01874  0.33558  Biso   1.000  C
  C789     1.0000 0.24487  0.68018  0.53405  Biso   1.000  C
  C790     1.0000 0.53870  0.78074  0.33808  Biso   1.000  C
  C791     1.0000 0.82961  0.02079  0.27143  Biso   1.000  C
  C792     1.0000 0.71814  0.70490  0.02659  Biso   1.000  C
  C793     1.0000 0.50157  0.19281  0.31596  Biso   1.000  C
  C794     1.0000 0.28535  0.50267  0.21840  Biso   1.000  C
  C795     1.0000 0.19265  0.25739  0.53065  Biso   1.000  C
  C796     1.0000 0.98143  0.17669  0.26693  Biso   1.000  C
  C797     1.0000 0.81176  0.48427  0.33032  Biso   1.000  C
  C798     1.0000 0.73061  0.29631  0.03892  Biso   1.000  C
  C799     1.0000 0.04249  0.67486  0.30553  Biso   1.000  C
  C800     1.0000 0.21948  0.97619  0.24726  Biso   1.000  C
  C801     1.0000 0.29981  0.79743  0.50272  Biso   1.000  C
  C802     1.0000 0.50090  0.72873  0.22490  Biso   1.000  C
  C803     1.0000 0.71888  0.98555  0.33283  Biso   1.000  C
  C804     1.0000 0.83447  0.76018  0.05965  Biso   1.000  C
  C805     1.0000 0.51892  0.79433  0.75883  Biso   1.000  C
  C806     1.0000 0.71446  0.47974  0.82521  Biso   1.000  C
  C807     1.0000 0.80186  0.69616  0.54613  Biso   1.000  C
  C808     1.0000 0.02434  0.80247  0.80281  Biso   1.000  C
  C809     1.0000 0.21441  0.45967  0.74732  Biso   1.000  C
  C810     1.0000 0.33010  0.71923  0.03576  Biso   1.000  C
  C811     1.0000 0.01483  0.29891  0.75813  Biso   1.000  C
  C812     1.0000 0.77994  0.99456  0.85919  Biso   1.000  C
  C813     1.0000 0.72697  0.20803  0.57315  Biso   1.000  C
  C814     1.0000 0.51484  0.25772  0.85783  Biso   1.000  C
  C815     1.0000 0.30605  0.00968  0.74759  Biso   1.000  C
  C816     1.0000 0.19139  0.22698  0.00411  Biso   1.000  C
  C817     1.0000 0.00635  0.23873  0.82891  Biso   1.000  C
  C818     1.0000 0.77937  0.98618  0.26574  Biso   1.000  C
  C819     1.0000 0.26828  0.78590  0.03818  Biso   1.000  C
  C820     1.0000 0.50671  0.23314  0.76426  Biso   1.000  C
  C821     1.0000 0.30779  0.99014  0.28097  Biso   1.000  C
  C822     1.0000 0.73568  0.76304  0.54652  Biso   1.000  C
  C823     1.0000 0.52589  0.69221  0.78911  Biso   1.000  C
  C824     1.0000 0.71343  0.48546  0.29561  Biso   1.000  C
  C825     1.0000 0.26039  0.28930  0.01531  Biso   1.000  C
  C826     1.0000 0.02334  0.71198  0.76963  Biso   1.000  C
  C827     1.0000 0.25061  0.47846  0.31603  Biso   1.000  C
  C828     1.0000 0.75668  0.30123  0.56119  Biso   1.000  C
  C829     1.0000 0.04654  0.74340  0.23978  Biso   1.000  C
  C830     1.0000 0.24507  0.00652  0.81517  Biso   1.000  C
  C831     1.0000 0.76119  0.20198  0.03770  Biso   1.000  C
  C832     1.0000 0.50188  0.78758  0.28866  Biso   1.000  C
  C833     1.0000 0.74662  0.97362  0.76125  Biso   1.000  C
  C834     1.0000 0.26225  0.20275  0.52439  Biso   1.000  C
  C835     1.0000 0.50364  0.29375  0.28950  Biso   1.000  C
  C836     1.0000 0.27632  0.46011  0.81445  Biso   1.000  C
  C837     1.0000 0.76582  0.69936  0.06465  Biso   1.000  C
  C838     1.0000 0.96981  0.24439  0.32700  Biso   1.000  C
  C839     1.0000 0.77998  0.51706  0.76682  Biso   1.000  C
  C840     1.0000 0.23317  0.72709  0.49399  Biso   1.000  C
  C841     1.0000 0.21392  0.97582  0.78709  Biso   1.000  C
  C842     1.0000 0.79595  0.23191  0.05978  Biso   1.000  C
  C843     1.0000 0.00578  0.76709  0.26559  Biso   1.000  C
  C844     1.0000 0.71396  0.99157  0.79660  Biso   1.000  C
  C845     1.0000 0.28854  0.22513  0.56435  Biso   1.000  C
  C846     1.0000 0.53919  0.75986  0.31622  Biso   1.000  C
  C847     1.0000 0.31163  0.48776  0.78743  Biso   1.000  C
  C848     1.0000 0.74094  0.72400  0.02589  Biso   1.000  C
  C849     1.0000 0.52564  0.25779  0.25704  Biso   1.000  C
  C850     1.0000 0.81050  0.48226  0.79547  Biso   1.000  C
  C851     1.0000 0.26268  0.70459  0.53358  Biso   1.000  C
  C852     1.0000 0.00932  0.26887  0.30150  Biso   1.000  C
  C853     1.0000 0.81149  0.01718  0.29563  Biso   1.000  C
  C854     1.0000 0.23723  0.75386  0.06586  Biso   1.000  C
  C855     1.0000 0.97499  0.20912  0.80168  Biso   1.000  C
  C856     1.0000 0.27533  0.01797  0.31429  Biso   1.000  C
  C857     1.0000 0.76396  0.79422  0.51555  Biso   1.000  C
  C858     1.0000 0.53393  0.19470  0.79013  Biso   1.000  C
  C859     1.0000 0.75048  0.51091  0.27071  Biso   1.000  C
  C860     1.0000 0.29335  0.25458  0.99164  Biso   1.000  C
  C861     1.0000 0.50173  0.72760  0.82101  Biso   1.000  C
  C862     1.0000 0.21592  0.49992  0.28135  Biso   1.000  C
  C863     1.0000 0.77926  0.26969  0.52554  Biso   1.000  C
  C864     1.0000 0.99309  0.73806  0.73626  Biso   1.000  C
  C865     1.0000 0.76507  0.51065  0.83715  Biso   1.000  C
  C866     1.0000 0.81058  0.74881  0.51518  Biso   1.000  C
  C867     1.0000 0.50027  0.73806  0.74597  Biso   1.000  C
  C868     1.0000 0.26436  0.49626  0.74201  Biso   1.000  C
  C869     1.0000 0.28412  0.71101  0.07297  Biso   1.000  C
  C870     1.0000 0.99227  0.75299  0.81306  Biso   1.000  C
  C871     1.0000 0.78899  0.96439  0.80777  Biso   1.000  C
  C872     1.0000 0.71274  0.25107  0.53127  Biso   1.000  C
  C873     1.0000 0.96933  0.25688  0.76136  Biso   1.000  C
  C874     1.0000 0.26017  0.96915  0.74282  Biso   1.000  C
  C875     1.0000 0.25224  0.21351  0.01322  Biso   1.000  C
  C876     1.0000 0.54598  0.26659  0.80549  Biso   1.000  C
  C877     1.0000 0.28944  0.46822  0.27063  Biso   1.000  C
  C878     1.0000 0.24530  0.27013  0.56153  Biso   1.000  C
  C879     1.0000 0.52370  0.24717  0.32987  Biso   1.000  C
  C880     1.0000 0.75644  0.51097  0.34284  Biso   1.000  C
  C881     1.0000 0.72011  0.24231  0.06622  Biso   1.000  C
  C882     1.0000 0.00204  0.23341  0.25417  Biso   1.000  C
  C883     1.0000 0.25816  0.02341  0.24280  Biso   1.000  C
  C884     1.0000 0.30834  0.74103  0.52475  Biso   1.000  C
  C885     1.0000 0.00937  0.72524  0.31122  Biso   1.000  C
  C886     1.0000 0.76649  0.02052  0.33614  Biso   1.000  C
  C887     1.0000 0.77942  0.77190  0.03390  Biso   1.000  C
  C888     1.0000 0.53159  0.71457  0.27468  Biso   1.000  C
  C889     1.0000 0.74046  0.98212  0.31208  Biso   1.000  C
  C890     1.0000 0.30888  0.74025  0.03727  Biso   1.000  C
  C891     1.0000 0.01455  0.27695  0.78011  Biso   1.000  C
  C892     1.0000 0.23897  0.98117  0.26911  Biso   1.000  C
  C893     1.0000 0.78237  0.71983  0.54684  Biso   1.000  C
  C894     1.0000 0.51160  0.23842  0.83590  Biso   1.000  C
  C895     1.0000 0.78860  0.48312  0.31250  Biso   1.000  C
  C896     1.0000 0.21360  0.24863  0.00002  Biso   1.000  C
  C897     1.0000 0.52247  0.77187  0.77996  Biso   1.000  C
  C898     1.0000 0.26392  0.50241  0.23891  Biso   1.000  C
  C899     1.0000 0.74551  0.22942  0.56814  Biso   1.000  C
  C900     1.0000 0.02180  0.78166  0.78009  Biso   1.000  C
  C901     1.0000 0.28380  0.00874  0.76735  Biso   1.000  C
  C902     1.0000 0.75233  0.27373  0.03795  Biso   1.000  C
  C903     1.0000 0.04250  0.69715  0.28327  Biso   1.000  C
  C904     1.0000 0.75893  0.99448  0.83762  Biso   1.000  C
  C905     1.0000 0.21399  0.23743  0.53316  Biso   1.000  C
  C906     1.0000 0.50225  0.74951  0.24652  Biso   1.000  C
  C907     1.0000 0.23859  0.45698  0.76596  Biso   1.000  C
  C908     1.0000 0.81228  0.74057  0.06040  Biso   1.000  C
  C909     1.0000 0.50182  0.21339  0.29507  Biso   1.000  C
  C910     1.0000 0.73585  0.48210  0.80446  Biso   1.000  C
  C911     1.0000 0.27757  0.77792  0.50279  Biso   1.000  C
  C912     1.0000 0.97908  0.19872  0.28732  Biso   1.000  C
  C913     1.0000 0.78428  0.49814  0.79046  Biso   1.000  C
  C914     1.0000 0.76104  0.76845  0.53227  Biso   1.000  C
  C915     1.0000 0.51552  0.72121  0.79476  Biso   1.000  C
  C916     1.0000 0.28417  0.47534  0.79014  Biso   1.000  C
  C917     1.0000 0.26346  0.75901  0.05283  Biso   1.000  C
  C918     1.0000 0.00574  0.73604  0.76311  Biso   1.000  C
  C919     1.0000 0.74187  0.98170  0.78897  Biso   1.000  C
  C920     1.0000 0.75774  0.27494  0.54521  Biso   1.000  C
  C921     1.0000 0.99045  0.23452  0.80446  Biso   1.000  C
  C922     1.0000 0.23974  0.99054  0.79065  Biso   1.000  C
  C923     1.0000 0.26584  0.26271  0.00273  Biso   1.000  C
  C924     1.0000 0.52307  0.22243  0.78729  Biso   1.000  C
  C925     1.0000 0.24357  0.48874  0.28806  Biso   1.000  C
  C926     1.0000 0.26366  0.22373  0.54592  Biso   1.000  C
  C927     1.0000 0.51462  0.26477  0.28339  Biso   1.000  C
  C928     1.0000 0.74153  0.49494  0.29393  Biso   1.000  C
  C929     1.0000 0.76765  0.22655  0.05186  Biso   1.000  C
  C930     1.0000 0.99005  0.24691  0.30404  Biso   1.000  C
  C931     1.0000 0.28221  0.00484  0.28728  Biso   1.000  C
  C932     1.0000 0.25750  0.72673  0.51386  Biso   1.000  C
  C933     1.0000 0.02778  0.74523  0.26380  Biso   1.000  C
  C934     1.0000 0.78640  0.00060  0.29215  Biso   1.000  C
  C935     1.0000 0.76362  0.72314  0.04561  Biso   1.000  C
  C936     1.0000 0.52139  0.76468  0.29169  Biso   1.000  C
  C937     1.0000 0.74583  0.24871  0.05247  Biso   1.000  C
  C938     1.0000 0.02598  0.72187  0.28656  Biso   1.000  C
  C939     1.0000 0.26087  0.98972  0.76632  Biso   1.000  C
  C940     1.0000 0.24009  0.24368  0.54755  Biso   1.000  C
  C941     1.0000 0.51621  0.74062  0.27175  Biso   1.000  C
  C942     1.0000 0.76344  0.98033  0.81203  Biso   1.000  C
  C943     1.0000 0.78532  0.74502  0.04676  Biso   1.000  C
  C944     1.0000 0.51249  0.23975  0.30303  Biso   1.000  C
  C945     1.0000 0.26271  0.47542  0.76362  Biso   1.000  C
  C946     1.0000 0.28014  0.74936  0.51342  Biso   1.000  C
  C947     1.0000 0.98850  0.22619  0.28081  Biso   1.000  C
  C948     1.0000 0.76054  0.49810  0.81058  Biso   1.000  C
  C949     1.0000 0.28643  0.73643  0.05548  Biso   1.000  C
  C950     1.0000 0.99092  0.25755  0.78161  Biso   1.000  C
  C951     1.0000 0.76459  0.99962  0.31493  Biso   1.000  C
  C952     1.0000 0.78452  0.74536  0.53071  Biso   1.000  C
  C953     1.0000 0.52706  0.24241  0.81006  Biso   1.000  C
  C954     1.0000 0.25904  0.00373  0.26526  Biso   1.000  C
  C955     1.0000 0.24323  0.24116  0.00431  Biso   1.000  C
  C956     1.0000 0.51606  0.74291  0.77175  Biso   1.000  C
  C957     1.0000 0.76150  0.49331  0.31942  Biso   1.000  C
  C958     1.0000 0.73724  0.25123  0.54920  Biso   1.000  C
  C959     1.0000 0.00553  0.75805  0.78621  Biso   1.000  C
  C960     1.0000 0.26602  0.48560  0.26390  Biso   1.000  C
  Cu1      1.0000 0.02132  0.49048  0.69043  Biso   1.000  Cu
  Cu2      1.0000 0.66542  0.00720  0.54858  Biso   1.000  Cu
  Cu3      1.0000 0.52544  0.64458  0.03495  Biso   1.000  Cu
  Cu4      1.0000 0.52227  0.48229  0.88739  Biso   1.000  Cu
  Cu5      1.0000 0.16234  0.99741  0.03211  Biso   1.000  Cu
  Cu6      1.0000 0.02230  0.64663  0.52886  Biso   1.000  Cu
  Cu7      1.0000 0.50201  0.98884  0.69371  Biso   1.000  Cu
  Cu8      1.0000 0.86500  0.50151  0.55049  Biso   1.000  Cu
  Cu9      1.0000 0.00946  0.14590  0.04274  Biso   1.000  Cu
  Cu10     1.0000 0.00700  0.99333  0.88178  Biso   1.000  Cu
  Cu11     1.0000 0.35996  0.49655  0.02657  Biso   1.000  Cu
  Cu12     1.0000 0.50752  0.15067  0.54411  Biso   1.000  Cu
  Cu13     1.0000 0.01031  0.48441  0.37771  Biso   1.000  Cu
  Cu14     1.0000 0.36290  0.98873  0.52844  Biso   1.000  Cu
  Cu15     1.0000 0.50387  0.34077  0.04200  Biso   1.000  Cu
  Cu16     1.0000 0.50794  0.50343  0.18898  Biso   1.000  Cu
  Cu17     1.0000 0.86692  0.98946  0.04772  Biso   1.000  Cu
  Cu18     1.0000 0.99986  0.33728  0.54215  Biso   1.000  Cu
  Cu19     1.0000 0.52441  0.00316  0.38547  Biso   1.000  Cu
  Cu20     1.0000 0.16602  0.48659  0.52909  Biso   1.000  Cu
  Cu21     1.0000 0.02394  0.83483  0.02950  Biso   1.000  Cu
  Cu22     1.0000 0.01766  0.98764  0.19229  Biso   1.000  Cu
  Cu23     1.0000 0.66997  0.48467  0.04966  Biso   1.000  Cu
  Cu24     1.0000 0.51906  0.83906  0.53082  Biso   1.000  Cu
  Cu25     1.0000 0.21655  0.00179  0.02932  Biso   1.000  Cu
  Cu26     1.0000 0.00475  0.20326  0.04170  Biso   1.000  Cu
  Cu27     1.0000 0.02531  0.98621  0.24421  Biso   1.000  Cu
  Cu28     1.0000 0.71764  0.00626  0.55508  Biso   1.000  Cu
  Cu29     1.0000 0.50293  0.20508  0.54391  Biso   1.000  Cu
  Cu30     1.0000 0.52790  0.00510  0.33141  Biso   1.000  Cu
  Cu31     1.0000 0.30734  0.50121  0.02528  Biso   1.000  Cu
  Cu32     1.0000 0.52377  0.70015  0.03183  Biso   1.000  Cu
  Cu33     1.0000 0.50667  0.50421  0.24316  Biso   1.000  Cu
  Cu34     1.0000 0.80945  0.50796  0.55103  Biso   1.000  Cu
  Cu35     1.0000 0.02538  0.70004  0.52676  Biso   1.000  Cu
  Cu36     1.0000 0.00483  0.48515  0.32468  Biso   1.000  Cu
  Cu37     1.0000 0.81186  0.98544  0.04926  Biso   1.000  Cu
  Cu38     1.0000 0.02651  0.77896  0.02667  Biso   1.000  Cu
  Cu39     1.0000 0.00030  0.99463  0.82742  Biso   1.000  Cu
  Cu40     1.0000 0.30844  0.98570  0.52562  Biso   1.000  Cu
  Cu41     1.0000 0.52407  0.78400  0.53025  Biso   1.000  Cu
  Cu42     1.0000 0.50070  0.98436  0.74690  Biso   1.000  Cu
  Cu43     1.0000 0.72249  0.48560  0.04782  Biso   1.000  Cu
  Cu44     1.0000 0.50610  0.28601  0.04543  Biso   1.000  Cu
  Cu45     1.0000 0.52384  0.48299  0.83223  Biso   1.000  Cu
  Cu46     1.0000 0.22034  0.48314  0.52907  Biso   1.000  Cu
  Cu47     1.0000 0.00032  0.28316  0.54158  Biso   1.000  Cu
  Cu48     1.0000 0.02267  0.49460  0.74490  Biso   1.000  Cu
  H1       1.0000 0.31117  0.71820  0.53178  Biso   1.000  H
  H2       1.0000 0.55720  0.26920  0.78498  Biso   1.000  H
  H3       1.0000 0.73681  0.52313  0.34304  Biso   1.000  H
  H4       1.0000 0.75798  0.77907  0.02554  Biso   1.000  H
  H5       1.0000 0.95222  0.23986  0.76159  Biso   1.000  H
  H6       1.0000 0.28895  0.45080  0.28617  Biso   1.000  H
  H7       1.0000 0.26464  0.27275  0.57461  Biso   1.000  H
  H8       1.0000 0.97824  0.73370  0.81422  Biso   1.000  H
  H9       1.0000 0.78441  0.03342  0.33782  Biso   1.000  H
  H10      1.0000 0.71563  0.22102  0.07795  Biso   1.000  H
  H11      1.0000 0.49183  0.71730  0.74097  Biso   1.000  H
  H12      1.0000 0.27439  0.03956  0.23910  Biso   1.000  H
  H13      1.0000 0.70863  0.26854  0.51519  Biso   1.000  H
  H14      1.0000 0.54480  0.70934  0.29279  Biso   1.000  H
  H15      1.0000 0.28408  0.51039  0.73976  Biso   1.000  H
  H16      1.0000 0.27422  0.20589  0.01823  Biso   1.000  H
  H17      1.0000 0.99564  0.74568  0.31159  Biso   1.000  H
  H18      1.0000 0.78494  0.52203  0.83966  Biso   1.000  H
  H19      1.0000 0.81424  0.76744  0.50248  Biso   1.000  H
  H20      1.0000 0.00726  0.25495  0.24846  Biso   1.000  H
  H21      1.0000 0.24413  0.95129  0.74127  Biso   1.000  H
  H22      1.0000 0.26600  0.70995  0.08814  Biso   1.000  H
  H23      1.0000 0.53273  0.26825  0.33370  Biso   1.000  H
  H24      1.0000 0.79298  0.95411  0.78713  Biso   1.000  H
  H25      1.0000 0.26691  0.01471  0.82046  Biso   1.000  H
  H26      1.0000 0.74037  0.20047  0.02660  Biso   1.000  H
  H27      1.0000 0.06120  0.72416  0.23281  Biso   1.000  H
  H28      1.0000 0.76738  0.96319  0.75491  Biso   1.000  H
  H29      1.0000 0.24446  0.20654  0.50993  Biso   1.000  H
  H30      1.0000 0.48898  0.79208  0.26955  Biso   1.000  H
  H31      1.0000 0.25519  0.44953  0.81590  Biso   1.000  H
  H32      1.0000 0.78325  0.69669  0.08122  Biso   1.000  H
  H33      1.0000 0.49144  0.29734  0.30952  Biso   1.000  H
  H34      1.0000 0.76029  0.53080  0.76511  Biso   1.000  H
  H35      1.0000 0.22929  0.74448  0.47874  Biso   1.000  H
  H36      1.0000 0.95405  0.22760  0.32976  Biso   1.000  H
  H37      1.0000 0.75856  0.97451  0.26143  Biso   1.000  H
  H38      1.0000 0.28909  0.79050  0.02917  Biso   1.000  H
  H39      1.0000 0.02073  0.25762  0.83080  Biso   1.000  H
  H40      1.0000 0.31313  0.98308  0.25913  Biso   1.000  H
  H41      1.0000 0.72969  0.74304  0.55709  Biso   1.000  H
  H42      1.0000 0.49870  0.25628  0.76348  Biso   1.000  H
  H43      1.0000 0.70590  0.47413  0.31598  Biso   1.000  H
  H44      1.0000 0.23989  0.29570  0.02404  Biso   1.000  H
  H45      1.0000 0.53758  0.68634  0.76926  Biso   1.000  H
  H46      1.0000 0.27187  0.46822  0.32041  Biso   1.000  H
  H47      1.0000 0.73692  0.30617  0.57380  Biso   1.000  H
  H48      1.0000 0.03478  0.71038  0.78956  Biso   1.000  H
  H49      1.0000 0.21072  0.50647  0.25845  Biso   1.000  H
  H50      1.0000 0.29092  0.23739  0.58359  Biso   1.000  H
  H51      1.0000 0.53348  0.23488  0.25272  Biso   1.000  H
  H52      1.0000 0.77255  0.51994  0.26808  Biso   1.000  H
  H53      1.0000 0.80210  0.25293  0.06885  Biso   1.000  H
  H54      1.0000 0.02647  0.26949  0.28321  Biso   1.000  H
  H55      1.0000 0.25435  0.02989  0.31576  Biso   1.000  H
  H56      1.0000 0.27650  0.70777  0.55087  Biso   1.000  H
  H57      1.0000 0.98748  0.76825  0.28226  Biso   1.000  H
  H58      1.0000 0.81645  0.03287  0.31426  Biso   1.000  H
  H59      1.0000 0.73763  0.74310  0.01029  Biso   1.000  H
  H60      1.0000 0.55103  0.73994  0.31932  Biso   1.000  H
  H61      1.0000 0.81480  0.46665  0.81264  Biso   1.000  H
  H62      1.0000 0.78109  0.79735  0.50111  Biso   1.000  H
  H63      1.0000 0.49214  0.74869  0.82217  Biso   1.000  H
  H64      1.0000 0.31737  0.49888  0.76843  Biso   1.000  H
  H65      1.0000 0.23328  0.73501  0.08088  Biso   1.000  H
  H66      1.0000 0.97801  0.75583  0.72916  Biso   1.000  H
  H67      1.0000 0.70909  0.99745  0.81893  Biso   1.000  H
  H68      1.0000 0.77837  0.25168  0.50970  Biso   1.000  H
  H69      1.0000 0.96375  0.20328  0.78174  Biso   1.000  H
  H70      1.0000 0.20863  0.96659  0.76628  Biso   1.000  H
  H71      1.0000 0.29517  0.23499  0.97983  Biso   1.000  H
  H72      1.0000 0.54787  0.18710  0.80894  Biso   1.000  H
  H73      1.0000 0.73045  0.47427  0.78254  Biso   1.000  H
  H74      1.0000 0.76510  0.71793  0.56135  Biso   1.000  H
  H75      1.0000 0.53401  0.78042  0.79943  Biso   1.000  H
  H76      1.0000 0.23766  0.43836  0.77932  Biso   1.000  H
  H77      1.0000 0.31156  0.75993  0.02415  Biso   1.000  H
  H78      1.0000 0.03294  0.78655  0.76012  Biso   1.000  H
  H79      1.0000 0.74011  0.00705  0.84447  Biso   1.000  H
  H80      1.0000 0.76360  0.23406  0.58256  Biso   1.000  H
  H81      1.0000 0.03371  0.27580  0.79436  Biso   1.000  H
  H82      1.0000 0.28498  0.02570  0.78392  Biso   1.000  H
  H83      1.0000 0.20777  0.27043  0.99376  Biso   1.000  H
  H84      1.0000 0.49805  0.21988  0.83680  Biso   1.000  H
  H85      1.0000 0.24487  0.51633  0.23358  Biso   1.000  H
  H86      1.0000 0.20619  0.21620  0.52645  Biso   1.000  H
  H87      1.0000 0.49321  0.20741  0.27147  Biso   1.000  H
  H88      1.0000 0.79096  0.46990  0.29323  Biso   1.000  H
  H89      1.0000 0.77111  0.27717  0.02574  Biso   1.000  H
  H90      1.0000 0.96842  0.19118  0.30667  Biso   1.000  H
  H91      1.0000 0.23845  0.96847  0.28855  Biso   1.000  H
  H92      1.0000 0.25729  0.78634  0.49453  Biso   1.000  H
  H93      1.0000 0.05543  0.69535  0.26438  Biso   1.000  H
  H94      1.0000 0.73621  0.96620  0.29462  Biso   1.000  H
  H95      1.0000 0.81706  0.72213  0.07577  Biso   1.000  H
  H96      1.0000 0.49360  0.77037  0.24028  Biso   1.000  H
  H97      1.0000 0.87750  0.98404  0.95215  Biso   1.000  H
  H98      1.0000 0.93183  0.85307  0.03823  Biso   1.000  H
  H99      1.0000 0.03619  0.90002  0.89311  Biso   1.000  H
  H100     1.0000 0.37451  0.99098  0.62102  Biso   1.000  H
  H101     1.0000 0.42875  0.85809  0.51712  Biso   1.000  H
  H102     1.0000 0.49789  0.89683  0.66994  Biso   1.000  H
  H103     1.0000 0.65036  0.49185  0.95793  Biso   1.000  H
  H104     1.0000 0.59932  0.35702  0.06628  Biso   1.000  H
  H105     1.0000 0.52708  0.39465  0.90893  Biso   1.000  H
  H106     1.0000 0.14792  0.48579  0.62245  Biso   1.000  H
  H107     1.0000 0.09323  0.35426  0.53147  Biso   1.000  H
  H108     1.0000 0.01182  0.39964  0.67536  Biso   1.000  H
  H109     1.0000 0.14872  0.01016  0.12076  Biso   1.000  H
  H110     1.0000 0.10107  0.13332  0.03802  Biso   1.000  H
  H111     1.0000 0.01004  0.08053  0.17316  Biso   1.000  H
  H112     1.0000 0.65205  0.01057  0.45801  Biso   1.000  H
  H113     1.0000 0.60222  0.13657  0.55629  Biso   1.000  H
  H114     1.0000 0.51886  0.09122  0.40835  Biso   1.000  H
  H115     1.0000 0.37878  0.48573  0.12291  Biso   1.000  H
  H116     1.0000 0.42906  0.62394  0.02844  Biso   1.000  H
  H117     1.0000 0.51102  0.59203  0.17089  Biso   1.000  H
  H118     1.0000 0.88263  0.50689  0.45221  Biso   1.000  H
  H119     1.0000 0.93106  0.63289  0.52864  Biso   1.000  H
  H120     1.0000 0.03170  0.57516  0.39836  Biso   1.000  H
  H121     1.0000 0.09199  0.99333  0.89718  Biso   1.000  H
  H122     1.0000 0.87773  0.07981  0.04497  Biso   1.000  H
  H123     1.0000 0.03333  0.85709  0.12245  Biso   1.000  H
  H124     1.0000 0.59413  0.99555  0.68003  Biso   1.000  H
  H125     1.0000 0.37587  0.07839  0.53409  Biso   1.000  H
  H126     1.0000 0.53738  0.86512  0.43898  Biso   1.000  H
  H127     1.0000 0.42967  0.48275  0.90176  Biso   1.000  H
  H128     1.0000 0.65240  0.58065  0.04219  Biso   1.000  H
  H129     1.0000 0.50560  0.36714  0.12910  Biso   1.000  H
  H130     1.0000 0.93068  0.50042  0.67866  Biso   1.000  H
  H131     1.0000 0.15079  0.57875  0.52648  Biso   1.000  H
  H132     1.0000 0.00049  0.35818  0.44500  Biso   1.000  H
  H133     1.0000 0.92873  0.99150  0.18076  Biso   1.000  H
  H134     1.0000 0.15350  0.90602  0.03854  Biso   1.000  H
  H135     1.0000 0.00524  0.12107  0.94751  Biso   1.000  H
  H136     1.0000 0.42764  0.99970  0.39983  Biso   1.000  H
  H137     1.0000 0.64681  0.91385  0.54257  Biso   1.000  H
  H138     1.0000 0.49711  0.12855  0.63170  Biso   1.000  H
  H139     1.0000 0.60494  0.50772  0.17451  Biso   1.000  H
  H140     1.0000 0.37769  0.40253  0.03397  Biso   1.000  H
  H141     1.0000 0.51596  0.61714  0.94538  Biso   1.000  H
  H142     1.0000 0.09696  0.48027  0.39792  Biso   1.000  H
  H143     1.0000 0.87596  0.40832  0.55121  Biso   1.000  H
  H144     1.0000 0.02452  0.62671  0.62077  Biso   1.000  H
  H145     1.0000 0.60980  0.48001  0.91005  Biso   1.000  H
  H146     1.0000 0.88625  0.59060  0.54323  Biso   1.000  H
  H147     1.0000 0.50064  0.85903  0.62499  Biso   1.000  H
  H148     1.0000 0.10772  0.49414  0.66697  Biso   1.000  H
  H149     1.0000 0.38347  0.58344  0.03188  Biso   1.000  H
  H150     1.0000 0.03176  0.85564  0.93595  Biso   1.000  H
  H151     1.0000 0.91506  0.98814  0.91047  Biso   1.000  H
  H152     1.0000 0.64439  0.09588  0.55658  Biso   1.000  H
  H153     1.0000 0.00339  0.35637  0.63343  Biso   1.000  H
  H154     1.0000 0.41331  0.99482  0.66720  Biso   1.000  H
  H155     1.0000 0.13673  0.09273  0.02359  Biso   1.000  H
  H156     1.0000 0.52092  0.35643  0.95149  Biso   1.000  H
  H157     1.0000 0.41721  0.48941  0.16044  Biso   1.000  H
  H158     1.0000 0.13774  0.39494  0.52235  Biso   1.000  H
  H159     1.0000 0.50925  0.13390  0.45205  Biso   1.000  H
  H160     1.0000 0.92077  0.49820  0.40740  Biso   1.000  H
  H161     1.0000 0.64340  0.39951  0.05977  Biso   1.000  H
  H162     1.0000 0.00741  0.12475  0.12974  Biso   1.000  H
  H163     1.0000 0.10776  0.99373  0.16527  Biso   1.000  H
  H164     1.0000 0.38689  0.89640  0.52622  Biso   1.000  H
  H165     1.0000 0.02745  0.62334  0.43980  Biso   1.000  H
  H166     1.0000 0.61439  0.00542  0.41234  Biso   1.000  H
  H167     1.0000 0.89198  0.89126  0.04431  Biso   1.000  H
  H168     1.0000 0.52113  0.63276  0.12747  Biso   1.000  H
  H169     1.0000 0.00444  0.08109  0.90436  Biso   1.000  H
  H170     1.0000 0.88575  0.99064  0.13796  Biso   1.000  H
  H171     1.0000 0.11004  0.85878  0.03704  Biso   1.000  H
  H172     1.0000 0.50771  0.08073  0.67787  Biso   1.000  H
  H173     1.0000 0.38655  0.99656  0.43900  Biso   1.000  H
  H174     1.0000 0.61012  0.86634  0.54857  Biso   1.000  H
  H175     1.0000 0.51326  0.57440  0.90658  Biso   1.000  H
  H176     1.0000 0.64686  0.49142  0.13441  Biso   1.000  H
  H177     1.0000 0.41557  0.36354  0.03138  Biso   1.000  H
  H178     1.0000 0.02896  0.58439  0.66306  Biso   1.000  H
  H179     1.0000 0.14188  0.48061  0.43795  Biso   1.000  H
  H180     1.0000 0.91359  0.36555  0.54616  Biso   1.000  H
  H181     1.0000 0.02724  0.89829  0.16750  Biso   1.000  H
  H182     1.0000 0.13672  0.99196  0.93933  Biso   1.000  H
  H183     1.0000 0.91760  0.12360  0.04145  Biso   1.000  H
  H184     1.0000 0.52559  0.90852  0.40198  Biso   1.000  H
  H185     1.0000 0.63517  0.00115  0.64179  Biso   1.000  H
  H186     1.0000 0.41792  0.12677  0.54539  Biso   1.000  H
  H187     1.0000 0.50818  0.41010  0.16980  Biso   1.000  H
  H188     1.0000 0.38465  0.49408  0.93936  Biso   1.000  H
  H189     1.0000 0.61307  0.62614  0.03105  Biso   1.000  H
  H190     1.0000 0.00133  0.39704  0.40253  Biso   1.000  H
  H191     1.0000 0.88453  0.49715  0.63793  Biso   1.000  H
  H192     1.0000 0.11657  0.61890  0.52630  Biso   1.000  H
  H193     1.0000 0.28972  0.84191  0.52150  Biso   1.000  H
  H194     1.0000 0.53255  0.25659  0.90699  Biso   1.000  H
  H195     1.0000 0.85737  0.50135  0.31923  Biso   1.000  H
  H196     1.0000 0.79458  0.84344  0.05671  Biso   1.000  H
  H197     1.0000 0.98569  0.26374  0.68940  Biso   1.000  H
  H198     1.0000 0.36578  0.48333  0.25960  Biso   1.000  H
  H199     1.0000 0.23121  0.33757  0.53047  Biso   1.000  H
  H200     1.0000 0.01673  0.76225  0.88109  Biso   1.000  H
  H201     1.0000 0.67354  0.00938  0.32007  Biso   1.000  H
  H202     1.0000 0.73572  0.33896  0.06713  Biso   1.000  H
  H203     1.0000 0.51015  0.76033  0.67075  Biso   1.000  H
  H204     1.0000 0.16506  0.98198  0.25990  Biso   1.000  H
  H205     1.0000 0.73665  0.15832  0.54634  Biso   1.000  H
  H206     1.0000 0.51580  0.73340  0.17378  Biso   1.000  H
  H207     1.0000 0.16595  0.48139  0.75914  Biso   1.000  H
  H208     1.0000 0.23096  0.14212  0.00127  Biso   1.000  H
  H209     1.0000 0.02866  0.71543  0.38379  Biso   1.000  H
  H210     1.0000 0.66717  0.49864  0.81907  Biso   1.000  H
  H211     1.0000 0.79505  0.64748  0.52246  Biso   1.000  H
  H212     1.0000 0.99215  0.21724  0.18604  Biso   1.000  H
  H213     1.0000 0.35278  0.99035  0.76025  Biso   1.000  H
  H214     1.0000 0.29515  0.64693  0.05028  Biso   1.000  H
  H215     1.0000 0.49315  0.23005  0.39411  Biso   1.000  H
  H216     1.0000 0.85334  0.99064  0.81646  Biso   1.000  H
  H217     1.0000 0.23445  0.49893  0.38446  Biso   1.000  H
  H218     1.0000 0.35913  0.21771  0.54670  Biso   1.000  H
  H219     1.0000 0.52104  0.36608  0.27033  Biso   1.000  H
  H220     1.0000 0.73728  0.49165  0.20158  Biso   1.000  H
  H221     1.0000 0.86072  0.22106  0.02723  Biso   1.000  H
  H222     1.0000 0.98380  0.33879  0.31056  Biso   1.000  H
  H223     1.0000 0.29340  0.98853  0.38405  Biso   1.000  H
  H224     1.0000 0.16848  0.71672  0.51456  Biso   1.000  H
  H225     1.0000 0.02980  0.83845  0.25922  Biso   1.000  H
  H226     1.0000 0.79334  0.00765  0.19296  Biso   1.000  H
  H227     1.0000 0.66785  0.71621  0.04582  Biso   1.000  H
  H228     1.0000 0.50252  0.86352  0.30406  Biso   1.000  H
  H229     1.0000 0.79225  0.49292  0.70109  Biso   1.000  H
  H230     1.0000 0.66964  0.77487  0.52719  Biso   1.000  H
  H231     1.0000 0.49281  0.62456  0.80833  Biso   1.000  H
  H232     1.0000 0.28774  0.47976  0.88087  Biso   1.000  H
  H233     1.0000 0.17002  0.76528  0.03870  Biso   1.000  H
  H234     1.0000 0.00948  0.63818  0.75885  Biso   1.000  H
  H235     1.0000 0.73043  0.00648  0.69695  Biso   1.000  H
  H236     1.0000 0.85064  0.27422  0.54215  Biso   1.000  H
  H237     1.0000 0.99284  0.14538  0.81316  Biso   1.000  H
  H238     1.0000 0.23135  0.98536  0.88471  Biso   1.000  H
  H239     1.0000 0.36281  0.26494  0.01688  Biso   1.000  H
  H240     1.0000 0.50314  0.13416  0.77266  Biso   1.000  H
  H241     1.0000 0.75168  0.49089  0.90842  Biso   1.000  H
  H242     1.0000 0.88487  0.73332  0.52805  Biso   1.000  H
  H243     1.0000 0.48916  0.83932  0.76268  Biso   1.000  H
  H244     1.0000 0.24749  0.48429  0.66802  Biso   1.000  H
  H245     1.0000 0.38626  0.72560  0.05409  Biso   1.000  H
  H246     1.0000 0.00464  0.85185  0.79845  Biso   1.000  H
  H247     1.0000 0.77754  0.97923  0.90841  Biso   1.000  H
  H248     1.0000 0.64403  0.23787  0.56153  Biso   1.000  H
  H249     1.0000 0.99164  0.35215  0.77120  Biso   1.000  H
  H250     1.0000 0.27363  0.97929  0.66653  Biso   1.000  H
  H251     1.0000 0.15449  0.22958  0.03717  Biso   1.000  H
  H252     1.0000 0.52844  0.33761  0.81682  Biso   1.000  H
  H253     1.0000 0.27949  0.48448  0.16529  Biso   1.000  H
  H254     1.0000 0.14356  0.25621  0.55060  Biso   1.000  H
  H255     1.0000 0.52649  0.14933  0.31255  Biso   1.000  H
  H256     1.0000 0.78106  0.49628  0.41281  Biso   1.000  H
  H257     1.0000 0.65029  0.26276  0.04391  Biso   1.000  H
  H258     1.0000 0.00635  0.12922  0.27227  Biso   1.000  H
  H259     1.0000 0.25012  0.00242  0.16809  Biso   1.000  H
  H260     1.0000 0.37917  0.75878  0.51084  Biso   1.000  H
  H261     1.0000 0.01622  0.62756  0.30258  Biso   1.000  H
  H262     1.0000 0.75339  0.01537  0.41413  Biso   1.000  H
  H263     1.0000 0.88684  0.75376  0.04032  Biso   1.000  H
  H264     1.0000 0.49143  0.65244  0.26123  Biso   1.000  H
  H265     1.0000 0.99427  0.22245  0.89868  Biso   1.000  H
  H266     1.0000 0.88212  0.99866  0.28012  Biso   1.000  H
  H267     1.0000 0.24969  0.85446  0.05858  Biso   1.000  H
  H268     1.0000 0.51857  0.21939  0.69147  Biso   1.000  H
  H269     1.0000 0.38021  0.00477  0.29917  Biso   1.000  H
  H270     1.0000 0.74608  0.86873  0.52884  Biso   1.000  H
  H271     1.0000 0.51357  0.71229  0.88800  Biso   1.000  H
  H272     1.0000 0.65203  0.51851  0.27452  Biso   1.000  H
  H273     1.0000 0.27961  0.35940  0.00559  Biso   1.000  H
  H274     1.0000 0.02196  0.72531  0.67302  Biso   1.000  H
  H275     1.0000 0.14804  0.47776  0.29923  Biso   1.000  H
  H276     1.0000 0.77486  0.36906  0.54566  Biso   1.000  H
  H277     1.0000 0.03364  0.75904  0.17079  Biso   1.000  H
  H278     1.0000 0.14599  0.00281  0.80292  Biso   1.000  H
  H279     1.0000 0.77887  0.13045  0.04797  Biso   1.000  H
  H280     1.0000 0.52587  0.76934  0.38638  Biso   1.000  H
  H281     1.0000 0.64144  0.97606  0.78011  Biso   1.000  H
  H282     1.0000 0.27877  0.12979  0.52764  Biso   1.000  H
  H283     1.0000 0.50607  0.27380  0.18965  Biso   1.000  H
  H284     1.0000 0.37978  0.45648  0.80720  Biso   1.000  H
  H285     1.0000 0.75158  0.62785  0.04510  Biso   1.000  H
  H286     1.0000 0.98428  0.26053  0.40041  Biso   1.000  H
  H287     1.0000 0.87969  0.50416  0.77673  Biso   1.000  H
  H288     1.0000 0.25051  0.62663  0.52148  Biso   1.000  H
  H289     1.0000 0.09641  0.22695  0.04639  Biso   1.000  H
  H290     1.0000 0.01201  0.07367  0.26896  Biso   1.000  H
  H291     1.0000 0.24288  0.00842  0.11398  Biso   1.000  H
  H292     1.0000 0.59338  0.23202  0.55521  Biso   1.000  H
  H293     1.0000 0.53437  0.09522  0.31359  Biso   1.000  H
  H294     1.0000 0.74676  0.01388  0.46691  Biso   1.000  H
  H295     1.0000 0.44093  0.71613  0.04841  Biso   1.000  H
  H296     1.0000 0.48875  0.60104  0.26361  Biso   1.000  H
  H297     1.0000 0.28306  0.49275  0.11623  Biso   1.000  H
  H298     1.0000 0.93527  0.72709  0.52537  Biso   1.000  H
  H299     1.0000 0.01882  0.57426  0.30279  Biso   1.000  H
  H300     1.0000 0.79018  0.48755  0.46498  Biso   1.000  H
  H301     1.0000 0.93251  0.75679  0.02117  Biso   1.000  H
  H302     1.0000 0.00619  0.90683  0.80184  Biso   1.000  H
  H303     1.0000 0.78108  0.97964  0.96074  Biso   1.000  H
  H304     1.0000 0.43507  0.75894  0.51374  Biso   1.000  H
  H305     1.0000 0.48387  0.89457  0.76344  Biso   1.000  H
  H306     1.0000 0.27837  0.98276  0.61547  Biso   1.000  H
  H307     1.0000 0.59736  0.26040  0.05298  Biso   1.000  H
  H308     1.0000 0.53009  0.38943  0.81486  Biso   1.000  H
  H309     1.0000 0.74617  0.48606  0.96461  Biso   1.000  H
  H310     1.0000 0.08730  0.26020  0.54894  Biso   1.000  H
  H311     1.0000 0.00148  0.40817  0.77181  Biso   1.000  H
  H312     1.0000 0.24070  0.48665  0.61610  Biso   1.000  H
  H313     1.0000 0.23246  0.98232  0.94108  Biso   1.000  H
  H314     1.0000 0.91710  0.21991  0.03105  Biso   1.000  H
  H315     1.0000 0.02631  0.89435  0.26102  Biso   1.000  H
  H316     1.0000 0.73138  0.01508  0.64736  Biso   1.000  H
  H317     1.0000 0.41448  0.21982  0.54910  Biso   1.000  H
  H318     1.0000 0.50852  0.91726  0.30693  Biso   1.000  H
  H319     1.0000 0.28762  0.49555  0.93509  Biso   1.000  H
  H320     1.0000 0.61312  0.71963  0.03825  Biso   1.000  H
  H321     1.0000 0.51075  0.41823  0.26452  Biso   1.000  H
  H322     1.0000 0.78608  0.49830  0.64387  Biso   1.000  H
  H323     1.0000 0.11163  0.71665  0.51622  Biso   1.000  H
  H324     1.0000 0.98947  0.39291  0.30550  Biso   1.000  H
  H325     1.0000 0.78960  0.00461  0.13731  Biso   1.000  H
  H326     1.0000 0.12001  0.76425  0.02300  Biso   1.000  H
  H327     1.0000 0.99099  0.08927  0.80871  Biso   1.000  H
  H328     1.0000 0.29190  0.98183  0.43809  Biso   1.000  H
  H329     1.0000 0.61566  0.77357  0.52630  Biso   1.000  H
  H330     1.0000 0.49456  0.07880  0.77067  Biso   1.000  H
  H331     1.0000 0.74162  0.48815  0.14567  Biso   1.000  H
  H332     1.0000 0.41616  0.26597  0.02997  Biso   1.000  H
  H333     1.0000 0.49509  0.57011  0.81160  Biso   1.000  H
  H334     1.0000 0.23538  0.49748  0.43978  Biso   1.000  H
  H335     1.0000 0.90528  0.26943  0.54186  Biso   1.000  H
  H336     1.0000 0.00433  0.58107  0.75558  Biso   1.000  H
  H337     1.0000 0.99712  0.22034  0.95339  Biso   1.000  H
  H338     1.0000 0.93689  0.99596  0.27420  Biso   1.000  H
  H339     1.0000 0.24543  0.90985  0.05565  Biso   1.000  H
  H340     1.0000 0.51379  0.22425  0.63754  Biso   1.000  H
  H341     1.0000 0.43697  0.01171  0.30491  Biso   1.000  H
  H342     1.0000 0.74351  0.92059  0.53599  Biso   1.000  H
  H343     1.0000 0.52366  0.71223  0.94067  Biso   1.000  H
  H344     1.0000 0.59536  0.52116  0.26728  Biso   1.000  H
  H345     1.0000 0.28515  0.41458  0.00759  Biso   1.000  H
  H346     1.0000 0.02582  0.72031  0.61639  Biso   1.000  H
  H347     1.0000 0.09522  0.47790  0.30112  Biso   1.000  H
  H348     1.0000 0.77892  0.42189  0.55158  Biso   1.000  H
  H349     1.0000 0.03597  0.75869  0.11768  Biso   1.000  H
  H350     1.0000 0.09269  0.00958  0.80526  Biso   1.000  H
  H351     1.0000 0.78388  0.07732  0.05375  Biso   1.000  H
  H352     1.0000 0.52992  0.76872  0.43879  Biso   1.000  H
  H353     1.0000 0.58643  0.97292  0.77283  Biso   1.000  H
  H354     1.0000 0.28546  0.07455  0.52415  Biso   1.000  H
  H355     1.0000 0.49518  0.27247  0.13469  Biso   1.000  H
  H356     1.0000 0.43635  0.46031  0.80944  Biso   1.000  H
  H357     1.0000 0.74794  0.57329  0.04997  Biso   1.000  H
  H358     1.0000 0.98576  0.26172  0.45386  Biso   1.000  H
  H359     1.0000 0.93451  0.49963  0.77424  Biso   1.000  H
  H360     1.0000 0.24766  0.57271  0.52650  Biso   1.000  H
  H361     1.0000 0.03801  0.71347  0.43479  Biso   1.000  H
  H362     1.0000 0.40536  0.98993  0.76509  Biso   1.000  H
  H363     1.0000 0.73846  0.39407  0.06153  Biso   1.000  H
  H364     1.0000 0.52477  0.73064  0.12252  Biso   1.000  H
  H365     1.0000 0.90699  0.99241  0.81404  Biso   1.000  H
  H366     1.0000 0.23156  0.39295  0.52385  Biso   1.000  H
  H367     1.0000 0.48451  0.22771  0.45044  Biso   1.000  H
  H368     1.0000 0.11238  0.49014  0.76198  Biso   1.000  H
  H369     1.0000 0.80048  0.89779  0.06415  Biso   1.000  H
  H370     1.0000 0.98482  0.21514  0.13089  Biso   1.000  H
  H371     1.0000 0.61625  0.49816  0.81696  Biso   1.000  H
  H372     1.0000 0.29314  0.89685  0.53099  Biso   1.000  H
  H373     1.0000 0.98522  0.26450  0.63373  Biso   1.000  H
  H374     1.0000 0.61735  0.01236  0.31454  Biso   1.000  H
  H375     1.0000 0.29206  0.59003  0.04903  Biso   1.000  H
  H376     1.0000 0.52562  0.25831  0.95954  Biso   1.000  H
  H377     1.0000 0.11184  0.97446  0.25729  Biso   1.000  H
  H378     1.0000 0.79313  0.59531  0.53103  Biso   1.000  H
  H379     1.0000 0.52089  0.76466  0.62185  Biso   1.000  H
  H380     1.0000 0.91150  0.50013  0.31330  Biso   1.000  H
  H381     1.0000 0.22898  0.08662  0.00526  Biso   1.000  H
  H382     1.0000 0.02289  0.75995  0.93399  Biso   1.000  H
  H383     1.0000 0.41729  0.48621  0.26104  Biso   1.000  H
  H384     1.0000 0.74155  0.10147  0.54661  Biso   1.000  H
  H385     1.0000 0.23608  0.46646  0.35637  Biso   1.000  H
  H386     1.0000 0.28452  0.16841  0.50233  Biso   1.000  H
  H387     1.0000 0.49218  0.33497  0.26948  Biso   1.000  H
  H388     1.0000 0.67383  0.47619  0.27481  Biso   1.000  H
  H389     1.0000 0.77423  0.16148  0.01955  Biso   1.000  H
  H390     1.0000 0.95808  0.26051  0.36726  Biso   1.000  H
  H391     1.0000 0.34772  0.97417  0.29819  Biso   1.000  H
  H392     1.0000 0.20196  0.70238  0.47534  Biso   1.000  H
  H393     1.0000 0.06299  0.76499  0.20229  Biso   1.000  H
  H394     1.0000 0.79946  0.97275  0.22657  Biso   1.000  H
  H395     1.0000 0.74297  0.66361  0.08170  Biso   1.000  H
  H396     1.0000 0.48244  0.82476  0.31025  Biso   1.000  H
  H397     1.0000 0.79614  0.52963  0.72369  Biso   1.000  H
  H398     1.0000 0.69453  0.78095  0.56061  Biso   1.000  H
  H399     1.0000 0.53422  0.64860  0.80724  Biso   1.000  H
  H400     1.0000 0.29071  0.44089  0.85364  Biso   1.000  H
  H401     1.0000 0.25034  0.82828  0.02563  Biso   1.000  H
  H402     1.0000 0.04148  0.67081  0.75403  Biso   1.000  H
  H403     1.0000 0.72650  0.96672  0.71994  Biso   1.000  H
  H404     1.0000 0.77834  0.33905  0.57497  Biso   1.000  H
  H405     1.0000 0.02640  0.22035  0.86690  Biso   1.000  H
  H406     1.0000 0.22736  0.02393  0.85633  Biso   1.000  H
  H407     1.0000 0.27640  0.32831  0.03277  Biso   1.000  H
  H408     1.0000 0.48603  0.22198  0.72507  Biso   1.000  H
  H409     1.0000 0.28160  0.51291  0.19734  Biso   1.000  H
  H410     1.0000 0.17292  0.25106  0.51909  Biso   1.000  H
  H411     1.0000 0.48786  0.17245  0.31218  Biso   1.000  H
  H412     1.0000 0.83197  0.47337  0.32519  Biso   1.000  H
  H413     1.0000 0.73508  0.31726  0.03070  Biso   1.000  H
  H414     1.0000 0.97194  0.15659  0.27143  Biso   1.000  H
  H415     1.0000 0.20324  0.95849  0.24707  Biso   1.000  H
  H416     1.0000 0.29436  0.81691  0.48973  Biso   1.000  H
  H417     1.0000 0.05528  0.65567  0.30608  Biso   1.000  H
  H418     1.0000 0.70105  0.97207  0.33219  Biso   1.000  H
  H419     1.0000 0.85372  0.75338  0.07259  Biso   1.000  H
  H420     1.0000 0.49009  0.73532  0.20469  Biso   1.000  H
  H421     1.0000 0.69456  0.46976  0.81788  Biso   1.000  H
  H422     1.0000 0.79982  0.67847  0.56050  Biso   1.000  H
  H423     1.0000 0.52438  0.81563  0.76446  Biso   1.000  H
  H424     1.0000 0.19852  0.44264  0.74843  Biso   1.000  H
  H425     1.0000 0.34752  0.72323  0.02032  Biso   1.000  H
  H426     1.0000 0.03717  0.82053  0.79783  Biso   1.000  H
  H427     1.0000 0.77463  0.00867  0.87623  Biso   1.000  H
  H428     1.0000 0.72974  0.19309  0.59115  Biso   1.000  H
  H429     1.0000 0.03297  0.31375  0.75730  Biso   1.000  H
  H430     1.0000 0.32216  0.02665  0.74746  Biso   1.000  H
  H431     1.0000 0.16847  0.23369  0.99784  Biso   1.000  H
  H432     1.0000 0.50067  0.25176  0.87533  Biso   1.000  H
  H433     1.0000 0.27806  0.95548  0.70348  Biso   1.000  H
  H434     1.0000 0.67844  0.25618  0.07985  Biso   1.000  H
  H435     1.0000 0.99131  0.70514  0.35073  Biso   1.000  H
  H436     1.0000 0.83124  0.95228  0.82555  Biso   1.000  H
  H437     1.0000 0.22749  0.31369  0.56714  Biso   1.000  H
  H438     1.0000 0.53822  0.67153  0.26034  Biso   1.000  H
  H439     1.0000 0.24377  0.51628  0.70762  Biso   1.000  H
  H440     1.0000 0.79586  0.81415  0.02399  Biso   1.000  H
  H441     1.0000 0.53443  0.23048  0.37091  Biso   1.000  H
  H442     1.0000 0.74851  0.52005  0.87752  Biso   1.000  H
  H443     1.0000 0.35003  0.75176  0.53602  Biso   1.000  H
  H444     1.0000 0.01891  0.21764  0.21521  Biso   1.000  H
  H445     1.0000 0.74857  0.03844  0.37633  Biso   1.000  H
  H446     1.0000 0.30183  0.67132  0.08841  Biso   1.000  H
  H447     1.0000 0.95061  0.28107  0.72533  Biso   1.000  H
  H448     1.0000 0.23950  0.03461  0.20313  Biso   1.000  H
  H449     1.0000 0.84996  0.72875  0.49784  Biso   1.000  H
  H450     1.0000 0.56294  0.30491  0.82418  Biso   1.000  H
  H451     1.0000 0.77215  0.52702  0.38223  Biso   1.000  H
  H452     1.0000 0.23903  0.17216  0.02908  Biso   1.000  H
  H453     1.0000 0.48241  0.75246  0.70682  Biso   1.000  H
  H454     1.0000 0.33267  0.45794  0.25799  Biso   1.000  H
  H455     1.0000 0.67525  0.22515  0.51875  Biso   1.000  H
  H456     1.0000 0.98326  0.76420  0.85459  Biso   1.000  H
  H457     1.0000 0.74543  0.83490  0.50204  Biso   1.000  H
  H458     1.0000 0.48517  0.71178  0.86052  Biso   1.000  H
  H459     1.0000 0.85173  0.47081  0.77808  Biso   1.000  H
  H460     1.0000 0.19437  0.76817  0.07556  Biso   1.000  H
  H461     1.0000 0.98659  0.71856  0.69467  Biso   1.000  H
  H462     1.0000 0.35212  0.49865  0.80451  Biso   1.000  H
  H463     1.0000 0.81789  0.28338  0.50746  Biso   1.000  H
  H464     1.0000 0.96097  0.17083  0.81717  Biso   1.000  H
  H465     1.0000 0.67146  0.00732  0.78593  Biso   1.000  H
  H466     1.0000 0.33718  0.26536  0.98489  Biso   1.000  H
  H467     1.0000 0.54244  0.15459  0.76655  Biso   1.000  H
  H468     1.0000 0.17221  0.96551  0.80681  Biso   1.000  H
  H469     1.0000 0.33154  0.20934  0.57367  Biso   1.000  H
  H470     1.0000 0.53889  0.27304  0.21426  Biso   1.000  H
  H471     1.0000 0.17421  0.51231  0.29476  Biso   1.000  H
  H472     1.0000 0.84162  0.21813  0.06486  Biso   1.000  H
  H473     1.0000 0.02699  0.30673  0.31970  Biso   1.000  H
  H474     1.0000 0.74007  0.53161  0.23166  Biso   1.000  H
  H475     1.0000 0.24656  0.66541  0.55224  Biso   1.000  H
  H476     1.0000 0.99140  0.80964  0.25069  Biso   1.000  H
  H477     1.0000 0.29315  0.03378  0.35369  Biso   1.000  H
  H478     1.0000 0.69950  0.70810  0.01150  Biso   1.000  H
  H479     1.0000 0.55444  0.77710  0.35571  Biso   1.000  H
  H480     1.0000 0.84951  0.03229  0.27142  Biso   1.000  H
  N1       1.0000 0.68247  0.18447  0.55727  Biso   1.000  N
  N2       1.0000 0.50972  0.68048  0.20838  Biso   1.000  N
  N3       1.0000 0.19449  0.48359  0.70714  Biso   1.000  N
  N4       1.0000 0.18244  0.17685  0.01858  Biso   1.000  N
  N5       1.0000 0.02603  0.65987  0.35165  Biso   1.000  N
  N6       1.0000 0.69877  0.49216  0.87433  Biso   1.000  N
  N7       1.0000 0.84818  0.67970  0.52826  Biso   1.000  N
  N8       1.0000 0.00182  0.16428  0.21910  Biso   1.000  N
  N9       1.0000 0.32522  0.98937  0.70414  Biso   1.000  N
  N10      1.0000 0.34898  0.67298  0.04971  Biso   1.000  N
  N11      1.0000 0.51071  0.18000  0.36631  Biso   1.000  N
  N12      1.0000 0.82710  0.98228  0.87323  Biso   1.000  N
  N13      1.0000 0.34553  0.80994  0.51560  Biso   1.000  N
  N14      1.0000 0.52769  0.30434  0.87114  Biso   1.000  N
  N15      1.0000 0.82955  0.50057  0.37560  Biso   1.000  N
  N16      1.0000 0.84934  0.80740  0.04484  Biso   1.000  N
  N17      1.0000 0.99107  0.31864  0.71812  Biso   1.000  N
  N18      1.0000 0.33373  0.48693  0.20462  Biso   1.000  N
  N19      1.0000 0.17710  0.30805  0.53864  Biso   1.000  N
  N20      1.0000 0.01336  0.81822  0.84983  Biso   1.000  N
  N21      1.0000 0.70145  0.00901  0.37447  Biso   1.000  N
  N22      1.0000 0.68381  0.31104  0.05623  Biso   1.000  N
  N23      1.0000 0.50366  0.80849  0.70917  Biso   1.000  N
  N24      1.0000 0.19633  0.99201  0.20439  Biso   1.000  N
  N25      1.0000 0.84499  0.49979  0.72637  Biso   1.000  N
  N26      1.0000 0.69665  0.83048  0.53341  Biso   1.000  N
  N27      1.0000 0.50850  0.65769  0.85924  Biso   1.000  N
  N28      1.0000 0.34622  0.47278  0.85542  Biso   1.000  N
  N29      1.0000 0.19858  0.82012  0.04607  Biso   1.000  N
  N30      1.0000 0.01740  0.67023  0.70417  Biso   1.000  N
  N31      1.0000 0.67637  0.99032  0.72883  Biso   1.000  N
  N32      1.0000 0.82528  0.33038  0.54555  Biso   1.000  N
  N33      1.0000 0.99714  0.17061  0.86644  Biso   1.000  N
  N34      1.0000 0.17967  0.99463  0.85569  Biso   1.000  N
  N35      1.0000 0.33165  0.32103  0.01206  Biso   1.000  N
  N36      1.0000 0.51192  0.16618  0.72104  Biso   1.000  N
  N37      1.0000 0.18130  0.49004  0.35238  Biso   1.000  N
  N38      1.0000 0.33176  0.16470  0.53829  Biso   1.000  N
  N39      1.0000 0.51183  0.32693  0.21743  Biso   1.000  N
  N40      1.0000 0.68442  0.50193  0.22676  Biso   1.000  N
  N41      1.0000 0.83096  0.16522  0.03988  Biso   1.000  N
  N42      1.0000 0.99354  0.30890  0.36490  Biso   1.000  N
  N43      1.0000 0.34585  0.99992  0.35115  Biso   1.000  N
  N44      1.0000 0.19933  0.65963  0.51801  Biso   1.000  N
  N45      1.0000 0.02978  0.80997  0.20408  Biso   1.000  N
  N46      1.0000 0.84624  0.00225  0.22607  Biso   1.000  N
  N47      1.0000 0.69953  0.66214  0.04649  Biso   1.000  N
  N48      1.0000 0.52139  0.82664  0.35500  Biso   1.000  N
  O1       1.0000 0.35832  0.53721  0.03293  Biso   1.000  O
  O2       1.0000 0.00058  0.33529  0.58438  Biso   1.000  O
  O3       1.0000 0.56451  0.99531  0.38382  Biso   1.000  O
  O4       1.0000 0.86406  0.54395  0.55078  Biso   1.000  O
  O5       1.0000 0.51247  0.33634  0.00301  Biso   1.000  O
  O6       1.0000 0.06141  0.98573  0.18914  Biso   1.000  O
  O7       1.0000 0.16048  0.03946  0.02756  Biso   1.000  O
  O8       1.0000 0.51237  0.83657  0.57299  Biso   1.000  O
  O9       1.0000 0.96902  0.49616  0.37934  Biso   1.000  O
  O10      1.0000 0.67019  0.05113  0.55181  Biso   1.000  O
  O11      1.0000 0.02111  0.83224  0.98606  Biso   1.000  O
  O12      1.0000 0.46473  0.50051  0.18834  Biso   1.000  O
  O13      1.0000 0.66917  0.44561  0.05634  Biso   1.000  O
  O14      1.0000 0.02604  0.64755  0.48572  Biso   1.000  O
  O15      1.0000 0.45966  0.99052  0.69594  Biso   1.000  O
  O16      1.0000 0.16387  0.44466  0.52079  Biso   1.000  O
  O17      1.0000 0.52709  0.65377  0.07725  Biso   1.000  O
  O18      1.0000 0.96232  0.98993  0.88164  Biso   1.000  O
  O19      1.0000 0.86694  0.94499  0.05153  Biso   1.000  O
  O20      1.0000 0.50491  0.15684  0.50313  Biso   1.000  O
  O21      1.0000 0.06110  0.48829  0.69154  Biso   1.000  O
  O22      1.0000 0.36402  0.94538  0.52680  Biso   1.000  O
  O23      1.0000 0.00823  0.14602  0.08478  Biso   1.000  O
  O24      1.0000 0.56357  0.48674  0.88426  Biso   1.000  O
  O25      1.0000 0.97575  0.99003  0.19955  Biso   1.000  O
  O26      1.0000 0.17217  0.95634  0.03837  Biso   1.000  O
  O27      1.0000 0.00995  0.14868  0.00062  Biso   1.000  O
  O28      1.0000 0.47868  0.00856  0.38082  Biso   1.000  O
  O29      1.0000 0.66797  0.96480  0.54720  Biso   1.000  O
  O30      1.0000 0.50841  0.15328  0.58505  Biso   1.000  O
  O31      1.0000 0.54926  0.50476  0.19599  Biso   1.000  O
  O32      1.0000 0.35483  0.45561  0.02617  Biso   1.000  O
  O33      1.0000 0.52182  0.64204  0.99175  Biso   1.000  O
  O34      1.0000 0.04829  0.47524  0.37440  Biso   1.000  O
  O35      1.0000 0.85819  0.46098  0.55362  Biso   1.000  O
  O36      1.0000 0.01748  0.65102  0.56949  Biso   1.000  O
  O37      1.0000 0.04529  0.99819  0.87667  Biso   1.000  O
  O38      1.0000 0.85754  0.03065  0.04565  Biso   1.000  O
  O39      1.0000 0.02757  0.83450  0.07110  Biso   1.000  O
  O40      1.0000 0.54451  0.98913  0.69901  Biso   1.000  O
  O41      1.0000 0.35847  0.02982  0.52934  Biso   1.000  O
  O42      1.0000 0.52446  0.83764  0.48940  Biso   1.000  O
  O43      1.0000 0.47991  0.47490  0.88183  Biso   1.000  O
  O44      1.0000 0.67344  0.52938  0.04395  Biso   1.000  O
  O45      1.0000 0.49827  0.34156  0.08226  Biso   1.000  O
  O46      1.0000 0.97845  0.49068  0.70039  Biso   1.000  O
  O47      1.0000 0.17320  0.52771  0.52473  Biso   1.000  O
  O48      1.0000 0.00148  0.33412  0.50003  Biso   1.000  O
  O49      1.0000 0.01286  0.94572  0.19289  Biso   1.000  O
  O50      1.0000 0.16529  0.99480  0.99096  Biso   1.000  O
  O51      1.0000 0.96675  0.14893  0.03968  Biso   1.000  O
  O52      1.0000 0.52019  0.96255  0.38110  Biso   1.000  O
  O53      1.0000 0.66392  0.00437  0.59033  Biso   1.000  O
  O54      1.0000 0.46703  0.15177  0.54951  Biso   1.000  O
  O55      1.0000 0.51191  0.46291  0.19077  Biso   1.000  O
  O56      1.0000 0.35705  0.49710  0.98613  Biso   1.000  O
  O57      1.0000 0.56683  0.64950  0.03347  Biso   1.000  O
  O58      1.0000 0.00158  0.44591  0.37617  Biso   1.000  O
  O59      1.0000 0.85787  0.50280  0.59252  Biso   1.000  O
  O60      1.0000 0.06463  0.64567  0.52969  Biso   1.000  O
  O61      1.0000 0.99805  0.03522  0.87943  Biso   1.000  O
  O62      1.0000 0.86360  0.98997  0.08955  Biso   1.000  O
  O63      1.0000 0.06278  0.83117  0.02797  Biso   1.000  O
  O64      1.0000 0.49700  0.03063  0.69851  Biso   1.000  O
  O65      1.0000 0.36111  0.98981  0.48856  Biso   1.000  O
  O66      1.0000 0.55924  0.83996  0.53807  Biso   1.000  O
  O67      1.0000 0.51328  0.52180  0.88301  Biso   1.000  O
  O68      1.0000 0.67372  0.48809  0.09131  Biso   1.000  O
  O69      1.0000 0.46347  0.33944  0.03238  Biso   1.000  O
  O70      1.0000 0.02301  0.53283  0.68723  Biso   1.000  O
  O71      1.0000 0.16694  0.48876  0.48726  Biso   1.000  O
  O72      1.0000 0.95929  0.33482  0.53952  Biso   1.000  O
  O73      1.0000 0.02062  0.44866  0.69596  Biso   1.000  O
  O74      1.0000 0.67118  0.01240  0.50805  Biso   1.000  O
  O75      1.0000 0.48162  0.64502  0.03303  Biso   1.000  O
  O76      1.0000 0.52898  0.44262  0.88421  Biso   1.000  O
  O77      1.0000 0.16471  0.00337  0.07387  Biso   1.000  O
  O78      1.0000 0.98132  0.65266  0.52503  Biso   1.000  O
  O79      1.0000 0.50345  0.94481  0.69522  Biso   1.000  O
  O80      1.0000 0.86261  0.50233  0.50865  Biso   1.000  O
  O81      1.0000 0.05149  0.15293  0.04354  Biso   1.000  O
  O82      1.0000 0.01193  0.95247  0.87568  Biso   1.000  O
  O83      1.0000 0.35877  0.49553  0.06845  Biso   1.000  O
  O84      1.0000 0.55018  0.15835  0.54096  Biso   1.000  O
  O85      1.0000 0.01485  0.52553  0.37524  Biso   1.000  O
  O86      1.0000 0.35613  0.98785  0.57031  Biso   1.000  O
  O87      1.0000 0.54642  0.33783  0.05466  Biso   1.000  O
  O88      1.0000 0.50555  0.54590  0.19508  Biso   1.000  O
  O89      1.0000 0.86092  0.98348  0.00464  Biso   1.000  O
  O90      1.0000 0.04293  0.33367  0.54002  Biso   1.000  O
  O91      1.0000 0.52807  0.04451  0.38415  Biso   1.000  O
  O92      1.0000 0.16589  0.48461  0.57145  Biso   1.000  O
  O93      1.0000 0.98177  0.83151  0.03597  Biso   1.000  O
  O94      1.0000 0.02057  0.02900  0.19505  Biso   1.000  O
  O95      1.0000 0.67575  0.47974  0.00761  Biso   1.000  O
  O96      1.0000 0.47726  0.83378  0.52475  Biso   1.000  O
  O97      1.0000 0.46125  0.20056  0.54527  Biso   1.000  O
  O98      1.0000 0.51057  0.46448  0.23863  Biso   1.000  O
  O99      1.0000 0.21586  0.49209  0.48676  Biso   1.000  O
  O100     1.0000 0.96346  0.19872  0.04055  Biso   1.000  O
  O101     1.0000 0.99737  0.44362  0.32573  Biso   1.000  O
  O102     1.0000 0.72223  0.48800  0.09199  Biso   1.000  O
  O103     1.0000 0.06552  0.69370  0.52792  Biso   1.000  O
  O104     1.0000 0.02852  0.94457  0.23931  Biso   1.000  O
  O105     1.0000 0.31203  0.98351  0.48460  Biso   1.000  O
  O106     1.0000 0.56633  0.69806  0.02638  Biso   1.000  O
  O107     1.0000 0.52335  0.96245  0.33185  Biso   1.000  O
  O108     1.0000 0.81529  0.98877  0.09035  Biso   1.000  O
  O109     1.0000 0.56610  0.79240  0.54196  Biso   1.000  O
  O110     1.0000 0.51327  0.52482  0.83276  Biso   1.000  O
  O111     1.0000 0.80937  0.50356  0.59287  Biso   1.000  O
  O112     1.0000 0.06918  0.78367  0.02186  Biso   1.000  O
  O113     1.0000 0.01756  0.53620  0.73441  Biso   1.000  O
  O114     1.0000 0.30934  0.50338  0.98304  Biso   1.000  O
  O115     1.0000 0.95808  0.28497  0.54133  Biso   1.000  O
  O116     1.0000 0.99758  0.03696  0.83112  Biso   1.000  O
  O117     1.0000 0.71145  0.00295  0.59523  Biso   1.000  O
  O118     1.0000 0.46425  0.28979  0.03823  Biso   1.000  O
  O119     1.0000 0.50532  0.02787  0.74693  Biso   1.000  O
  O120     1.0000 0.21270  0.99210  0.98857  Biso   1.000  O
  O121     1.0000 0.06193  0.49712  0.73967  Biso   1.000  O
  O122     1.0000 0.71988  0.04862  0.55375  Biso   1.000  O
  O123     1.0000 0.52656  0.70328  0.07481  Biso   1.000  O
  O124     1.0000 0.56442  0.48593  0.83571  Biso   1.000  O
  O125     1.0000 0.21070  0.04210  0.02283  Biso   1.000  O
  O126     1.0000 0.02582  0.69589  0.48405  Biso   1.000  O
  O127     1.0000 0.45998  0.98854  0.74394  Biso   1.000  O
  O128     1.0000 0.81429  0.54874  0.55490  Biso   1.000  O
  O129     1.0000 0.00485  0.19569  0.08513  Biso   1.000  O
  O130     1.0000 0.95915  0.99139  0.83284  Biso   1.000  O
  O131     1.0000 0.30977  0.54361  0.02874  Biso   1.000  O
  O132     1.0000 0.50203  0.20521  0.50138  Biso   1.000  O
  O133     1.0000 0.96244  0.49206  0.33136  Biso   1.000  O
  O134     1.0000 0.31509  0.94377  0.52723  Biso   1.000  O
  O135     1.0000 0.51653  0.28861  0.00637  Biso   1.000  O
  O136     1.0000 0.46452  0.50159  0.23753  Biso   1.000  O
  O137     1.0000 0.81934  0.94319  0.05450  Biso   1.000  O
  O138     1.0000 1.00000  0.28637  0.58438  Biso   1.000  O
  O139     1.0000 0.56835  0.00210  0.33552  Biso   1.000  O
  O140     1.0000 0.21264  0.44128  0.52796  Biso   1.000  O
  O141     1.0000 0.02309  0.78351  0.98281  Biso   1.000  O
  O142     1.0000 0.06552  0.98493  0.23836  Biso   1.000  O
  O143     1.0000 0.71711  0.44442  0.05051  Biso   1.000  O
  O144     1.0000 0.51821  0.78773  0.57344  Biso   1.000  O
  O145     1.0000 0.54894  0.51026  0.24507  Biso   1.000  O
  O146     1.0000 0.22084  0.52530  0.53343  Biso   1.000  O
  O147     1.0000 0.50416  0.20168  0.58716  Biso   1.000  O
  O148     1.0000 0.04552  0.47537  0.32594  Biso   1.000  O
  O149     1.0000 0.72153  0.52796  0.04381  Biso   1.000  O
  O150     1.0000 0.00647  0.19787  0.99772  Biso   1.000  O
  O151     1.0000 0.98387  0.98878  0.24642  Biso   1.000  O
  O152     1.0000 0.31058  0.02585  0.52378  Biso   1.000  O
  O153     1.0000 0.02671  0.69769  0.56916  Biso   1.000  O
  O154     1.0000 0.48454  0.00927  0.33311  Biso   1.000  O
  O155     1.0000 0.80805  0.02847  0.04865  Biso   1.000  O
  O156     1.0000 0.52101  0.69053  0.99236  Biso   1.000  O
  O157     1.0000 0.48221  0.47409  0.83306  Biso   1.000  O
  O158     1.0000 0.80863  0.46791  0.55039  Biso   1.000  O
  O159     1.0000 0.52899  0.78946  0.48897  Biso   1.000  O
  O160     1.0000 0.98254  0.49276  0.74908  Biso   1.000  O
  O161     1.0000 0.30691  0.45792  0.02190  Biso   1.000  O
  O162     1.0000 0.02879  0.78494  0.06953  Biso   1.000  O
  O163     1.0000 0.04381  0.99971  0.82776  Biso   1.000  O
  O164     1.0000 0.71749  0.96495  0.55337  Biso   1.000  O
  O165     1.0000 0.99965  0.28518  0.50000  Biso   1.000  O
  O166     1.0000 0.54165  0.98060  0.74659  Biso   1.000  O
  O167     1.0000 0.21903  0.95768  0.03804  Biso   1.000  O
  O168     1.0000 0.49689  0.29252  0.08639  Biso   1.000  O
  O169     1.0000 0.02534  0.02866  0.24406  Biso   1.000  O
  O170     1.0000 0.21228  0.00623  0.06940  Biso   1.000  O
  O171     1.0000 0.04720  0.20152  0.04317  Biso   1.000  O
  O172     1.0000 0.53460  0.04652  0.33653  Biso   1.000  O
  O173     1.0000 0.71888  0.00368  0.51062  Biso   1.000  O
  O174     1.0000 0.54572  0.20650  0.54291  Biso   1.000  O
  O175     1.0000 0.50216  0.54604  0.24262  Biso   1.000  O
  O176     1.0000 0.30944  0.49811  0.06889  Biso   1.000  O
  O177     1.0000 0.48145  0.69471  0.03040  Biso   1.000  O
  O178     1.0000 0.01133  0.52622  0.32606  Biso   1.000  O
  O179     1.0000 0.81411  0.50803  0.50862  Biso   1.000  O
  O180     1.0000 0.98369  0.70066  0.52962  Biso   1.000  O
  O181     1.0000 0.00579  0.95367  0.82902  Biso   1.000  O
  O182     1.0000 0.81299  0.98335  0.01065  Biso   1.000  O
  O183     1.0000 0.98386  0.78229  0.03107  Biso   1.000  O
  O184     1.0000 0.49537  0.94282  0.74217  Biso   1.000  O
  O185     1.0000 0.30821  0.98684  0.56704  Biso   1.000  O
  O186     1.0000 0.48269  0.78398  0.52645  Biso   1.000  O
  O187     1.0000 0.53036  0.44173  0.83546  Biso   1.000  O
  O188     1.0000 0.72221  0.48427  0.00803  Biso   1.000  O
  O189     1.0000 0.54701  0.28965  0.05176  Biso   1.000  O
  O190     1.0000 0.02234  0.45230  0.74475  Biso   1.000  O
  O191     1.0000 0.21407  0.48356  0.57090  Biso   1.000  O
  O192     1.0000 0.04075  0.28442  0.54311  Biso   1.000  O
