data_image0
_cell_length_a       46.7314
_cell_length_b       46.8711
_cell_length_c       46.5495
_cell_angle_alpha    90
_cell_angle_beta     90
_cell_angle_gamma    90

_symmetry_space_group_name_H-M    "P 1"
_symmetry_int_tables_number       1

loop_
  _symmetry_equiv_pos_as_xyz
  'x, y, z'

loop_
  _atom_site_label
  _atom_site_occupancy
  _atom_site_fract_x
  _atom_site_fract_y
  _atom_site_fract_z
  _atom_site_thermal_displace_type
  _atom_site_B_iso_or_equiv
  _atom_site_type_symbol
  C1       1.0000 0.56389  0.98764  0.32972  Biso   1.000  C
  C2       1.0000 0.33214  0.52267  0.01010  Biso   1.000  C
  C3       1.0000 0.03743  0.29921  0.57601  Biso   1.000  C
  C4       1.0000 0.06431  0.98196  0.19821  Biso   1.000  C
  C5       1.0000 0.82973  0.52285  0.51408  Biso   1.000  C
  C6       1.0000 0.51752  0.29392  0.96975  Biso   1.000  C
  C7       1.0000 0.96410  0.48311  0.34202  Biso   1.000  C
  C8       1.0000 0.20958  0.01717  0.01580  Biso   1.000  C
  C9       1.0000 0.51002  0.78948  0.55770  Biso   1.000  C
  C10      1.0000 0.45970  0.49546  0.19614  Biso   1.000  C
  C11      1.0000 0.70294  0.02667  0.51493  Biso   1.000  C
  C12      1.0000 0.00917  0.79941  0.95932  Biso   1.000  C
  C13      1.0000 0.46595  0.95927  0.69918  Biso   1.000  C
  C14      1.0000 0.70169  0.43301  0.02400  Biso   1.000  C
  C15      1.0000 0.00258  0.65150  0.46367  Biso   1.000  C
  C16      1.0000 0.96727  0.98463  0.82861  Biso   1.000  C
  C17      1.0000 0.20682  0.42745  0.51690  Biso   1.000  C
  C18      1.0000 0.50376  0.66082  0.05951  Biso   1.000  C
  C19      1.0000 0.08003  0.48053  0.70140  Biso   1.000  C
  C20      1.0000 0.83403  0.93827  0.00919  Biso   1.000  C
  C21      1.0000 0.53028  0.15709  0.46811  Biso   1.000  C
  C22      1.0000 0.57742  0.45347  0.83664  Biso   1.000  C
  C23      1.0000 0.33247  0.92335  0.51459  Biso   1.000  C
  C24      1.0000 0.02477  0.15798  0.07484  Biso   1.000  C
  C25      1.0000 0.33850  0.03506  0.51274  Biso   1.000  C
  C26      1.0000 0.53468  0.30716  0.07535  Biso   1.000  C
  C27      1.0000 0.07280  0.46215  0.34270  Biso   1.000  C
  C28      1.0000 0.83976  0.04530  0.01595  Biso   1.000  C
  C29      1.0000 0.02996  0.29529  0.46550  Biso   1.000  C
  C30      1.0000 0.56811  0.48394  0.19387  Biso   1.000  C
  C31      1.0000 0.19985  0.53604  0.51363  Biso   1.000  C
  C32      1.0000 0.00369  0.79397  0.06697  Biso   1.000  C
  C33      1.0000 0.45423  0.99082  0.33814  Biso   1.000  C
  C34      1.0000 0.69724  0.53847  0.01442  Biso   1.000  C
  C35      1.0000 0.51055  0.79990  0.44913  Biso   1.000  C
  C36      1.0000 0.95892  0.96402  0.19286  Biso   1.000  C
  C37      1.0000 0.69728  0.91791  0.50511  Biso   1.000  C
  C38      1.0000 0.51052  0.65111  0.95100  Biso   1.000  C
  C39      1.0000 0.97054  0.48503  0.69975  Biso   1.000  C
  C40      1.0000 0.19318  0.91212  0.02040  Biso   1.000  C
  C41      1.0000 0.01242  0.65739  0.57052  Biso   1.000  C
  C42      1.0000 0.46819  0.46671  0.83066  Biso   1.000  C
  C43      1.0000 0.83564  0.41329  0.51250  Biso   1.000  C
  C44      1.0000 0.03391  0.15974  0.96579  Biso   1.000  C
  C45      1.0000 0.57484  0.96163  0.69632  Biso   1.000  C
  C46      1.0000 0.33919  0.41339  0.01869  Biso   1.000  C
  C47      1.0000 0.52666  0.15296  0.57754  Biso   1.000  C
  C48      1.0000 0.07446  0.98769  0.83684  Biso   1.000  C
  C49      1.0000 0.01738  0.03896  0.83640  Biso   1.000  C
  C50      1.0000 0.83570  0.98747  0.06779  Biso   1.000  C
  C51      1.0000 0.05817  0.79572  0.01401  Biso   1.000  C
  C52      1.0000 0.51975  0.01447  0.69758  Biso   1.000  C
  C53      1.0000 0.33376  0.98361  0.46536  Biso   1.000  C
  C54      1.0000 0.56367  0.79426  0.50688  Biso   1.000  C
  C55      1.0000 0.52900  0.51574  0.83194  Biso   1.000  C
  C56      1.0000 0.70349  0.49118  0.07209  Biso   1.000  C
  C57      1.0000 0.47452  0.29461  0.02961  Biso   1.000  C
  C58      1.0000 0.02596  0.53885  0.69817  Biso   1.000  C
  C59      1.0000 0.20015  0.47686  0.46321  Biso   1.000  C
  C60      1.0000 0.97683  0.29792  0.52566  Biso   1.000  C
  C61      1.0000 0.02070  0.92014  0.19660  Biso   1.000  C
  C62      1.0000 0.19792  0.96275  0.96246  Biso   1.000  C
  C63      1.0000 0.97936  0.16100  0.01787  Biso   1.000  C
  C64      1.0000 0.50795  0.93467  0.33182  Biso   1.000  C
  C65      1.0000 0.69742  0.96662  0.56322  Biso   1.000  C
  C66      1.0000 0.47667  0.15437  0.52027  Biso   1.000  C
  C67      1.0000 0.50519  0.43670  0.19896  Biso   1.000  C
  C68      1.0000 0.34061  0.46422  0.95884  Biso   1.000  C
  C69      1.0000 0.56416  0.65869  0.01106  Biso   1.000  C
  C70      1.0000 0.01034  0.41873  0.34018  Biso   1.000  C
  C71      1.0000 0.83945  0.46962  0.57103  Biso   1.000  C
  C72      1.0000 0.06216  0.65652  0.50700  Biso   1.000  C
  C73      1.0000 0.01990  0.52621  0.34225  Biso   1.000  C
  C74      1.0000 0.33446  0.97439  0.57382  Biso   1.000  C
  C75      1.0000 0.58221  0.30002  0.01653  Biso   1.000  C
  C76      1.0000 0.51859  0.54467  0.19401  Biso   1.000  C
  C77      1.0000 0.83710  0.99500  0.95770  Biso   1.000  C
  C78      1.0000 0.08631  0.29833  0.51850  Biso   1.000  C
  C79      1.0000 0.51338  0.04323  0.33797  Biso   1.000  C
  C80      1.0000 0.20342  0.48404  0.57161  Biso   1.000  C
  C81      1.0000 0.94953  0.80097  0.01093  Biso   1.000  C
  C82      1.0000 0.00106  0.02533  0.20026  Biso   1.000  C
  C83      1.0000 0.70182  0.47576  0.96562  Biso   1.000  C
  C84      1.0000 0.45516  0.79373  0.50177  Biso   1.000  C
  C85      1.0000 0.02331  0.42993  0.70043  Biso   1.000  C
  C86      1.0000 0.69767  0.98109  0.45649  Biso   1.000  C
  C87      1.0000 0.45351  0.65272  0.00125  Biso   1.000  C
  C88      1.0000 0.51940  0.40787  0.83633  Biso   1.000  C
  C89      1.0000 0.19396  0.96709  0.07284  Biso   1.000  C
  C90      1.0000 0.95329  0.65024  0.51952  Biso   1.000  C
  C91      1.0000 0.52166  0.90477  0.69468  Biso   1.000  C
  C92      1.0000 0.83176  0.46610  0.46105  Biso   1.000  C
  C93      1.0000 0.08776  0.15255  0.02493  Biso   1.000  C
  C94      1.0000 0.02138  0.93008  0.82975  Biso   1.000  C
  C95      1.0000 0.33510  0.46996  0.06823  Biso   1.000  C
  C96      1.0000 0.58378  0.15928  0.52725  Biso   1.000  C
  C97      1.0000 0.70425  0.05891  0.51405  Biso   1.000  C
  C98      1.0000 0.50661  0.66427  0.09095  Biso   1.000  C
  C99      1.0000 0.11229  0.47667  0.70142  Biso   1.000  C
  C100     1.0000 0.21079  0.04962  0.01861  Biso   1.000  C
  C101     1.0000 0.00640  0.65262  0.43131  Biso   1.000  C
  C102     1.0000 0.61005  0.44758  0.83781  Biso   1.000  C
  C103     1.0000 0.82748  0.55409  0.51169  Biso   1.000  C
  C104     1.0000 0.02249  0.15633  0.10759  Biso   1.000  C
  C105     1.0000 0.43390  0.96158  0.69860  Biso   1.000  C
  C106     1.0000 0.33063  0.55416  0.00739  Biso   1.000  C
  C107     1.0000 0.53359  0.16040  0.43668  Biso   1.000  C
  C108     1.0000 0.93516  0.98957  0.82856  Biso   1.000  C
  C109     1.0000 0.33160  0.89119  0.51431  Biso   1.000  C
  C110     1.0000 0.51456  0.28896  0.93806  Biso   1.000  C
  C111     1.0000 0.93187  0.48140  0.34086  Biso   1.000  C
  C112     1.0000 0.83227  0.90637  0.01051  Biso   1.000  C
  C113     1.0000 0.03363  0.30153  0.60693  Biso   1.000  C
  C114     1.0000 0.42705  0.49278  0.19666  Biso   1.000  C
  C115     1.0000 0.20913  0.39641  0.51214  Biso   1.000  C
  C116     1.0000 0.01355  0.80235  0.92597  Biso   1.000  C
  C117     1.0000 0.59544  0.98225  0.33131  Biso   1.000  C
  C118     1.0000 0.70490  0.40161  0.02509  Biso   1.000  C
  C119     1.0000 0.50774  0.78655  0.58887  Biso   1.000  C
  C120     1.0000 0.09721  0.98442  0.19942  Biso   1.000  C
  C121     1.0000 0.83573  0.98867  0.09947  Biso   1.000  C
  C122     1.0000 0.08929  0.79158  0.01126  Biso   1.000  C
  C123     1.0000 0.01728  0.07117  0.83669  Biso   1.000  C
  C124     1.0000 0.33251  0.98373  0.43309  Biso   1.000  C
  C125     1.0000 0.59739  0.79535  0.50997  Biso   1.000  C
  C126     1.0000 0.52253  0.04587  0.69867  Biso   1.000  C
  C127     1.0000 0.70287  0.49385  0.10294  Biso   1.000  C
  C128     1.0000 0.44186  0.29133  0.03320  Biso   1.000  C
  C129     1.0000 0.52440  0.54845  0.82915  Biso   1.000  C
  C130     1.0000 0.20112  0.46830  0.43278  Biso   1.000  C
  C131     1.0000 0.94402  0.29524  0.52538  Biso   1.000  C
  C132     1.0000 0.02723  0.57052  0.69832  Biso   1.000  C
  C133     1.0000 0.20047  0.96610  0.93018  Biso   1.000  C
  C134     1.0000 0.94651  0.16430  0.01800  Biso   1.000  C
  C135     1.0000 0.02337  0.88834  0.19571  Biso   1.000  C
  C136     1.0000 0.69943  0.97262  0.59412  Biso   1.000  C
  C137     1.0000 0.44490  0.15514  0.51448  Biso   1.000  C
  C138     1.0000 0.50226  0.90341  0.32883  Biso   1.000  C
  C139     1.0000 0.34113  0.46103  0.92639  Biso   1.000  C
  C140     1.0000 0.59624  0.66211  0.00881  Biso   1.000  C
  C141     1.0000 0.50128  0.40542  0.19770  Biso   1.000  C
  C142     1.0000 0.84168  0.46784  0.60294  Biso   1.000  C
  C143     1.0000 0.09546  0.65612  0.49948  Biso   1.000  C
  C144     1.0000 0.00894  0.38683  0.34029  Biso   1.000  C
  C145     1.0000 0.33399  0.47620  0.09976  Biso   1.000  C
  C146     1.0000 0.11872  0.30047  0.51975  Biso   1.000  C
  C147     1.0000 0.52145  0.07458  0.33852  Biso   1.000  C
  C148     1.0000 0.83032  0.46028  0.42912  Biso   1.000  C
  C149     1.0000 0.61492  0.30130  0.01778  Biso   1.000  C
  C150     1.0000 0.00009  0.05769  0.20089  Biso   1.000  C
  C151     1.0000 0.19335  0.96817  0.10585  Biso   1.000  C
  C152     1.0000 0.42305  0.79442  0.50026  Biso   1.000  C
  C153     1.0000 0.01607  0.55764  0.34089  Biso   1.000  C
  C154     1.0000 0.69576  0.98049  0.42262  Biso   1.000  C
  C155     1.0000 0.91868  0.80415  0.00611  Biso   1.000  C
  C156     1.0000 0.51906  0.57617  0.19267  Biso   1.000  C
  C157     1.0000 0.70211  0.47114  0.93167  Biso   1.000  C
  C158     1.0000 0.91971  0.64909  0.52058  Biso   1.000  C
  C159     1.0000 0.52226  0.87309  0.68967  Biso   1.000  C
  C160     1.0000 0.20403  0.48600  0.60454  Biso   1.000  C
  C161     1.0000 0.42200  0.65084  0.00153  Biso   1.000  C
  C162     1.0000 0.02452  0.89937  0.82804  Biso   1.000  C
  C163     1.0000 0.83926  0.99585  0.92513  Biso   1.000  C
  C164     1.0000 0.61434  0.15965  0.53161  Biso   1.000  C
  C165     1.0000 0.02069  0.39773  0.69935  Biso   1.000  C
  C166     1.0000 0.33573  0.97278  0.60646  Biso   1.000  C
  C167     1.0000 0.12070  0.15177  0.02796  Biso   1.000  C
  C168     1.0000 0.51743  0.37669  0.83839  Biso   1.000  C
  C169     1.0000 0.00621  0.79249  0.09981  Biso   1.000  C
  C170     1.0000 0.10752  0.99091  0.83527  Biso   1.000  C
  C171     1.0000 0.84325  0.07577  0.01599  Biso   1.000  C
  C172     1.0000 0.50959  0.80052  0.41618  Biso   1.000  C
  C173     1.0000 0.60842  0.96207  0.69389  Biso   1.000  C
  C174     1.0000 0.34185  0.06723  0.51077  Biso   1.000  C
  C175     1.0000 0.53029  0.30950  0.10752  Biso   1.000  C
  C176     1.0000 0.43700  0.46170  0.83099  Biso   1.000  C
  C177     1.0000 0.69538  0.57094  0.01419  Biso   1.000  C
  C178     1.0000 0.02373  0.29216  0.43515  Biso   1.000  C
  C179     1.0000 0.93886  0.47906  0.69930  Biso   1.000  C
  C180     1.0000 0.19961  0.56746  0.50639  Biso   1.000  C
  C181     1.0000 0.02842  0.16033  0.93460  Biso   1.000  C
  C182     1.0000 0.92615  0.95804  0.19424  Biso   1.000  C
  C183     1.0000 0.19074  0.88030  0.02315  Biso   1.000  C
  C184     1.0000 0.52180  0.15010  0.60906  Biso   1.000  C
  C185     1.0000 0.42254  0.98911  0.33668  Biso   1.000  C
  C186     1.0000 0.69787  0.88601  0.50776  Biso   1.000  C
  C187     1.0000 0.50849  0.64883  0.91871  Biso   1.000  C
  C188     1.0000 0.59982  0.48827  0.19515  Biso   1.000  C
  C189     1.0000 0.34197  0.38062  0.01583  Biso   1.000  C
  C190     1.0000 0.02110  0.66072  0.60128  Biso   1.000  C
  C191     1.0000 0.10462  0.45909  0.34212  Biso   1.000  C
  C192     1.0000 0.83923  0.38134  0.51089  Biso   1.000  C
  C193     1.0000 0.86623  0.99540  0.90905  Biso   1.000  C
  C194     1.0000 0.90393  0.83105  0.00621  Biso   1.000  C
  C195     1.0000 0.02402  0.88417  0.85675  Biso   1.000  C
  C196     1.0000 0.36376  0.96868  0.62093  Biso   1.000  C
  C197     1.0000 0.40755  0.82210  0.49960  Biso   1.000  C
  C198     1.0000 0.51703  0.85934  0.66117  Biso   1.000  C
  C199     1.0000 0.67682  0.46562  0.91427  Biso   1.000  C
  C200     1.0000 0.62940  0.32937  0.01897  Biso   1.000  C
  C201     1.0000 0.51608  0.36113  0.86590  Biso   1.000  C
  C202     1.0000 0.17788  0.48151  0.62067  Biso   1.000  C
  C203     1.0000 0.13204  0.32821  0.51754  Biso   1.000  C
  C204     1.0000 0.02369  0.38107  0.67209  Biso   1.000  C
  C205     1.0000 0.16602  0.97284  0.12111  Biso   1.000  C
  C206     1.0000 0.13476  0.12371  0.02416  Biso   1.000  C
  C207     1.0000 0.00568  0.07482  0.17407  Biso   1.000  C
  C208     1.0000 0.66850  0.97900  0.40790  Biso   1.000  C
  C209     1.0000 0.62913  0.13210  0.52811  Biso   1.000  C
  C210     1.0000 0.52487  0.08868  0.36589  Biso   1.000  C
  C211     1.0000 0.36040  0.48038  0.11685  Biso   1.000  C
  C212     1.0000 0.40592  0.62342  0.00312  Biso   1.000  C
  C213     1.0000 0.51750  0.58991  0.16352  Biso   1.000  C
  C214     1.0000 0.85851  0.46163  0.41457  Biso   1.000  C
  C215     1.0000 0.90328  0.62197  0.52105  Biso   1.000  C
  C216     1.0000 0.01261  0.57497  0.36712  Biso   1.000  C
  C217     1.0000 0.12341  0.98678  0.86136  Biso   1.000  C
  C218     1.0000 0.87240  0.08936  0.01591  Biso   1.000  C
  C219     1.0000 0.01067  0.81858  0.11688  Biso   1.000  C
  C220     1.0000 0.62191  0.96868  0.66690  Biso   1.000  C
  C221     1.0000 0.37091  0.08083  0.51332  Biso   1.000  C
  C222     1.0000 0.50842  0.82884  0.40235  Biso   1.000  C
  C223     1.0000 0.42101  0.46623  0.85875  Biso   1.000  C
  C224     1.0000 0.66830  0.58567  0.00991  Biso   1.000  C
  C225     1.0000 0.52577  0.33670  0.12199  Biso   1.000  C
  C226     1.0000 0.92415  0.47383  0.67127  Biso   1.000  C
  C227     1.0000 0.17215  0.58342  0.50342  Biso   1.000  C
  C228     1.0000 0.02168  0.31875  0.41836  Biso   1.000  C
  C229     1.0000 0.91171  0.96073  0.16586  Biso   1.000  C
  C230     1.0000 0.16281  0.86505  0.02347  Biso   1.000  C
  C231     1.0000 0.02392  0.13264  0.91917  Biso   1.000  C
  C232     1.0000 0.40721  0.98848  0.36453  Biso   1.000  C
  C233     1.0000 0.67064  0.87228  0.51459  Biso   1.000  C
  C234     1.0000 0.52167  0.12208  0.62296  Biso   1.000  C
  C235     1.0000 0.61756  0.48978  0.16945  Biso   1.000  C
  C236     1.0000 0.37102  0.36655  0.01844  Biso   1.000  C
  C237     1.0000 0.51478  0.62129  0.90419  Biso   1.000  C
  C238     1.0000 0.12254  0.45729  0.36811  Biso   1.000  C
  C239     1.0000 0.86811  0.36950  0.51144  Biso   1.000  C
  C240     1.0000 0.02173  0.63472  0.61849  Biso   1.000  C
  C241     1.0000 0.62702  0.45232  0.86348  Biso   1.000  C
  C242     1.0000 0.85266  0.57219  0.51819  Biso   1.000  C
  C243     1.0000 0.51256  0.81171  0.60698  Biso   1.000  C
  C244     1.0000 0.12806  0.47678  0.67497  Biso   1.000  C
  C245     1.0000 0.35614  0.57036  0.00446  Biso   1.000  C
  C246     1.0000 0.01620  0.83026  0.91056  Biso   1.000  C
  C247     1.0000 0.92029  0.99095  0.85802  Biso   1.000  C
  C248     1.0000 0.67803  0.07557  0.51821  Biso   1.000  C
  C249     1.0000 0.02828  0.32853  0.62162  Biso   1.000  C
  C250     1.0000 0.41758  0.96259  0.67252  Biso   1.000  C
  C251     1.0000 0.18500  0.06774  0.01985  Biso   1.000  C
  C252     1.0000 0.51513  0.31423  0.91872  Biso   1.000  C
  C253     1.0000 0.41046  0.48977  0.16863  Biso   1.000  C
  C254     1.0000 0.18346  0.37923  0.51048  Biso   1.000  C
  C255     1.0000 0.52941  0.13464  0.41784  Biso   1.000  C
  C256     1.0000 0.91380  0.47260  0.36598  Biso   1.000  C
  C257     1.0000 0.67740  0.38273  0.02579  Biso   1.000  C
  C258     1.0000 0.01689  0.12962  0.12233  Biso   1.000  C
  C259     1.0000 0.11264  0.98243  0.17169  Biso   1.000  C
  C260     1.0000 0.35964  0.87528  0.51160  Biso   1.000  C
  C261     1.0000 0.00868  0.62412  0.41600  Biso   1.000  C
  C262     1.0000 0.61105  0.97885  0.35805  Biso   1.000  C
  C263     1.0000 0.85850  0.88754  0.01035  Biso   1.000  C
  C264     1.0000 0.51072  0.63759  0.10826  Biso   1.000  C
  C265     1.0000 0.02028  0.08510  0.86481  Biso   1.000  C
  C266     1.0000 0.86221  0.97871  0.11641  Biso   1.000  C
  C267     1.0000 0.10826  0.81619  0.01617  Biso   1.000  C
  C268     1.0000 0.52174  0.06427  0.67289  Biso   1.000  C
  C269     1.0000 0.35831  0.98641  0.41582  Biso   1.000  C
  C270     1.0000 0.61522  0.82211  0.51331  Biso   1.000  C
  C271     1.0000 0.52253  0.56616  0.85523  Biso   1.000  C
  C272     1.0000 0.67512  0.49349  0.11588  Biso   1.000  C
  C273     1.0000 0.42459  0.31727  0.02622  Biso   1.000  C
  C274     1.0000 0.02474  0.58571  0.67136  Biso   1.000  C
  C275     1.0000 0.17295  0.46474  0.41828  Biso   1.000  C
  C276     1.0000 0.92588  0.32182  0.52027  Biso   1.000  C
  C277     1.0000 0.02059  0.87215  0.16884  Biso   1.000  C
  C278     1.0000 0.17293  0.97217  0.91367  Biso   1.000  C
  C279     1.0000 0.92908  0.13870  0.01630  Biso   1.000  C
  C280     1.0000 0.50118  0.88464  0.35491  Biso   1.000  C
  C281     1.0000 0.67256  0.97080  0.61116  Biso   1.000  C
  C282     1.0000 0.42766  0.12783  0.51526  Biso   1.000  C
  C283     1.0000 0.50756  0.38920  0.17101  Biso   1.000  C
  C284     1.0000 0.36743  0.46432  0.90973  Biso   1.000  C
  C285     1.0000 0.61257  0.63562  0.00591  Biso   1.000  C
  C286     1.0000 0.01309  0.36950  0.36634  Biso   1.000  C
  C287     1.0000 0.86960  0.47270  0.61830  Biso   1.000  C
  C288     1.0000 0.11245  0.62970  0.49624  Biso   1.000  C
  C289     1.0000 0.35668  0.84533  0.50562  Biso   1.000  C
  C290     1.0000 0.52019  0.31123  0.88839  Biso   1.000  C
  C291     1.0000 0.88227  0.47230  0.36408  Biso   1.000  C
  C292     1.0000 0.85333  0.85545  0.00988  Biso   1.000  C
  C293     1.0000 0.02813  0.32787  0.65346  Biso   1.000  C
  C294     1.0000 0.37868  0.48901  0.16861  Biso   1.000  C
  C295     1.0000 0.18646  0.34793  0.51533  Biso   1.000  C
  C296     1.0000 0.02013  0.83116  0.87891  Biso   1.000  C
  C297     1.0000 0.64328  0.97628  0.35619  Biso   1.000  C
  C298     1.0000 0.68124  0.35151  0.02576  Biso   1.000  C
  C299     1.0000 0.50998  0.80879  0.63770  Biso   1.000  C
  C300     1.0000 0.14336  0.97642  0.17394  Biso   1.000  C
  C301     1.0000 0.68074  0.10651  0.52106  Biso   1.000  C
  C302     1.0000 0.51152  0.64074  0.13905  Biso   1.000  C
  C303     1.0000 0.15971  0.47851  0.67492  Biso   1.000  C
  C304     1.0000 0.18731  0.09873  0.02179  Biso   1.000  C
  C305     1.0000 0.00976  0.62705  0.38492  Biso   1.000  C
  C306     1.0000 0.65814  0.45511  0.86266  Biso   1.000  C
  C307     1.0000 0.85032  0.60328  0.51881  Biso   1.000  C
  C308     1.0000 0.01442  0.12748  0.15452  Biso   1.000  C
  C309     1.0000 0.38692  0.96815  0.67275  Biso   1.000  C
  C310     1.0000 0.35356  0.60113  0.00127  Biso   1.000  C
  C311     1.0000 0.52863  0.14030  0.38712  Biso   1.000  C
  C312     1.0000 0.88842  0.99123  0.85719  Biso   1.000  C
  C313     1.0000 0.17500  0.46470  0.38745  Biso   1.000  C
  C314     1.0000 0.39670  0.13085  0.51247  Biso   1.000  C
  C315     1.0000 0.51292  0.35869  0.17413  Biso   1.000  C
  C316     1.0000 0.67183  0.49355  0.14887  Biso   1.000  C
  C317     1.0000 0.89754  0.14035  0.01791  Biso   1.000  C
  C318     1.0000 0.01433  0.33852  0.36636  Biso   1.000  C
  C319     1.0000 0.35514  0.98437  0.38521  Biso   1.000  C
  C320     1.0000 0.14438  0.63259  0.49927  Biso   1.000  C
  C321     1.0000 0.01797  0.84080  0.16997  Biso   1.000  C
  C322     1.0000 0.86007  0.97504  0.14737  Biso   1.000  C
  C323     1.0000 0.64465  0.63848  0.00785  Biso   1.000  C
  C324     1.0000 0.50514  0.85370  0.35160  Biso   1.000  C
  C325     1.0000 0.86999  0.47140  0.64974  Biso   1.000  C
  C326     1.0000 0.64719  0.82019  0.51396  Biso   1.000  C
  C327     1.0000 0.51796  0.59766  0.85215  Biso   1.000  C
  C328     1.0000 0.36741  0.46143  0.87924  Biso   1.000  C
  C329     1.0000 0.14030  0.81451  0.01475  Biso   1.000  C
  C330     1.0000 0.02323  0.61568  0.67187  Biso   1.000  C
  C331     1.0000 0.67406  0.97088  0.64295  Biso   1.000  C
  C332     1.0000 0.89415  0.31952  0.52024  Biso   1.000  C
  C333     1.0000 0.01979  0.11704  0.86590  Biso   1.000  C
  C334     1.0000 0.17376  0.97675  0.88207  Biso   1.000  C
  C335     1.0000 0.39423  0.31516  0.02478  Biso   1.000  C
  C336     1.0000 0.52085  0.09609  0.67486  Biso   1.000  C
  C337     1.0000 0.67968  0.46304  0.88341  Biso   1.000  C
  C338     1.0000 0.87119  0.62499  0.51851  Biso   1.000  C
  C339     1.0000 0.51251  0.82764  0.66051  Biso   1.000  C
  C340     1.0000 0.17981  0.48102  0.65217  Biso   1.000  C
  C341     1.0000 0.37461  0.62330  0.00163  Biso   1.000  C
  C342     1.0000 0.02372  0.85292  0.85662  Biso   1.000  C
  C343     1.0000 0.86564  0.99370  0.87765  Biso   1.000  C
  C344     1.0000 0.66053  0.12972  0.52542  Biso   1.000  C
  C345     1.0000 0.02549  0.34958  0.67377  Biso   1.000  C
  C346     1.0000 0.36456  0.97289  0.65248  Biso   1.000  C
  C347     1.0000 0.16640  0.12141  0.02252  Biso   1.000  C
  C348     1.0000 0.51865  0.33081  0.86554  Biso   1.000  C
  C349     1.0000 0.35781  0.48471  0.14739  Biso   1.000  C
  C350     1.0000 0.16491  0.32710  0.51822  Biso   1.000  C
  C351     1.0000 0.52753  0.11979  0.36421  Biso   1.000  C
  C352     1.0000 0.85997  0.46937  0.38454  Biso   1.000  C
  C353     1.0000 0.66075  0.32929  0.02272  Biso   1.000  C
  C354     1.0000 0.00929  0.10598  0.17560  Biso   1.000  C
  C355     1.0000 0.16523  0.97202  0.15160  Biso   1.000  C
  C356     1.0000 0.37659  0.82227  0.50051  Biso   1.000  C
  C357     1.0000 0.01043  0.60515  0.36484  Biso   1.000  C
  C358     1.0000 0.66548  0.97719  0.37664  Biso   1.000  C
  C359     1.0000 0.87273  0.83167  0.00894  Biso   1.000  C
  C360     1.0000 0.51393  0.62083  0.16250  Biso   1.000  C
  C361     1.0000 0.02199  0.13735  0.88734  Biso   1.000  C
  C362     1.0000 0.88072  0.96649  0.16863  Biso   1.000  C
  C363     1.0000 0.16231  0.83447  0.01762  Biso   1.000  C
  C364     1.0000 0.52129  0.12076  0.65534  Biso   1.000  C
  C365     1.0000 0.37591  0.98484  0.36250  Biso   1.000  C
  C366     1.0000 0.66968  0.84211  0.51228  Biso   1.000  C
  C367     1.0000 0.51521  0.61943  0.87251  Biso   1.000  C
  C368     1.0000 0.64896  0.49329  0.16922  Biso   1.000  C
  C369     1.0000 0.37167  0.33588  0.02019  Biso   1.000  C
  C370     1.0000 0.02129  0.63710  0.64951  Biso   1.000  C
  C371     1.0000 0.15321  0.46236  0.36710  Biso   1.000  C
  C372     1.0000 0.87089  0.33907  0.51898  Biso   1.000  C
  C373     1.0000 0.01371  0.81902  0.14871  Biso   1.000  C
  C374     1.0000 0.15397  0.98435  0.86141  Biso   1.000  C
  C375     1.0000 0.87410  0.12107  0.01764  Biso   1.000  C
  C376     1.0000 0.50796  0.83008  0.37061  Biso   1.000  C
  C377     1.0000 0.65281  0.96894  0.66621  Biso   1.000  C
  C378     1.0000 0.37286  0.11181  0.51050  Biso   1.000  C
  C379     1.0000 0.52092  0.33713  0.15381  Biso   1.000  C
  C380     1.0000 0.38972  0.46205  0.85758  Biso   1.000  C
  C381     1.0000 0.66640  0.61782  0.00806  Biso   1.000  C
  C382     1.0000 0.01885  0.31707  0.38749  Biso   1.000  C
  C383     1.0000 0.89281  0.47215  0.67138  Biso   1.000  C
  C384     1.0000 0.16943  0.61451  0.50238  Biso   1.000  C
  C385     1.0000 0.21531  0.11269  0.02204  Biso   1.000  C
  C386     1.0000 0.01320  0.15465  0.16980  Biso   1.000  C
  C387     1.0000 0.15843  0.96957  0.20039  Biso   1.000  C
  C388     1.0000 0.70843  0.12054  0.51649  Biso   1.000  C
  C389     1.0000 0.52967  0.16891  0.37325  Biso   1.000  C
  C390     1.0000 0.65776  0.97525  0.32840  Biso   1.000  C
  C391     1.0000 0.32605  0.61635  0.00048  Biso   1.000  C
  C392     1.0000 0.50816  0.66793  0.15339  Biso   1.000  C
  C393     1.0000 0.36421  0.49058  0.19496  Biso   1.000  C
  C394     1.0000 0.82365  0.61799  0.51233  Biso   1.000  C
  C395     1.0000 0.01148  0.65369  0.36861  Biso   1.000  C
  C396     1.0000 0.86783  0.47929  0.33732  Biso   1.000  C
  C397     1.0000 0.82487  0.84197  0.01343  Biso   1.000  C
  C398     1.0000 0.02040  0.80509  0.86279  Biso   1.000  C
  C399     1.0000 0.87239  0.98811  0.83092  Biso   1.000  C
  C400     1.0000 0.32863  0.83112  0.50400  Biso   1.000  C
  C401     1.0000 0.50418  0.78137  0.65147  Biso   1.000  C
  C402     1.0000 0.37346  0.97325  0.69938  Biso   1.000  C
  C403     1.0000 0.70743  0.33753  0.02959  Biso   1.000  C
  C404     1.0000 0.52366  0.28326  0.87516  Biso   1.000  C
  C405     1.0000 0.67302  0.45600  0.83520  Biso   1.000  C
  C406     1.0000 0.21419  0.33397  0.51336  Biso   1.000  C
  C407     1.0000 0.03116  0.30147  0.67005  Biso   1.000  C
  C408     1.0000 0.17635  0.47814  0.70143  Biso   1.000  C
  C409     1.0000 0.16998  0.98920  0.83559  Biso   1.000  C
  C410     1.0000 0.84876  0.13908  0.01949  Biso   1.000  C
  C411     1.0000 0.01111  0.79251  0.16455  Biso   1.000  C
  C412     1.0000 0.67060  0.96614  0.69229  Biso   1.000  C
  C413     1.0000 0.34726  0.12972  0.50835  Biso   1.000  C
  C414     1.0000 0.50714  0.80526  0.35269  Biso   1.000  C
  C415     1.0000 0.37444  0.45443  0.83058  Biso   1.000  C
  C416     1.0000 0.69240  0.63327  0.00726  Biso   1.000  C
  C417     1.0000 0.52058  0.31105  0.17000  Biso   1.000  C
  C418     1.0000 0.87756  0.47343  0.69860  Biso   1.000  C
  C419     1.0000 0.19479  0.63247  0.50281  Biso   1.000  C
  C420     1.0000 0.01837  0.28997  0.37308  Biso   1.000  C
  C421     1.0000 0.86430  0.96657  0.19530  Biso   1.000  C
  C422     1.0000 0.18851  0.81800  0.01394  Biso   1.000  C
  C423     1.0000 0.02212  0.16377  0.87212  Biso   1.000  C
  C424     1.0000 0.35987  0.98326  0.33683  Biso   1.000  C
  C425     1.0000 0.69535  0.82270  0.51004  Biso   1.000  C
  C426     1.0000 0.51985  0.14477  0.67283  Biso   1.000  C
  C427     1.0000 0.66410  0.49395  0.19692  Biso   1.000  C
  C428     1.0000 0.34541  0.31770  0.01954  Biso   1.000  C
  C429     1.0000 0.50888  0.64421  0.85565  Biso   1.000  C
  C430     1.0000 0.16699  0.46656  0.33952  Biso   1.000  C
  C431     1.0000 0.84490  0.32106  0.51981  Biso   1.000  C
  C432     1.0000 0.01973  0.66429  0.66516  Biso   1.000  C
  C433     1.0000 0.01650  0.13386  0.83884  Biso   1.000  C
  C434     1.0000 0.83280  0.97894  0.16165  Biso   1.000  C
  C435     1.0000 0.15294  0.78679  0.00980  Biso   1.000  C
  C436     1.0000 0.52061  0.11011  0.70331  Biso   1.000  C
  C437     1.0000 0.32865  0.98219  0.37035  Biso   1.000  C
  C438     1.0000 0.66131  0.79175  0.51148  Biso   1.000  C
  C439     1.0000 0.51617  0.61146  0.82430  Biso   1.000  C
  C440     1.0000 0.69866  0.49504  0.16528  Biso   1.000  C
  C441     1.0000 0.37966  0.28702  0.02959  Biso   1.000  C
  C442     1.0000 0.02243  0.63241  0.69872  Biso   1.000  C
  C443     1.0000 0.20106  0.46893  0.37008  Biso   1.000  C
  C444     1.0000 0.88029  0.29249  0.52665  Biso   1.000  C
  C445     1.0000 0.02061  0.82442  0.19672  Biso   1.000  C
  C446     1.0000 0.20162  0.97828  0.86765  Biso   1.000  C
  C447     1.0000 0.88333  0.16933  0.01961  Biso   1.000  C
  C448     1.0000 0.50417  0.84170  0.32305  Biso   1.000  C
  C449     1.0000 0.70103  0.97072  0.65770  Biso   1.000  C
  C450     1.0000 0.38345  0.15774  0.51109  Biso   1.000  C
  C451     1.0000 0.51038  0.34411  0.20184  Biso   1.000  C
  C452     1.0000 0.34114  0.45264  0.86295  Biso   1.000  C
  C453     1.0000 0.65915  0.66653  0.00770  Biso   1.000  C
  C454     1.0000 0.01251  0.32261  0.33961  Biso   1.000  C
  C455     1.0000 0.84316  0.47110  0.66539  Biso   1.000  C
  C456     1.0000 0.15823  0.66158  0.49821  Biso   1.000  C
  C457     1.0000 0.01039  0.61920  0.33711  Biso   1.000  C
  C458     1.0000 0.33919  0.97977  0.66942  Biso   1.000  C
  C459     1.0000 0.67711  0.30192  0.02451  Biso   1.000  C
  C460     1.0000 0.51244  0.63805  0.18788  Biso   1.000  C
  C461     1.0000 0.83924  0.99059  0.86306  Biso   1.000  C
  C462     1.0000 0.18313  0.29995  0.51887  Biso   1.000  C
  C463     1.0000 0.52688  0.13765  0.33815  Biso   1.000  C
  C464     1.0000 0.20809  0.48248  0.66690  Biso   1.000  C
  C465     1.0000 0.85419  0.80565  0.01076  Biso   1.000  C
  C466     1.0000 0.00607  0.12053  0.20215  Biso   1.000  C
  C467     1.0000 0.70581  0.46606  0.86780  Biso   1.000  C
  C468     1.0000 0.35967  0.79693  0.49784  Biso   1.000  C
  C469     1.0000 0.02583  0.33495  0.70121  Biso   1.000  C
  C470     1.0000 0.69162  0.97410  0.35866  Biso   1.000  C
  C471     1.0000 0.35743  0.64944  0.00316  Biso   1.000  C
  C472     1.0000 0.52131  0.31368  0.83952  Biso   1.000  C
  C473     1.0000 0.19158  0.96586  0.16732  Biso   1.000  C
  C474     1.0000 0.85479  0.65167  0.51478  Biso   1.000  C
  C475     1.0000 0.51021  0.81121  0.68559  Biso   1.000  C
  C476     1.0000 0.83386  0.47317  0.36754  Biso   1.000  C
  C477     1.0000 0.18387  0.14760  0.02444  Biso   1.000  C
  C478     1.0000 0.02621  0.83715  0.82996  Biso   1.000  C
  C479     1.0000 0.33145  0.48450  0.16266  Biso   1.000  C
  C480     1.0000 0.67864  0.15452  0.52462  Biso   1.000  C
  C481     1.0000 0.37459  0.76810  0.49558  Biso   1.000  C
  C482     1.0000 0.52014  0.32923  0.81208  Biso   1.000  C
  C483     1.0000 0.80610  0.47135  0.38183  Biso   1.000  C
  C484     1.0000 0.86945  0.77811  0.00770  Biso   1.000  C
  C485     1.0000 0.02303  0.35196  0.72812  Biso   1.000  C
  C486     1.0000 0.30592  0.47706  0.14555  Biso   1.000  C
  C487     1.0000 0.16770  0.27211  0.52296  Biso   1.000  C
  C488     1.0000 0.02875  0.85186  0.80266  Biso   1.000  C
  C489     1.0000 0.72047  0.97722  0.37294  Biso   1.000  C
  C490     1.0000 0.66348  0.27406  0.02379  Biso   1.000  C
  C491     1.0000 0.51657  0.82428  0.71285  Biso   1.000  C
  C492     1.0000 0.21818  0.95950  0.15393  Biso   1.000  C
  C493     1.0000 0.66435  0.18255  0.53076  Biso   1.000  C
  C494     1.0000 0.51533  0.62362  0.21597  Biso   1.000  C
  C495     1.0000 0.23406  0.48735  0.65014  Biso   1.000  C
  C496     1.0000 0.16876  0.17649  0.02894  Biso   1.000  C
  C497     1.0000 0.01437  0.60254  0.31060  Biso   1.000  C
  C498     1.0000 0.73213  0.47260  0.88473  Biso   1.000  C
  C499     1.0000 0.87248  0.67903  0.51709  Biso   1.000  C
  C500     1.0000 0.00074  0.10408  0.22923  Biso   1.000  C
  C501     1.0000 0.31051  0.98150  0.65575  Biso   1.000  C
  C502     1.0000 0.37326  0.67632  0.00110  Biso   1.000  C
  C503     1.0000 0.52203  0.12210  0.31043  Biso   1.000  C
  C504     1.0000 0.81181  0.99241  0.87868  Biso   1.000  C
  C505     1.0000 0.65717  0.45030  0.80892  Biso   1.000  C
  C506     1.0000 0.79866  0.60102  0.50483  Biso   1.000  C
  C507     1.0000 0.49718  0.75638  0.63496  Biso   1.000  C
  C508     1.0000 0.16087  0.47324  0.72853  Biso   1.000  C
  C509     1.0000 0.29938  0.59992  0.00247  Biso   1.000  C
  C510     1.0000 0.01915  0.77714  0.87771  Biso   1.000  C
  C511     1.0000 0.88822  0.98618  0.80340  Biso   1.000  C
  C512     1.0000 0.73428  0.10463  0.50706  Biso   1.000  C
  C513     1.0000 0.03667  0.27464  0.65514  Biso   1.000  C
  C514     1.0000 0.38776  0.97264  0.72687  Biso   1.000  C
  C515     1.0000 0.24157  0.09547  0.01884  Biso   1.000  C
  C516     1.0000 0.52646  0.25822  0.89479  Biso   1.000  C
  C517     1.0000 0.37797  0.49454  0.22336  Biso   1.000  C
  C518     1.0000 0.24031  0.35138  0.51050  Biso   1.000  C
  C519     1.0000 0.53414  0.19356  0.39208  Biso   1.000  C
  C520     1.0000 0.88396  0.48773  0.31213  Biso   1.000  C
  C521     1.0000 0.73328  0.35480  0.03484  Biso   1.000  C
  C522     1.0000 0.01838  0.18164  0.15486  Biso   1.000  C
  C523     1.0000 0.14255  0.97213  0.22799  Biso   1.000  C
  C524     1.0000 0.30180  0.84751  0.50765  Biso   1.000  C
  C525     1.0000 0.00944  0.68171  0.38378  Biso   1.000  C
  C526     1.0000 0.64069  0.97751  0.30180  Biso   1.000  C
  C527     1.0000 0.79989  0.86066  0.01451  Biso   1.000  C
  C528     1.0000 0.50504  0.69460  0.13691  Biso   1.000  C
  C529     1.0000 0.82045  0.12655  0.02300  Biso   1.000  C
  C530     1.0000 0.00697  0.76564  0.14858  Biso   1.000  C
  C531     1.0000 0.15557  0.99920  0.80861  Biso   1.000  C
  C532     1.0000 0.31896  0.11556  0.51001  Biso   1.000  C
  C533     1.0000 0.51051  0.77692  0.36599  Biso   1.000  C
  C534     1.0000 0.65760  0.95885  0.71948  Biso   1.000  C
  C535     1.0000 0.72061  0.61781  0.01099  Biso   1.000  C
  C536     1.0000 0.52330  0.28411  0.15588  Biso   1.000  C
  C537     1.0000 0.39058  0.45042  0.80309  Biso   1.000  C
  C538     1.0000 0.22313  0.61795  0.50256  Biso   1.000  C
  C539     1.0000 0.02097  0.26186  0.38777  Biso   1.000  C
  C540     1.0000 0.89178  0.47570  0.72603  Biso   1.000  C
  C541     1.0000 0.21684  0.83252  0.01500  Biso   1.000  C
  C542     1.0000 0.02349  0.19017  0.88888  Biso   1.000  C
  C543     1.0000 0.87930  0.95734  0.22078  Biso   1.000  C
  C544     1.0000 0.72304  0.83755  0.50574  Biso   1.000  C
  C545     1.0000 0.51728  0.17342  0.65864  Biso   1.000  C
  C546     1.0000 0.37533  0.98356  0.30945  Biso   1.000  C
  C547     1.0000 0.31737  0.33094  0.01438  Biso   1.000  C
  C548     1.0000 0.50603  0.67302  0.86927  Biso   1.000  C
  C549     1.0000 0.64585  0.49402  0.22490  Biso   1.000  C
  C550     1.0000 0.81676  0.33276  0.51342  Biso   1.000  C
  C551     1.0000 0.02071  0.69135  0.64723  Biso   1.000  C
  C552     1.0000 0.15127  0.46418  0.31298  Biso   1.000  C
  C553     1.0000 0.01174  0.11847  0.81121  Biso   1.000  C
  C554     1.0000 0.80725  0.98921  0.14547  Biso   1.000  C
  C555     1.0000 0.13393  0.76111  0.00683  Biso   1.000  C
  C556     1.0000 0.52211  0.09337  0.72936  Biso   1.000  C
  C557     1.0000 0.30200  0.98270  0.38616  Biso   1.000  C
  C558     1.0000 0.64444  0.76580  0.50960  Biso   1.000  C
  C559     1.0000 0.51992  0.59349  0.79839  Biso   1.000  C
  C560     1.0000 0.72719  0.49295  0.15087  Biso   1.000  C
  C561     1.0000 0.39540  0.26032  0.03531  Biso   1.000  C
  C562     1.0000 0.02521  0.61568  0.72537  Biso   1.000  C
  C563     1.0000 0.22807  0.47337  0.38469  Biso   1.000  C
  C564     1.0000 0.89802  0.26687  0.53411  Biso   1.000  C
  C565     1.0000 0.02654  0.84011  0.22336  Biso   1.000  C
  C566     1.0000 0.23055  0.97310  0.88331  Biso   1.000  C
  C567     1.0000 0.90172  0.19481  0.01933  Biso   1.000  C
  C568     1.0000 0.50369  0.86030  0.29783  Biso   1.000  C
  C569     1.0000 0.72759  0.97519  0.64095  Biso   1.000  C
  C570     1.0000 0.39906  0.18441  0.51028  Biso   1.000  C
  C571     1.0000 0.50273  0.36033  0.22816  Biso   1.000  C
  C572     1.0000 0.31350  0.45027  0.87930  Biso   1.000  C
  C573     1.0000 0.64247  0.69402  0.01025  Biso   1.000  C
  C574     1.0000 0.00772  0.33803  0.31264  Biso   1.000  C
  C575     1.0000 0.81617  0.47116  0.65047  Biso   1.000  C
  C576     1.0000 0.14073  0.68669  0.49599  Biso   1.000  C
  C577     1.0000 0.30631  0.47271  0.11461  Biso   1.000  C
  C578     1.0000 0.13592  0.27399  0.52202  Biso   1.000  C
  C579     1.0000 0.52054  0.09151  0.31146  Biso   1.000  C
  C580     1.0000 0.80368  0.46379  0.41284  Biso   1.000  C
  C581     1.0000 0.63066  0.27302  0.02154  Biso   1.000  C
  C582     1.0000 0.99835  0.07128  0.22846  Biso   1.000  C
  C583     1.0000 0.21960  0.96063  0.12191  Biso   1.000  C
  C584     1.0000 0.40616  0.76727  0.49865  Biso   1.000  C
  C585     1.0000 0.01722  0.57091  0.31186  Biso   1.000  C
  C586     1.0000 0.72180  0.97883  0.40491  Biso   1.000  C
  C587     1.0000 0.90187  0.77687  0.00588  Biso   1.000  C
  C588     1.0000 0.52015  0.59380  0.21829  Biso   1.000  C
  C589     1.0000 0.73009  0.47539  0.91690  Biso   1.000  C
  C590     1.0000 0.90341  0.67711  0.52102  Biso   1.000  C
  C591     1.0000 0.52351  0.85467  0.71547  Biso   1.000  C
  C592     1.0000 0.23217  0.48932  0.61928  Biso   1.000  C
  C593     1.0000 0.40402  0.67748  0.99960  Biso   1.000  C
  C594     1.0000 0.03052  0.88312  0.80199  Biso   1.000  C
  C595     1.0000 0.81157  0.99542  0.91101  Biso   1.000  C
  C596     1.0000 0.63348  0.18504  0.53589  Biso   1.000  C
  C597     1.0000 0.01709  0.38170  0.72703  Biso   1.000  C
  C598     1.0000 0.31103  0.97698  0.62442  Biso   1.000  C
  C599     1.0000 0.13683  0.17807  0.03095  Biso   1.000  C
  C600     1.0000 0.51854  0.36067  0.81057  Biso   1.000  C
  C601     1.0000 0.22831  0.96704  0.91556  Biso   1.000  C
  C602     1.0000 0.93317  0.19257  0.01989  Biso   1.000  C
  C603     1.0000 0.02797  0.87178  0.22332  Biso   1.000  C
  C604     1.0000 0.72697  0.97563  0.60936  Biso   1.000  C
  C605     1.0000 0.43120  0.18365  0.51234  Biso   1.000  C
  C606     1.0000 0.50327  0.89104  0.30133  Biso   1.000  C
  C607     1.0000 0.31385  0.45464  0.91059  Biso   1.000  C
  C608     1.0000 0.61138  0.69109  0.01071  Biso   1.000  C
  C609     1.0000 0.49913  0.39146  0.22598  Biso   1.000  C
  C610     1.0000 0.81533  0.46855  0.61950  Biso   1.000  C
  C611     1.0000 0.10970  0.68463  0.49791  Biso   1.000  C
  C612     1.0000 0.00641  0.37058  0.31190  Biso   1.000  C
  C613     1.0000 0.80985  0.99637  0.11467  Biso   1.000  C
  C614     1.0000 0.10187  0.76319  0.00678  Biso   1.000  C
  C615     1.0000 0.01341  0.08735  0.81046  Biso   1.000  C
  C616     1.0000 0.30427  0.98360  0.41787  Biso   1.000  C
  C617     1.0000 0.61314  0.76748  0.50760  Biso   1.000  C
  C618     1.0000 0.52505  0.06129  0.72674  Biso   1.000  C
  C619     1.0000 0.72929  0.49427  0.11893  Biso   1.000  C
  C620     1.0000 0.42756  0.26251  0.03818  Biso   1.000  C
  C621     1.0000 0.52304  0.56229  0.80000  Biso   1.000  C
  C622     1.0000 0.22866  0.47324  0.41646  Biso   1.000  C
  C623     1.0000 0.92930  0.26784  0.53243  Biso   1.000  C
  C624     1.0000 0.02801  0.58488  0.72558  Biso   1.000  C
  C625     1.0000 0.02998  0.18829  0.91975  Biso   1.000  C
  C626     1.0000 0.90997  0.95463  0.22094  Biso   1.000  C
  C627     1.0000 0.21789  0.86422  0.02042  Biso   1.000  C
  C628     1.0000 0.51699  0.17597  0.62701  Biso   1.000  C
  C629     1.0000 0.40604  0.98505  0.31004  Biso   1.000  C
  C630     1.0000 0.72429  0.86838  0.50614  Biso   1.000  C
  C631     1.0000 0.50468  0.67414  0.90069  Biso   1.000  C
  C632     1.0000 0.61505  0.48955  0.22232  Biso   1.000  C
  C633     1.0000 0.31643  0.36276  0.01325  Biso   1.000  C
  C634     1.0000 0.02286  0.68947  0.61562  Biso   1.000  C
  C635     1.0000 0.12023  0.45988  0.31475  Biso   1.000  C
  C636     1.0000 0.81326  0.36339  0.50949  Biso   1.000  C
  C637     1.0000 0.00501  0.76536  0.11559  Biso   1.000  C
  C638     1.0000 0.12319  0.99930  0.80873  Biso   1.000  C
  C639     1.0000 0.81794  0.09466  0.02379  Biso   1.000  C
  C640     1.0000 0.50962  0.77380  0.39741  Biso   1.000  C
  C641     1.0000 0.62682  0.95748  0.72028  Biso   1.000  C
  C642     1.0000 0.31515  0.08448  0.50946  Biso   1.000  C
  C643     1.0000 0.52937  0.28310  0.12505  Biso   1.000  C
  C644     1.0000 0.42252  0.45466  0.80341  Biso   1.000  C
  C645     1.0000 0.72258  0.58724  0.01447  Biso   1.000  C
  C646     1.0000 0.02393  0.26439  0.41978  Biso   1.000  C
  C647     1.0000 0.92199  0.48103  0.72615  Biso   1.000  C
  C648     1.0000 0.22608  0.58524  0.50239  Biso   1.000  C
  C649     1.0000 0.00762  0.68069  0.41517  Biso   1.000  C
  C650     1.0000 0.41859  0.96673  0.72513  Biso   1.000  C
  C651     1.0000 0.73263  0.38640  0.02923  Biso   1.000  C
  C652     1.0000 0.50401  0.69179  0.10539  Biso   1.000  C
  C653     1.0000 0.91934  0.98885  0.80299  Biso   1.000  C
  C654     1.0000 0.23784  0.38238  0.51090  Biso   1.000  C
  C655     1.0000 0.53569  0.18957  0.42282  Biso   1.000  C
  C656     1.0000 0.12868  0.47305  0.72814  Biso   1.000  C
  C657     1.0000 0.80455  0.89295  0.01277  Biso   1.000  C
  C658     1.0000 0.02273  0.18352  0.12255  Biso   1.000  C
  C659     1.0000 0.62579  0.44550  0.81003  Biso   1.000  C
  C660     1.0000 0.30355  0.87765  0.51258  Biso   1.000  C
  C661     1.0000 0.03621  0.27476  0.62314  Biso   1.000  C
  C662     1.0000 0.60989  0.98033  0.30353  Biso   1.000  C
  C663     1.0000 0.30270  0.56862  0.00493  Biso   1.000  C
  C664     1.0000 0.52057  0.26049  0.92498  Biso   1.000  C
  C665     1.0000 0.11169  0.98213  0.22693  Biso   1.000  C
  C666     1.0000 0.80103  0.57019  0.50399  Biso   1.000  C
  C667     1.0000 0.49934  0.75802  0.60223  Biso   1.000  C
  C668     1.0000 0.91607  0.48926  0.31457  Biso   1.000  C
  C669     1.0000 0.23952  0.06318  0.01950  Biso   1.000  C
  C670     1.0000 0.01618  0.77637  0.90886  Biso   1.000  C
  C671     1.0000 0.40949  0.49654  0.22384  Biso   1.000  C
  C672     1.0000 0.73221  0.07349  0.50810  Biso   1.000  C
  C673     1.0000 0.21828  0.98620  0.82245  Biso   1.000  C
  C674     1.0000 0.83674  0.18490  0.01959  Biso   1.000  C
  C675     1.0000 0.01739  0.77677  0.21124  Biso   1.000  C
  C676     1.0000 0.71920  0.97281  0.70471  Biso   1.000  C
  C677     1.0000 0.33785  0.17822  0.50660  Biso   1.000  C
  C678     1.0000 0.50626  0.79705  0.30455  Biso   1.000  C
  C679     1.0000 0.32855  0.45143  0.81588  Biso   1.000  C
  C680     1.0000 0.70427  0.68195  0.00655  Biso   1.000  C
  C681     1.0000 0.51809  0.29905  0.21801  Biso   1.000  C
  C682     1.0000 0.83158  0.47205  0.71277  Biso   1.000  C
  C683     1.0000 0.20660  0.67892  0.50365  Biso   1.000  C
  C684     1.0000 0.01210  0.27505  0.32748  Biso   1.000  C
  C685     1.0000 0.81745  0.97590  0.20733  Biso   1.000  C
  C686     1.0000 0.20009  0.77109  0.00746  Biso   1.000  C
  C687     1.0000 0.01688  0.18172  0.82635  Biso   1.000  C
  C688     1.0000 0.31194  0.97752  0.32480  Biso   1.000  C
  C689     1.0000 0.70900  0.77673  0.50853  Biso   1.000  C
  C690     1.0000 0.51971  0.15645  0.72088  Biso   1.000  C
  C691     1.0000 0.71128  0.49440  0.21423  Biso   1.000  C
  C692     1.0000 0.33321  0.27197  0.02421  Biso   1.000  C
  C693     1.0000 0.50691  0.65724  0.80999  Biso   1.000  C
  C694     1.0000 0.21265  0.47181  0.32204  Biso   1.000  C
  C695     1.0000 0.83477  0.27365  0.52726  Biso   1.000  C
  C696     1.0000 0.02137  0.67671  0.71342  Biso   1.000  C
  C697     1.0000 0.70459  0.97567  0.31304  Biso   1.000  C
  C698     1.0000 0.30969  0.66256  0.00261  Biso   1.000  C
  C699     1.0000 0.02668  0.28955  0.71717  Biso   1.000  C
  C700     1.0000 0.20556  0.96322  0.21525  Biso   1.000  C
  C701     1.0000 0.80976  0.66441  0.50479  Biso   1.000  C
  C702     1.0000 0.52438  0.26641  0.82887  Biso   1.000  C
  C703     1.0000 0.82236  0.47901  0.31959  Biso   1.000  C
  C704     1.0000 0.23088  0.16050  0.02152  Biso   1.000  C
  C705     1.0000 0.49917  0.76774  0.69859  Biso   1.000  C
  C706     1.0000 0.31593  0.48805  0.20936  Biso   1.000  C
  C707     1.0000 0.72610  0.16496  0.52242  Biso   1.000  C
  C708     1.0000 0.02376  0.79041  0.81742  Biso   1.000  C
  C709     1.0000 0.32932  0.98151  0.71687  Biso   1.000  C
  C710     1.0000 0.72446  0.28973  0.02784  Biso   1.000  C
  C711     1.0000 0.01673  0.66377  0.32031  Biso   1.000  C
  C712     1.0000 0.82626  0.98325  0.81699  Biso   1.000  C
  C713     1.0000 0.23180  0.28611  0.51377  Biso   1.000  C
  C714     1.0000 0.51138  0.68539  0.19924  Biso   1.000  C
  C715     1.0000 0.22280  0.47504  0.71316  Biso   1.000  C
  C716     1.0000 0.80682  0.79617  0.01491  Biso   1.000  C
  C717     1.0000 0.52711  0.18627  0.32822  Biso   1.000  C
  C718     1.0000 0.72024  0.46328  0.82024  Biso   1.000  C
  C719     1.0000 0.31409  0.78405  0.49897  Biso   1.000  C
  C720     1.0000 0.01038  0.16557  0.21721  Biso   1.000  C
  C721     1.0000 0.51915  0.80345  0.27598  Biso   1.000  C
  C722     1.0000 0.33423  0.46757  0.79013  Biso   1.000  C
  C723     1.0000 0.80404  0.27803  0.53647  Biso   1.000  C
  C724     1.0000 0.99907  0.75131  0.20930  Biso   1.000  C
  C725     1.0000 0.80411  0.48847  0.71017  Biso   1.000  C
  C726     1.0000 0.31354  0.27158  0.00002  Biso   1.000  C
  C727     1.0000 0.98752  0.27361  0.30669  Biso   1.000  C
  C728     1.0000 0.24670  0.00009  0.82864  Biso   1.000  C
  C729     1.0000 0.73800  0.77758  0.51965  Biso   1.000  C
  C730     1.0000 0.49668  0.29576  0.24102  Biso   1.000  C
  C731     1.0000 0.74587  0.95925  0.70014  Biso   1.000  C
  C732     1.0000 0.22707  0.77462  0.99194  Biso   1.000  C
  C733     1.0000 0.50227  0.15314  0.74662  Biso   1.000  C
  C734     1.0000 0.70917  0.47715  0.23970  Biso   1.000  C
  C735     1.0000 0.20537  0.70245  0.48353  Biso   1.000  C
  C736     1.0000 0.00263  0.21012  0.82952  Biso   1.000  C
  C737     1.0000 0.24321  0.46280  0.32498  Biso   1.000  C
  C738     1.0000 0.72657  0.68055  0.02993  Biso   1.000  C
  C739     1.0000 0.03949  0.67311  0.73879  Biso   1.000  C
  C740     1.0000 0.78810  0.96495  0.20012  Biso   1.000  C
  C741     1.0000 0.31440  0.17871  0.48479  Biso   1.000  C
  C742     1.0000 0.52466  0.65854  0.78383  Biso   1.000  C
  C743     1.0000 0.29020  0.95444  0.32776  Biso   1.000  C
  C744     1.0000 0.84135  0.21124  0.03585  Biso   1.000  C
  C745     1.0000 0.03616  0.68943  0.32232  Biso   1.000  C
  C746     1.0000 0.30804  0.00416  0.71625  Biso   1.000  C
  C747     1.0000 0.74916  0.29132  0.04730  Biso   1.000  C
  C748     1.0000 0.52707  0.71167  0.19388  Biso   1.000  C
  C749     1.0000 0.82966  0.96104  0.79436  Biso   1.000  C
  C750     1.0000 0.26026  0.29048  0.52714  Biso   1.000  C
  C751     1.0000 0.53895  0.18221  0.29845  Biso   1.000  C
  C752     1.0000 0.25001  0.45957  0.70218  Biso   1.000  C
  C753     1.0000 0.77607  0.80106  0.00371  Biso   1.000  C
  C754     1.0000 0.02419  0.16062  0.24530  Biso   1.000  C
  C755     1.0000 0.71506  0.47626  0.79112  Biso   1.000  C
  C756     1.0000 0.28853  0.78530  0.51843  Biso   1.000  C
  C757     1.0000 0.01161  0.26234  0.71044  Biso   1.000  C
  C758     1.0000 0.70283  0.99315  0.28699  Biso   1.000  C
  C759     1.0000 0.31180  0.68787  0.02189  Biso   1.000  C
  C760     1.0000 0.53919  0.26911  0.80004  Biso   1.000  C
  C761     1.0000 0.23451  0.97422  0.20954  Biso   1.000  C
  C762     1.0000 0.81864  0.68992  0.48866  Biso   1.000  C
  C763     1.0000 0.48513  0.77288  0.72568  Biso   1.000  C
  C764     1.0000 0.79788  0.49907  0.32498  Biso   1.000  C
  C765     1.0000 0.25858  0.15612  0.03565  Biso   1.000  C
  C766     1.0000 0.00569  0.79096  0.79071  Biso   1.000  C
  C767     1.0000 0.31817  0.50566  0.23594  Biso   1.000  C
  C768     1.0000 0.72310  0.19221  0.50754  Biso   1.000  C
  C769     1.0000 0.48446  0.68063  0.81113  Biso   1.000  C
  C770     1.0000 0.83356  0.45074  0.73619  Biso   1.000  C
  C771     1.0000 0.70271  0.75211  0.48794  Biso   1.000  C
  C772     1.0000 0.00601  0.70268  0.70978  Biso   1.000  C
  C773     1.0000 0.30409  0.43230  0.81639  Biso   1.000  C
  C774     1.0000 0.19500  0.74393  0.02370  Biso   1.000  C
  C775     1.0000 0.03152  0.17704  0.79794  Biso   1.000  C
  C776     1.0000 0.71512  0.98980  0.73125  Biso   1.000  C
  C777     1.0000 0.84132  0.24249  0.51818  Biso   1.000  C
  C778     1.0000 0.53806  0.18207  0.71979  Biso   1.000  C
  C779     1.0000 0.21533  0.97259  0.79253  Biso   1.000  C
  C780     1.0000 0.33008  0.25073  0.04628  Biso   1.000  C
  C781     1.0000 0.54228  0.27839  0.22016  Biso   1.000  C
  C782     1.0000 0.20605  0.48981  0.29640  Biso   1.000  C
  C783     1.0000 0.33967  0.20094  0.52765  Biso   1.000  C
  C784     1.0000 0.03230  0.24975  0.32814  Biso   1.000  C
  C785     1.0000 0.73771  0.51168  0.21121  Biso   1.000  C
  C786     1.0000 0.80805  0.18231  0.00279  Biso   1.000  C
  C787     1.0000 0.03846  0.77815  0.23579  Biso   1.000  C
  C788     1.0000 0.30894  0.99709  0.30046  Biso   1.000  C
  C789     1.0000 0.23172  0.67400  0.52235  Biso   1.000  C
  C790     1.0000 0.49023  0.77006  0.30767  Biso   1.000  C
  C791     1.0000 0.82350  0.98759  0.23621  Biso   1.000  C
  C792     1.0000 0.70420  0.70664  0.98750  Biso   1.000  C
  C793     1.0000 0.51395  0.21486  0.33421  Biso   1.000  C
  C794     1.0000 0.28938  0.47180  0.20562  Biso   1.000  C
  C795     1.0000 0.22616  0.25904  0.49798  Biso   1.000  C
  C796     1.0000 0.99569  0.19363  0.21251  Biso   1.000  C
  C797     1.0000 0.82328  0.46617  0.29118  Biso   1.000  C
  C798     1.0000 0.72308  0.26560  0.00723  Biso   1.000  C
  C799     1.0000 0.99922  0.66322  0.29376  Biso   1.000  C
  C800     1.0000 0.20072  0.94918  0.24352  Biso   1.000  C
  C801     1.0000 0.31734  0.75861  0.47968  Biso   1.000  C
  C802     1.0000 0.49217  0.68321  0.22402  Biso   1.000  C
  C803     1.0000 0.73224  0.95737  0.31484  Biso   1.000  C
  C804     1.0000 0.81007  0.76827  0.02923  Biso   1.000  C
  C805     1.0000 0.51148  0.73852  0.69470  Biso   1.000  C
  C806     1.0000 0.74998  0.45324  0.82490  Biso   1.000  C
  C807     1.0000 0.77804  0.66165  0.51473  Biso   1.000  C
  C808     1.0000 0.04067  0.76508  0.81999  Biso   1.000  C
  C809     1.0000 0.22198  0.48192  0.74336  Biso   1.000  C
  C810     1.0000 0.28325  0.66061  0.98508  Biso   1.000  C
  C811     1.0000 0.03874  0.29269  0.74575  Biso   1.000  C
  C812     1.0000 0.80216  0.00358  0.81493  Biso   1.000  C
  C813     1.0000 0.75165  0.15893  0.53947  Biso   1.000  C
  C814     1.0000 0.50947  0.23889  0.83433  Biso   1.000  C
  C815     1.0000 0.32826  0.96210  0.74211  Biso   1.000  C
  C816     1.0000 0.22425  0.18798  0.00760  Biso   1.000  C
  C817     1.0000 0.00351  0.23031  0.80629  Biso   1.000  C
  C818     1.0000 0.76747  0.96551  0.22171  Biso   1.000  C
  C819     1.0000 0.24768  0.75117  0.99235  Biso   1.000  C
  C820     1.0000 0.50284  0.17399  0.76764  Biso   1.000  C
  C821     1.0000 0.27017  0.94815  0.30586  Biso   1.000  C
  C822     1.0000 0.75800  0.75620  0.51362  Biso   1.000  C
  C823     1.0000 0.52258  0.68164  0.76391  Biso   1.000  C
  C824     1.0000 0.73063  0.47821  0.26013  Biso   1.000  C
  C825     1.0000 0.29194  0.25053  0.99917  Biso   1.000  C
  C826     1.0000 0.04190  0.69631  0.75925  Biso   1.000  C
  C827     1.0000 0.26342  0.46906  0.30308  Biso   1.000  C
  C828     1.0000 0.78372  0.25626  0.53459  Biso   1.000  C
  C829     1.0000 0.00156  0.72947  0.23114  Biso   1.000  C
  C830     1.0000 0.26747  0.00041  0.80811  Biso   1.000  C
  C831     1.0000 0.81954  0.23228  0.03642  Biso   1.000  C
  C832     1.0000 0.51606  0.78317  0.25407  Biso   1.000  C
  C833     1.0000 0.76852  0.96258  0.72090  Biso   1.000  C
  C834     1.0000 0.29546  0.20250  0.48387  Biso   1.000  C
  C835     1.0000 0.49925  0.27379  0.26201  Biso   1.000  C
  C836     1.0000 0.31482  0.46555  0.76775  Biso   1.000  C
  C837     1.0000 0.74512  0.70344  0.03254  Biso   1.000  C
  C838     1.0000 0.98638  0.25154  0.28613  Biso   1.000  C
  C839     1.0000 0.78302  0.48620  0.73216  Biso   1.000  C
  C840     1.0000 0.22882  0.72176  0.48259  Biso   1.000  C
  C841     1.0000 0.23842  0.97313  0.77255  Biso   1.000  C
  C842     1.0000 0.78725  0.20235  0.00699  Biso   1.000  C
  C843     1.0000 0.03956  0.75683  0.25679  Biso   1.000  C
  C844     1.0000 0.73707  0.99091  0.75257  Biso   1.000  C
  C845     1.0000 0.32000  0.22350  0.52763  Biso   1.000  C
  C846     1.0000 0.49097  0.74975  0.28546  Biso   1.000  C
  C847     1.0000 0.28348  0.43116  0.79574  Biso   1.000  C
  C848     1.0000 0.72388  0.72792  0.98985  Biso   1.000  C
  C849     1.0000 0.54487  0.25769  0.24110  Biso   1.000  C
  C850     1.0000 0.81159  0.44995  0.75573  Biso   1.000  C
  C851     1.0000 0.25522  0.69214  0.51807  Biso   1.000  C
  C852     1.0000 0.03135  0.22865  0.30622  Biso   1.000  C
  C853     1.0000 0.80031  0.98704  0.25677  Biso   1.000  C
  C854     1.0000 0.21580  0.72168  0.02296  Biso   1.000  C
  C855     1.0000 0.03261  0.19849  0.77623  Biso   1.000  C
  C856     1.0000 0.28694  0.99081  0.28133  Biso   1.000  C
  C857     1.0000 0.72200  0.73205  0.48122  Biso   1.000  C
  C858     1.0000 0.53865  0.20211  0.74215  Biso   1.000  C
  C859     1.0000 0.75925  0.51128  0.23180  Biso   1.000  C
  C860     1.0000 0.31098  0.22793  0.04260  Biso   1.000  C
  C861     1.0000 0.48110  0.70004  0.78720  Biso   1.000  C
  C862     1.0000 0.22602  0.49419  0.27382  Biso   1.000  C
  C863     1.0000 0.82036  0.22175  0.51995  Biso   1.000  C
  C864     1.0000 0.00679  0.72340  0.73098  Biso   1.000  C
  C865     1.0000 0.73568  0.47587  0.77053  Biso   1.000  C
  C866     1.0000 0.79735  0.71079  0.48246  Biso   1.000  C
  C867     1.0000 0.48231  0.75136  0.74619  Biso   1.000  C
  C868     1.0000 0.27206  0.45263  0.72203  Biso   1.000  C
  C869     1.0000 0.28820  0.70562  0.02451  Biso   1.000  C
  C870     1.0000 0.00682  0.76810  0.77174  Biso   1.000  C
  C871     1.0000 0.81097  0.96166  0.77114  Biso   1.000  C
  C872     1.0000 0.74349  0.21296  0.51053  Biso   1.000  C
  C873     1.0000 0.00897  0.24036  0.73303  Biso   1.000  C
  C874     1.0000 0.28726  0.00503  0.73810  Biso   1.000  C
  C875     1.0000 0.28084  0.17619  0.03057  Biso   1.000  C
  C876     1.0000 0.53708  0.24689  0.77915  Biso   1.000  C
  C877     1.0000 0.29749  0.50685  0.25808  Biso   1.000  C
  C878     1.0000 0.28085  0.27003  0.52304  Biso   1.000  C
  C879     1.0000 0.53905  0.20474  0.27722  Biso   1.000  C
  C880     1.0000 0.77665  0.50430  0.30382  Biso   1.000  C
  C881     1.0000 0.77222  0.27200  0.04434  Biso   1.000  C
  C882     1.0000 0.02315  0.18099  0.26686  Biso   1.000  C
  C883     1.0000 0.25558  0.97287  0.23105  Biso   1.000  C
  C884     1.0000 0.26787  0.76255  0.51843  Biso   1.000  C
  C885     1.0000 0.03778  0.71040  0.30123  Biso   1.000  C
  C886     1.0000 0.72529  0.99522  0.26748  Biso   1.000  C
  C887     1.0000 0.75561  0.77837  0.00238  Biso   1.000  C
  C888     1.0000 0.52503  0.73409  0.21376  Biso   1.000  C
  C889     1.0000 0.75392  0.95869  0.29381  Biso   1.000  C
  C890     1.0000 0.26271  0.68131  0.98646  Biso   1.000  C
  C891     1.0000 0.03545  0.27252  0.76723  Biso   1.000  C
  C892     1.0000 0.22248  0.94742  0.26405  Biso   1.000  C
  C893     1.0000 0.75875  0.68445  0.50788  Biso   1.000  C
  C894     1.0000 0.50926  0.21733  0.81411  Biso   1.000  C
  C895     1.0000 0.80088  0.47011  0.27023  Biso   1.000  C
  C896     1.0000 0.24538  0.20790  0.00468  Biso   1.000  C
  C897     1.0000 0.51253  0.71799  0.71640  Biso   1.000  C
  C898     1.0000 0.26925  0.47263  0.22762  Biso   1.000  C
  C899     1.0000 0.77468  0.17904  0.53815  Biso   1.000  C
  C900     1.0000 0.04209  0.74284  0.80041  Biso   1.000  C
  C901     1.0000 0.30602  0.96496  0.76226  Biso   1.000  C
  C902     1.0000 0.74664  0.24687  0.00538  Biso   1.000  C
  C903     1.0000 0.00410  0.68313  0.27242  Biso   1.000  C
  C904     1.0000 0.78228  0.00134  0.79202  Biso   1.000  C
  C905     1.0000 0.24840  0.23901  0.49562  Biso   1.000  C
  C906     1.0000 0.49005  0.70698  0.24280  Biso   1.000  C
  C907     1.0000 0.24372  0.47191  0.76273  Biso   1.000  C
  C908     1.0000 0.78856  0.74816  0.03156  Biso   1.000  C
  C909     1.0000 0.51386  0.23452  0.31086  Biso   1.000  C
  C910     1.0000 0.77012  0.45363  0.80213  Biso   1.000  C
  C911     1.0000 0.29592  0.73773  0.47910  Biso   1.000  C
  C912     1.0000 0.99582  0.21413  0.23519  Biso   1.000  C
  C913     1.0000 0.78776  0.46729  0.75505  Biso   1.000  C
  C914     1.0000 0.75005  0.73415  0.49383  Biso   1.000  C
  C915     1.0000 0.50059  0.70268  0.76552  Biso   1.000  C
  C916     1.0000 0.28900  0.44864  0.77125  Biso   1.000  C
  C917     1.0000 0.24145  0.72540  0.00691  Biso   1.000  C
  C918     1.0000 0.02332  0.72039  0.75643  Biso   1.000  C
  C919     1.0000 0.76435  0.97792  0.74845  Biso   1.000  C
  C920     1.0000 0.79153  0.22846  0.52868  Biso   1.000  C
  C921     1.0000 0.01944  0.22451  0.78170  Biso   1.000  C
  C922     1.0000 0.26277  0.98803  0.78137  Biso   1.000  C
  C923     1.0000 0.29307  0.22695  0.01875  Biso   1.000  C
  C924     1.0000 0.52161  0.19732  0.76682  Biso   1.000  C
  C925     1.0000 0.25400  0.48392  0.27725  Biso   1.000  C
  C926     1.0000 0.29722  0.22415  0.50557  Biso   1.000  C
  C927     1.0000 0.52374  0.25608  0.26204  Biso   1.000  C
  C928     1.0000 0.75537  0.49413  0.25593  Biso   1.000  C
  C929     1.0000 0.79348  0.22797  0.02210  Biso   1.000  C
  C930     1.0000 0.00995  0.23029  0.28524  Biso   1.000  C
  C931     1.0000 0.26860  0.96664  0.28148  Biso   1.000  C
  C932     1.0000 0.25216  0.71550  0.49957  Biso   1.000  C
  C933     1.0000 0.01999  0.73322  0.25580  Biso   1.000  C
  C934     1.0000 0.77309  0.97839  0.24771  Biso   1.000  C
  C935     1.0000 0.74465  0.72592  0.01209  Biso   1.000  C
  C936     1.0000 0.50436  0.75552  0.25934  Biso   1.000  C
  C937     1.0000 0.77019  0.24934  0.02426  Biso   1.000  C
  C938     1.0000 0.02231  0.70757  0.27576  Biso   1.000  C
  C939     1.0000 0.28606  0.98584  0.75941  Biso   1.000  C
  C940     1.0000 0.27548  0.24575  0.50748  Biso   1.000  C
  C941     1.0000 0.50655  0.73143  0.23866  Biso   1.000  C
  C942     1.0000 0.78717  0.98120  0.77029  Biso   1.000  C
  C943     1.0000 0.76324  0.75223  0.01613  Biso   1.000  C
  C944     1.0000 0.52668  0.23146  0.28419  Biso   1.000  C
  C945     1.0000 0.26688  0.45628  0.75150  Biso   1.000  C
  C946     1.0000 0.27338  0.73903  0.49881  Biso   1.000  C
  C947     1.0000 0.00957  0.20834  0.26245  Biso   1.000  C
  C948     1.0000 0.76345  0.46583  0.77607  Biso   1.000  C
  C949     1.0000 0.26348  0.70214  0.00686  Biso   1.000  C
  C950     1.0000 0.02080  0.24706  0.75981  Biso   1.000  C
  C951     1.0000 0.75007  0.97928  0.27085  Biso   1.000  C
  C952     1.0000 0.76947  0.70889  0.49284  Biso   1.000  C
  C953     1.0000 0.52189  0.22120  0.78687  Biso   1.000  C
  C954     1.0000 0.24867  0.96177  0.25759  Biso   1.000  C
  C955     1.0000 0.27319  0.20281  0.01702  Biso   1.000  C
  C956     1.0000 0.49776  0.72485  0.74237  Biso   1.000  C
  C957     1.0000 0.77868  0.48822  0.27783  Biso   1.000  C
  C958     1.0000 0.76858  0.20566  0.52663  Biso   1.000  C
  C959     1.0000 0.02461  0.74419  0.77596  Biso   1.000  C
  C960     1.0000 0.27377  0.49002  0.25240  Biso   1.000  C
  Cu1      1.0000 0.02554  0.48451  0.67339  Biso   1.000  Cu
  Cu2      1.0000 0.67077  0.97375  0.51001  Biso   1.000  Cu
  Cu3      1.0000 0.51024  0.63003  0.00681  Biso   1.000  Cu
  Cu4      1.0000 0.52443  0.46178  0.86023  Biso   1.000  Cu
  Cu5      1.0000 0.17113  0.96812  0.01715  Biso   1.000  Cu
  Cu6      1.0000 0.00862  0.62780  0.51827  Biso   1.000  Cu
  Cu7      1.0000 0.52020  0.95975  0.66758  Biso   1.000  Cu
  Cu8      1.0000 0.86067  0.46913  0.51420  Biso   1.000  Cu
  Cu9      1.0000 0.03046  0.13157  0.02055  Biso   1.000  Cu
  Cu10     1.0000 0.02060  0.98304  0.85849  Biso   1.000  Cu
  Cu11     1.0000 0.36430  0.46796  0.01417  Biso   1.000  Cu
  Cu12     1.0000 0.53285  0.12958  0.52119  Biso   1.000  Cu
  Cu13     1.0000 0.01608  0.47168  0.36944  Biso   1.000  Cu
  Cu14     1.0000 0.36118  0.97647  0.51619  Biso   1.000  Cu
  Cu15     1.0000 0.52589  0.32471  0.01891  Biso   1.000  Cu
  Cu16     1.0000 0.51302  0.48940  0.16709  Biso   1.000  Cu
  Cu17     1.0000 0.86376  0.98815  0.01259  Biso   1.000  Cu
  Cu18     1.0000 0.03129  0.32392  0.52078  Biso   1.000  Cu
  Cu19     1.0000 0.51015  0.98880  0.36089  Biso   1.000  Cu
  Cu20     1.0000 0.17389  0.47954  0.51823  Biso   1.000  Cu
  Cu21     1.0000 0.00562  0.82373  0.01386  Biso   1.000  Cu
  Cu22     1.0000 0.01270  0.97433  0.16936  Biso   1.000  Cu
  Cu23     1.0000 0.67244  0.48372  0.01954  Biso   1.000  Cu
  Cu24     1.0000 0.51027  0.82133  0.50498  Biso   1.000  Cu
  Cu25     1.0000 0.22584  0.96091  0.01815  Biso   1.000  Cu
  Cu26     1.0000 0.03389  0.18524  0.02048  Biso   1.000  Cu
  Cu27     1.0000 0.01146  0.97250  0.22361  Biso   1.000  Cu
  Cu28     1.0000 0.72573  0.97098  0.50907  Biso   1.000  Cu
  Cu29     1.0000 0.52875  0.18514  0.52356  Biso   1.000  Cu
  Cu30     1.0000 0.50908  0.99124  0.30535  Biso   1.000  Cu
  Cu31     1.0000 0.30906  0.46662  0.01061  Biso   1.000  Cu
  Cu32     1.0000 0.50652  0.68361  0.00307  Biso   1.000  Cu
  Cu33     1.0000 0.51421  0.49057  0.22383  Biso   1.000  Cu
  Cu34     1.0000 0.80799  0.46715  0.51666  Biso   1.000  Cu
  Cu35     1.0000 0.00614  0.68029  0.51466  Biso   1.000  Cu
  Cu36     1.0000 0.01897  0.47346  0.31306  Biso   1.000  Cu
  Cu37     1.0000 0.81054  0.99448  0.01285  Biso   1.000  Cu
  Cu38     1.0000 0.00140  0.77075  0.01149  Biso   1.000  Cu
  Cu39     1.0000 0.02193  0.98780  0.80541  Biso   1.000  Cu
  Cu40     1.0000 0.30762  0.98023  0.51970  Biso   1.000  Cu
  Cu41     1.0000 0.51089  0.76807  0.50077  Biso   1.000  Cu
  Cu42     1.0000 0.52141  0.95745  0.72355  Biso   1.000  Cu
  Cu43     1.0000 0.72741  0.48524  0.01572  Biso   1.000  Cu
  Cu44     1.0000 0.52881  0.27073  0.02621  Biso   1.000  Cu
  Cu45     1.0000 0.52422  0.45972  0.80656  Biso   1.000  Cu
  Cu46     1.0000 0.22904  0.48202  0.51748  Biso   1.000  Cu
  Cu47     1.0000 0.03440  0.26975  0.52125  Biso   1.000  Cu
  Cu48     1.0000 0.02492  0.48508  0.72718  Biso   1.000  Cu
  H1       1.0000 0.24869  0.76347  0.53175  Biso   1.000  H
  H2       1.0000 0.54782  0.25189  0.75924  Biso   1.000  H
  H3       1.0000 0.76072  0.52227  0.30690  Biso   1.000  H
  H4       1.0000 0.73395  0.78214  0.99221  Biso   1.000  H
  H5       1.0000 0.99493  0.22215  0.73164  Biso   1.000  H
  H6       1.0000 0.30042  0.52061  0.27709  Biso   1.000  H
  H7       1.0000 0.30059  0.27849  0.53414  Biso   1.000  H
  H8       1.0000 0.99090  0.77108  0.75482  Biso   1.000  H
  H9       1.0000 0.72484  0.01376  0.25238  Biso   1.000  H
  H10      1.0000 0.79033  0.27411  0.05866  Biso   1.000  H
  H11      1.0000 0.46744  0.75674  0.76611  Biso   1.000  H
  H12      1.0000 0.27623  0.98359  0.22428  Biso   1.000  H
  H13      1.0000 0.74085  0.23236  0.49776  Biso   1.000  H
  H14      1.0000 0.53649  0.75520  0.20968  Biso   1.000  H
  H15      1.0000 0.29273  0.44462  0.71502  Biso   1.000  H
  H16      1.0000 0.30318  0.16762  0.03356  Biso   1.000  H
  H17      1.0000 0.05050  0.73017  0.30558  Biso   1.000  H
  H18      1.0000 0.72942  0.48439  0.74766  Biso   1.000  H
  H19      1.0000 0.80373  0.73014  0.47139  Biso   1.000  H
  H20      1.0000 0.03145  0.17509  0.28803  Biso   1.000  H
  H21      1.0000 0.27172  0.02216  0.73388  Biso   1.000  H
  H22      1.0000 0.29240  0.72433  0.03939  Biso   1.000  H
  H23      1.0000 0.54720  0.20056  0.25555  Biso   1.000  H
  H24      1.0000 0.81412  0.94767  0.75331  Biso   1.000  H
  H25      1.0000 0.28954  0.00854  0.81150  Biso   1.000  H
  H26      1.0000 0.82307  0.25142  0.04899  Biso   1.000  H
  H27      1.0000 0.98837  0.71125  0.22731  Biso   1.000  H
  H28      1.0000 0.78930  0.95441  0.71730  Biso   1.000  H
  H29      1.0000 0.27859  0.20275  0.46703  Biso   1.000  H
  H30      1.0000 0.52671  0.78924  0.23420  Biso   1.000  H
  H31      1.0000 0.32038  0.47583  0.74798  Biso   1.000  H
  H32      1.0000 0.75986  0.70074  0.05144  Biso   1.000  H
  H33      1.0000 0.48277  0.27408  0.27816  Biso   1.000  H
  H34      1.0000 0.76579  0.50188  0.73258  Biso   1.000  H
  H35      1.0000 0.22836  0.74038  0.46861  Biso   1.000  H
  H36      1.0000 0.96916  0.25189  0.26937  Biso   1.000  H
  H37      1.0000 0.74504  0.95668  0.21768  Biso   1.000  H
  H38      1.0000 0.26755  0.75542  0.98139  Biso   1.000  H
  H39      1.0000 0.99237  0.25271  0.80713  Biso   1.000  H
  H40      1.0000 0.25588  0.92801  0.30694  Biso   1.000  H
  H41      1.0000 0.78055  0.75578  0.52241  Biso   1.000  H
  H42      1.0000 0.48771  0.17159  0.78479  Biso   1.000  H
  H43      1.0000 0.72841  0.46621  0.28015  Biso   1.000  H
  H44      1.0000 0.27726  0.25231  0.98121  Biso   1.000  H
  H45      1.0000 0.54113  0.68314  0.74886  Biso   1.000  H
  H46      1.0000 0.28370  0.45852  0.30540  Biso   1.000  H
  H47      1.0000 0.76359  0.26072  0.54341  Biso   1.000  H
  H48      1.0000 0.05408  0.69539  0.77939  Biso   1.000  H
  H49      1.0000 0.21972  0.50500  0.25440  Biso   1.000  H
  H50      1.0000 0.32030  0.24007  0.54375  Biso   1.000  H
  H51      1.0000 0.56424  0.24364  0.23973  Biso   1.000  H
  H52      1.0000 0.77700  0.52521  0.22966  Biso   1.000  H
  H53      1.0000 0.76657  0.19497  0.99873  Biso   1.000  H
  H54      1.0000 0.04878  0.21255  0.30486  Biso   1.000  H
  H55      1.0000 0.28353  0.00644  0.26512  Biso   1.000  H
  H56      1.0000 0.27450  0.68883  0.52998  Biso   1.000  H
  H57      1.0000 0.05461  0.76383  0.27419  Biso   1.000  H
  H58      1.0000 0.80240  0.99527  0.27895  Biso   1.000  H
  H59      1.0000 0.72466  0.74403  0.97203  Biso   1.000  H
  H60      1.0000 0.48264  0.72874  0.29166  Biso   1.000  H
  H61      1.0000 0.81498  0.43721  0.77482  Biso   1.000  H
  H62      1.0000 0.71509  0.71574  0.46612  Biso   1.000  H
  H63      1.0000 0.46221  0.71291  0.78565  Biso   1.000  H
  H64      1.0000 0.26379  0.41961  0.80058  Biso   1.000  H
  H65      1.0000 0.21047  0.70184  0.03476  Biso   1.000  H
  H66      1.0000 0.99103  0.74188  0.72633  Biso   1.000  H
  H67      1.0000 0.73375  0.00199  0.77244  Biso   1.000  H
  H68      1.0000 0.82607  0.19781  0.51665  Biso   1.000  H
  H69      1.0000 0.04199  0.19326  0.75531  Biso   1.000  H
  H70      1.0000 0.23714  0.96017  0.75301  Biso   1.000  H
  H71      1.0000 0.31299  0.21093  0.05929  Biso   1.000  H
  H72      1.0000 0.55364  0.21847  0.74138  Biso   1.000  H
  H73      1.0000 0.79102  0.44292  0.80830  Biso   1.000  H
  H74      1.0000 0.73740  0.68507  0.51491  Biso   1.000  H
  H75      1.0000 0.52449  0.69852  0.71243  Biso   1.000  H
  H76      1.0000 0.24372  0.47703  0.78617  Biso   1.000  H
  H77      1.0000 0.24475  0.68138  0.97039  Biso   1.000  H
  H78      1.0000 0.05557  0.72333  0.80292  Biso   1.000  H
  H79      1.0000 0.76521  0.01877  0.78979  Biso   1.000  H
  H80      1.0000 0.79438  0.17550  0.55043  Biso   1.000  H
  H81      1.0000 0.04378  0.27503  0.78791  Biso   1.000  H
  H82      1.0000 0.30691  0.94890  0.78096  Biso   1.000  H
  H83      1.0000 0.23979  0.22969  0.99347  Biso   1.000  H
  H84      1.0000 0.49568  0.19833  0.81785  Biso   1.000  H
  H85      1.0000 0.24914  0.45935  0.22781  Biso   1.000  H
  H86      1.0000 0.24468  0.21809  0.48532  Biso   1.000  H
  H87      1.0000 0.50632  0.25612  0.31524  Biso   1.000  H
  H88      1.0000 0.80370  0.45853  0.24898  Biso   1.000  H
  H89      1.0000 0.74675  0.22920  0.98966  Biso   1.000  H
  H90      1.0000 0.98543  0.23509  0.23205  Biso   1.000  H
  H91      1.0000 0.22021  0.93275  0.28266  Biso   1.000  H
  H92      1.0000 0.29875  0.71948  0.46366  Biso   1.000  H
  H93      1.0000 0.99270  0.67826  0.25124  Biso   1.000  H
  H94      1.0000 0.77070  0.94223  0.29747  Biso   1.000  H
  H95      1.0000 0.79403  0.72658  0.04254  Biso   1.000  H
  H96      1.0000 0.47567  0.70420  0.26090  Biso   1.000  H
  H97      1.0000 0.88696  0.99168  0.92151  Biso   1.000  H
  H98      1.0000 0.91472  0.85082  0.00361  Biso   1.000  H
  H99      1.0000 0.02246  0.89702  0.87637  Biso   1.000  H
  H100     1.0000 0.38316  0.95958  0.60879  Biso   1.000  H
  H101     1.0000 0.42030  0.84204  0.50148  Biso   1.000  H
  H102     1.0000 0.52106  0.87379  0.64180  Biso   1.000  H
  H103     1.0000 0.65651  0.46111  0.92536  Biso   1.000  H
  H104     1.0000 0.61886  0.35021  0.01563  Biso   1.000  H
  H105     1.0000 0.51314  0.37224  0.88568  Biso   1.000  H
  H106     1.0000 0.15750  0.48038  0.61139  Biso   1.000  H
  H107     1.0000 0.11949  0.34762  0.51588  Biso   1.000  H
  H108     1.0000 0.02469  0.38963  0.65085  Biso   1.000  H
  H109     1.0000 0.14624  0.97789  0.10928  Biso   1.000  H
  H110     1.0000 0.12190  0.10319  0.02587  Biso   1.000  H
  H111     1.0000 0.00625  0.06646  0.15194  Biso   1.000  H
  H112     1.0000 0.64758  0.98246  0.42012  Biso   1.000  H
  H113     1.0000 0.61820  0.11105  0.52931  Biso   1.000  H
  H114     1.0000 0.52468  0.07659  0.38540  Biso   1.000  H
  H115     1.0000 0.38154  0.48485  0.10843  Biso   1.000  H
  H116     1.0000 0.41805  0.60144  0.00301  Biso   1.000  H
  H117     1.0000 0.51843  0.57797  0.14222  Biso   1.000  H
  H118     1.0000 0.87715  0.45770  0.42907  Biso   1.000  H
  H119     1.0000 0.91418  0.60051  0.52114  Biso   1.000  H
  H120     1.0000 0.01204  0.56422  0.38948  Biso   1.000  H
  H121     1.0000 0.11162  0.98345  0.88076  Biso   1.000  H
  H122     1.0000 0.89218  0.07711  0.01057  Biso   1.000  H
  H123     1.0000 0.01289  0.83891  0.10550  Biso   1.000  H
  H124     1.0000 0.60696  0.96930  0.64760  Biso   1.000  H
  H125     1.0000 0.38867  0.06622  0.51686  Biso   1.000  H
  H126     1.0000 0.50511  0.84881  0.41461  Biso   1.000  H
  H127     1.0000 0.43325  0.47130  0.87851  Biso   1.000  H
  H128     1.0000 0.64824  0.57475  0.01160  Biso   1.000  H
  H129     1.0000 0.52582  0.35896  0.11168  Biso   1.000  H
  H130     1.0000 0.93682  0.47365  0.65255  Biso   1.000  H
  H131     1.0000 0.15326  0.57147  0.50659  Biso   1.000  H
  H132     1.0000 0.02233  0.33952  0.42928  Biso   1.000  H
  H133     1.0000 0.92312  0.95662  0.14557  Biso   1.000  H
  H134     1.0000 0.14038  0.87670  0.02646  Biso   1.000  H
  H135     1.0000 0.02737  0.11184  0.92990  Biso   1.000  H
  H136     1.0000 0.41732  0.98962  0.38557  Biso   1.000  H
  H137     1.0000 0.65050  0.88398  0.51702  Biso   1.000  H
  H138     1.0000 0.52148  0.09933  0.61301  Biso   1.000  H
  H139     1.0000 0.60579  0.48918  0.14750  Biso   1.000  H
  H140     1.0000 0.39103  0.37935  0.01982  Biso   1.000  H
  H141     1.0000 0.51835  0.60146  0.91652  Biso   1.000  H
  H142     1.0000 0.11366  0.45311  0.38995  Biso   1.000  H
  H143     1.0000 0.88554  0.38493  0.50585  Biso   1.000  H
  H144     1.0000 0.01916  0.61513  0.60685  Biso   1.000  H
  H145     1.0000 0.61563  0.45135  0.88398  Biso   1.000  H
  H146     1.0000 0.87568  0.56207  0.51945  Biso   1.000  H
  H147     1.0000 0.51986  0.83246  0.59810  Biso   1.000  H
  H148     1.0000 0.11787  0.48037  0.65331  Biso   1.000  H
  H149     1.0000 0.37766  0.56052  0.00814  Biso   1.000  H
  H150     1.0000 0.01673  0.85055  0.92448  Biso   1.000  H
  H151     1.0000 0.93197  0.99301  0.87796  Biso   1.000  H
  H152     1.0000 0.65770  0.06600  0.52551  Biso   1.000  H
  H153     1.0000 0.02528  0.34672  0.60609  Biso   1.000  H
  H154     1.0000 0.42988  0.95981  0.65193  Biso   1.000  H
  H155     1.0000 0.16516  0.05573  0.02006  Biso   1.000  H
  H156     1.0000 0.50932  0.33559  0.92792  Biso   1.000  H
  H157     1.0000 0.42021  0.48859  0.14743  Biso   1.000  H
  H158     1.0000 0.16270  0.38965  0.50583  Biso   1.000  H
  H159     1.0000 0.52763  0.11317  0.42607  Biso   1.000  H
  H160     1.0000 0.92341  0.46754  0.38637  Biso   1.000  H
  H161     1.0000 0.65554  0.39222  0.02308  Biso   1.000  H
  H162     1.0000 0.01486  0.11097  0.10810  Biso   1.000  H
  H163     1.0000 0.10318  0.98679  0.15130  Biso   1.000  H
  H164     1.0000 0.38039  0.88490  0.51648  Biso   1.000  H
  H165     1.0000 0.00813  0.60349  0.42713  Biso   1.000  H
  H166     1.0000 0.60234  0.98015  0.38003  Biso   1.000  H
  H167     1.0000 0.88154  0.89443  0.01091  Biso   1.000  H
  H168     1.0000 0.51285  0.61721  0.09797  Biso   1.000  H
  H169     1.0000 0.02151  0.07378  0.88525  Biso   1.000  H
  H170     1.0000 0.88292  0.97478  0.10555  Biso   1.000  H
  H171     1.0000 0.09728  0.83733  0.01837  Biso   1.000  H
  H172     1.0000 0.52286  0.05361  0.65068  Biso   1.000  H
  H173     1.0000 0.38101  0.98734  0.42456  Biso   1.000  H
  H174     1.0000 0.60617  0.84345  0.51424  Biso   1.000  H
  H175     1.0000 0.52657  0.55487  0.87600  Biso   1.000  H
  H176     1.0000 0.65472  0.49293  0.10345  Biso   1.000  H
  H177     1.0000 0.43489  0.33887  0.02331  Biso   1.000  H
  H178     1.0000 0.02530  0.57651  0.65012  Biso   1.000  H
  H179     1.0000 0.15313  0.46216  0.43023  Biso   1.000  H
  H180     1.0000 0.93552  0.34291  0.51801  Biso   1.000  H
  H181     1.0000 0.01988  0.88429  0.14795  Biso   1.000  H
  H182     1.0000 0.15087  0.97066  0.92214  Biso   1.000  H
  H183     1.0000 0.94011  0.11952  0.01334  Biso   1.000  H
  H184     1.0000 0.50184  0.89372  0.37662  Biso   1.000  H
  H185     1.0000 0.65066  0.96973  0.60005  Biso   1.000  H
  H186     1.0000 0.43710  0.10624  0.52029  Biso   1.000  H
  H187     1.0000 0.51093  0.40211  0.15039  Biso   1.000  H
  H188     1.0000 0.38741  0.46503  0.92216  Biso   1.000  H
  H189     1.0000 0.60348  0.61374  0.00689  Biso   1.000  H
  H190     1.0000 0.01549  0.38090  0.38755  Biso   1.000  H
  H191     1.0000 0.88916  0.47160  0.60567  Biso   1.000  H
  H192     1.0000 0.10456  0.60670  0.49444  Biso   1.000  H
  H193     1.0000 0.27881  0.83865  0.50616  Biso   1.000  H
  H194     1.0000 0.53266  0.23662  0.88772  Biso   1.000  H
  H195     1.0000 0.87304  0.49253  0.29214  Biso   1.000  H
  H196     1.0000 0.77903  0.85065  0.01638  Biso   1.000  H
  H197     1.0000 0.04163  0.25546  0.66891  Biso   1.000  H
  H198     1.0000 0.36478  0.49838  0.24473  Biso   1.000  H
  H199     1.0000 0.26174  0.34175  0.50870  Biso   1.000  H
  H200     1.0000 0.01731  0.75708  0.86475  Biso   1.000  H
  H201     1.0000 0.65122  0.97946  0.27965  Biso   1.000  H
  H202     1.0000 0.75409  0.34442  0.03571  Biso   1.000  H
  H203     1.0000 0.49191  0.73638  0.64451  Biso   1.000  H
  H204     1.0000 0.15169  0.97085  0.24999  Biso   1.000  H
  H205     1.0000 0.75457  0.11647  0.50127  Biso   1.000  H
  H206     1.0000 0.50438  0.71664  0.14521  Biso   1.000  H
  H207     1.0000 0.17235  0.46876  0.74861  Biso   1.000  H
  H208     1.0000 0.26232  0.10503  0.01880  Biso   1.000  H
  H209     1.0000 0.00982  0.70348  0.37312  Biso   1.000  H
  H210     1.0000 0.66695  0.45107  0.78623  Biso   1.000  H
  H211     1.0000 0.77673  0.61007  0.49870  Biso   1.000  H
  H212     1.0000 0.02134  0.20212  0.16822  Biso   1.000  H
  H213     1.0000 0.37668  0.97618  0.74680  Biso   1.000  H
  H214     1.0000 0.27850  0.61178  0.00386  Biso   1.000  H
  H215     1.0000 0.53565  0.21682  0.38395  Biso   1.000  H
  H216     1.0000 0.87625  0.98511  0.78333  Biso   1.000  H
  H217     1.0000 0.24854  0.47845  0.37282  Biso   1.000  H
  H218     1.0000 0.38714  0.20418  0.50472  Biso   1.000  H
  H219     1.0000 0.50167  0.35040  0.24866  Biso   1.000  H
  H220     1.0000 0.74762  0.49136  0.16316  Biso   1.000  H
  H221     1.0000 0.89223  0.21636  0.01953  Biso   1.000  H
  H222     1.0000 0.00883  0.32371  0.29261  Biso   1.000  H
  H223     1.0000 0.28178  0.98208  0.37442  Biso   1.000  H
  H224     1.0000 0.15228  0.70784  0.49672  Biso   1.000  H
  H225     1.0000 0.03192  0.83033  0.24512  Biso   1.000  H
  H226     1.0000 0.78755  0.99643  0.15685  Biso   1.000  H
  H227     1.0000 0.65209  0.71668  0.00977  Biso   1.000  H
  H228     1.0000 0.50329  0.85131  0.27657  Biso   1.000  H
  H229     1.0000 0.79766  0.47413  0.66312  Biso   1.000  H
  H230     1.0000 0.65409  0.74419  0.50729  Biso   1.000  H
  H231     1.0000 0.51829  0.60113  0.77670  Biso   1.000  H
  H232     1.0000 0.29096  0.44698  0.87123  Biso   1.000  H
  H233     1.0000 0.14329  0.73976  0.00322  Biso   1.000  H
  H234     1.0000 0.02012  0.62351  0.74830  Biso   1.000  H
  H235     1.0000 0.74933  0.97918  0.64985  Biso   1.000  H
  H236     1.0000 0.88830  0.24662  0.54122  Biso   1.000  H
  H237     1.0000 0.00720  0.13075  0.79117  Biso   1.000  H
  H238     1.0000 0.25186  0.97036  0.87260  Biso   1.000  H
  H239     1.0000 0.38474  0.23954  0.03628  Biso   1.000  H
  H240     1.0000 0.52710  0.10486  0.74826  Biso   1.000  H
  H241     1.0000 0.75323  0.47499  0.87324  Biso   1.000  H
  H242     1.0000 0.86141  0.69893  0.51940  Biso   1.000  H
  H243     1.0000 0.51625  0.81168  0.73196  Biso   1.000  H
  H244     1.0000 0.25558  0.48777  0.65911  Biso   1.000  H
  H245     1.0000 0.36076  0.69562  0.99671  Biso   1.000  H
  H246     1.0000 0.02784  0.84047  0.78273  Biso   1.000  H
  H247     1.0000 0.79069  0.99440  0.86816  Biso   1.000  H
  H248     1.0000 0.67553  0.20280  0.53191  Biso   1.000  H
  H249     1.0000 0.02563  0.33896  0.74833  Biso   1.000  H
  H250     1.0000 0.29131  0.98185  0.66923  Biso   1.000  H
  H251     1.0000 0.18089  0.19557  0.03511  Biso   1.000  H
  H252     1.0000 0.51803  0.31713  0.79186  Biso   1.000  H
  H253     1.0000 0.28524  0.47621  0.15568  Biso   1.000  H
  H254     1.0000 0.17735  0.25050  0.52281  Biso   1.000  H
  H255     1.0000 0.52204  0.13146  0.28852  Biso   1.000  H
  H256     1.0000 0.78712  0.46882  0.36897  Biso   1.000  H
  H257     1.0000 0.67480  0.25377  0.02541  Biso   1.000  H
  H258     1.0000 0.99919  0.11667  0.24885  Biso   1.000  H
  H259     1.0000 0.23874  0.95426  0.16481  Biso   1.000  H
  H260     1.0000 0.36617  0.74689  0.49343  Biso   1.000  H
  H261     1.0000 0.01766  0.61340  0.29082  Biso   1.000  H
  H262     1.0000 0.74254  0.97788  0.36163  Biso   1.000  H
  H263     1.0000 0.85731  0.75793  0.00702  Biso   1.000  H
  H264     1.0000 0.51797  0.63468  0.23565  Biso   1.000  H
  H265     1.0000 0.02816  0.21009  0.87806  Biso   1.000  H
  H266     1.0000 0.87055  0.95448  0.24316  Biso   1.000  H
  H267     1.0000 0.23908  0.82185  0.01471  Biso   1.000  H
  H268     1.0000 0.51356  0.19121  0.67231  Biso   1.000  H
  H269     1.0000 0.36516  0.98374  0.28839  Biso   1.000  H
  H270     1.0000 0.74399  0.82603  0.49991  Biso   1.000  H
  H271     1.0000 0.50206  0.69357  0.85760  Biso   1.000  H
  H272     1.0000 0.65514  0.49476  0.24683  Biso   1.000  H
  H273     1.0000 0.29716  0.31842  0.01235  Biso   1.000  H
  H274     1.0000 0.02104  0.71337  0.65606  Biso   1.000  H
  H275     1.0000 0.16101  0.46104  0.29224  Biso   1.000  H
  H276     1.0000 0.79651  0.32045  0.50851  Biso   1.000  H
  H277     1.0000 0.00784  0.74394  0.15691  Biso   1.000  H
  H278     1.0000 0.16828  0.00369  0.78828  Biso   1.000  H
  H279     1.0000 0.80109  0.13933  0.02883  Biso   1.000  H
  H280     1.0000 0.51511  0.75743  0.35346  Biso   1.000  H
  H281     1.0000 0.67214  0.95338  0.73784  Biso   1.000  H
  H282     1.0000 0.29947  0.12904  0.50840  Biso   1.000  H
  H283     1.0000 0.51958  0.26473  0.16889  Biso   1.000  H
  H284     1.0000 0.38134  0.44036  0.78369  Biso   1.000  H
  H285     1.0000 0.73934  0.63034  0.01071  Biso   1.000  H
  H286     1.0000 0.02029  0.23988  0.37885  Biso   1.000  H
  H287     1.0000 0.87865  0.47761  0.74437  Biso   1.000  H
  H288     1.0000 0.24330  0.62952  0.49824  Biso   1.000  H
  H289     1.0000 0.12538  0.19950  0.03412  Biso   1.000  H
  H290     1.0000 0.99508  0.05711  0.24737  Biso   1.000  H
  H291     1.0000 0.24128  0.96030  0.11186  Biso   1.000  H
  H292     1.0000 0.62328  0.20671  0.53754  Biso   1.000  H
  H293     1.0000 0.51623  0.08035  0.29151  Biso   1.000  H
  H294     1.0000 0.74315  0.98118  0.41459  Biso   1.000  H
  H295     1.0000 0.41334  0.69865  0.99937  Biso   1.000  H
  H296     1.0000 0.52207  0.58322  0.23886  Biso   1.000  H
  H297     1.0000 0.28784  0.46559  0.10219  Biso   1.000  H
  H298     1.0000 0.91495  0.69675  0.52435  Biso   1.000  H
  H299     1.0000 0.01981  0.55885  0.29134  Biso   1.000  H
  H300     1.0000 0.78365  0.45725  0.42335  Biso   1.000  H
  H301     1.0000 0.91323  0.75562  0.00135  Biso   1.000  H
  H302     1.0000 0.03497  0.89370  0.78168  Biso   1.000  H
  H303     1.0000 0.79048  0.99887  0.92056  Biso   1.000  H
  H304     1.0000 0.41752  0.74596  0.49729  Biso   1.000  H
  H305     1.0000 0.52611  0.86284  0.73689  Biso   1.000  H
  H306     1.0000 0.29151  0.97716  0.61230  Biso   1.000  H
  H307     1.0000 0.62018  0.25330  0.02643  Biso   1.000  H
  H308     1.0000 0.51658  0.37157  0.78999  Biso   1.000  H
  H309     1.0000 0.74974  0.48155  0.92730  Biso   1.000  H
  H310     1.0000 0.12492  0.25395  0.52238  Biso   1.000  H
  H311     1.0000 0.01172  0.39332  0.74643  Biso   1.000  H
  H312     1.0000 0.25160  0.49177  0.60619  Biso   1.000  H
  H313     1.0000 0.24923  0.96686  0.92617  Biso   1.000  H
  H314     1.0000 0.94394  0.21232  0.02343  Biso   1.000  H
  H315     1.0000 0.03501  0.88093  0.24282  Biso   1.000  H
  H316     1.0000 0.74813  0.97719  0.59816  Biso   1.000  H
  H317     1.0000 0.44374  0.20236  0.51262  Biso   1.000  H
  H318     1.0000 0.50475  0.90245  0.28092  Biso   1.000  H
  H319     1.0000 0.29398  0.45146  0.92392  Biso   1.000  H
  H320     1.0000 0.59756  0.71172  0.01352  Biso   1.000  H
  H321     1.0000 0.49430  0.40628  0.24541  Biso   1.000  H
  H322     1.0000 0.79398  0.46683  0.60896  Biso   1.000  H
  H323     1.0000 0.09808  0.70354  0.49738  Biso   1.000  H
  H324     1.0000 0.00061  0.38220  0.29310  Biso   1.000  H
  H325     1.0000 0.79446  0.00707  0.10114  Biso   1.000  H
  H326     1.0000 0.08786  0.74488  0.00185  Biso   1.000  H
  H327     1.0000 0.01438  0.07488  0.79036  Biso   1.000  H
  H328     1.0000 0.28286  0.98525  0.42899  Biso   1.000  H
  H329     1.0000 0.60053  0.74757  0.50548  Biso   1.000  H
  H330     1.0000 0.52780  0.04856  0.74582  Biso   1.000  H
  H331     1.0000 0.75112  0.48969  0.10869  Biso   1.000  H
  H332     1.0000 0.44221  0.24138  0.04177  Biso   1.000  H
  H333     1.0000 0.52406  0.54978  0.77970  Biso   1.000  H
  H334     1.0000 0.24728  0.47756  0.42985  Biso   1.000  H
  H335     1.0000 0.94160  0.24811  0.53734  Biso   1.000  H
  H336     1.0000 0.02939  0.57348  0.74637  Biso   1.000  H
  H337     1.0000 0.03490  0.20806  0.93104  Biso   1.000  H
  H338     1.0000 0.92123  0.94852  0.24118  Biso   1.000  H
  H339     1.0000 0.23996  0.87390  0.01974  Biso   1.000  H
  H340     1.0000 0.51206  0.19698  0.61829  Biso   1.000  H
  H341     1.0000 0.41826  0.98588  0.28940  Biso   1.000  H
  H342     1.0000 0.74448  0.87828  0.50267  Biso   1.000  H
  H343     1.0000 0.50502  0.69545  0.91130  Biso   1.000  H
  H344     1.0000 0.60013  0.49426  0.24133  Biso   1.000  H
  H345     1.0000 0.29505  0.37307  0.01187  Biso   1.000  H
  H346     1.0000 0.02297  0.71090  0.60306  Biso   1.000  H
  H347     1.0000 0.10766  0.45719  0.29546  Biso   1.000  H
  H348     1.0000 0.79138  0.37197  0.50358  Biso   1.000  H
  H349     1.0000 0.00031  0.74393  0.10504  Biso   1.000  H
  H350     1.0000 0.11275  0.00704  0.78830  Biso   1.000  H
  H351     1.0000 0.79671  0.08419  0.02308  Biso   1.000  H
  H352     1.0000 0.51209  0.75165  0.40543  Biso   1.000  H
  H353     1.0000 0.61679  0.95056  0.74145  Biso   1.000  H
  H354     1.0000 0.29407  0.07658  0.50921  Biso   1.000  H
  H355     1.0000 0.53312  0.26297  0.11329  Biso   1.000  H
  H356     1.0000 0.43383  0.45049  0.78363  Biso   1.000  H
  H357     1.0000 0.74527  0.57742  0.01415  Biso   1.000  H
  H358     1.0000 0.02592  0.24440  0.43179  Biso   1.000  H
  H359     1.0000 0.93291  0.48754  0.74639  Biso   1.000  H
  H360     1.0000 0.24789  0.57491  0.49979  Biso   1.000  H
  H361     1.0000 0.00459  0.70101  0.42746  Biso   1.000  H
  H362     1.0000 0.42966  0.96548  0.74518  Biso   1.000  H
  H363     1.0000 0.75383  0.39602  0.02847  Biso   1.000  H
  H364     1.0000 0.49968  0.71080  0.09195  Biso   1.000  H
  H365     1.0000 0.93047  0.98850  0.78234  Biso   1.000  H
  H366     1.0000 0.25824  0.39470  0.50956  Biso   1.000  H
  H367     1.0000 0.54007  0.20952  0.43483  Biso   1.000  H
  H368     1.0000 0.11633  0.46760  0.74713  Biso   1.000  H
  H369     1.0000 0.78442  0.90521  0.01054  Biso   1.000  H
  H370     1.0000 0.02540  0.20298  0.11081  Biso   1.000  H
  H371     1.0000 0.61464  0.44504  0.78952  Biso   1.000  H
  H372     1.0000 0.28360  0.88931  0.51653  Biso   1.000  H
  H373     1.0000 0.03815  0.25558  0.61080  Biso   1.000  H
  H374     1.0000 0.59891  0.98024  0.28235  Biso   1.000  H
  H375     1.0000 0.28164  0.55793  0.00656  Biso   1.000  H
  H376     1.0000 0.52227  0.24000  0.93803  Biso   1.000  H
  H377     1.0000 0.10109  0.98435  0.24763  Biso   1.000  H
  H378     1.0000 0.78343  0.55778  0.49641  Biso   1.000  H
  H379     1.0000 0.49501  0.74023  0.58674  Biso   1.000  H
  H380     1.0000 0.92752  0.49691  0.29523  Biso   1.000  H
  H381     1.0000 0.25934  0.05019  0.01483  Biso   1.000  H
  H382     1.0000 0.01321  0.75584  0.91922  Biso   1.000  H
  H383     1.0000 0.42077  0.50247  0.24404  Biso   1.000  H
  H384     1.0000 0.75233  0.06156  0.50414  Biso   1.000  H
  H385     1.0000 0.25164  0.44836  0.34222  Biso   1.000  H
  H386     1.0000 0.31270  0.16107  0.46920  Biso   1.000  H
  H387     1.0000 0.47728  0.31155  0.23928  Biso   1.000  H
  H388     1.0000 0.69196  0.46098  0.24308  Biso   1.000  H
  H389     1.0000 0.86224  0.21409  0.05065  Biso   1.000  H
  H390     1.0000 0.97200  0.29062  0.30700  Biso   1.000  H
  H391     1.0000 0.29108  0.94061  0.34603  Biso   1.000  H
  H392     1.0000 0.18648  0.70474  0.47004  Biso   1.000  H
  H393     1.0000 0.98349  0.74833  0.19146  Biso   1.000  H
  H394     1.0000 0.78268  0.95349  0.17998  Biso   1.000  H
  H395     1.0000 0.72979  0.66198  0.04316  Biso   1.000  H
  H396     1.0000 0.53289  0.82269  0.27149  Biso   1.000  H
  H397     1.0000 0.80069  0.50451  0.69365  Biso   1.000  H
  H398     1.0000 0.74658  0.79368  0.53469  Biso   1.000  H
  H399     1.0000 0.54033  0.64253  0.78083  Biso   1.000  H
  H400     1.0000 0.35408  0.48248  0.78651  Biso   1.000  H
  H401     1.0000 0.23301  0.79464  0.97887  Biso   1.000  H
  H402     1.0000 0.05152  0.65433  0.74395  Biso   1.000  H
  H403     1.0000 0.74888  0.94128  0.68376  Biso   1.000  H
  H404     1.0000 0.79427  0.29792  0.54304  Biso   1.000  H
  H405     1.0000 0.99211  0.21769  0.84957  Biso   1.000  H
  H406     1.0000 0.25047  0.01079  0.84895  Biso   1.000  H
  H407     1.0000 0.31689  0.28476  0.98137  Biso   1.000  H
  H408     1.0000 0.48700  0.13607  0.74823  Biso   1.000  H
  H409     1.0000 0.28616  0.45652  0.18890  Biso   1.000  H
  H410     1.0000 0.20458  0.25618  0.48817  Biso   1.000  H
  H411     1.0000 0.50447  0.21780  0.35526  Biso   1.000  H
  H412     1.0000 0.84250  0.45358  0.28765  Biso   1.000  H
  H413     1.0000 0.70598  0.26460  0.99134  Biso   1.000  H
  H414     1.0000 0.98315  0.19996  0.19280  Biso   1.000  H
  H415     1.0000 0.18149  0.93706  0.24675  Biso   1.000  H
  H416     1.0000 0.33333  0.75634  0.46319  Biso   1.000  H
  H417     1.0000 0.98181  0.64925  0.29108  Biso   1.000  H
  H418     1.0000 0.73386  0.93970  0.33060  Biso   1.000  H
  H419     1.0000 0.83102  0.76522  0.03882  Biso   1.000  H
  H420     1.0000 0.47917  0.66483  0.22784  Biso   1.000  H
  H421     1.0000 0.75600  0.44095  0.84466  Biso   1.000  H
  H422     1.0000 0.77281  0.64548  0.52912  Biso   1.000  H
  H423     1.0000 0.52321  0.73292  0.67566  Biso   1.000  H
  H424     1.0000 0.20483  0.49751  0.74975  Biso   1.000  H
  H425     1.0000 0.28140  0.64444  0.96875  Biso   1.000  H
  H426     1.0000 0.05483  0.76210  0.83922  Biso   1.000  H
  H427     1.0000 0.79782  0.02116  0.82967  Biso   1.000  H
  H428     1.0000 0.75258  0.13934  0.55251  Biso   1.000  H
  H429     1.0000 0.05260  0.31178  0.74979  Biso   1.000  H
  H430     1.0000 0.34064  0.94173  0.74372  Biso   1.000  H
  H431     1.0000 0.20247  0.19226  0.99936  Biso   1.000  H
  H432     1.0000 0.49962  0.23606  0.85441  Biso   1.000  H
  H433     1.0000 0.30583  0.01738  0.69706  Biso   1.000  H
  H434     1.0000 0.74854  0.30916  0.06230  Biso   1.000  H
  H435     1.0000 0.04977  0.69208  0.34171  Biso   1.000  H
  H436     1.0000 0.84847  0.94703  0.79400  Biso   1.000  H
  H437     1.0000 0.26415  0.31019  0.53982  Biso   1.000  H
  H438     1.0000 0.54162  0.71439  0.17644  Biso   1.000  H
  H439     1.0000 0.25532  0.45040  0.68195  Biso   1.000  H
  H440     1.0000 0.76773  0.81971  0.99485  Biso   1.000  H
  H441     1.0000 0.55106  0.16305  0.29347  Biso   1.000  H
  H442     1.0000 0.69319  0.48388  0.78614  Biso   1.000  H
  H443     1.0000 0.28496  0.80340  0.53194  Biso   1.000  H
  H444     1.0000 0.03530  0.14072  0.24982  Biso   1.000  H
  H445     1.0000 0.68299  0.00482  0.28487  Biso   1.000  H
  H446     1.0000 0.33018  0.69129  0.03753  Biso   1.000  H
  H447     1.0000 0.00052  0.25733  0.69122  Biso   1.000  H
  H448     1.0000 0.24149  0.98523  0.18978  Biso   1.000  H
  H449     1.0000 0.84159  0.69393  0.47990  Biso   1.000  H
  H450     1.0000 0.55316  0.28835  0.79715  Biso   1.000  H
  H451     1.0000 0.79674  0.51063  0.34606  Biso   1.000  H
  H452     1.0000 0.26178  0.13837  0.05046  Biso   1.000  H
  H453     1.0000 0.47572  0.79473  0.72933  Biso   1.000  H
  H454     1.0000 0.33538  0.52038  0.23829  Biso   1.000  H
  H455     1.0000 0.70557  0.19783  0.49321  Biso   1.000  H
  H456     1.0000 0.99037  0.80740  0.78639  Biso   1.000  H
  H457     1.0000 0.68215  0.75099  0.47740  Biso   1.000  H
  H458     1.0000 0.47027  0.68018  0.83033  Biso   1.000  H
  H459     1.0000 0.85121  0.43464  0.73929  Biso   1.000  H
  H460     1.0000 0.17414  0.73811  0.03647  Biso   1.000  H
  H461     1.0000 0.99420  0.70436  0.68950  Biso   1.000  H
  H462     1.0000 0.29986  0.41860  0.83560  Biso   1.000  H
  H463     1.0000 0.86183  0.23890  0.50726  Biso   1.000  H
  H464     1.0000 0.04626  0.15769  0.79454  Biso   1.000  H
  H465     1.0000 0.69348  0.00053  0.73447  Biso   1.000  H
  H466     1.0000 0.34171  0.25109  0.06789  Biso   1.000  H
  H467     1.0000 0.55607  0.18679  0.70430  Biso   1.000  H
  H468     1.0000 0.19528  0.96331  0.78847  Biso   1.000  H
  H469     1.0000 0.35616  0.19939  0.54414  Biso   1.000  H
  H470     1.0000 0.56117  0.27886  0.20516  Biso   1.000  H
  H471     1.0000 0.18512  0.49853  0.29634  Biso   1.000  H
  H472     1.0000 0.80445  0.16453  0.98794  Biso   1.000  H
  H473     1.0000 0.05111  0.24743  0.34343  Biso   1.000  H
  H474     1.0000 0.73878  0.52577  0.19182  Biso   1.000  H
  H475     1.0000 0.23297  0.65546  0.53547  Biso   1.000  H
  H476     1.0000 0.05501  0.79535  0.23785  Biso   1.000  H
  H477     1.0000 0.32174  0.01605  0.29645  Biso   1.000  H
  H478     1.0000 0.68841  0.70734  0.97148  Biso   1.000  H
  H479     1.0000 0.47762  0.76510  0.32684  Biso   1.000  H
  H480     1.0000 0.84421  0.99636  0.24149  Biso   1.000  H
  N1       1.0000 0.70524  0.14821  0.52089  Biso   1.000  N
  N2       1.0000 0.51046  0.66527  0.18101  Biso   1.000  N
  N3       1.0000 0.20337  0.48013  0.69387  Biso   1.000  N
  N4       1.0000 0.21134  0.14084  0.02282  Biso   1.000  N
  N5       1.0000 0.01165  0.64631  0.34129  Biso   1.000  N
  N6       1.0000 0.70127  0.46164  0.83984  Biso   1.000  N
  N7       1.0000 0.82831  0.64503  0.51064  Biso   1.000  N
  N8       1.0000 0.00967  0.14825  0.19704  Biso   1.000  N
  N9       1.0000 0.34640  0.97963  0.69564  Biso   1.000  N
  N10      1.0000 0.32961  0.64384  0.00148  Biso   1.000  N
  N11      1.0000 0.52805  0.16476  0.34574  Biso   1.000  N
  N12      1.0000 0.84571  0.98754  0.83565  Biso   1.000  N
  N13      1.0000 0.33295  0.80408  0.49957  Biso   1.000  N
  N14      1.0000 0.52335  0.28729  0.84672  Biso   1.000  N
  N15      1.0000 0.84039  0.47739  0.34037  Biso   1.000  N
  N16      1.0000 0.82724  0.81401  0.01295  Biso   1.000  N
  N17      1.0000 0.02810  0.30770  0.69686  Biso   1.000  N
  N18      1.0000 0.33606  0.48837  0.18987  Biso   1.000  N
  N19      1.0000 0.21101  0.30505  0.51555  Biso   1.000  N
  N20      1.0000 0.02320  0.81044  0.83523  Biso   1.000  N
  N21      1.0000 0.68475  0.97438  0.33234  Biso   1.000  N
  N22      1.0000 0.70414  0.30905  0.02744  Biso   1.000  N
  N23      1.0000 0.50277  0.78551  0.67871  Biso   1.000  N
  N24      1.0000 0.18663  0.96496  0.19552  Biso   1.000  N
  N25      1.0000 0.85060  0.47248  0.69310  Biso   1.000  N
  N26      1.0000 0.68923  0.79570  0.51113  Biso   1.000  N
  N27      1.0000 0.50972  0.63839  0.82914  Biso   1.000  N
  N28      1.0000 0.34681  0.45241  0.83522  Biso   1.000  N
  N29      1.0000 0.18134  0.79189  0.00994  Biso   1.000  N
  N30      1.0000 0.01961  0.65921  0.69272  Biso   1.000  N
  N31      1.0000 0.69797  0.97018  0.68571  Biso   1.000  N
  N32      1.0000 0.85272  0.29522  0.52498  Biso   1.000  N
  N33      1.0000 0.01746  0.16109  0.84505  Biso   1.000  N
  N34      1.0000 0.19719  0.98458  0.84027  Biso   1.000  N
  N35      1.0000 0.35221  0.29174  0.02538  Biso   1.000  N
  N36      1.0000 0.52034  0.13842  0.70102  Biso   1.000  N
  N37      1.0000 0.19403  0.46937  0.34228  Biso   1.000  N
  N38      1.0000 0.35523  0.15643  0.50806  Biso   1.000  N
  N39      1.0000 0.51614  0.31709  0.19676  Biso   1.000  N
  N40      1.0000 0.69232  0.49379  0.19437  Biso   1.000  N
  N41      1.0000 0.85567  0.16600  0.01937  Biso   1.000  N
  N42      1.0000 0.01440  0.29603  0.34587  Biso   1.000  N
  N43      1.0000 0.33232  0.98038  0.34271  Biso   1.000  N
  N44      1.0000 0.18612  0.65905  0.50250  Biso   1.000  N
  N45      1.0000 0.01671  0.79724  0.19217  Biso   1.000  N
  N46      1.0000 0.83726  0.97396  0.18873  Biso   1.000  N
  N47      1.0000 0.68666  0.66104  0.00487  Biso   1.000  N
  N48      1.0000 0.50562  0.81405  0.32578  Biso   1.000  N
  O1       1.0000 0.35659  0.50987  0.01363  Biso   1.000  O
  O2       1.0000 0.03565  0.32281  0.56290  Biso   1.000  O
  O3       1.0000 0.55190  0.98620  0.35481  Biso   1.000  O
  O4       1.0000 0.85475  0.51178  0.51483  Biso   1.000  O
  O5       1.0000 0.51895  0.31990  0.97847  Biso   1.000  O
  O6       1.0000 0.05324  0.98081  0.17372  Biso   1.000  O
  O7       1.0000 0.18434  0.00659  0.01580  Biso   1.000  O
  O8       1.0000 0.50970  0.81433  0.54712  Biso   1.000  O
  O9       1.0000 0.97645  0.48411  0.36645  Biso   1.000  O
  O10      1.0000 0.67795  0.01543  0.51439  Biso   1.000  O
  O11      1.0000 0.00666  0.82245  0.97229  Biso   1.000  O
  O12      1.0000 0.47169  0.49644  0.17108  Biso   1.000  O
  O13      1.0000 0.67585  0.44322  0.02741  Biso   1.000  O
  O14      1.0000 0.00477  0.62766  0.47700  Biso   1.000  O
  O15      1.0000 0.47689  0.95687  0.67464  Biso   1.000  O
  O16      1.0000 0.18158  0.43767  0.51837  Biso   1.000  O
  O17      1.0000 0.50665  0.63483  0.04936  Biso   1.000  O
  O18      1.0000 0.97955  0.98105  0.85272  Biso   1.000  O
  O19      1.0000 0.85996  0.94952  0.00730  Biso   1.000  O
  O20      1.0000 0.53391  0.13149  0.47906  Biso   1.000  O
  O21      1.0000 0.06757  0.48492  0.67763  Biso   1.000  O
  O22      1.0000 0.35664  0.93629  0.51246  Biso   1.000  O
  O23      1.0000 0.02381  0.13313  0.06113  Biso   1.000  O
  O24      1.0000 0.56432  0.45538  0.86029  Biso   1.000  O
  O25      1.0000 0.97118  0.96702  0.16821  Biso   1.000  O
  O26      1.0000 0.16981  0.92560  0.01624  Biso   1.000  O
  O27      1.0000 0.03142  0.13560  0.97831  Biso   1.000  O
  O28      1.0000 0.46623  0.98973  0.36234  Biso   1.000  O
  O29      1.0000 0.67336  0.93141  0.50175  Biso   1.000  O
  O30      1.0000 0.53087  0.12989  0.56385  Biso   1.000  O
  O31      1.0000 0.55531  0.48223  0.16895  Biso   1.000  O
  O32      1.0000 0.36228  0.42742  0.02089  Biso   1.000  O
  O33      1.0000 0.51011  0.62707  0.96345  Biso   1.000  O
  O34      1.0000 0.06009  0.46103  0.36672  Biso   1.000  O
  O35      1.0000 0.85790  0.42946  0.51322  Biso   1.000  O
  O36      1.0000 0.01175  0.63102  0.56108  Biso   1.000  O
  O37      1.0000 0.06284  0.98569  0.86232  Biso   1.000  O
  O38      1.0000 0.86325  0.02998  0.01559  Biso   1.000  O
  O39      1.0000 0.00162  0.81889  0.05509  Biso   1.000  O
  O40      1.0000 0.56034  0.96108  0.67282  Biso   1.000  O
  O41      1.0000 0.36195  0.02016  0.51465  Biso   1.000  O
  O42      1.0000 0.51115  0.82453  0.46192  Biso   1.000  O
  O43      1.0000 0.48076  0.46989  0.85598  Biso   1.000  O
  O44      1.0000 0.67326  0.52559  0.01188  Biso   1.000  O
  O45      1.0000 0.53101  0.32907  0.06020  Biso   1.000  O
  O46      1.0000 0.98369  0.48555  0.67527  Biso   1.000  O
  O47      1.0000 0.17538  0.52370  0.51683  Biso   1.000  O
  O48      1.0000 0.02883  0.32077  0.47654  Biso   1.000  O
  O49      1.0000 0.01779  0.93296  0.17298  Biso   1.000  O
  O50      1.0000 0.17406  0.96474  0.97422  Biso   1.000  O
  O51      1.0000 0.98989  0.13605  0.01765  Biso   1.000  O
  O52      1.0000 0.50991  0.94574  0.35652  Biso   1.000  O
  O53      1.0000 0.67254  0.96333  0.55202  Biso   1.000  O
  O54      1.0000 0.49055  0.13159  0.51983  Biso   1.000  O
  O55      1.0000 0.50764  0.44794  0.17385  Biso   1.000  O
  O56      1.0000 0.36473  0.46724  0.97141  Biso   1.000  O
  O57      1.0000 0.55293  0.63419  0.01453  Biso   1.000  O
  O58      1.0000 0.00944  0.43103  0.36422  Biso   1.000  O
  O59      1.0000 0.86367  0.46999  0.55838  Biso   1.000  O
  O60      1.0000 0.05125  0.63239  0.51383  Biso   1.000  O
  O61      1.0000 0.01474  0.02511  0.85935  Biso   1.000  O
  O62      1.0000 0.86028  0.98538  0.05500  Biso   1.000  O
  O63      1.0000 0.04764  0.82010  0.01659  Biso   1.000  O
  O64      1.0000 0.51850  0.00159  0.67400  Biso   1.000  O
  O65      1.0000 0.35864  0.98204  0.47612  Biso   1.000  O
  O66      1.0000 0.55117  0.81835  0.50736  Biso   1.000  O
  O67      1.0000 0.52908  0.50510  0.85704  Biso   1.000  O
  O68      1.0000 0.67914  0.48899  0.05905  Biso   1.000  O
  O69      1.0000 0.48447  0.31942  0.02436  Biso   1.000  O
  O70      1.0000 0.02444  0.52641  0.67425  Biso   1.000  O
  O71      1.0000 0.17631  0.47870  0.47580  Biso   1.000  O
  O72      1.0000 0.98866  0.32380  0.52562  Biso   1.000  O
  O73      1.0000 0.02454  0.44247  0.67617  Biso   1.000  O
  O74      1.0000 0.67531  0.97893  0.47018  Biso   1.000  O
  O75      1.0000 0.46919  0.62983  0.00295  Biso   1.000  O
  O76      1.0000 0.51979  0.42054  0.86012  Biso   1.000  O
  O77      1.0000 0.16909  0.97122  0.06156  Biso   1.000  O
  O78      1.0000 0.96693  0.62688  0.52133  Biso   1.000  O
  O79      1.0000 0.52381  0.91859  0.67075  Biso   1.000  O
  O80      1.0000 0.85628  0.47117  0.47261  Biso   1.000  O
  O81      1.0000 0.07266  0.12959  0.02509  Biso   1.000  O
  O82      1.0000 0.02183  0.94211  0.85438  Biso   1.000  O
  O83      1.0000 0.36102  0.47268  0.05840  Biso   1.000  O
  O84      1.0000 0.57237  0.13333  0.52593  Biso   1.000  O
  O85      1.0000 0.01897  0.51446  0.36712  Biso   1.000  O
  O86      1.0000 0.35736  0.97051  0.55931  Biso   1.000  O
  O87      1.0000 0.56841  0.32322  0.01441  Biso   1.000  O
  O88      1.0000 0.51809  0.53059  0.17056  Biso   1.000  O
  O89      1.0000 0.86082  0.99040  0.97027  Biso   1.000  O
  O90      1.0000 0.07286  0.32217  0.51710  Biso   1.000  O
  O91      1.0000 0.51004  0.02962  0.36140  Biso   1.000  O
  O92      1.0000 0.17831  0.48337  0.55961  Biso   1.000  O
  O93      1.0000 0.96320  0.82450  0.01394  Biso   1.000  O
  O94      1.0000 0.00080  0.01537  0.17600  Biso   1.000  O
  O95      1.0000 0.67815  0.47209  0.97853  Biso   1.000  O
  O96      1.0000 0.46791  0.81786  0.50487  Biso   1.000  O
  O97      1.0000 0.48888  0.17910  0.52183  Biso   1.000  O
  O98      1.0000 0.50816  0.44859  0.22412  Biso   1.000  O
  O99      1.0000 0.22457  0.47968  0.47474  Biso   1.000  O
  O100     1.0000 0.99361  0.18457  0.01827  Biso   1.000  O
  O101     1.0000 0.01303  0.43106  0.31505  Biso   1.000  O
  O102     1.0000 0.72705  0.48869  0.05934  Biso   1.000  O
  O103     1.0000 0.04868  0.68046  0.50757  Biso   1.000  O
  O104     1.0000 0.02203  0.93308  0.22119  Biso   1.000  O
  O105     1.0000 0.31010  0.98322  0.47861  Biso   1.000  O
  O106     1.0000 0.54977  0.68163  0.00634  Biso   1.000  O
  O107     1.0000 0.50855  0.94919  0.30773  Biso   1.000  O
  O108     1.0000 0.81140  0.98970  0.05373  Biso   1.000  O
  O109     1.0000 0.55282  0.76889  0.50437  Biso   1.000  O
  O110     1.0000 0.52955  0.50069  0.80955  Biso   1.000  O
  O111     1.0000 0.81458  0.46824  0.55849  Biso   1.000  O
  O112     1.0000 0.04407  0.77177  0.01371  Biso   1.000  O
  O113     1.0000 0.02790  0.52816  0.72360  Biso   1.000  O
  O114     1.0000 0.31508  0.46058  0.97052  Biso   1.000  O
  O115     1.0000 0.99370  0.27476  0.52474  Biso   1.000  O
  O116     1.0000 0.01872  0.02964  0.81089  Biso   1.000  O
  O117     1.0000 0.72200  0.96384  0.55084  Biso   1.000  O
  O118     1.0000 0.48915  0.27153  0.03418  Biso   1.000  O
  O119     1.0000 0.51774  0.00147  0.72115  Biso   1.000  O
  O120     1.0000 0.22304  0.96176  0.97417  Biso   1.000  O
  O121     1.0000 0.06695  0.48030  0.72544  Biso   1.000  O
  O122     1.0000 0.72776  0.01405  0.51732  Biso   1.000  O
  O123     1.0000 0.50011  0.68349  0.04588  Biso   1.000  O
  O124     1.0000 0.56467  0.45318  0.81187  Biso   1.000  O
  O125     1.0000 0.23310  0.00292  0.01459  Biso   1.000  O
  O126     1.0000 0.99885  0.67665  0.47408  Biso   1.000  O
  O127     1.0000 0.47907  0.95905  0.72332  Biso   1.000  O
  O128     1.0000 0.80755  0.50765  0.51541  Biso   1.000  O
  O129     1.0000 0.02924  0.18193  0.06386  Biso   1.000  O
  O130     1.0000 0.97873  0.98414  0.80444  Biso   1.000  O
  O131     1.0000 0.30836  0.51013  0.00869  Biso   1.000  O
  O132     1.0000 0.52625  0.18111  0.48169  Biso   1.000  O
  O133     1.0000 0.97711  0.48029  0.31729  Biso   1.000  O
  O134     1.0000 0.30840  0.93617  0.51712  Biso   1.000  O
  O135     1.0000 0.51807  0.27155  0.98598  Biso   1.000  O
  O136     1.0000 0.47202  0.49589  0.22050  Biso   1.000  O
  O137     1.0000 0.81125  0.95334  0.00959  Biso   1.000  O
  O138     1.0000 0.04314  0.27576  0.56186  Biso   1.000  O
  O139     1.0000 0.55204  0.99189  0.30588  Biso   1.000  O
  O140     1.0000 0.23014  0.44217  0.52068  Biso   1.000  O
  O141     1.0000 0.00675  0.77444  0.97068  Biso   1.000  O
  O142     1.0000 0.05146  0.98157  0.22244  Biso   1.000  O
  O143     1.0000 0.72518  0.44524  0.01770  Biso   1.000  O
  O144     1.0000 0.51111  0.76717  0.54300  Biso   1.000  O
  O145     1.0000 0.55614  0.48229  0.21797  Biso   1.000  O
  O146     1.0000 0.22563  0.52457  0.51594  Biso   1.000  O
  O147     1.0000 0.52580  0.17842  0.56626  Biso   1.000  O
  O148     1.0000 0.06207  0.46585  0.31802  Biso   1.000  O
  O149     1.0000 0.72320  0.52751  0.01637  Biso   1.000  O
  O150     1.0000 0.03729  0.18377  0.97884  Biso   1.000  O
  O151     1.0000 0.97284  0.96282  0.21678  Biso   1.000  O
  O152     1.0000 0.31271  0.02455  0.51529  Biso   1.000  O
  O153     1.0000 0.00944  0.68081  0.55602  Biso   1.000  O
  O154     1.0000 0.46653  0.99304  0.31510  Biso   1.000  O
  O155     1.0000 0.81393  0.03556  0.01655  Biso   1.000  O
  O156     1.0000 0.51165  0.67557  0.96243  Biso   1.000  O
  O157     1.0000 0.48213  0.46470  0.80709  Biso   1.000  O
  O158     1.0000 0.81024  0.42464  0.51189  Biso   1.000  O
  O159     1.0000 0.50832  0.77514  0.46028  Biso   1.000  O
  O160     1.0000 0.98219  0.48869  0.72359  Biso   1.000  O
  O161     1.0000 0.31410  0.42364  0.01691  Biso   1.000  O
  O162     1.0000 0.00248  0.77002  0.05402  Biso   1.000  O
  O163     1.0000 0.06256  0.98747  0.81234  Biso   1.000  O
  O164     1.0000 0.72219  0.92902  0.50207  Biso   1.000  O
  O165     1.0000 0.03103  0.27064  0.47952  Biso   1.000  O
  O166     1.0000 0.56360  0.95876  0.72039  Biso   1.000  O
  O167     1.0000 0.21801  0.92182  0.01978  Biso   1.000  O
  O168     1.0000 0.53876  0.28104  0.06516  Biso   1.000  O
  O169     1.0000 0.00227  0.01190  0.22440  Biso   1.000  O
  O170     1.0000 0.21899  0.96164  0.06049  Biso   1.000  O
  O171     1.0000 0.07720  0.17821  0.02374  Biso   1.000  O
  O172     1.0000 0.50892  0.03235  0.31246  Biso   1.000  O
  O173     1.0000 0.72269  0.98014  0.46791  Biso   1.000  O
  O174     1.0000 0.56989  0.18340  0.52601  Biso   1.000  O
  O175     1.0000 0.51772  0.53453  0.21989  Biso   1.000  O
  O176     1.0000 0.31109  0.46680  0.05549  Biso   1.000  O
  O177     1.0000 0.46355  0.67773  0.99848  Biso   1.000  O
  O178     1.0000 0.02466  0.51358  0.31820  Biso   1.000  O
  O179     1.0000 0.80705  0.46684  0.47390  Biso   1.000  O
  O180     1.0000 0.96511  0.67384  0.51593  Biso   1.000  O
  O181     1.0000 0.01941  0.94440  0.80692  Biso   1.000  O
  O182     1.0000 0.81339  0.99964  0.97003  Biso   1.000  O
  O183     1.0000 0.95934  0.77548  0.01154  Biso   1.000  O
  O184     1.0000 0.52200  0.91558  0.72084  Biso   1.000  O
  O185     1.0000 0.30884  0.97853  0.56175  Biso   1.000  O
  O186     1.0000 0.46655  0.76861  0.50206  Biso   1.000  O
  O187     1.0000 0.52061  0.41929  0.81243  Biso   1.000  O
  O188     1.0000 0.72474  0.48367  0.97602  Biso   1.000  O
  O189     1.0000 0.57050  0.27556  0.02015  Biso   1.000  O
  O190     1.0000 0.02362  0.44262  0.72577  Biso   1.000  O
  O191     1.0000 0.22653  0.48430  0.55920  Biso   1.000  O
  O192     1.0000 0.07469  0.27439  0.51916  Biso   1.000  O
