data_image0
_cell_length_a       46.7086
_cell_length_b       46.5304
_cell_length_c       46.4383
_cell_angle_alpha    90
_cell_angle_beta     90
_cell_angle_gamma    90

_symmetry_space_group_name_H-M    "P 1"
_symmetry_int_tables_number       1

loop_
  _symmetry_equiv_pos_as_xyz
  'x, y, z'

loop_
  _atom_site_label
  _atom_site_occupancy
  _atom_site_fract_x
  _atom_site_fract_y
  _atom_site_fract_z
  _atom_site_thermal_displace_type
  _atom_site_B_iso_or_equiv
  _atom_site_type_symbol
  C1       1.0000 0.56843  0.97662  0.32353  Biso   1.000  C
  C2       1.0000 0.33644  0.53789  0.02215  Biso   1.000  C
  C3       1.0000 0.02640  0.30125  0.55536  Biso   1.000  C
  C4       1.0000 0.06353  0.00483  0.18643  Biso   1.000  C
  C5       1.0000 0.83140  0.52950  0.49471  Biso   1.000  C
  C6       1.0000 0.53615  0.31317  0.94160  Biso   1.000  C
  C7       1.0000 0.97336  0.50094  0.32273  Biso   1.000  C
  C8       1.0000 0.20002  0.03870  0.01160  Biso   1.000  C
  C9       1.0000 0.50205  0.80953  0.56762  Biso   1.000  C
  C10      1.0000 0.47362  0.47706  0.19524  Biso   1.000  C
  C11      1.0000 0.70038  0.03273  0.50318  Biso   1.000  C
  C12      1.0000 0.00780  0.80355  0.96013  Biso   1.000  C
  C13      1.0000 0.46576  0.00718  0.69130  Biso   1.000  C
  C14      1.0000 0.69911  0.44003  0.99116  Biso   1.000  C
  C15      1.0000 0.00363  0.66917  0.45737  Biso   1.000  C
  C16      1.0000 0.96832  0.97530  0.82127  Biso   1.000  C
  C17      1.0000 0.20498  0.44196  0.52437  Biso   1.000  C
  C18      1.0000 0.50974  0.66379  0.07063  Biso   1.000  C
  C19      1.0000 0.06258  0.46765  0.69063  Biso   1.000  C
  C20      1.0000 0.83155  0.94325  0.00855  Biso   1.000  C
  C21      1.0000 0.52775  0.16539  0.44581  Biso   1.000  C
  C22      1.0000 0.55656  0.49600  0.81569  Biso   1.000  C
  C23      1.0000 0.33500  0.94478  0.50865  Biso   1.000  C
  C24      1.0000 0.01573  0.17812  0.05264  Biso   1.000  C
  C25      1.0000 0.34486  0.05300  0.51306  Biso   1.000  C
  C26      1.0000 0.52373  0.30678  0.05096  Biso   1.000  C
  C27      1.0000 0.08324  0.49438  0.33104  Biso   1.000  C
  C28      1.0000 0.84501  0.04962  0.98865  Biso   1.000  C
  C29      1.0000 0.03799  0.31006  0.44572  Biso   1.000  C
  C30      1.0000 0.58014  0.48150  0.18134  Biso   1.000  C
  C31      1.0000 0.19077  0.55167  0.51248  Biso   1.000  C
  C32      1.0000 0.00504  0.80868  0.07088  Biso   1.000  C
  C33      1.0000 0.45767  0.98097  0.32108  Biso   1.000  C
  C34      1.0000 0.68920  0.54897  0.98847  Biso   1.000  C
  C35      1.0000 0.51324  0.80202  0.45982  Biso   1.000  C
  C36      1.0000 0.95754  0.99083  0.18504  Biso   1.000  C
  C37      1.0000 0.69358  0.92311  0.51037  Biso   1.000  C
  C38      1.0000 0.50817  0.67297  0.96330  Biso   1.000  C
  C39      1.0000 0.95463  0.49046  0.68883  Biso   1.000  C
  C40      1.0000 0.18737  0.93165  0.00833  Biso   1.000  C
  C41      1.0000 0.00722  0.66656  0.56616  Biso   1.000  C
  C42      1.0000 0.45171  0.49418  0.82699  Biso   1.000  C
  C43      1.0000 0.84588  0.42133  0.50263  Biso   1.000  C
  C44      1.0000 0.03747  0.16976  0.94479  Biso   1.000  C
  C45      1.0000 0.57138  0.98227  0.68524  Biso   1.000  C
  C46      1.0000 0.34471  0.42820  0.01764  Biso   1.000  C
  C47      1.0000 0.54633  0.16563  0.55131  Biso   1.000  C
  C48      1.0000 0.07360  0.98276  0.82801  Biso   1.000  C
  C49      1.0000 0.01680  0.03344  0.82476  Biso   1.000  C
  C50      1.0000 0.83554  0.00618  0.05459  Biso   1.000  C
  C51      1.0000 0.06016  0.80430  0.01510  Biso   1.000  C
  C52      1.0000 0.52817  0.04844  0.68739  Biso   1.000  C
  C53      1.0000 0.33905  0.00439  0.45369  Biso   1.000  C
  C54      1.0000 0.55812  0.80539  0.52063  Biso   1.000  C
  C55      1.0000 0.49960  0.55144  0.82637  Biso   1.000  C
  C56      1.0000 0.70046  0.49242  0.04644  Biso   1.000  C
  C57      1.0000 0.47476  0.31004  0.99004  Biso   1.000  C
  C58      1.0000 0.01740  0.53279  0.69271  Biso   1.000  C
  C59      1.0000 0.20057  0.49257  0.46645  Biso   1.000  C
  C60      1.0000 0.97778  0.30059  0.49632  Biso   1.000  C
  C61      1.0000 0.01910  0.94339  0.18798  Biso   1.000  C
  C62      1.0000 0.20032  0.98223  0.95556  Biso   1.000  C
  C63      1.0000 0.97546  0.17319  0.98495  Biso   1.000  C
  C64      1.0000 0.51138  0.92442  0.32862  Biso   1.000  C
  C65      1.0000 0.69955  0.98132  0.56077  Biso   1.000  C
  C66      1.0000 0.48241  0.16906  0.50665  Biso   1.000  C
  C67      1.0000 0.53171  0.42462  0.18566  Biso   1.000  C
  C68      1.0000 0.33911  0.48495  0.96636  Biso   1.000  C
  C69      1.0000 0.56249  0.66570  0.01847  Biso   1.000  C
  C70      1.0000 0.02424  0.44450  0.32698  Biso   1.000  C
  C71      1.0000 0.83617  0.47891  0.55192  Biso   1.000  C
  C72      1.0000 0.05764  0.67146  0.50657  Biso   1.000  C
  C73      1.0000 0.03198  0.55230  0.32833  Biso   1.000  C
  C74      1.0000 0.33801  0.99696  0.56352  Biso   1.000  C
  C75      1.0000 0.57994  0.30923  0.99787  Biso   1.000  C
  C76      1.0000 0.52673  0.53382  0.19188  Biso   1.000  C
  C77      1.0000 0.83767  0.98854  0.94604  Biso   1.000  C
  C78      1.0000 0.08687  0.30802  0.50323  Biso   1.000  C
  C79      1.0000 0.51505  0.03323  0.32248  Biso   1.000  C
  C80      1.0000 0.19595  0.49987  0.57646  Biso   1.000  C
  C81      1.0000 0.95055  0.81017  0.01177  Biso   1.000  C
  C82      1.0000 0.00358  0.05184  0.17884  Biso   1.000  C
  C83      1.0000 0.68907  0.49070  0.93691  Biso   1.000  C
  C84      1.0000 0.45194  0.80706  0.51047  Biso   1.000  C
  C85      1.0000 0.99574  0.42553  0.68330  Biso   1.000  C
  C86      1.0000 0.69819  0.97609  0.45304  Biso   1.000  C
  C87      1.0000 0.45229  0.67060  0.01736  Biso   1.000  C
  C88      1.0000 0.50747  0.44017  0.82163  Biso   1.000  C
  C89      1.0000 0.19495  0.99014  0.06556  Biso   1.000  C
  C90      1.0000 0.94957  0.66280  0.51221  Biso   1.000  C
  C91      1.0000 0.50507  0.94259  0.69061  Biso   1.000  C
  C92      1.0000 0.84704  0.47229  0.44158  Biso   1.000  C
  C93      1.0000 0.07926  0.17298  0.00851  Biso   1.000  C
  C94      1.0000 0.02369  0.92378  0.82760  Biso   1.000  C
  C95      1.0000 0.34536  0.48041  0.07432  Biso   1.000  C
  C96      1.0000 0.58926  0.16947  0.49421  Biso   1.000  C
  C97      1.0000 0.70559  0.06399  0.49689  Biso   1.000  C
  C98      1.0000 0.50954  0.66263  0.10298  Biso   1.000  C
  C99      1.0000 0.09532  0.47093  0.69270  Biso   1.000  C
  C100     1.0000 0.20019  0.07133  0.01662  Biso   1.000  C
  C101     1.0000 0.00915  0.67156  0.42701  Biso   1.000  C
  C102     1.0000 0.58816  0.49761  0.81319  Biso   1.000  C
  C103     1.0000 0.82851  0.56162  0.49413  Biso   1.000  C
  C104     1.0000 0.01150  0.17927  0.08510  Biso   1.000  C
  C105     1.0000 0.43406  0.00362  0.69196  Biso   1.000  C
  C106     1.0000 0.33230  0.56854  0.02077  Biso   1.000  C
  C107     1.0000 0.52187  0.16384  0.41386  Biso   1.000  C
  C108     1.0000 0.93682  0.97204  0.82021  Biso   1.000  C
  C109     1.0000 0.33332  0.91251  0.50609  Biso   1.000  C
  C110     1.0000 0.54446  0.31493  0.90944  Biso   1.000  C
  C111     1.0000 0.94165  0.50025  0.32108  Biso   1.000  C
  C112     1.0000 0.82916  0.91175  0.01424  Biso   1.000  C
  C113     1.0000 0.01884  0.30037  0.58704  Biso   1.000  C
  C114     1.0000 0.44191  0.47861  0.19884  Biso   1.000  C
  C115     1.0000 0.20875  0.41063  0.52550  Biso   1.000  C
  C116     1.0000 0.00759  0.80264  0.92774  Biso   1.000  C
  C117     1.0000 0.60051  0.97633  0.32333  Biso   1.000  C
  C118     1.0000 0.70321  0.40665  0.98642  Biso   1.000  C
  C119     1.0000 0.50392  0.81235  0.60064  Biso   1.000  C
  C120     1.0000 0.09502  0.00072  0.18715  Biso   1.000  C
  C121     1.0000 0.83361  0.00842  0.08731  Biso   1.000  C
  C122     1.0000 0.09177  0.80409  0.01564  Biso   1.000  C
  C123     1.0000 0.01485  0.06559  0.82278  Biso   1.000  C
  C124     1.0000 0.33850  0.00208  0.42046  Biso   1.000  C
  C125     1.0000 0.59001  0.80256  0.51759  Biso   1.000  C
  C126     1.0000 0.53111  0.08073  0.68469  Biso   1.000  C
  C127     1.0000 0.70355  0.48554  0.07789  Biso   1.000  C
  C128     1.0000 0.44239  0.30896  0.98685  Biso   1.000  C
  C129     1.0000 0.49546  0.58270  0.82833  Biso   1.000  C
  C130     1.0000 0.20379  0.49068  0.43424  Biso   1.000  C
  C131     1.0000 0.94647  0.29942  0.49108  Biso   1.000  C
  C132     1.0000 0.01821  0.56513  0.69164  Biso   1.000  C
  C133     1.0000 0.20155  0.98018  0.92465  Biso   1.000  C
  C134     1.0000 0.94529  0.17233  0.97815  Biso   1.000  C
  C135     1.0000 0.01953  0.91178  0.19034  Biso   1.000  C
  C136     1.0000 0.69842  0.98018  0.59313  Biso   1.000  C
  C137     1.0000 0.44957  0.17166  0.51007  Biso   1.000  C
  C138     1.0000 0.51602  0.89233  0.33002  Biso   1.000  C
  C139     1.0000 0.33555  0.48663  0.93486  Biso   1.000  C
  C140     1.0000 0.59452  0.66914  0.02258  Biso   1.000  C
  C141     1.0000 0.53769  0.39198  0.18504  Biso   1.000  C
  C142     1.0000 0.83441  0.47537  0.58328  Biso   1.000  C
  C143     1.0000 0.08966  0.67336  0.50640  Biso   1.000  C
  C144     1.0000 0.02060  0.41216  0.32621  Biso   1.000  C
  C145     1.0000 0.34638  0.48060  0.10690  Biso   1.000  C
  C146     1.0000 0.12019  0.30935  0.50098  Biso   1.000  C
  C147     1.0000 0.51726  0.06558  0.32054  Biso   1.000  C
  C148     1.0000 0.84962  0.47002  0.40989  Biso   1.000  C
  C149     1.0000 0.61181  0.30860  0.99132  Biso   1.000  C
  C150     1.0000 0.00260  0.08430  0.17964  Biso   1.000  C
  C151     1.0000 0.19363  0.99466  0.09699  Biso   1.000  C
  C152     1.0000 0.41964  0.81049  0.51331  Biso   1.000  C
  C153     1.0000 0.03559  0.58457  0.32867  Biso   1.000  C
  C154     1.0000 0.69615  0.97528  0.42061  Biso   1.000  C
  C155     1.0000 0.91867  0.81187  0.00906  Biso   1.000  C
  C156     1.0000 0.52409  0.56533  0.19389  Biso   1.000  C
  C157     1.0000 0.68826  0.48850  0.90434  Biso   1.000  C
  C158     1.0000 0.91716  0.65813  0.50718  Biso   1.000  C
  C159     1.0000 0.50011  0.91239  0.69019  Biso   1.000  C
  C160     1.0000 0.19306  0.49934  0.60857  Biso   1.000  C
  C161     1.0000 0.41890  0.67173  0.01377  Biso   1.000  C
  C162     1.0000 0.02577  0.89129  0.82895  Biso   1.000  C
  C163     1.0000 0.83837  0.98584  0.91373  Biso   1.000  C
  C164     1.0000 0.62256  0.16839  0.49591  Biso   1.000  C
  C165     1.0000 0.99106  0.39422  0.68373  Biso   1.000  C
  C166     1.0000 0.33645  0.99623  0.59762  Biso   1.000  C
  C167     1.0000 0.11132  0.17111  0.00876  Biso   1.000  C
  C168     1.0000 0.51038  0.40914  0.81888  Biso   1.000  C
  C169     1.0000 0.00969  0.81221  0.10266  Biso   1.000  C
  C170     1.0000 0.10493  0.98594  0.83127  Biso   1.000  C
  C171     1.0000 0.84667  0.08034  0.98115  Biso   1.000  C
  C172     1.0000 0.51523  0.79818  0.42756  Biso   1.000  C
  C173     1.0000 0.60106  0.97154  0.68505  Biso   1.000  C
  C174     1.0000 0.34720  0.08500  0.51064  Biso   1.000  C
  C175     1.0000 0.52229  0.30509  0.08298  Biso   1.000  C
  C176     1.0000 0.42069  0.48772  0.82913  Biso   1.000  C
  C177     1.0000 0.68963  0.58145  0.98926  Biso   1.000  C
  C178     1.0000 0.04231  0.31242  0.41333  Biso   1.000  C
  C179     1.0000 0.92281  0.48995  0.68568  Biso   1.000  C
  C180     1.0000 0.18924  0.58260  0.50387  Biso   1.000  C
  C181     1.0000 0.03873  0.16648  0.91165  Biso   1.000  C
  C182     1.0000 0.92627  0.99391  0.18475  Biso   1.000  C
  C183     1.0000 0.18642  0.89977  0.00638  Biso   1.000  C
  C184     1.0000 0.54753  0.16716  0.58417  Biso   1.000  C
  C185     1.0000 0.42741  0.98616  0.32149  Biso   1.000  C
  C186     1.0000 0.69189  0.89048  0.51138  Biso   1.000  C
  C187     1.0000 0.50160  0.67227  0.93104  Biso   1.000  C
  C188     1.0000 0.61081  0.47643  0.17973  Biso   1.000  C
  C189     1.0000 0.34649  0.39560  0.01812  Biso   1.000  C
  C190     1.0000 0.00532  0.66350  0.59757  Biso   1.000  C
  C191     1.0000 0.11521  0.48693  0.33305  Biso   1.000  C
  C192     1.0000 0.84664  0.39026  0.51135  Biso   1.000  C
  C193     1.0000 0.86547  0.98255  0.89923  Biso   1.000  C
  C194     1.0000 0.90498  0.84078  0.00979  Biso   1.000  C
  C195     1.0000 0.02468  0.87593  0.85681  Biso   1.000  C
  C196     1.0000 0.36353  0.99819  0.61545  Biso   1.000  C
  C197     1.0000 0.40572  0.83846  0.51733  Biso   1.000  C
  C198     1.0000 0.50141  0.89433  0.66394  Biso   1.000  C
  C199     1.0000 0.66078  0.49368  0.89022  Biso   1.000  C
  C200     1.0000 0.62743  0.33630  0.98896  Biso   1.000  C
  C201     1.0000 0.52159  0.39465  0.84431  Biso   1.000  C
  C202     1.0000 0.16669  0.49196  0.62245  Biso   1.000  C
  C203     1.0000 0.13467  0.33678  0.50731  Biso   1.000  C
  C204     1.0000 0.99901  0.37974  0.65736  Biso   1.000  C
  C205     1.0000 0.16567  0.99430  0.11125  Biso   1.000  C
  C206     1.0000 0.12368  0.14271  0.01290  Biso   1.000  C
  C207     1.0000 0.00076  0.10002  0.15296  Biso   1.000  C
  C208     1.0000 0.66969  0.97471  0.40347  Biso   1.000  C
  C209     1.0000 0.63516  0.13947  0.49451  Biso   1.000  C
  C210     1.0000 0.52099  0.08146  0.34688  Biso   1.000  C
  C211     1.0000 0.37312  0.48004  0.12314  Biso   1.000  C
  C212     1.0000 0.40540  0.64320  0.01279  Biso   1.000  C
  C213     1.0000 0.51709  0.58076  0.16807  Biso   1.000  C
  C214     1.0000 0.87589  0.47912  0.39399  Biso   1.000  C
  C215     1.0000 0.90272  0.63038  0.50358  Biso   1.000  C
  C216     1.0000 0.03136  0.59790  0.35747  Biso   1.000  C
  C217     1.0000 0.12140  0.98490  0.85852  Biso   1.000  C
  C218     1.0000 0.87420  0.09412  0.97858  Biso   1.000  C
  C219     1.0000 0.01323  0.83960  0.11664  Biso   1.000  C
  C220     1.0000 0.61790  0.97049  0.65820  Biso   1.000  C
  C221     1.0000 0.37631  0.09853  0.50988  Biso   1.000  C
  C222     1.0000 0.51447  0.82463  0.41112  Biso   1.000  C
  C223     1.0000 0.40663  0.48354  0.85705  Biso   1.000  C
  C224     1.0000 0.66431  0.59624  0.00019  Biso   1.000  C
  C225     1.0000 0.52788  0.33057  0.10052  Biso   1.000  C
  C226     1.0000 0.90785  0.48587  0.65738  Biso   1.000  C
  C227     1.0000 0.16123  0.59674  0.50416  Biso   1.000  C
  C228     1.0000 0.03912  0.34112  0.39902  Biso   1.000  C
  C229     1.0000 0.91013  0.99981  0.15828  Biso   1.000  C
  C230     1.0000 0.15879  0.88482  0.00617  Biso   1.000  C
  C231     1.0000 0.03261  0.13828  0.89744  Biso   1.000  C
  C232     1.0000 0.41330  0.99004  0.34980  Biso   1.000  C
  C233     1.0000 0.66266  0.87663  0.51447  Biso   1.000  C
  C234     1.0000 0.54441  0.14119  0.60268  Biso   1.000  C
  C235     1.0000 0.62661  0.47836  0.15036  Biso   1.000  C
  C236     1.0000 0.37399  0.38051  0.01099  Biso   1.000  C
  C237     1.0000 0.49720  0.64610  0.91310  Biso   1.000  C
  C238     1.0000 0.12821  0.48772  0.36102  Biso   1.000  C
  C239     1.0000 0.87444  0.37590  0.50914  Biso   1.000  C
  C240     1.0000 0.01026  0.63638  0.61256  Biso   1.000  C
  C241     1.0000 0.60596  0.49532  0.83961  Biso   1.000  C
  C242     1.0000 0.85373  0.57858  0.49709  Biso   1.000  C
  C243     1.0000 0.50325  0.83908  0.61634  Biso   1.000  C
  C244     1.0000 0.11341  0.47857  0.66779  Biso   1.000  C
  C245     1.0000 0.35818  0.58647  0.02107  Biso   1.000  C
  C246     1.0000 0.01272  0.82876  0.91128  Biso   1.000  C
  C247     1.0000 0.92010  0.97362  0.84813  Biso   1.000  C
  C248     1.0000 0.68022  0.08125  0.49458  Biso   1.000  C
  C249     1.0000 0.01362  0.32686  0.60402  Biso   1.000  C
  C250     1.0000 0.41546  0.00093  0.66494  Biso   1.000  C
  C251     1.0000 0.17405  0.08750  0.01832  Biso   1.000  C
  C252     1.0000 0.53772  0.34251  0.89411  Biso   1.000  C
  C253     1.0000 0.42448  0.47764  0.17213  Biso   1.000  C
  C254     1.0000 0.18253  0.39249  0.52281  Biso   1.000  C
  C255     1.0000 0.52209  0.13580  0.39935  Biso   1.000  C
  C256     1.0000 0.92563  0.49528  0.34739  Biso   1.000  C
  C257     1.0000 0.67746  0.38882  0.98808  Biso   1.000  C
  C258     1.0000 0.00874  0.15367  0.10165  Biso   1.000  C
  C259     1.0000 0.11121  0.99749  0.15988  Biso   1.000  C
  C260     1.0000 0.35854  0.89408  0.51342  Biso   1.000  C
  C261     1.0000 0.01670  0.64611  0.41090  Biso   1.000  C
  C262     1.0000 0.61575  0.97442  0.35062  Biso   1.000  C
  C263     1.0000 0.85507  0.89405  0.01279  Biso   1.000  C
  C264     1.0000 0.51323  0.63557  0.11862  Biso   1.000  C
  C265     1.0000 0.01998  0.08322  0.85001  Biso   1.000  C
  C266     1.0000 0.85982  0.00464  0.10514  Biso   1.000  C
  C267     1.0000 0.10724  0.83182  0.00958  Biso   1.000  C
  C268     1.0000 0.53614  0.09443  0.65760  Biso   1.000  C
  C269     1.0000 0.36539  0.99957  0.40472  Biso   1.000  C
  C270     1.0000 0.60904  0.82849  0.51701  Biso   1.000  C
  C271     1.0000 0.49325  0.59745  0.85729  Biso   1.000  C
  C272     1.0000 0.67724  0.48631  0.09456  Biso   1.000  C
  C273     1.0000 0.42557  0.33495  0.99189  Biso   1.000  C
  C274     1.0000 0.01824  0.58178  0.66427  Biso   1.000  C
  C275     1.0000 0.17723  0.49215  0.41690  Biso   1.000  C
  C276     1.0000 0.92852  0.32498  0.49859  Biso   1.000  C
  C277     1.0000 0.01889  0.89364  0.16433  Biso   1.000  C
  C278     1.0000 0.17383  0.98293  0.90926  Biso   1.000  C
  C279     1.0000 0.92853  0.14497  0.97911  Biso   1.000  C
  C280     1.0000 0.51482  0.87791  0.35864  Biso   1.000  C
  C281     1.0000 0.67109  0.97635  0.60768  Biso   1.000  C
  C282     1.0000 0.43246  0.14611  0.51161  Biso   1.000  C
  C283     1.0000 0.53630  0.37812  0.15661  Biso   1.000  C
  C284     1.0000 0.36114  0.49023  0.91614  Biso   1.000  C
  C285     1.0000 0.61113  0.64389  0.01584  Biso   1.000  C
  C286     1.0000 0.02764  0.39379  0.35162  Biso   1.000  C
  C287     1.0000 0.86054  0.47675  0.60073  Biso   1.000  C
  C288     1.0000 0.10735  0.64630  0.50331  Biso   1.000  C
  C289     1.0000 0.35537  0.86304  0.51128  Biso   1.000  C
  C290     1.0000 0.53785  0.34369  0.86311  Biso   1.000  C
  C291     1.0000 0.89529  0.48779  0.34329  Biso   1.000  C
  C292     1.0000 0.85335  0.86231  0.01388  Biso   1.000  C
  C293     1.0000 0.00528  0.32653  0.63560  Biso   1.000  C
  C294     1.0000 0.39316  0.47753  0.17586  Biso   1.000  C
  C295     1.0000 0.18554  0.36201  0.51512  Biso   1.000  C
  C296     1.0000 0.01396  0.82675  0.87928  Biso   1.000  C
  C297     1.0000 0.64714  0.97388  0.34967  Biso   1.000  C
  C298     1.0000 0.67839  0.35792  0.98457  Biso   1.000  C
  C299     1.0000 0.50213  0.83925  0.64801  Biso   1.000  C
  C300     1.0000 0.14252  0.99682  0.16252  Biso   1.000  C
  C301     1.0000 0.68543  0.11295  0.49590  Biso   1.000  C
  C302     1.0000 0.51505  0.63575  0.14945  Biso   1.000  C
  C303     1.0000 0.14335  0.48149  0.67208  Biso   1.000  C
  C304     1.0000 0.17673  0.11915  0.01491  Biso   1.000  C
  C305     1.0000 0.02084  0.64897  0.38028  Biso   1.000  C
  C306     1.0000 0.63715  0.49645  0.83664  Biso   1.000  C
  C307     1.0000 0.84934  0.60976  0.49841  Biso   1.000  C
  C308     1.0000 0.00583  0.15234  0.13296  Biso   1.000  C
  C309     1.0000 0.38455  0.99699  0.66752  Biso   1.000  C
  C310     1.0000 0.35439  0.61792  0.01679  Biso   1.000  C
  C311     1.0000 0.51986  0.13425  0.36662  Biso   1.000  C
  C312     1.0000 0.88806  0.97559  0.84651  Biso   1.000  C
  C313     1.0000 0.18081  0.48859  0.38579  Biso   1.000  C
  C314     1.0000 0.40081  0.14971  0.51453  Biso   1.000  C
  C315     1.0000 0.53317  0.34707  0.15482  Biso   1.000  C
  C316     1.0000 0.67891  0.48303  0.12604  Biso   1.000  C
  C317     1.0000 0.89642  0.14607  0.97553  Biso   1.000  C
  C318     1.0000 0.03091  0.36294  0.34893  Biso   1.000  C
  C319     1.0000 0.36272  0.99857  0.37333  Biso   1.000  C
  C320     1.0000 0.13866  0.64914  0.50185  Biso   1.000  C
  C321     1.0000 0.01803  0.86243  0.16844  Biso   1.000  C
  C322     1.0000 0.85871  0.00434  0.13730  Biso   1.000  C
  C323     1.0000 0.64193  0.64604  0.01328  Biso   1.000  C
  C324     1.0000 0.51534  0.84652  0.35798  Biso   1.000  C
  C325     1.0000 0.85821  0.48009  0.63261  Biso   1.000  C
  C326     1.0000 0.63949  0.82580  0.51573  Biso   1.000  C
  C327     1.0000 0.49349  0.62919  0.85868  Biso   1.000  C
  C328     1.0000 0.35647  0.48697  0.88499  Biso   1.000  C
  C329     1.0000 0.13854  0.83251  0.01153  Biso   1.000  C
  C330     1.0000 0.01150  0.61256  0.66515  Biso   1.000  C
  C331     1.0000 0.67138  0.97427  0.63972  Biso   1.000  C
  C332     1.0000 0.89758  0.32431  0.49896  Biso   1.000  C
  C333     1.0000 0.02150  0.11372  0.84625  Biso   1.000  C
  C334     1.0000 0.17391  0.98454  0.87767  Biso   1.000  C
  C335     1.0000 0.39534  0.33074  0.99697  Biso   1.000  C
  C336     1.0000 0.54112  0.12484  0.65804  Biso   1.000  C
  C337     1.0000 0.65983  0.49471  0.85834  Biso   1.000  C
  C338     1.0000 0.87087  0.63119  0.50078  Biso   1.000  C
  C339     1.0000 0.50105  0.86290  0.66820  Biso   1.000  C
  C340     1.0000 0.16570  0.48658  0.65207  Biso   1.000  C
  C341     1.0000 0.37375  0.64067  0.01379  Biso   1.000  C
  C342     1.0000 0.01836  0.84582  0.85606  Biso   1.000  C
  C343     1.0000 0.86566  0.97839  0.86755  Biso   1.000  C
  C344     1.0000 0.66679  0.13715  0.49573  Biso   1.000  C
  C345     1.0000 0.00074  0.34829  0.65697  Biso   1.000  C
  C346     1.0000 0.36378  0.99559  0.64573  Biso   1.000  C
  C347     1.0000 0.15501  0.14081  0.01295  Biso   1.000  C
  C348     1.0000 0.52979  0.36437  0.84187  Biso   1.000  C
  C349     1.0000 0.37137  0.47744  0.15469  Biso   1.000  C
  C350     1.0000 0.16557  0.33964  0.50815  Biso   1.000  C
  C351     1.0000 0.51963  0.11243  0.34595  Biso   1.000  C
  C352     1.0000 0.87396  0.48117  0.36311  Biso   1.000  C
  C353     1.0000 0.65791  0.33523  0.98543  Biso   1.000  C
  C354     1.0000 0.00381  0.13120  0.15378  Biso   1.000  C
  C355     1.0000 0.16481  0.99525  0.14234  Biso   1.000  C
  C356     1.0000 0.37468  0.84040  0.51139  Biso   1.000  C
  C357     1.0000 0.02567  0.62878  0.35846  Biso   1.000  C
  C358     1.0000 0.66972  0.97414  0.37199  Biso   1.000  C
  C359     1.0000 0.87353  0.84085  0.01292  Biso   1.000  C
  C360     1.0000 0.51693  0.61362  0.17051  Biso   1.000  C
  C361     1.0000 0.02710  0.13699  0.86569  Biso   1.000  C
  C362     1.0000 0.87895  0.00193  0.15938  Biso   1.000  C
  C363     1.0000 0.16013  0.85385  0.00886  Biso   1.000  C
  C364     1.0000 0.54519  0.14344  0.63388  Biso   1.000  C
  C365     1.0000 0.38226  0.99579  0.35082  Biso   1.000  C
  C366     1.0000 0.66209  0.84562  0.51465  Biso   1.000  C
  C367     1.0000 0.49702  0.64860  0.88221  Biso   1.000  C
  C368     1.0000 0.65848  0.48121  0.14932  Biso   1.000  C
  C369     1.0000 0.37270  0.34946  0.00581  Biso   1.000  C
  C370     1.0000 0.00779  0.63488  0.64393  Biso   1.000  C
  C371     1.0000 0.16038  0.48618  0.36291  Biso   1.000  C
  C372     1.0000 0.87487  0.34523  0.50314  Biso   1.000  C
  C373     1.0000 0.01361  0.83965  0.14835  Biso   1.000  C
  C374     1.0000 0.15195  0.98508  0.85609  Biso   1.000  C
  C375     1.0000 0.87403  0.12552  0.97420  Biso   1.000  C
  C376     1.0000 0.51505  0.82468  0.37968  Biso   1.000  C
  C377     1.0000 0.64977  0.97165  0.66155  Biso   1.000  C
  C378     1.0000 0.37807  0.12977  0.51235  Biso   1.000  C
  C379     1.0000 0.53060  0.32751  0.13129  Biso   1.000  C
  C380     1.0000 0.37590  0.48687  0.86138  Biso   1.000  C
  C381     1.0000 0.66450  0.62675  0.00623  Biso   1.000  C
  C382     1.0000 0.03596  0.34007  0.36806  Biso   1.000  C
  C383     1.0000 0.87675  0.48415  0.65627  Biso   1.000  C
  C384     1.0000 0.16170  0.62890  0.50382  Biso   1.000  C
  C385     1.0000 0.20417  0.13411  0.01287  Biso   1.000  C
  C386     1.0000 0.00696  0.17855  0.14893  Biso   1.000  C
  C387     1.0000 0.15766  0.99958  0.19059  Biso   1.000  C
  C388     1.0000 0.71372  0.12587  0.49846  Biso   1.000  C
  C389     1.0000 0.51550  0.16125  0.35024  Biso   1.000  C
  C390     1.0000 0.66280  0.97438  0.32306  Biso   1.000  C
  C391     1.0000 0.32650  0.63179  0.01518  Biso   1.000  C
  C392     1.0000 0.51385  0.66228  0.16665  Biso   1.000  C
  C393     1.0000 0.37876  0.47883  0.20214  Biso   1.000  C
  C394     1.0000 0.82225  0.62424  0.49820  Biso   1.000  C
  C395     1.0000 0.01944  0.67689  0.36485  Biso   1.000  C
  C396     1.0000 0.88028  0.48614  0.31499  Biso   1.000  C
  C397     1.0000 0.82570  0.84808  0.01570  Biso   1.000  C
  C398     1.0000 0.00914  0.79814  0.86425  Biso   1.000  C
  C399     1.0000 0.87371  0.97252  0.81906  Biso   1.000  C
  C400     1.0000 0.32784  0.84880  0.50579  Biso   1.000  C
  C401     1.0000 0.50136  0.81416  0.66530  Biso   1.000  C
  C402     1.0000 0.36970  0.99401  0.69487  Biso   1.000  C
  C403     1.0000 0.70654  0.34346  0.98084  Biso   1.000  C
  C404     1.0000 0.54415  0.31757  0.84659  Biso   1.000  C
  C405     1.0000 0.65066  0.49762  0.80827  Biso   1.000  C
  C406     1.0000 0.21390  0.34760  0.51661  Biso   1.000  C
  C407     1.0000 0.00207  0.29957  0.64944  Biso   1.000  C
  C408     1.0000 0.15742  0.47671  0.70146  Biso   1.000  C
  C409     1.0000 0.16629  0.98513  0.82811  Biso   1.000  C
  C410     1.0000 0.84740  0.14181  0.96991  Biso   1.000  C
  C411     1.0000 0.01436  0.81409  0.16519  Biso   1.000  C
  C412     1.0000 0.66487  0.96990  0.68897  Biso   1.000  C
  C413     1.0000 0.35351  0.14822  0.51471  Biso   1.000  C
  C414     1.0000 0.51587  0.79760  0.36370  Biso   1.000  C
  C415     1.0000 0.35879  0.48724  0.83526  Biso   1.000  C
  C416     1.0000 0.69029  0.64434  0.00232  Biso   1.000  C
  C417     1.0000 0.52819  0.29910  0.14481  Biso   1.000  C
  C418     1.0000 0.85845  0.48742  0.68177  Biso   1.000  C
  C419     1.0000 0.18721  0.64727  0.50256  Biso   1.000  C
  C420     1.0000 0.03212  0.31478  0.35184  Biso   1.000  C
  C421     1.0000 0.86264  0.00140  0.18540  Biso   1.000  C
  C422     1.0000 0.18712  0.83817  0.01209  Biso   1.000  C
  C423     1.0000 0.02555  0.16368  0.84884  Biso   1.000  C
  C424     1.0000 0.36518  0.99228  0.32510  Biso   1.000  C
  C425     1.0000 0.68857  0.82803  0.51661  Biso   1.000  C
  C426     1.0000 0.54777  0.17114  0.64697  Biso   1.000  C
  C427     1.0000 0.67631  0.47756  0.17640  Biso   1.000  C
  C428     1.0000 0.34598  0.33212  0.00689  Biso   1.000  C
  C429     1.0000 0.49817  0.67761  0.86936  Biso   1.000  C
  C430     1.0000 0.17921  0.48185  0.33727  Biso   1.000  C
  C431     1.0000 0.84918  0.32844  0.50187  Biso   1.000  C
  C432     1.0000 0.00218  0.66139  0.66093  Biso   1.000  C
  C433     1.0000 0.01504  0.12809  0.81913  Biso   1.000  C
  C434     1.0000 0.83153  0.00654  0.15151  Biso   1.000  C
  C435     1.0000 0.15449  0.80492  0.01551  Biso   1.000  C
  C436     1.0000 0.54082  0.14271  0.68460  Biso   1.000  C
  C437     1.0000 0.33519  0.99810  0.35839  Biso   1.000  C
  C438     1.0000 0.65347  0.79863  0.51713  Biso   1.000  C
  C439     1.0000 0.49297  0.64723  0.83230  Biso   1.000  C
  C440     1.0000 0.70616  0.48136  0.14068  Biso   1.000  C
  C441     1.0000 0.38044  0.30303  0.99429  Biso   1.000  C
  C442     1.0000 0.00959  0.62807  0.69161  Biso   1.000  C
  C443     1.0000 0.20747  0.48648  0.37189  Biso   1.000  C
  C444     1.0000 0.88302  0.29736  0.49413  Biso   1.000  C
  C445     1.0000 0.01595  0.84821  0.19665  Biso   1.000  C
  C446     1.0000 0.20056  0.98402  0.86165  Biso   1.000  C
  C447     1.0000 0.88170  0.17317  0.97016  Biso   1.000  C
  C448     1.0000 0.51604  0.83102  0.33111  Biso   1.000  C
  C449     1.0000 0.69717  0.97622  0.65641  Biso   1.000  C
  C450     1.0000 0.38789  0.17875  0.51876  Biso   1.000  C
  C451     1.0000 0.53336  0.32926  0.18058  Biso   1.000  C
  C452     1.0000 0.32812  0.48554  0.87126  Biso   1.000  C
  C453     1.0000 0.65681  0.67307  0.01712  Biso   1.000  C
  C454     1.0000 0.02406  0.35133  0.32168  Biso   1.000  C
  C455     1.0000 0.82947  0.48028  0.64562  Biso   1.000  C
  C456     1.0000 0.15154  0.67753  0.50126  Biso   1.000  C
  C457     1.0000 0.02644  0.64452  0.33154  Biso   1.000  C
  C458     1.0000 0.33649  0.99005  0.66032  Biso   1.000  C
  C459     1.0000 0.67451  0.30873  0.98287  Biso   1.000  C
  C460     1.0000 0.51734  0.62812  0.19860  Biso   1.000  C
  C461     1.0000 0.84066  0.97817  0.85075  Biso   1.000  C
  C462     1.0000 0.18376  0.31405  0.50676  Biso   1.000  C
  C463     1.0000 0.51700  0.12800  0.31901  Biso   1.000  C
  C464     1.0000 0.19106  0.48591  0.67097  Biso   1.000  C
  C465     1.0000 0.85725  0.81479  0.01545  Biso   1.000  C
  C466     1.0000 0.00550  0.14644  0.18101  Biso   1.000  C
  C467     1.0000 0.68601  0.49259  0.84064  Biso   1.000  C
  C468     1.0000 0.35714  0.81506  0.50832  Biso   1.000  C
  C469     1.0000 0.99403  0.33298  0.68281  Biso   1.000  C
  C470     1.0000 0.69607  0.97537  0.35607  Biso   1.000  C
  C471     1.0000 0.35708  0.66685  0.01472  Biso   1.000  C
  C472     1.0000 0.52839  0.34879  0.81517  Biso   1.000  C
  C473     1.0000 0.19183  0.99560  0.16016  Biso   1.000  C
  C474     1.0000 0.85457  0.65735  0.50250  Biso   1.000  C
  C475     1.0000 0.49877  0.84857  0.69570  Biso   1.000  C
  C476     1.0000 0.84856  0.47612  0.34638  Biso   1.000  C
  C477     1.0000 0.17264  0.16714  0.00935  Biso   1.000  C
  C478     1.0000 0.01647  0.82799  0.82939  Biso   1.000  C
  C479     1.0000 0.34606  0.47994  0.17153  Biso   1.000  C
  C480     1.0000 0.68516  0.16221  0.49850  Biso   1.000  C
  C481     1.0000 0.37228  0.78678  0.50492  Biso   1.000  C
  C482     1.0000 0.51849  0.36442  0.78852  Biso   1.000  C
  C483     1.0000 0.82281  0.46538  0.36170  Biso   1.000  C
  C484     1.0000 0.87109  0.78652  0.01405  Biso   1.000  C
  C485     1.0000 0.98367  0.34583  0.70983  Biso   1.000  C
  C486     1.0000 0.31825  0.48129  0.15531  Biso   1.000  C
  C487     1.0000 0.16903  0.28433  0.50343  Biso   1.000  C
  C488     1.0000 0.02124  0.84342  0.80170  Biso   1.000  C
  C489     1.0000 0.72381  0.97948  0.37144  Biso   1.000  C
  C490     1.0000 0.66049  0.28135  0.98364  Biso   1.000  C
  C491     1.0000 0.49630  0.86723  0.72174  Biso   1.000  C
  C492     1.0000 0.21956  0.99670  0.14536  Biso   1.000  C
  C493     1.0000 0.67180  0.19142  0.50049  Biso   1.000  C
  C494     1.0000 0.52288  0.61090  0.22446  Biso   1.000  C
  C495     1.0000 0.21810  0.49457  0.65705  Biso   1.000  C
  C496     1.0000 0.16033  0.19577  0.00721  Biso   1.000  C
  C497     1.0000 0.03360  0.63129  0.30358  Biso   1.000  C
  C498     1.0000 0.71389  0.48708  0.85640  Biso   1.000  C
  C499     1.0000 0.86967  0.68483  0.50507  Biso   1.000  C
  C500     1.0000 0.00638  0.13047  0.20861  Biso   1.000  C
  C501     1.0000 0.31019  0.98505  0.64250  Biso   1.000  C
  C502     1.0000 0.37184  0.69577  0.01703  Biso   1.000  C
  C503     1.0000 0.51088  0.11100  0.29088  Biso   1.000  C
  C504     1.0000 0.81285  0.98252  0.86490  Biso   1.000  C
  C505     1.0000 0.63227  0.50209  0.78279  Biso   1.000  C
  C506     1.0000 0.79655  0.60655  0.49345  Biso   1.000  C
  C507     1.0000 0.50468  0.78660  0.65014  Biso   1.000  C
  C508     1.0000 0.13977  0.46874  0.72545  Biso   1.000  C
  C509     1.0000 0.30021  0.61377  0.01341  Biso   1.000  C
  C510     1.0000 0.00283  0.77247  0.88163  Biso   1.000  C
  C511     1.0000 0.88968  0.96666  0.79145  Biso   1.000  C
  C512     1.0000 0.73961  0.10720  0.49875  Biso   1.000  C
  C513     1.0000 0.00792  0.27245  0.63303  Biso   1.000  C
  C514     1.0000 0.38800  0.99670  0.72100  Biso   1.000  C
  C515     1.0000 0.22981  0.11728  0.01970  Biso   1.000  C
  C516     1.0000 0.55657  0.29121  0.86026  Biso   1.000  C
  C517     1.0000 0.39651  0.47714  0.22862  Biso   1.000  C
  C518     1.0000 0.23919  0.36478  0.52256  Biso   1.000  C
  C519     1.0000 0.51362  0.18911  0.36625  Biso   1.000  C
  C520     1.0000 0.89742  0.49248  0.28757  Biso   1.000  C
  C521     1.0000 0.73493  0.35925  0.97869  Biso   1.000  C
  C522     1.0000 0.00553  0.20682  0.13288  Biso   1.000  C
  C523     1.0000 0.14102  0.00316  0.21674  Biso   1.000  C
  C524     1.0000 0.30103  0.86804  0.49998  Biso   1.000  C
  C525     1.0000 0.01102  0.70298  0.38239  Biso   1.000  C
  C526     1.0000 0.64598  0.97245  0.29590  Biso   1.000  C
  C527     1.0000 0.79953  0.86610  0.01993  Biso   1.000  C
  C528     1.0000 0.50829  0.69027  0.15064  Biso   1.000  C
  C529     1.0000 0.82008  0.12636  0.96967  Biso   1.000  C
  C530     1.0000 0.00841  0.78717  0.15107  Biso   1.000  C
  C531     1.0000 0.15135  0.98882  0.80258  Biso   1.000  C
  C532     1.0000 0.32366  0.13588  0.51551  Biso   1.000  C
  C533     1.0000 0.51321  0.77074  0.38028  Biso   1.000  C
  C534     1.0000 0.64855  0.96529  0.71661  Biso   1.000  C
  C535     1.0000 0.71677  0.62862  0.99429  Biso   1.000  C
  C536     1.0000 0.51955  0.27391  0.12799  Biso   1.000  C
  C537     1.0000 0.37113  0.48743  0.80568  Biso   1.000  C
  C538     1.0000 0.21469  0.63145  0.49690  Biso   1.000  C
  C539     1.0000 0.04057  0.28782  0.36477  Biso   1.000  C
  C540     1.0000 0.87360  0.49097  0.70998  Biso   1.000  C
  C541     1.0000 0.21536  0.85308  0.01269  Biso   1.000  C
  C542     1.0000 0.03267  0.19149  0.86465  Biso   1.000  C
  C543     1.0000 0.87759  0.99106  0.21102  Biso   1.000  C
  C544     1.0000 0.71626  0.84167  0.51277  Biso   1.000  C
  C545     1.0000 0.55237  0.19683  0.62863  Biso   1.000  C
  C546     1.0000 0.37867  0.98552  0.29734  Biso   1.000  C
  C547     1.0000 0.31977  0.34689  0.01710  Biso   1.000  C
  C548     1.0000 0.49737  0.70357  0.88606  Biso   1.000  C
  C549     1.0000 0.66126  0.47443  0.20506  Biso   1.000  C
  C550     1.0000 0.82152  0.34190  0.50370  Biso   1.000  C
  C551     1.0000 0.00100  0.68975  0.64555  Biso   1.000  C
  C552     1.0000 0.16246  0.47655  0.30974  Biso   1.000  C
  C553     1.0000 0.00844  0.11035  0.79323  Biso   1.000  C
  C554     1.0000 0.80429  0.00927  0.13475  Biso   1.000  C
  C555     1.0000 0.13818  0.77785  0.01978  Biso   1.000  C
  C556     1.0000 0.53681  0.12889  0.71201  Biso   1.000  C
  C557     1.0000 0.30999  0.00229  0.37494  Biso   1.000  C
  C558     1.0000 0.63490  0.77379  0.52118  Biso   1.000  C
  C559     1.0000 0.49372  0.63188  0.80449  Biso   1.000  C
  C560     1.0000 0.73263  0.47930  0.12299  Biso   1.000  C
  C561     1.0000 0.39671  0.27666  0.98750  Biso   1.000  C
  C562     1.0000 0.01171  0.61258  0.71976  Biso   1.000  C
  C563     1.0000 0.23456  0.49262  0.38809  Biso   1.000  C
  C564     1.0000 0.89860  0.27061  0.48486  Biso   1.000  C
  C565     1.0000 0.01605  0.86725  0.22341  Biso   1.000  C
  C566     1.0000 0.22892  0.98056  0.87714  Biso   1.000  C
  C567     1.0000 0.89872  0.20040  0.96940  Biso   1.000  C
  C568     1.0000 0.51889  0.84586  0.30270  Biso   1.000  C
  C569     1.0000 0.72552  0.98121  0.64093  Biso   1.000  C
  C570     1.0000 0.40556  0.20451  0.51956  Biso   1.000  C
  C571     1.0000 0.53938  0.34280  0.20832  Biso   1.000  C
  C572     1.0000 0.30269  0.48619  0.89067  Biso   1.000  C
  C573     1.0000 0.63961  0.69965  0.02531  Biso   1.000  C
  C574     1.0000 0.01443  0.36849  0.29576  Biso   1.000  C
  C575     1.0000 0.80451  0.47356  0.62730  Biso   1.000  C
  C576     1.0000 0.13474  0.70510  0.50517  Biso   1.000  C
  C577     1.0000 0.31861  0.48135  0.12340  Biso   1.000  C
  C578     1.0000 0.13796  0.28293  0.49723  Biso   1.000  C
  C579     1.0000 0.51401  0.07945  0.29195  Biso   1.000  C
  C580     1.0000 0.82395  0.46164  0.39340  Biso   1.000  C
  C581     1.0000 0.62848  0.28017  0.98834  Biso   1.000  C
  C582     1.0000 0.00624  0.09915  0.20759  Biso   1.000  C
  C583     1.0000 0.22004  0.99659  0.11307  Biso   1.000  C
  C584     1.0000 0.40331  0.78369  0.50863  Biso   1.000  C
  C585     1.0000 0.03914  0.60019  0.30208  Biso   1.000  C
  C586     1.0000 0.72234  0.97863  0.40359  Biso   1.000  C
  C587     1.0000 0.90312  0.78480  0.01028  Biso   1.000  C
  C588     1.0000 0.52801  0.58046  0.22173  Biso   1.000  C
  C589     1.0000 0.71430  0.48500  0.88738  Biso   1.000  C
  C590     1.0000 0.90134  0.68562  0.50689  Biso   1.000  C
  C591     1.0000 0.49763  0.89791  0.71893  Biso   1.000  C
  C592     1.0000 0.21937  0.50055  0.62618  Biso   1.000  C
  C593     1.0000 0.40337  0.69873  0.01432  Biso   1.000  C
  C594     1.0000 0.02640  0.87462  0.80203  Biso   1.000  C
  C595     1.0000 0.81247  0.98619  0.89626  Biso   1.000  C
  C596     1.0000 0.64105  0.19537  0.49784  Biso   1.000  C
  C597     1.0000 0.98017  0.37772  0.70973  Biso   1.000  C
  C598     1.0000 0.30974  0.98989  0.61235  Biso   1.000  C
  C599     1.0000 0.12911  0.19691  0.00503  Biso   1.000  C
  C600     1.0000 0.50935  0.39566  0.79102  Biso   1.000  C
  C601     1.0000 0.22912  0.97794  0.90893  Biso   1.000  C
  C602     1.0000 0.92998  0.19996  0.97564  Biso   1.000  C
  C603     1.0000 0.01799  0.89808  0.21955  Biso   1.000  C
  C604     1.0000 0.72598  0.98111  0.60907  Biso   1.000  C
  C605     1.0000 0.43696  0.20170  0.51484  Biso   1.000  C
  C606     1.0000 0.51889  0.87654  0.30246  Biso   1.000  C
  C607     1.0000 0.30672  0.48576  0.92330  Biso   1.000  C
  C608     1.0000 0.60841  0.69659  0.02708  Biso   1.000  C
  C609     1.0000 0.54145  0.37482  0.21069  Biso   1.000  C
  C610     1.0000 0.80622  0.47301  0.59696  Biso   1.000  C
  C611     1.0000 0.10361  0.70207  0.50894  Biso   1.000  C
  C612     1.0000 0.01198  0.39980  0.29779  Biso   1.000  C
  C613     1.0000 0.80625  0.00998  0.10334  Biso   1.000  C
  C614     1.0000 0.10755  0.77766  0.02001  Biso   1.000  C
  C615     1.0000 0.00915  0.07839  0.79509  Biso   1.000  C
  C616     1.0000 0.31061  0.00527  0.40659  Biso   1.000  C
  C617     1.0000 0.60453  0.77452  0.51990  Biso   1.000  C
  C618     1.0000 0.52810  0.09822  0.71104  Biso   1.000  C
  C619     1.0000 0.73125  0.47903  0.09184  Biso   1.000  C
  C620     1.0000 0.42763  0.28101  0.98213  Biso   1.000  C
  C621     1.0000 0.49580  0.60011  0.80178  Biso   1.000  C
  C622     1.0000 0.23294  0.49027  0.41990  Biso   1.000  C
  C623     1.0000 0.92984  0.27262  0.48487  Biso   1.000  C
  C624     1.0000 0.01471  0.58096  0.71884  Biso   1.000  C
  C625     1.0000 0.04174  0.19265  0.89428  Biso   1.000  C
  C626     1.0000 0.91037  0.98785  0.21078  Biso   1.000  C
  C627     1.0000 0.21283  0.88441  0.00986  Biso   1.000  C
  C628     1.0000 0.55276  0.19484  0.59838  Biso   1.000  C
  C629     1.0000 0.40937  0.98244  0.29418  Biso   1.000  C
  C630     1.0000 0.71885  0.87392  0.51045  Biso   1.000  C
  C631     1.0000 0.50210  0.70090  0.91616  Biso   1.000  C
  C632     1.0000 0.62923  0.47326  0.20558  Biso   1.000  C
  C633     1.0000 0.31996  0.37805  0.02159  Biso   1.000  C
  C634     1.0000 0.00174  0.69052  0.61426  Biso   1.000  C
  C635     1.0000 0.13126  0.47918  0.30811  Biso   1.000  C
  C636     1.0000 0.81976  0.37285  0.50992  Biso   1.000  C
  C637     1.0000 0.00617  0.78738  0.11939  Biso   1.000  C
  C638     1.0000 0.11939  0.98848  0.80318  Biso   1.000  C
  C639     1.0000 0.81940  0.09532  0.97669  Biso   1.000  C
  C640     1.0000 0.51494  0.77198  0.41168  Biso   1.000  C
  C641     1.0000 0.61695  0.96663  0.71486  Biso   1.000  C
  C642     1.0000 0.32082  0.10345  0.51281  Biso   1.000  C
  C643     1.0000 0.51469  0.27663  0.09682  Biso   1.000  C
  C644     1.0000 0.40327  0.48971  0.80252  Biso   1.000  C
  C645     1.0000 0.71588  0.59816  0.98561  Biso   1.000  C
  C646     1.0000 0.04574  0.28656  0.39574  Biso   1.000  C
  C647     1.0000 0.90507  0.49251  0.71242  Biso   1.000  C
  C648     1.0000 0.21452  0.60031  0.49761  Biso   1.000  C
  C649     1.0000 0.00541  0.69957  0.41407  Biso   1.000  C
  C650     1.0000 0.41992  0.00280  0.72053  Biso   1.000  C
  C651     1.0000 0.73186  0.39158  0.98223  Biso   1.000  C
  C652     1.0000 0.50662  0.69062  0.11713  Biso   1.000  C
  C653     1.0000 0.92181  0.96841  0.79192  Biso   1.000  C
  C654     1.0000 0.23708  0.39776  0.52540  Biso   1.000  C
  C655     1.0000 0.51726  0.18947  0.39781  Biso   1.000  C
  C656     1.0000 0.10845  0.46748  0.72191  Biso   1.000  C
  C657     1.0000 0.80160  0.89714  0.01648  Biso   1.000  C
  C658     1.0000 0.00875  0.20732  0.10156  Biso   1.000  C
  C659     1.0000 0.60017  0.50099  0.78437  Biso   1.000  C
  C660     1.0000 0.30453  0.89976  0.50122  Biso   1.000  C
  C661     1.0000 0.01643  0.27262  0.60192  Biso   1.000  C
  C662     1.0000 0.61563  0.97688  0.29673  Biso   1.000  C
  C663     1.0000 0.30344  0.58225  0.01707  Biso   1.000  C
  C664     1.0000 0.55448  0.29031  0.89147  Biso   1.000  C
  C665     1.0000 0.11119  0.00281  0.21564  Biso   1.000  C
  C666     1.0000 0.79961  0.57496  0.49181  Biso   1.000  C
  C667     1.0000 0.50460  0.78546  0.61822  Biso   1.000  C
  C668     1.0000 0.92875  0.49851  0.29169  Biso   1.000  C
  C669     1.0000 0.22828  0.08580  0.01888  Biso   1.000  C
  C670     1.0000 0.00368  0.77408  0.91278  Biso   1.000  C
  C671     1.0000 0.42836  0.47806  0.22688  Biso   1.000  C
  C672     1.0000 0.73441  0.07584  0.49839  Biso   1.000  C
  C673     1.0000 0.21359  0.97968  0.81455  Biso   1.000  C
  C674     1.0000 0.83384  0.18762  0.96684  Biso   1.000  C
  C675     1.0000 0.01450  0.80136  0.21358  Biso   1.000  C
  C676     1.0000 0.71297  0.97182  0.70141  Biso   1.000  C
  C677     1.0000 0.34284  0.19482  0.51819  Biso   1.000  C
  C678     1.0000 0.51682  0.78410  0.31784  Biso   1.000  C
  C679     1.0000 0.31043  0.48930  0.82631  Biso   1.000  C
  C680     1.0000 0.70278  0.69010  0.01226  Biso   1.000  C
  C681     1.0000 0.52677  0.28278  0.19189  Biso   1.000  C
  C682     1.0000 0.81017  0.48824  0.69156  Biso   1.000  C
  C683     1.0000 0.19798  0.69502  0.50038  Biso   1.000  C
  C684     1.0000 0.02053  0.30365  0.30624  Biso   1.000  C
  C685     1.0000 0.81797  0.99969  0.20053  Biso   1.000  C
  C686     1.0000 0.20141  0.79120  0.01609  Biso   1.000  C
  C687     1.0000 0.01652  0.17348  0.80099  Biso   1.000  C
  C688     1.0000 0.31812  0.99541  0.31268  Biso   1.000  C
  C689     1.0000 0.70106  0.78258  0.51717  Biso   1.000  C
  C690     1.0000 0.54811  0.19140  0.69186  Biso   1.000  C
  C691     1.0000 0.72227  0.47540  0.18873  Biso   1.000  C
  C692     1.0000 0.33425  0.28460  0.00087  Biso   1.000  C
  C693     1.0000 0.49561  0.69384  0.82335  Biso   1.000  C
  C694     1.0000 0.22485  0.48099  0.32465  Biso   1.000  C
  C695     1.0000 0.83819  0.28085  0.49332  Biso   1.000  C
  C696     1.0000 0.00503  0.67451  0.70745  Biso   1.000  C
  C697     1.0000 0.70916  0.97925  0.31015  Biso   1.000  C
  C698     1.0000 0.30941  0.67878  0.01128  Biso   1.000  C
  C699     1.0000 0.99862  0.28575  0.69547  Biso   1.000  C
  C700     1.0000 0.20378  0.99498  0.20774  Biso   1.000  C
  C701     1.0000 0.80688  0.67011  0.50368  Biso   1.000  C
  C702     1.0000 0.54229  0.30271  0.79881  Biso   1.000  C
  C703     1.0000 0.83405  0.47921  0.29892  Biso   1.000  C
  C704     1.0000 0.22085  0.17876  0.01026  Biso   1.000  C
  C705     1.0000 0.49870  0.80239  0.71347  Biso   1.000  C
  C706     1.0000 0.33205  0.47936  0.21955  Biso   1.000  C
  C707     1.0000 0.73219  0.17034  0.49551  Biso   1.000  C
  C708     1.0000 0.00628  0.78187  0.81822  Biso   1.000  C
  C709     1.0000 0.32231  0.98779  0.70595  Biso   1.000  C
  C710     1.0000 0.72157  0.29689  0.97728  Biso   1.000  C
  C711     1.0000 0.02409  0.69132  0.31931  Biso   1.000  C
  C712     1.0000 0.82764  0.97476  0.80353  Biso   1.000  C
  C713     1.0000 0.22966  0.30156  0.51256  Biso   1.000  C
  C714     1.0000 0.51451  0.67415  0.21320  Biso   1.000  C
  C715     1.0000 0.20292  0.48088  0.71812  Biso   1.000  C
  C716     1.0000 0.80983  0.80072  0.01619  Biso   1.000  C
  C717     1.0000 0.51232  0.17448  0.30158  Biso   1.000  C
  C718     1.0000 0.69652  0.49577  0.79283  Biso   1.000  C
  C719     1.0000 0.30991  0.80314  0.50357  Biso   1.000  C
  C720     1.0000 0.00951  0.19364  0.19560  Biso   1.000  C
  C721     1.0000 0.50074  0.78805  0.29077  Biso   1.000  C
  C722     1.0000 0.31067  0.51012  0.80207  Biso   1.000  C
  C723     1.0000 0.84522  0.25331  0.50560  Biso   1.000  C
  C724     1.0000 0.03190  0.77521  0.20699  Biso   1.000  C
  C725     1.0000 0.78333  0.50479  0.68484  Biso   1.000  C
  C726     1.0000 0.30345  0.29309  0.99408  Biso   1.000  C
  C727     1.0000 0.01087  0.27524  0.31268  Biso   1.000  C
  C728     1.0000 0.24176  0.99648  0.81742  Biso   1.000  C
  C729     1.0000 0.72910  0.78238  0.53448  Biso   1.000  C
  C730     1.0000 0.51538  0.28885  0.22123  Biso   1.000  C
  C731     1.0000 0.73982  0.95656  0.69402  Biso   1.000  C
  C732     1.0000 0.22732  0.79386  0.99762  Biso   1.000  C
  C733     1.0000 0.52867  0.19164  0.71592  Biso   1.000  C
  C734     1.0000 0.72018  0.45691  0.21379  Biso   1.000  C
  C735     1.0000 0.19502  0.72199  0.48567  Biso   1.000  C
  C736     1.0000 0.03446  0.19926  0.79993  Biso   1.000  C
  C737     1.0000 0.25384  0.46868  0.33259  Biso   1.000  C
  C738     1.0000 0.73231  0.68612  0.02341  Biso   1.000  C
  C739     1.0000 0.02578  0.67485  0.73218  Biso   1.000  C
  C740     1.0000 0.78852  0.98738  0.19393  Biso   1.000  C
  C741     1.0000 0.31698  0.19111  0.49796  Biso   1.000  C
  C742     1.0000 0.47686  0.69502  0.79721  Biso   1.000  C
  C743     1.0000 0.29057  0.97726  0.31605  Biso   1.000  C
  C744     1.0000 0.83880  0.21643  0.97997  Biso   1.000  C
  C745     1.0000 0.03620  0.72008  0.32693  Biso   1.000  C
  C746     1.0000 0.29324  0.99954  0.70109  Biso   1.000  C
  C747     1.0000 0.74797  0.29884  0.99330  Biso   1.000  C
  C748     1.0000 0.52838  0.70168  0.20800  Biso   1.000  C
  C749     1.0000 0.80033  0.95751  0.80717  Biso   1.000  C
  C750     1.0000 0.25307  0.30396  0.53567  Biso   1.000  C
  C751     1.0000 0.52992  0.16975  0.27571  Biso   1.000  C
  C752     1.0000 0.23191  0.46964  0.71418  Biso   1.000  C
  C753     1.0000 0.78385  0.80538  0.99826  Biso   1.000  C
  C754     1.0000 0.02788  0.21834  0.19157  Biso   1.000  C
  C755     1.0000 0.69082  0.48265  0.76459  Biso   1.000  C
  C756     1.0000 0.30945  0.77908  0.52331  Biso   1.000  C
  C757     1.0000 0.98649  0.25681  0.69162  Biso   1.000  C
  C758     1.0000 0.70451  0.99587  0.28341  Biso   1.000  C
  C759     1.0000 0.28237  0.67641  0.02920  Biso   1.000  C
  C760     1.0000 0.55269  0.30933  0.76914  Biso   1.000  C
  C761     1.0000 0.22971  0.97794  0.20534  Biso   1.000  C
  C762     1.0000 0.80922  0.70008  0.49295  Biso   1.000  C
  C763     1.0000 0.48595  0.77313  0.70890  Biso   1.000  C
  C764     1.0000 0.80490  0.48427  0.30440  Biso   1.000  C
  C765     1.0000 0.24423  0.17937  0.03106  Biso   1.000  C
  C766     1.0000 0.99233  0.78599  0.79012  Biso   1.000  C
  C767     1.0000 0.33484  0.49284  0.24816  Biso   1.000  C
  C768     1.0000 0.72868  0.19668  0.47853  Biso   1.000  C
  C769     1.0000 0.51662  0.71622  0.82610  Biso   1.000  C
  C770     1.0000 0.81193  0.47159  0.71689  Biso   1.000  C
  C771     1.0000 0.69504  0.75704  0.50072  Biso   1.000  C
  C772     1.0000 0.98355  0.69795  0.70831  Biso   1.000  C
  C773     1.0000 0.28598  0.46921  0.82814  Biso   1.000  C
  C774     1.0000 0.19956  0.76525  0.03170  Biso   1.000  C
  C775     1.0000 0.98994  0.17276  0.78127  Biso   1.000  C
  C776     1.0000 0.71095  0.98622  0.72862  Biso   1.000  C
  C777     1.0000 0.81013  0.28620  0.47971  Biso   1.000  C
  C778     1.0000 0.56765  0.21584  0.69001  Biso   1.000  C
  C779     1.0000 0.20877  0.96321  0.78715  Biso   1.000  C
  C780     1.0000 0.33915  0.25410  0.00842  Biso   1.000  C
  C781     1.0000 0.53700  0.25290  0.18577  Biso   1.000  C
  C782     1.0000 0.22106  0.48821  0.29438  Biso   1.000  C
  C783     1.0000 0.34544  0.22205  0.53502  Biso   1.000  C
  C784     1.0000 0.02906  0.30819  0.27547  Biso   1.000  C
  C785     1.0000 0.75043  0.49111  0.18273  Biso   1.000  C
  C786     1.0000 0.80541  0.18539  0.95098  Biso   1.000  C
  C787     1.0000 0.00138  0.80331  0.24220  Biso   1.000  C
  C788     1.0000 0.32130  0.01265  0.28607  Biso   1.000  C
  C789     1.0000 0.22586  0.69089  0.51393  Biso   1.000  C
  C790     1.0000 0.53188  0.75811  0.32259  Biso   1.000  C
  C791     1.0000 0.82500  0.00995  0.22918  Biso   1.000  C
  C792     1.0000 0.69644  0.71987  0.00283  Biso   1.000  C
  C793     1.0000 0.49555  0.20103  0.30376  Biso   1.000  C
  C794     1.0000 0.30753  0.46109  0.21297  Biso   1.000  C
  C795     1.0000 0.23201  0.27875  0.49037  Biso   1.000  C
  C796     1.0000 0.99448  0.19206  0.22393  Biso   1.000  C
  C797     1.0000 0.84047  0.47434  0.26756  Biso   1.000  C
  C798     1.0000 0.72056  0.27342  0.95745  Biso   1.000  C
  C799     1.0000 0.01413  0.68677  0.29025  Biso   1.000  C
  C800     1.0000 0.20293  0.01436  0.23423  Biso   1.000  C
  C801     1.0000 0.28434  0.80632  0.48443  Biso   1.000  C
  C802     1.0000 0.50134  0.66923  0.24142  Biso   1.000  C
  C803     1.0000 0.73956  0.96690  0.31396  Biso   1.000  C
  C804     1.0000 0.81220  0.77434  0.03222  Biso   1.000  C
  C805     1.0000 0.51402  0.80672  0.74189  Biso   1.000  C
  C806     1.0000 0.72638  0.50587  0.79753  Biso   1.000  C
  C807     1.0000 0.77985  0.66166  0.52023  Biso   1.000  C
  C808     1.0000 0.01902  0.75335  0.82345  Biso   1.000  C
  C809     1.0000 0.19797  0.49437  0.74581  Biso   1.000  C
  C810     1.0000 0.31366  0.70539  0.99515  Biso   1.000  C
  C811     1.0000 0.01152  0.29190  0.72386  Biso   1.000  C
  C812     1.0000 0.83222  0.98781  0.77456  Biso   1.000  C
  C813     1.0000 0.75723  0.16794  0.51314  Biso   1.000  C
  C814     1.0000 0.53536  0.27347  0.80540  Biso   1.000  C
  C815     1.0000 0.32927  0.97192  0.73392  Biso   1.000  C
  C816     1.0000 0.21997  0.20054  0.98742  Biso   1.000  C
  C817     1.0000 0.02973  0.21918  0.77882  Biso   1.000  C
  C818     1.0000 0.76991  0.98257  0.21763  Biso   1.000  C
  C819     1.0000 0.24864  0.77399  0.99689  Biso   1.000  C
  C820     1.0000 0.52846  0.21301  0.73817  Biso   1.000  C
  C821     1.0000 0.26923  0.98087  0.29457  Biso   1.000  C
  C822     1.0000 0.74748  0.75858  0.53486  Biso   1.000  C
  C823     1.0000 0.47900  0.71661  0.77760  Biso   1.000  C
  C824     1.0000 0.74329  0.45742  0.23314  Biso   1.000  C
  C825     1.0000 0.28066  0.27160  0.99718  Biso   1.000  C
  C826     1.0000 0.02615  0.69579  0.75413  Biso   1.000  C
  C827     1.0000 0.27389  0.46294  0.31077  Biso   1.000  C
  C828     1.0000 0.82536  0.23236  0.50168  Biso   1.000  C
  C829     1.0000 0.03722  0.75473  0.22949  Biso   1.000  C
  C830     1.0000 0.26229  0.99538  0.79689  Biso   1.000  C
  C831     1.0000 0.81681  0.23821  0.98249  Biso   1.000  C
  C832     1.0000 0.50319  0.76470  0.27068  Biso   1.000  C
  C833     1.0000 0.76324  0.95570  0.71363  Biso   1.000  C
  C834     1.0000 0.29620  0.21326  0.49649  Biso   1.000  C
  C835     1.0000 0.51129  0.26638  0.24047  Biso   1.000  C
  C836     1.0000 0.29017  0.50791  0.78024  Biso   1.000  C
  C837     1.0000 0.75092  0.70797  0.02609  Biso   1.000  C
  C838     1.0000 0.00958  0.25276  0.29241  Biso   1.000  C
  C839     1.0000 0.76108  0.50361  0.70448  Biso   1.000  C
  C840     1.0000 0.21728  0.74292  0.48571  Biso   1.000  C
  C841     1.0000 0.22948  0.96554  0.76473  Biso   1.000  C
  C842     1.0000 0.78514  0.20729  0.95370  Biso   1.000  C
  C843     1.0000 0.00611  0.78141  0.26144  Biso   1.000  C
  C844     1.0000 0.73505  0.98689  0.74566  Biso   1.000  C
  C845     1.0000 0.32383  0.24285  0.53208  Biso   1.000  C
  C846     1.0000 0.53177  0.73444  0.30479  Biso   1.000  C
  C847     1.0000 0.26604  0.46907  0.80658  Biso   1.000  C
  C848     1.0000 0.71748  0.74126  0.00224  Biso   1.000  C
  C849     1.0000 0.53030  0.23242  0.20550  Biso   1.000  C
  C850     1.0000 0.78984  0.47219  0.73725  Biso   1.000  C
  C851     1.0000 0.24683  0.71244  0.51524  Biso   1.000  C
  C852     1.0000 0.02662  0.28558  0.25576  Biso   1.000  C
  C853     1.0000 0.80488  0.00388  0.25115  Biso   1.000  C
  C854     1.0000 0.22121  0.74461  0.03209  Biso   1.000  C
  C855     1.0000 0.98614  0.19541  0.76136  Biso   1.000  C
  C856     1.0000 0.29941  0.01456  0.26517  Biso   1.000  C
  C857     1.0000 0.71447  0.73385  0.50022  Biso   1.000  C
  C858     1.0000 0.56863  0.23649  0.71237  Biso   1.000  C
  C859     1.0000 0.77282  0.48952  0.20439  Biso   1.000  C
  C860     1.0000 0.31540  0.23400  0.01033  Biso   1.000  C
  C861     1.0000 0.51963  0.73787  0.80397  Biso   1.000  C
  C862     1.0000 0.24210  0.48298  0.27380  Biso   1.000  C
  C863     1.0000 0.78993  0.26421  0.47849  Biso   1.000  C
  C864     1.0000 0.98257  0.71897  0.72973  Biso   1.000  C
  C865     1.0000 0.71227  0.48167  0.74328  Biso   1.000  C
  C866     1.0000 0.78666  0.71866  0.50038  Biso   1.000  C
  C867     1.0000 0.48863  0.75205  0.72946  Biso   1.000  C
  C868     1.0000 0.25348  0.47331  0.73519  Biso   1.000  C
  C869     1.0000 0.26237  0.69905  0.02960  Biso   1.000  C
  C870     1.0000 0.99153  0.76404  0.76852  Biso   1.000  C
  C871     1.0000 0.77951  0.95589  0.78600  Biso   1.000  C
  C872     1.0000 0.75096  0.21647  0.47614  Biso   1.000  C
  C873     1.0000 0.98994  0.23638  0.71275  Biso   1.000  C
  C874     1.0000 0.27157  0.99444  0.72209  Biso   1.000  C
  C875     1.0000 0.26575  0.20106  0.02862  Biso   1.000  C
  C876     1.0000 0.55516  0.28733  0.74865  Biso   1.000  C
  C877     1.0000 0.31217  0.48618  0.26750  Biso   1.000  C
  C878     1.0000 0.27423  0.28289  0.53465  Biso   1.000  C
  C879     1.0000 0.52983  0.19011  0.25312  Biso   1.000  C
  C880     1.0000 0.78174  0.48100  0.28358  Biso   1.000  C
  C881     1.0000 0.76787  0.27650  0.99294  Biso   1.000  C
  C882     1.0000 0.03108  0.23748  0.21587  Biso   1.000  C
  C883     1.0000 0.25260  0.97837  0.22551  Biso   1.000  C
  C884     1.0000 0.28714  0.75933  0.52067  Biso   1.000  C
  C885     1.0000 0.03743  0.74115  0.30563  Biso   1.000  C
  C886     1.0000 0.72662  0.00017  0.26375  Biso   1.000  C
  C887     1.0000 0.76310  0.78281  0.99804  Biso   1.000  C
  C888     1.0000 0.53180  0.72122  0.23075  Biso   1.000  C
  C889     1.0000 0.76145  0.97346  0.29303  Biso   1.000  C
  C890     1.0000 0.29283  0.72753  0.99642  Biso   1.000  C
  C891     1.0000 0.01376  0.27029  0.74503  Biso   1.000  C
  C892     1.0000 0.22558  0.01436  0.25431  Biso   1.000  C
  C893     1.0000 0.75777  0.68317  0.52433  Biso   1.000  C
  C894     1.0000 0.53964  0.25155  0.78461  Biso   1.000  C
  C895     1.0000 0.81890  0.47380  0.24609  Biso   1.000  C
  C896     1.0000 0.24156  0.22186  0.98661  Biso   1.000  C
  C897     1.0000 0.51255  0.78636  0.76308  Biso   1.000  C
  C898     1.0000 0.28691  0.45622  0.23324  Biso   1.000  C
  C899     1.0000 0.77732  0.19081  0.51124  Biso   1.000  C
  C900     1.0000 0.01655  0.73260  0.80229  Biso   1.000  C
  C901     1.0000 0.30621  0.96916  0.75380  Biso   1.000  C
  C902     1.0000 0.74204  0.25189  0.95558  Biso   1.000  C
  C903     1.0000 0.01574  0.70850  0.26951  Biso   1.000  C
  C904     1.0000 0.80838  0.98679  0.75435  Biso   1.000  C
  C905     1.0000 0.25486  0.26010  0.49059  Biso   1.000  C
  C906     1.0000 0.50257  0.69065  0.26250  Biso   1.000  C
  C907     1.0000 0.21827  0.49213  0.76851  Biso   1.000  C
  C908     1.0000 0.79084  0.75430  0.03286  Biso   1.000  C
  C909     1.0000 0.49685  0.21988  0.28000  Biso   1.000  C
  C910     1.0000 0.74792  0.50303  0.77716  Biso   1.000  C
  C911     1.0000 0.26325  0.78568  0.48277  Biso   1.000  C
  C912     1.0000 0.99626  0.21345  0.24581  Biso   1.000  C
  C913     1.0000 0.76421  0.48676  0.72980  Biso   1.000  C
  C914     1.0000 0.74020  0.73415  0.51768  Biso   1.000  C
  C915     1.0000 0.49987  0.73716  0.78024  Biso   1.000  C
  C916     1.0000 0.26896  0.48740  0.78326  Biso   1.000  C
  C917     1.0000 0.24655  0.74869  0.01444  Biso   1.000  C
  C918     1.0000 0.00411  0.71721  0.75280  Biso   1.000  C
  C919     1.0000 0.76000  0.96984  0.73979  Biso   1.000  C
  C920     1.0000 0.79769  0.23770  0.49082  Biso   1.000  C
  C921     1.0000 0.00613  0.21771  0.76053  Biso   1.000  C
  C922     1.0000 0.25666  0.97797  0.77036  Biso   1.000  C
  C923     1.0000 0.28759  0.24420  0.00715  Biso   1.000  C
  C924     1.0000 0.54920  0.23541  0.73589  Biso   1.000  C
  C925     1.0000 0.26659  0.46712  0.28153  Biso   1.000  C
  C926     1.0000 0.29940  0.23836  0.51416  Biso   1.000  C
  C927     1.0000 0.51819  0.23739  0.23343  Biso   1.000  C
  C928     1.0000 0.76733  0.47456  0.23028  Biso   1.000  C
  C929     1.0000 0.79041  0.23380  0.96900  Biso   1.000  C
  C930     1.0000 0.01704  0.25875  0.26442  Biso   1.000  C
  C931     1.0000 0.27353  0.99975  0.26967  Biso   1.000  C
  C932     1.0000 0.24394  0.73844  0.50067  Biso   1.000  C
  C933     1.0000 0.02553  0.75800  0.25647  Biso   1.000  C
  C934     1.0000 0.77739  0.99151  0.24602  Biso   1.000  C
  C935     1.0000 0.74470  0.73563  0.01427  Biso   1.000  C
  C936     1.0000 0.51833  0.73895  0.27740  Biso   1.000  C
  C937     1.0000 0.76572  0.25341  0.97320  Biso   1.000  C
  C938     1.0000 0.02727  0.73430  0.27853  Biso   1.000  C
  C939     1.0000 0.27801  0.97879  0.74688  Biso   1.000  C
  C940     1.0000 0.27557  0.26097  0.51392  Biso   1.000  C
  C941     1.0000 0.51906  0.71487  0.25725  Biso   1.000  C
  C942     1.0000 0.78419  0.97103  0.76118  Biso   1.000  C
  C943     1.0000 0.76747  0.75762  0.01378  Biso   1.000  C
  C944     1.0000 0.51412  0.21491  0.25510  Biso   1.000  C
  C945     1.0000 0.24486  0.48260  0.76218  Biso   1.000  C
  C946     1.0000 0.26471  0.76228  0.50093  Biso   1.000  C
  C947     1.0000 0.01577  0.23520  0.24165  Biso   1.000  C
  C948     1.0000 0.74089  0.48804  0.75104  Biso   1.000  C
  C949     1.0000 0.26746  0.72366  0.01229  Biso   1.000  C
  C950     1.0000 0.00339  0.24190  0.73880  Biso   1.000  C
  C951     1.0000 0.75423  0.98677  0.26820  Biso   1.000  C
  C952     1.0000 0.76164  0.71171  0.51422  Biso   1.000  C
  C953     1.0000 0.54958  0.25860  0.75645  Biso   1.000  C
  C954     1.0000 0.24977  0.99806  0.24906  Biso   1.000  C
  C955     1.0000 0.26415  0.22194  0.00731  Biso   1.000  C
  C956     1.0000 0.50051  0.75869  0.75721  Biso   1.000  C
  C957     1.0000 0.79020  0.47546  0.25331  Biso   1.000  C
  C958     1.0000 0.77529  0.21482  0.49239  Biso   1.000  C
  C959     1.0000 0.00543  0.73908  0.77503  Biso   1.000  C
  C960     1.0000 0.29039  0.46712  0.26129  Biso   1.000  C
  Cu1      1.0000 0.00744  0.47866  0.66043  Biso   1.000  Cu
  Cu2      1.0000 0.67185  0.98082  0.50525  Biso   1.000  Cu
  Cu3      1.0000 0.50809  0.64149  0.01491  Biso   1.000  Cu
  Cu4      1.0000 0.50815  0.49546  0.84956  Biso   1.000  Cu
  Cu5      1.0000 0.16899  0.98878  0.00877  Biso   1.000  Cu
  Cu6      1.0000 0.00495  0.63884  0.50868  Biso   1.000  Cu
  Cu7      1.0000 0.51713  0.99531  0.66341  Biso   1.000  Cu
  Cu8      1.0000 0.86706  0.47817  0.49791  Biso   1.000  Cu
  Cu9      1.0000 0.02661  0.14579  0.99954  Biso   1.000  Cu
  Cu10     1.0000 0.01903  0.98063  0.85259  Biso   1.000  Cu
  Cu11     1.0000 0.36913  0.48530  0.01901  Biso   1.000  Cu
  Cu12     1.0000 0.53516  0.14168  0.50130  Biso   1.000  Cu
  Cu13     1.0000 0.02775  0.49792  0.35565  Biso   1.000  Cu
  Cu14     1.0000 0.36470  0.99708  0.51122  Biso   1.000  Cu
  Cu15     1.0000 0.52690  0.33933  0.99720  Biso   1.000  Cu
  Cu16     1.0000 0.52273  0.47814  0.16052  Biso   1.000  Cu
  Cu17     1.0000 0.86328  0.99320  0.99998  Biso   1.000  Cu
  Cu18     1.0000 0.03094  0.33109  0.50230  Biso   1.000  Cu
  Cu19     1.0000 0.51488  0.97964  0.35051  Biso   1.000  Cu
  Cu20     1.0000 0.17017  0.49336  0.51788  Biso   1.000  Cu
  Cu21     1.0000 0.00557  0.83278  0.01354  Biso   1.000  Cu
  Cu22     1.0000 0.01241  0.99529  0.15479  Biso   1.000  Cu
  Cu23     1.0000 0.66743  0.49139  0.99383  Biso   1.000  Cu
  Cu24     1.0000 0.50582  0.83445  0.51192  Biso   1.000  Cu
  Cu25     1.0000 0.22366  0.98249  0.01053  Biso   1.000  Cu
  Cu26     1.0000 0.02842  0.20072  0.99652  Biso   1.000  Cu
  Cu27     1.0000 0.00891  0.00028  0.21232  Biso   1.000  Cu
  Cu28     1.0000 0.72523  0.97657  0.50830  Biso   1.000  Cu
  Cu29     1.0000 0.53624  0.19567  0.49757  Biso   1.000  Cu
  Cu30     1.0000 0.51090  0.97595  0.29686  Biso   1.000  Cu
  Cu31     1.0000 0.31589  0.47981  0.02236  Biso   1.000  Cu
  Cu32     1.0000 0.50783  0.69642  0.01785  Biso   1.000  Cu
  Cu33     1.0000 0.52910  0.47818  0.21536  Biso   1.000  Cu
  Cu34     1.0000 0.81311  0.47229  0.49395  Biso   1.000  Cu
  Cu35     1.0000 0.00030  0.69244  0.51370  Biso   1.000  Cu
  Cu36     1.0000 0.02983  0.49993  0.30165  Biso   1.000  Cu
  Cu37     1.0000 0.81093  0.00230  0.99964  Biso   1.000  Cu
  Cu38     1.0000 0.00246  0.77904  0.01638  Biso   1.000  Cu
  Cu39     1.0000 0.02310  0.97766  0.79838  Biso   1.000  Cu
  Cu40     1.0000 0.31118  0.00039  0.50709  Biso   1.000  Cu
  Cu41     1.0000 0.50456  0.77808  0.51639  Biso   1.000  Cu
  Cu42     1.0000 0.51906  0.99600  0.71723  Biso   1.000  Cu
  Cu43     1.0000 0.72181  0.49595  0.99002  Biso   1.000  Cu
  Cu44     1.0000 0.52887  0.28434  0.99484  Biso   1.000  Cu
  Cu45     1.0000 0.50055  0.49811  0.79528  Biso   1.000  Cu
  Cu46     1.0000 0.22328  0.49978  0.52104  Biso   1.000  Cu
  Cu47     1.0000 0.03399  0.27692  0.49743  Biso   1.000  Cu
  Cu48     1.0000 0.00750  0.47954  0.71541  Biso   1.000  Cu
  H1       1.0000 0.29194  0.74060  0.53414  Biso   1.000  H
  H2       1.0000 0.56166  0.29361  0.72624  Biso   1.000  H
  H3       1.0000 0.75882  0.48235  0.28889  Biso   1.000  H
  H4       1.0000 0.74490  0.78496  0.98340  Biso   1.000  H
  H5       1.0000 0.98084  0.21543  0.70846  Biso   1.000  H
  H6       1.0000 0.31434  0.49321  0.28994  Biso   1.000  H
  H7       1.0000 0.28999  0.28348  0.55206  Biso   1.000  H
  H8       1.0000 0.98392  0.77083  0.74831  Biso   1.000  H
  H9       1.0000 0.72142  0.01322  0.24474  Biso   1.000  H
  H10      1.0000 0.78687  0.27900  0.00734  Biso   1.000  H
  H11      1.0000 0.47946  0.73058  0.72557  Biso   1.000  H
  H12      1.0000 0.27194  0.96516  0.22237  Biso   1.000  H
  H13      1.0000 0.74902  0.23445  0.46008  Biso   1.000  H
  H14      1.0000 0.54426  0.74233  0.22578  Biso   1.000  H
  H15      1.0000 0.27631  0.46861  0.73159  Biso   1.000  H
  H16      1.0000 0.28622  0.19925  0.04157  Biso   1.000  H
  H17      1.0000 0.04844  0.76240  0.30886  Biso   1.000  H
  H18      1.0000 0.70752  0.47330  0.72136  Biso   1.000  H
  H19      1.0000 0.78943  0.74242  0.49362  Biso   1.000  H
  H20      1.0000 0.05052  0.25254  0.21502  Biso   1.000  H
  H21      1.0000 0.24915  0.00162  0.71968  Biso   1.000  H
  H22      1.0000 0.24204  0.69625  0.04275  Biso   1.000  H
  H23      1.0000 0.54322  0.18502  0.23453  Biso   1.000  H
  H24      1.0000 0.75800  0.94586  0.78903  Biso   1.000  H
  H25      1.0000 0.28334  0.00561  0.80038  Biso   1.000  H
  H26      1.0000 0.82235  0.25686  0.99569  Biso   1.000  H
  H27      1.0000 0.05244  0.73603  0.22677  Biso   1.000  H
  H28      1.0000 0.78179  0.94163  0.71096  Biso   1.000  H
  H29      1.0000 0.27948  0.20884  0.48192  Biso   1.000  H
  H30      1.0000 0.48992  0.76642  0.25073  Biso   1.000  H
  H31      1.0000 0.28904  0.52098  0.76056  Biso   1.000  H
  H32      1.0000 0.77229  0.70533  0.03627  Biso   1.000  H
  H33      1.0000 0.50172  0.26990  0.26116  Biso   1.000  H
  H34      1.0000 0.74259  0.51702  0.69757  Biso   1.000  H
  H35      1.0000 0.21377  0.76282  0.47273  Biso   1.000  H
  H36      1.0000 0.00125  0.23233  0.29920  Biso   1.000  H
  H37      1.0000 0.74833  0.97583  0.21261  Biso   1.000  H
  H38      1.0000 0.26608  0.77741  0.98353  Biso   1.000  H
  H39      1.0000 0.04258  0.23958  0.77635  Biso   1.000  H
  H40      1.0000 0.24895  0.97081  0.29666  Biso   1.000  H
  H41      1.0000 0.76646  0.75671  0.54871  Biso   1.000  H
  H42      1.0000 0.51378  0.21330  0.75597  Biso   1.000  H
  H43      1.0000 0.74106  0.44542  0.25305  Biso   1.000  H
  H44      1.0000 0.25730  0.27785  0.99296  Biso   1.000  H
  H45      1.0000 0.46252  0.71777  0.75867  Biso   1.000  H
  H46      1.0000 0.29607  0.45480  0.31668  Biso   1.000  H
  H47      1.0000 0.83384  0.20920  0.50454  Biso   1.000  H
  H48      1.0000 0.04526  0.69931  0.76835  Biso   1.000  H
  H49      1.0000 0.23965  0.48903  0.25207  Biso   1.000  H
  H50      1.0000 0.32667  0.26245  0.54408  Biso   1.000  H
  H51      1.0000 0.53314  0.21019  0.19839  Biso   1.000  H
  H52      1.0000 0.79278  0.50173  0.19996  Biso   1.000  H
  H53      1.0000 0.76282  0.20430  0.94537  Biso   1.000  H
  H54      1.0000 0.03498  0.28936  0.23547  Biso   1.000  H
  H55      1.0000 0.30215  0.03059  0.24713  Biso   1.000  H
  H56      1.0000 0.26358  0.70973  0.53139  Biso   1.000  H
  H57      1.0000 0.99488  0.77939  0.28252  Biso   1.000  H
  H58      1.0000 0.80848  0.01204  0.27396  Biso   1.000  H
  H59      1.0000 0.71129  0.76216  0.99243  Biso   1.000  H
  H60      1.0000 0.53875  0.71254  0.31130  Biso   1.000  H
  H61      1.0000 0.79300  0.46277  0.75927  Biso   1.000  H
  H62      1.0000 0.70889  0.71362  0.48806  Biso   1.000  H
  H63      1.0000 0.53635  0.75440  0.80747  Biso   1.000  H
  H64      1.0000 0.24893  0.45202  0.81033  Biso   1.000  H
  H65      1.0000 0.21607  0.72467  0.04373  Biso   1.000  H
  H66      1.0000 0.96527  0.73683  0.72966  Biso   1.000  H
  H67      1.0000 0.73476  0.00121  0.76546  Biso   1.000  H
  H68      1.0000 0.76960  0.26856  0.46883  Biso   1.000  H
  H69      1.0000 0.96881  0.19485  0.74554  Biso   1.000  H
  H70      1.0000 0.22601  0.95354  0.74485  Biso   1.000  H
  H71      1.0000 0.32046  0.21186  0.01477  Biso   1.000  H
  H72      1.0000 0.58335  0.25524  0.70866  Biso   1.000  H
  H73      1.0000 0.77004  0.51195  0.78252  Biso   1.000  H
  H74      1.0000 0.73984  0.67613  0.53677  Biso   1.000  H
  H75      1.0000 0.52060  0.79221  0.78445  Biso   1.000  H
  H76      1.0000 0.21247  0.49736  0.79114  Biso   1.000  H
  H77      1.0000 0.29404  0.74717  0.98407  Biso   1.000  H
  H78      1.0000 0.02278  0.70935  0.80558  Biso   1.000  H
  H79      1.0000 0.80880  0.99808  0.73294  Biso   1.000  H
  H80      1.0000 0.79610  0.19075  0.52443  Biso   1.000  H
  H81      1.0000 0.02443  0.27953  0.76548  Biso   1.000  H
  H82      1.0000 0.30949  0.95741  0.77405  Biso   1.000  H
  H83      1.0000 0.23838  0.23800  0.96920  Biso   1.000  H
  H84      1.0000 0.53229  0.23053  0.79312  Biso   1.000  H
  H85      1.0000 0.27022  0.43897  0.22889  Biso   1.000  H
  H86      1.0000 0.25605  0.24254  0.47518  Biso   1.000  H
  H87      1.0000 0.48089  0.23715  0.28141  Biso   1.000  H
  H88      1.0000 0.82414  0.47190  0.22301  Biso   1.000  H
  H89      1.0000 0.73806  0.23577  0.93977  Biso   1.000  H
  H90      1.0000 0.98194  0.20918  0.26412  Biso   1.000  H
  H91      1.0000 0.22197  0.02723  0.27494  Biso   1.000  H
  H92      1.0000 0.24656  0.78965  0.46614  Biso   1.000  H
  H93      1.0000 0.00779  0.70208  0.24761  Biso   1.000  H
  H94      1.0000 0.78415  0.96702  0.29588  Biso   1.000  H
  H95      1.0000 0.79199  0.73701  0.04983  Biso   1.000  H
  H96      1.0000 0.48901  0.68913  0.28237  Biso   1.000  H
  H97      1.0000 0.88649  0.98494  0.91007  Biso   1.000  H
  H98      1.0000 0.91899  0.86033  0.00811  Biso   1.000  H
  H99      1.0000 0.02645  0.88585  0.87874  Biso   1.000  H
  H100     1.0000 0.38340  0.00554  0.60835  Biso   1.000  H
  H101     1.0000 0.41825  0.85553  0.52736  Biso   1.000  H
  H102     1.0000 0.50593  0.90403  0.64308  Biso   1.000  H
  H103     1.0000 0.64083  0.49366  0.90321  Biso   1.000  H
  H104     1.0000 0.61609  0.35711  0.99045  Biso   1.000  H
  H105     1.0000 0.52258  0.40465  0.86521  Biso   1.000  H
  H106     1.0000 0.14877  0.48727  0.60955  Biso   1.000  H
  H107     1.0000 0.12039  0.35457  0.51351  Biso   1.000  H
  H108     1.0000 0.00728  0.39057  0.63850  Biso   1.000  H
  H109     1.0000 0.14444  0.99105  0.09949  Biso   1.000  H
  H110     1.0000 0.11292  0.12240  0.01810  Biso   1.000  H
  H111     1.0000 0.99662  0.08976  0.13282  Biso   1.000  H
  H112     1.0000 0.64995  0.97513  0.41602  Biso   1.000  H
  H113     1.0000 0.62189  0.11934  0.49071  Biso   1.000  H
  H114     1.0000 0.52621  0.07008  0.36714  Biso   1.000  H
  H115     1.0000 0.39357  0.47896  0.11138  Biso   1.000  H
  H116     1.0000 0.41790  0.62445  0.01302  Biso   1.000  H
  H117     1.0000 0.51393  0.57105  0.14741  Biso   1.000  H
  H118     1.0000 0.89467  0.48754  0.40501  Biso   1.000  H
  H119     1.0000 0.91550  0.61128  0.50510  Biso   1.000  H
  H120     1.0000 0.03590  0.58579  0.37647  Biso   1.000  H
  H121     1.0000 0.11153  0.98537  0.88054  Biso   1.000  H
  H122     1.0000 0.89337  0.08342  0.98337  Biso   1.000  H
  H123     1.0000 0.01724  0.86022  0.10440  Biso   1.000  H
  H124     1.0000 0.60688  0.97120  0.63654  Biso   1.000  H
  H125     1.0000 0.39580  0.08570  0.51050  Biso   1.000  H
  H126     1.0000 0.51267  0.84476  0.42249  Biso   1.000  H
  H127     1.0000 0.42122  0.47808  0.87493  Biso   1.000  H
  H128     1.0000 0.64364  0.58388  0.00218  Biso   1.000  H
  H129     1.0000 0.53223  0.35170  0.09006  Biso   1.000  H
  H130     1.0000 0.92159  0.48658  0.63799  Biso   1.000  H
  H131     1.0000 0.14186  0.58379  0.50517  Biso   1.000  H
  H132     1.0000 0.03826  0.36088  0.41030  Biso   1.000  H
  H133     1.0000 0.92391  0.00230  0.14041  Biso   1.000  H
  H134     1.0000 0.13751  0.89747  0.00426  Biso   1.000  H
  H135     1.0000 0.02839  0.11819  0.91011  Biso   1.000  H
  H136     1.0000 0.42553  0.98735  0.37067  Biso   1.000  H
  H137     1.0000 0.64233  0.88883  0.51615  Biso   1.000  H
  H138     1.0000 0.53849  0.12080  0.59259  Biso   1.000  H
  H139     1.0000 0.61408  0.48131  0.13166  Biso   1.000  H
  H140     1.0000 0.39495  0.39192  0.01223  Biso   1.000  H
  H141     1.0000 0.49754  0.62412  0.92278  Biso   1.000  H
  H142     1.0000 0.11396  0.49045  0.37940  Biso   1.000  H
  H143     1.0000 0.89326  0.38913  0.51298  Biso   1.000  H
  H144     1.0000 0.01135  0.61620  0.59994  Biso   1.000  H
  H145     1.0000 0.59557  0.49567  0.86031  Biso   1.000  H
  H146     1.0000 0.87579  0.56810  0.49771  Biso   1.000  H
  H147     1.0000 0.50658  0.85909  0.60350  Biso   1.000  H
  H148     1.0000 0.10517  0.48298  0.64655  Biso   1.000  H
  H149     1.0000 0.37998  0.57803  0.01795  Biso   1.000  H
  H150     1.0000 0.01906  0.84854  0.92374  Biso   1.000  H
  H151     1.0000 0.93146  0.97105  0.86886  Biso   1.000  H
  H152     1.0000 0.65766  0.07285  0.49424  Biso   1.000  H
  H153     1.0000 0.01470  0.34838  0.59332  Biso   1.000  H
  H154     1.0000 0.42676  0.99930  0.64424  Biso   1.000  H
  H155     1.0000 0.15420  0.07501  0.02196  Biso   1.000  H
  H156     1.0000 0.53247  0.36296  0.90467  Biso   1.000  H
  H157     1.0000 0.43544  0.47736  0.15021  Biso   1.000  H
  H158     1.0000 0.16069  0.40283  0.52493  Biso   1.000  H
  H159     1.0000 0.52770  0.11623  0.41025  Biso   1.000  H
  H160     1.0000 0.93756  0.49628  0.36975  Biso   1.000  H
  H161     1.0000 0.65634  0.39884  0.99195  Biso   1.000  H
  H162     1.0000 0.01109  0.13243  0.09138  Biso   1.000  H
  H163     1.0000 0.09954  0.99339  0.13979  Biso   1.000  H
  H164     1.0000 0.37976  0.90285  0.52099  Biso   1.000  H
  H165     1.0000 0.01624  0.62457  0.42102  Biso   1.000  H
  H166     1.0000 0.60498  0.97094  0.37130  Biso   1.000  H
  H167     1.0000 0.87636  0.90524  0.01287  Biso   1.000  H
  H168     1.0000 0.51163  0.61374  0.10906  Biso   1.000  H
  H169     1.0000 0.02381  0.07043  0.87017  Biso   1.000  H
  H170     1.0000 0.88251  0.00339  0.09591  Biso   1.000  H
  H171     1.0000 0.09578  0.85355  0.00512  Biso   1.000  H
  H172     1.0000 0.53660  0.08210  0.63773  Biso   1.000  H
  H173     1.0000 0.38522  0.99963  0.41602  Biso   1.000  H
  H174     1.0000 0.59998  0.85058  0.51822  Biso   1.000  H
  H175     1.0000 0.49343  0.58204  0.87746  Biso   1.000  H
  H176     1.0000 0.65750  0.48796  0.08218  Biso   1.000  H
  H177     1.0000 0.43588  0.35524  0.99768  Biso   1.000  H
  H178     1.0000 0.02135  0.57151  0.64322  Biso   1.000  H
  H179     1.0000 0.15591  0.49503  0.42538  Biso   1.000  H
  H180     1.0000 0.94015  0.34464  0.50055  Biso   1.000  H
  H181     1.0000 0.02048  0.90355  0.14374  Biso   1.000  H
  H182     1.0000 0.15199  0.98130  0.91977  Biso   1.000  H
  H183     1.0000 0.93931  0.12472  0.98334  Biso   1.000  H
  H184     1.0000 0.51452  0.89276  0.37824  Biso   1.000  H
  H185     1.0000 0.64949  0.97325  0.59631  Biso   1.000  H
  H186     1.0000 0.44305  0.12549  0.51330  Biso   1.000  H
  H187     1.0000 0.53419  0.39035  0.13679  Biso   1.000  H
  H188     1.0000 0.38430  0.49306  0.92232  Biso   1.000  H
  H189     1.0000 0.59892  0.62331  0.01083  Biso   1.000  H
  H190     1.0000 0.03599  0.40156  0.37235  Biso   1.000  H
  H191     1.0000 0.88270  0.47495  0.59168  Biso   1.000  H
  H192     1.0000 0.09817  0.62468  0.50074  Biso   1.000  H
  H193     1.0000 0.27759  0.86244  0.49600  Biso   1.000  H
  H194     1.0000 0.56437  0.27259  0.84790  Biso   1.000  H
  H195     1.0000 0.88793  0.49272  0.26504  Biso   1.000  H
  H196     1.0000 0.77982  0.85535  0.02373  Biso   1.000  H
  H197     1.0000 0.00805  0.25058  0.64300  Biso   1.000  H
  H198     1.0000 0.38679  0.47670  0.25019  Biso   1.000  H
  H199     1.0000 0.25907  0.35299  0.52794  Biso   1.000  H
  H200     1.0000 0.00361  0.75191  0.87185  Biso   1.000  H
  H201     1.0000 0.65665  0.96825  0.27488  Biso   1.000  H
  H202     1.0000 0.75668  0.34838  0.97432  Biso   1.000  H
  H203     1.0000 0.50810  0.76648  0.66046  Biso   1.000  H
  H204     1.0000 0.14980  0.00751  0.23866  Biso   1.000  H
  H205     1.0000 0.76164  0.11584  0.50041  Biso   1.000  H
  H206     1.0000 0.50246  0.70939  0.16331  Biso   1.000  H
  H207     1.0000 0.15096  0.46420  0.74664  Biso   1.000  H
  H208     1.0000 0.24979  0.12723  0.02285  Biso   1.000  H
  H209     1.0000 0.00778  0.72354  0.37328  Biso   1.000  H
  H210     1.0000 0.64207  0.50693  0.76187  Biso   1.000  H
  H211     1.0000 0.77392  0.61578  0.49128  Biso   1.000  H
  H212     1.0000 0.00698  0.22628  0.14592  Biso   1.000  H
  H213     1.0000 0.37779  0.99720  0.74211  Biso   1.000  H
  H214     1.0000 0.27897  0.62580  0.00976  Biso   1.000  H
  H215     1.0000 0.51159  0.21023  0.35520  Biso   1.000  H
  H216     1.0000 0.87922  0.96503  0.76932  Biso   1.000  H
  H217     1.0000 0.25579  0.49479  0.37983  Biso   1.000  H
  H218     1.0000 0.39673  0.22677  0.51969  Biso   1.000  H
  H219     1.0000 0.54547  0.32961  0.22627  Biso   1.000  H
  H220     1.0000 0.75207  0.47409  0.13456  Biso   1.000  H
  H221     1.0000 0.89049  0.22144  0.96632  Biso   1.000  H
  H222     1.0000 0.00657  0.35898  0.27426  Biso   1.000  H
  H223     1.0000 0.29011  0.00443  0.36061  Biso   1.000  H
  H224     1.0000 0.14182  0.72775  0.50568  Biso   1.000  H
  H225     1.0000 0.01567  0.85645  0.24490  Biso   1.000  H
  H226     1.0000 0.78388  0.01299  0.14739  Biso   1.000  H
  H227     1.0000 0.64848  0.72124  0.03097  Biso   1.000  H
  H228     1.0000 0.52044  0.83284  0.28250  Biso   1.000  H
  H229     1.0000 0.78195  0.46980  0.63564  Biso   1.000  H
  H230     1.0000 0.64516  0.75270  0.52572  Biso   1.000  H
  H231     1.0000 0.49435  0.64342  0.78398  Biso   1.000  H
  H232     1.0000 0.27953  0.48539  0.88471  Biso   1.000  H
  H233     1.0000 0.14909  0.75650  0.02111  Biso   1.000  H
  H234     1.0000 0.00772  0.62256  0.74046  Biso   1.000  H
  H235     1.0000 0.74555  0.98609  0.65230  Biso   1.000  H
  H236     1.0000 0.88864  0.25010  0.47810  Biso   1.000  H
  H237     1.0000 0.00508  0.12016  0.77253  Biso   1.000  H
  H238     1.0000 0.24958  0.97726  0.86525  Biso   1.000  H
  H239     1.0000 0.38617  0.25566  0.98316  Biso   1.000  H
  H240     1.0000 0.53657  0.13952  0.73317  Biso   1.000  H
  H241     1.0000 0.73364  0.48578  0.84341  Biso   1.000  H
  H242     1.0000 0.85939  0.70561  0.50432  Biso   1.000  H
  H243     1.0000 0.49493  0.85886  0.74394  Biso   1.000  H
  H244     1.0000 0.23667  0.49696  0.67191  Biso   1.000  H
  H245     1.0000 0.35831  0.71609  0.01564  Biso   1.000  H
  H246     1.0000 0.02409  0.83315  0.78097  Biso   1.000  H
  H247     1.0000 0.79333  0.98279  0.85252  Biso   1.000  H
  H248     1.0000 0.68500  0.21070  0.50402  Biso   1.000  H
  H249     1.0000 0.97706  0.33367  0.72922  Biso   1.000  H
  H250     1.0000 0.29008  0.97915  0.65447  Biso   1.000  H
  H251     1.0000 0.17431  0.21405  0.00735  Biso   1.000  H
  H252     1.0000 0.51586  0.35380  0.76717  Biso   1.000  H
  H253     1.0000 0.29745  0.48312  0.16690  Biso   1.000  H
  H254     1.0000 0.18232  0.26336  0.50375  Biso   1.000  H
  H255     1.0000 0.50156  0.12205  0.27068  Biso   1.000  H
  H256     1.0000 0.80484  0.45651  0.34855  Biso   1.000  H
  H257     1.0000 0.67370  0.26124  0.98198  Biso   1.000  H
  H258     1.0000 0.00755  0.14283  0.22776  Biso   1.000  H
  H259     1.0000 0.23950  0.00061  0.15750  Biso   1.000  H
  H260     1.0000 0.36066  0.76676  0.50127  Biso   1.000  H
  H261     1.0000 0.03631  0.64555  0.28434  Biso   1.000  H
  H262     1.0000 0.74303  0.98409  0.35940  Biso   1.000  H
  H263     1.0000 0.85716  0.76734  0.01509  Biso   1.000  H
  H264     1.0000 0.52443  0.62002  0.24588  Biso   1.000  H
  H265     1.0000 0.03257  0.21195  0.85263  Biso   1.000  H
  H266     1.0000 0.86651  0.98185  0.22924  Biso   1.000  H
  H267     1.0000 0.23541  0.84108  0.01823  Biso   1.000  H
  H268     1.0000 0.54805  0.21726  0.63824  Biso   1.000  H
  H269     1.0000 0.36632  0.98309  0.27853  Biso   1.000  H
  H270     1.0000 0.73639  0.82837  0.51272  Biso   1.000  H
  H271     1.0000 0.49665  0.72573  0.87783  Biso   1.000  H
  H272     1.0000 0.67225  0.47482  0.22558  Biso   1.000  H
  H273     1.0000 0.30002  0.33440  0.01977  Biso   1.000  H
  H274     1.0000 0.00077  0.71136  0.65664  Biso   1.000  H
  H275     1.0000 0.17460  0.46871  0.29060  Biso   1.000  H
  H276     1.0000 0.80161  0.33010  0.50556  Biso   1.000  H
  H277     1.0000 0.01014  0.76672  0.16128  Biso   1.000  H
  H278     1.0000 0.16287  0.99319  0.78240  Biso   1.000  H
  H279     1.0000 0.79941  0.13819  0.96580  Biso   1.000  H
  H280     1.0000 0.51029  0.74939  0.37027  Biso   1.000  H
  H281     1.0000 0.65814  0.96119  0.73851  Biso   1.000  H
  H282     1.0000 0.30279  0.14891  0.51750  Biso   1.000  H
  H283     1.0000 0.51388  0.25269  0.13672  Biso   1.000  H
  H284     1.0000 0.35895  0.49011  0.78477  Biso   1.000  H
  H285     1.0000 0.73621  0.64069  0.98998  Biso   1.000  H
  H286     1.0000 0.04400  0.26751  0.35160  Biso   1.000  H
  H287     1.0000 0.86099  0.49455  0.73074  Biso   1.000  H
  H288     1.0000 0.23546  0.64183  0.49241  Biso   1.000  H
  H289     1.0000 0.11823  0.21756  0.99981  Biso   1.000  H
  H290     1.0000 0.00750  0.08444  0.22597  Biso   1.000  H
  H291     1.0000 0.23983  0.99874  0.10116  Biso   1.000  H
  H292     1.0000 0.63086  0.21777  0.49892  Biso   1.000  H
  H293     1.0000 0.50986  0.06870  0.27040  Biso   1.000  H
  H294     1.0000 0.74090  0.98264  0.41600  Biso   1.000  H
  H295     1.0000 0.41652  0.71939  0.01553  Biso   1.000  H
  H296     1.0000 0.53375  0.56525  0.24037  Biso   1.000  H
  H297     1.0000 0.29677  0.48281  0.11482  Biso   1.000  H
  H298     1.0000 0.91094  0.70651  0.50938  Biso   1.000  H
  H299     1.0000 0.04364  0.59147  0.28168  Biso   1.000  H
  H300     1.0000 0.80483  0.45222  0.40395  Biso   1.000  H
  H301     1.0000 0.91361  0.76292  0.00852  Biso   1.000  H
  H302     1.0000 0.03009  0.88530  0.78102  Biso   1.000  H
  H303     1.0000 0.79223  0.98903  0.90761  Biso   1.000  H
  H304     1.0000 0.41631  0.76453  0.50805  Biso   1.000  H
  H305     1.0000 0.49367  0.90802  0.74058  Biso   1.000  H
  H306     1.0000 0.28813  0.98840  0.60312  Biso   1.000  H
  H307     1.0000 0.61885  0.25851  0.99104  Biso   1.000  H
  H308     1.0000 0.49911  0.40667  0.77267  Biso   1.000  H
  H309     1.0000 0.73380  0.47821  0.89662  Biso   1.000  H
  H310     1.0000 0.12547  0.26357  0.48902  Biso   1.000  H
  H311     1.0000 0.96917  0.38972  0.72619  Biso   1.000  H
  H312     1.0000 0.24124  0.50770  0.61764  Biso   1.000  H
  H313     1.0000 0.24975  0.97293  0.91968  Biso   1.000  H
  H314     1.0000 0.94238  0.22018  0.97772  Biso   1.000  H
  H315     1.0000 0.02112  0.91147  0.23763  Biso   1.000  H
  H316     1.0000 0.74616  0.98379  0.59857  Biso   1.000  H
  H317     1.0000 0.45019  0.22154  0.51687  Biso   1.000  H
  H318     1.0000 0.51960  0.88747  0.28140  Biso   1.000  H
  H319     1.0000 0.28659  0.48511  0.93645  Biso   1.000  H
  H320     1.0000 0.59572  0.71707  0.03131  Biso   1.000  H
  H321     1.0000 0.54352  0.38379  0.23355  Biso   1.000  H
  H322     1.0000 0.78721  0.47101  0.58349  Biso   1.000  H
  H323     1.0000 0.09219  0.72090  0.51547  Biso   1.000  H
  H324     1.0000 0.00471  0.41317  0.27925  Biso   1.000  H
  H325     1.0000 0.78731  0.01273  0.09102  Biso   1.000  H
  H326     1.0000 0.09805  0.75633  0.02376  Biso   1.000  H
  H327     1.0000 0.00603  0.06657  0.77376  Biso   1.000  H
  H328     1.0000 0.29206  0.00870  0.41964  Biso   1.000  H
  H329     1.0000 0.59288  0.75457  0.51992  Biso   1.000  H
  H330     1.0000 0.51888  0.08953  0.73123  Biso   1.000  H
  H331     1.0000 0.75098  0.47599  0.07987  Biso   1.000  H
  H332     1.0000 0.44037  0.26187  0.97747  Biso   1.000  H
  H333     1.0000 0.49741  0.59311  0.77940  Biso   1.000  H
  H334     1.0000 0.25376  0.49236  0.43231  Biso   1.000  H
  H335     1.0000 0.93909  0.25062  0.48296  Biso   1.000  H
  H336     1.0000 0.01250  0.56865  0.73869  Biso   1.000  H
  H337     1.0000 0.05026  0.21241  0.90550  Biso   1.000  H
  H338     1.0000 0.92210  0.98144  0.23112  Biso   1.000  H
  H339     1.0000 0.23336  0.89531  0.00877  Biso   1.000  H
  H340     1.0000 0.55631  0.21376  0.58496  Biso   1.000  H
  H341     1.0000 0.41884  0.97717  0.27389  Biso   1.000  H
  H342     1.0000 0.73941  0.88286  0.50418  Biso   1.000  H
  H343     1.0000 0.50608  0.71917  0.92873  Biso   1.000  H
  H344     1.0000 0.61721  0.47238  0.22669  Biso   1.000  H
  H345     1.0000 0.30030  0.38863  0.02724  Biso   1.000  H
  H346     1.0000 0.00085  0.70981  0.60209  Biso   1.000  H
  H347     1.0000 0.12315  0.47569  0.28674  Biso   1.000  H
  H348     1.0000 0.79881  0.38314  0.51417  Biso   1.000  H
  H349     1.0000 0.99831  0.76897  0.10895  Biso   1.000  H
  H350     1.0000 0.10880  0.99300  0.78306  Biso   1.000  H
  H351     1.0000 0.79954  0.08292  0.97714  Biso   1.000  H
  H352     1.0000 0.51261  0.75044  0.42210  Biso   1.000  H
  H353     1.0000 0.60317  0.96490  0.73370  Biso   1.000  H
  H354     1.0000 0.29998  0.09283  0.51296  Biso   1.000  H
  H355     1.0000 0.51025  0.25676  0.08459  Biso   1.000  H
  H356     1.0000 0.41287  0.49584  0.78041  Biso   1.000  H
  H357     1.0000 0.73467  0.59057  0.97471  Biso   1.000  H
  H358     1.0000 0.05400  0.26567  0.40319  Biso   1.000  H
  H359     1.0000 0.91233  0.49593  0.73521  Biso   1.000  H
  H360     1.0000 0.23422  0.58691  0.49191  Biso   1.000  H
  H361     1.0000 0.99800  0.71783  0.42661  Biso   1.000  H
  H362     1.0000 0.43433  0.00110  0.73933  Biso   1.000  H
  H363     1.0000 0.75046  0.40484  0.98093  Biso   1.000  H
  H364     1.0000 0.50675  0.71069  0.10511  Biso   1.000  H
  H365     1.0000 0.93432  0.96309  0.77363  Biso   1.000  H
  H366     1.0000 0.25516  0.41214  0.52934  Biso   1.000  H
  H367     1.0000 0.51218  0.20978  0.40748  Biso   1.000  H
  H368     1.0000 0.09628  0.46495  0.74204  Biso   1.000  H
  H369     1.0000 0.78151  0.90986  0.01589  Biso   1.000  H
  H370     1.0000 0.01214  0.22817  0.09156  Biso   1.000  H
  H371     1.0000 0.58782  0.50237  0.76193  Biso   1.000  H
  H372     1.0000 0.28465  0.91347  0.49830  Biso   1.000  H
  H373     1.0000 0.01960  0.25286  0.59066  Biso   1.000  H
  H374     1.0000 0.60511  0.97968  0.27641  Biso   1.000  H
  H375     1.0000 0.28490  0.56867  0.01473  Biso   1.000  H
  H376     1.0000 0.56054  0.26894  0.90078  Biso   1.000  H
  H377     1.0000 0.09839  0.00572  0.23438  Biso   1.000  H
  H378     1.0000 0.77940  0.56111  0.48983  Biso   1.000  H
  H379     1.0000 0.50271  0.76437  0.60820  Biso   1.000  H
  H380     1.0000 0.94168  0.50092  0.27306  Biso   1.000  H
  H381     1.0000 0.24744  0.07205  0.02378  Biso   1.000  H
  H382     1.0000 0.99887  0.75535  0.92603  Biso   1.000  H
  H383     1.0000 0.44096  0.47841  0.24656  Biso   1.000  H
  H384     1.0000 0.75371  0.06407  0.49883  Biso   1.000  H
  H385     1.0000 0.26118  0.46269  0.35489  Biso   1.000  H
  H386     1.0000 0.31590  0.17220  0.48395  Biso   1.000  H
  H387     1.0000 0.50638  0.30874  0.22929  Biso   1.000  H
  H388     1.0000 0.70160  0.44241  0.21943  Biso   1.000  H
  H389     1.0000 0.85863  0.22029  0.99162  Biso   1.000  H
  H390     1.0000 0.00095  0.27048  0.33382  Biso   1.000  H
  H391     1.0000 0.28695  0.96251  0.33403  Biso   1.000  H
  H392     1.0000 0.17756  0.72550  0.47085  Biso   1.000  H
  H393     1.0000 0.04242  0.77223  0.18624  Biso   1.000  H
  H394     1.0000 0.78316  0.98148  0.17235  Biso   1.000  H
  H395     1.0000 0.74171  0.66559  0.03071  Biso   1.000  H
  H396     1.0000 0.48655  0.80622  0.28682  Biso   1.000  H
  H397     1.0000 0.78148  0.51747  0.66558  Biso   1.000  H
  H398     1.0000 0.73502  0.80017  0.54801  Biso   1.000  H
  H399     1.0000 0.46141  0.67863  0.79456  Biso   1.000  H
  H400     1.0000 0.32710  0.52720  0.79991  Biso   1.000  H
  H401     1.0000 0.22894  0.81197  0.98178  Biso   1.000  H
  H402     1.0000 0.04228  0.65841  0.73396  Biso   1.000  H
  H403     1.0000 0.74235  0.94437  0.67415  Biso   1.000  H
  H404     1.0000 0.86443  0.24725  0.52124  Biso   1.000  H
  H405     1.0000 0.05321  0.20432  0.81365  Biso   1.000  H
  H406     1.0000 0.24547  0.01148  0.83654  Biso   1.000  H
  H407     1.0000 0.29705  0.31302  0.98302  Biso   1.000  H
  H408     1.0000 0.51114  0.17585  0.71638  Biso   1.000  H
  H409     1.0000 0.30512  0.44790  0.19277  Biso   1.000  H
  H410     1.0000 0.21563  0.27653  0.47332  Biso   1.000  H
  H411     1.0000 0.48199  0.20904  0.32169  Biso   1.000  H
  H412     1.0000 0.86176  0.46706  0.26027  Biso   1.000  H
  H413     1.0000 0.70200  0.27350  0.94119  Biso   1.000  H
  H414     1.0000 0.97815  0.17545  0.22743  Biso   1.000  H
  H415     1.0000 0.18505  0.02998  0.23664  Biso   1.000  H
  H416     1.0000 0.28263  0.82481  0.47121  Biso   1.000  H
  H417     1.0000 0.00358  0.66699  0.28117  Biso   1.000  H
  H418     1.0000 0.74562  0.95363  0.33217  Biso   1.000  H
  H419     1.0000 0.83002  0.77129  0.04826  Biso   1.000  H
  H420     1.0000 0.49046  0.64945  0.24754  Biso   1.000  H
  H421     1.0000 0.73012  0.52028  0.81536  Biso   1.000  H
  H422     1.0000 0.77853  0.63992  0.52926  Biso   1.000  H
  H423     1.0000 0.52827  0.82639  0.74548  Biso   1.000  H
  H424     1.0000 0.17571  0.50588  0.74976  Biso   1.000  H
  H425     1.0000 0.33201  0.70734  0.98015  Biso   1.000  H
  H426     1.0000 0.03256  0.74793  0.84124  Biso   1.000  H
  H427     1.0000 0.85150  0.00026  0.77143  Biso   1.000  H
  H428     1.0000 0.76227  0.14990  0.52739  Biso   1.000  H
  H429     1.0000 0.02072  0.31297  0.72791  Biso   1.000  H
  H430     1.0000 0.35040  0.96516  0.73743  Biso   1.000  H
  H431     1.0000 0.20292  0.20080  0.97133  Biso   1.000  H
  H432     1.0000 0.52498  0.26819  0.82585  Biso   1.000  H
  H433     1.0000 0.28945  0.01049  0.68141  Biso   1.000  H
  H434     1.0000 0.75266  0.31517  0.00954  Biso   1.000  H
  H435     1.0000 0.04360  0.72228  0.34857  Biso   1.000  H
  H436     1.0000 0.79449  0.94753  0.82946  Biso   1.000  H
  H437     1.0000 0.25242  0.31875  0.55431  Biso   1.000  H
  H438     1.0000 0.53711  0.70606  0.18693  Biso   1.000  H
  H439     1.0000 0.23609  0.45760  0.69430  Biso   1.000  H
  H440     1.0000 0.78238  0.82379  0.98452  Biso   1.000  H
  H441     1.0000 0.54437  0.15102  0.27446  Biso   1.000  H
  H442     1.0000 0.66975  0.47211  0.76022  Biso   1.000  H
  H443     1.0000 0.32740  0.77366  0.53711  Biso   1.000  H
  H444     1.0000 0.03975  0.22326  0.17221  Biso   1.000  H
  H445     1.0000 0.68338  0.00527  0.27704  Biso   1.000  H
  H446     1.0000 0.27628  0.65756  0.04163  Biso   1.000  H
  H447     1.0000 0.97643  0.25010  0.67145  Biso   1.000  H
  H448     1.0000 0.23197  0.96029  0.18916  Biso   1.000  H
  H449     1.0000 0.82492  0.71152  0.47997  Biso   1.000  H
  H450     1.0000 0.55789  0.33165  0.76562  Biso   1.000  H
  H451     1.0000 0.80019  0.49111  0.32635  Biso   1.000  H
  H452     1.0000 0.24705  0.16372  0.05025  Biso   1.000  H
  H453     1.0000 0.47436  0.76591  0.68894  Biso   1.000  H
  H454     1.0000 0.35356  0.50607  0.25239  Biso   1.000  H
  H455     1.0000 0.70985  0.20002  0.46549  Biso   1.000  H
  H456     1.0000 0.98285  0.80689  0.78439  Biso   1.000  H
  H457     1.0000 0.67456  0.75238  0.48961  Biso   1.000  H
  H458     1.0000 0.53261  0.71845  0.84431  Biso   1.000  H
  H459     1.0000 0.83008  0.45762  0.72110  Biso   1.000  H
  H460     1.0000 0.18173  0.76035  0.04593  Biso   1.000  H
  H461     1.0000 0.96697  0.69842  0.69021  Biso   1.000  H
  H462     1.0000 0.28282  0.45341  0.84721  Biso   1.000  H
  H463     1.0000 0.80587  0.30744  0.46824  Biso   1.000  H
  H464     1.0000 0.97566  0.15569  0.78417  Biso   1.000  H
  H465     1.0000 0.69242  0.99821  0.73421  Biso   1.000  H
  H466     1.0000 0.35880  0.24050  0.01180  Biso   1.000  H
  H467     1.0000 0.58231  0.21598  0.67165  Biso   1.000  H
  H468     1.0000 0.19022  0.94935  0.78320  Biso   1.000  H
  H469     1.0000 0.36298  0.22527  0.55121  Biso   1.000  H
  H470     1.0000 0.54717  0.24310  0.16628  Biso   1.000  H
  H471     1.0000 0.20184  0.49954  0.28554  Biso   1.000  H
  H472     1.0000 0.80170  0.16778  0.93628  Biso   1.000  H
  H473     1.0000 0.03937  0.32835  0.26803  Biso   1.000  H
  H474     1.0000 0.75169  0.50495  0.16327  Biso   1.000  H
  H475     1.0000 0.23045  0.67106  0.52629  Biso   1.000  H
  H476     1.0000 0.98550  0.82022  0.24807  Biso   1.000  H
  H477     1.0000 0.34026  0.02474  0.28200  Biso   1.000  H
  H478     1.0000 0.67519  0.72874  0.99157  Biso   1.000  H
  H479     1.0000 0.54271  0.75489  0.34280  Biso   1.000  H
  H480     1.0000 0.84336  0.02400  0.23331  Biso   1.000  H
  N1       1.0000 0.71083  0.15349  0.49760  Biso   1.000  N
  N2       1.0000 0.51433  0.65514  0.19343  Biso   1.000  N
  N3       1.0000 0.18379  0.48051  0.69741  Biso   1.000  N
  N4       1.0000 0.20020  0.16039  0.00955  Biso   1.000  N
  N5       1.0000 0.02448  0.67139  0.33812  Biso   1.000  N
  N6       1.0000 0.67889  0.49546  0.81383  Biso   1.000  N
  N7       1.0000 0.82700  0.65140  0.50139  Biso   1.000  N
  N8       1.0000 0.00669  0.17338  0.17581  Biso   1.000  N
  N9       1.0000 0.34244  0.98937  0.68762  Biso   1.000  N
  N10      1.0000 0.32921  0.66014  0.01404  Biso   1.000  N
  N11      1.0000 0.51465  0.15565  0.32289  Biso   1.000  N
  N12      1.0000 0.84707  0.97472  0.82397  Biso   1.000  N
  N13      1.0000 0.33061  0.82148  0.50525  Biso   1.000  N
  N14      1.0000 0.53743  0.32208  0.81915  Biso   1.000  N
  N15      1.0000 0.85330  0.48096  0.31930  Biso   1.000  N
  N16      1.0000 0.82970  0.82056  0.01610  Biso   1.000  N
  N17      1.0000 0.99721  0.30524  0.67635  Biso   1.000  N
  N18      1.0000 0.35136  0.47963  0.19925  Biso   1.000  N
  N19      1.0000 0.21053  0.32021  0.51145  Biso   1.000  N
  N20      1.0000 0.01037  0.80215  0.83662  Biso   1.000  N
  N21      1.0000 0.68968  0.97578  0.32894  Biso   1.000  N
  N22      1.0000 0.70173  0.31545  0.98011  Biso   1.000  N
  N23      1.0000 0.49918  0.82126  0.69278  Biso   1.000  N
  N24      1.0000 0.18542  0.99733  0.18697  Biso   1.000  N
  N25      1.0000 0.83207  0.48604  0.67360  Biso   1.000  N
  N26      1.0000 0.68099  0.80195  0.51729  Biso   1.000  N
  N27      1.0000 0.49583  0.67319  0.84133  Biso   1.000  N
  N28      1.0000 0.33197  0.48771  0.84476  Biso   1.000  N
  N29      1.0000 0.18217  0.81096  0.01618  Biso   1.000  N
  N30      1.0000 0.00561  0.65555  0.68755  Biso   1.000  N
  N31      1.0000 0.69207  0.97150  0.68266  Biso   1.000  N
  N32      1.0000 0.85633  0.30143  0.49710  Biso   1.000  N
  N33      1.0000 0.01812  0.15625  0.82195  Biso   1.000  N
  N34      1.0000 0.19410  0.98403  0.83358  Biso   1.000  N
  N35      1.0000 0.35339  0.30558  0.00104  Biso   1.000  N
  N36      1.0000 0.54667  0.16907  0.67508  Biso   1.000  N
  N37      1.0000 0.20548  0.48328  0.34401  Biso   1.000  N
  N38      1.0000 0.36104  0.17437  0.51844  Biso   1.000  N
  N39      1.0000 0.53025  0.30222  0.17252  Biso   1.000  N
  N40      1.0000 0.70281  0.47749  0.16849  Biso   1.000  N
  N41      1.0000 0.85387  0.16870  0.96764  Biso   1.000  N
  N42      1.0000 0.02536  0.32343  0.32545  Biso   1.000  N
  N43      1.0000 0.33866  0.99435  0.33110  Biso   1.000  N
  N44      1.0000 0.17973  0.67351  0.50085  Biso   1.000  N
  N45      1.0000 0.01445  0.82070  0.19303  Biso   1.000  N
  N46      1.0000 0.83562  0.00361  0.17922  Biso   1.000  N
  N47      1.0000 0.68385  0.66927  0.01194  Biso   1.000  N
  N48      1.0000 0.51703  0.80338  0.33698  Biso   1.000  N
  O1       1.0000 0.36249  0.52796  0.01905  Biso   1.000  O
  O2       1.0000 0.02884  0.32674  0.54260  Biso   1.000  O
  O3       1.0000 0.55553  0.97902  0.34731  Biso   1.000  O
  O4       1.0000 0.85706  0.51875  0.49694  Biso   1.000  O
  O5       1.0000 0.53273  0.33744  0.95493  Biso   1.000  O
  O6       1.0000 0.05298  0.00404  0.16086  Biso   1.000  O
  O7       1.0000 0.17403  0.02932  0.00785  Biso   1.000  O
  O8       1.0000 0.50083  0.83205  0.55403  Biso   1.000  O
  O9       1.0000 0.98628  0.49800  0.34805  Biso   1.000  O
  O10      1.0000 0.67439  0.02395  0.50390  Biso   1.000  O
  O11      1.0000 0.01166  0.82802  0.97099  Biso   1.000  O
  O12      1.0000 0.48293  0.47622  0.16993  Biso   1.000  O
  O13      1.0000 0.67301  0.44966  0.99529  Biso   1.000  O
  O14      1.0000 0.00112  0.64350  0.46902  Biso   1.000  O
  O15      1.0000 0.47708  0.00576  0.66673  Biso   1.000  O
  O16      1.0000 0.17843  0.45147  0.52523  Biso   1.000  O
  O17      1.0000 0.50967  0.63910  0.05862  Biso   1.000  O
  O18      1.0000 0.97833  0.98271  0.84659  Biso   1.000  O
  O19      1.0000 0.85656  0.95289  0.00713  Biso   1.000  O
  O20      1.0000 0.52836  0.14256  0.46076  Biso   1.000  O
  O21      1.0000 0.04935  0.47053  0.66634  Biso   1.000  O
  O22      1.0000 0.35985  0.95659  0.51067  Biso   1.000  O
  O23      1.0000 0.01563  0.15391  0.04158  Biso   1.000  O
  O24      1.0000 0.54848  0.49384  0.84111  Biso   1.000  O
  O25      1.0000 0.97136  0.99084  0.16121  Biso   1.000  O
  O26      1.0000 0.16457  0.94657  0.00747  Biso   1.000  O
  O27      1.0000 0.03797  0.14607  0.95752  Biso   1.000  O
  O28      1.0000 0.46989  0.98127  0.34551  Biso   1.000  O
  O29      1.0000 0.66973  0.93633  0.50736  Biso   1.000  O
  O30      1.0000 0.54253  0.14130  0.54113  Biso   1.000  O
  O31      1.0000 0.56450  0.48072  0.15872  Biso   1.000  O
  O32      1.0000 0.36841  0.44330  0.01479  Biso   1.000  O
  O33      1.0000 0.51065  0.64868  0.97518  Biso   1.000  O
  O34      1.0000 0.07014  0.49821  0.35439  Biso   1.000  O
  O35      1.0000 0.86874  0.43532  0.49850  Biso   1.000  O
  O36      1.0000 0.00935  0.64288  0.55219  Biso   1.000  O
  O37      1.0000 0.05971  0.97792  0.85098  Biso   1.000  O
  O38      1.0000 0.86713  0.03529  0.99221  Biso   1.000  O
  O39      1.0000 0.00516  0.83250  0.05609  Biso   1.000  O
  O40      1.0000 0.55710  0.98518  0.66298  Biso   1.000  O
  O41      1.0000 0.36884  0.03968  0.51470  Biso   1.000  O
  O42      1.0000 0.50963  0.82689  0.47110  Biso   1.000  O
  O43      1.0000 0.46578  0.49495  0.84988  Biso   1.000  O
  O44      1.0000 0.66587  0.53478  0.99147  Biso   1.000  O
  O45      1.0000 0.52617  0.33185  0.04099  Biso   1.000  O
  O46      1.0000 0.96830  0.48948  0.66525  Biso   1.000  O
  O47      1.0000 0.16830  0.53659  0.51332  Biso   1.000  O
  O48      1.0000 0.03396  0.33325  0.45926  Biso   1.000  O
  O49      1.0000 0.01962  0.95358  0.16236  Biso   1.000  O
  O50      1.0000 0.17546  0.98807  0.96619  Biso   1.000  O
  O51      1.0000 0.98698  0.14874  0.98957  Biso   1.000  O
  O52      1.0000 0.51106  0.93613  0.35355  Biso   1.000  O
  O53      1.0000 0.67616  0.98370  0.54666  Biso   1.000  O
  O54      1.0000 0.49433  0.14422  0.50861  Biso   1.000  O
  O55      1.0000 0.52934  0.43661  0.16115  Biso   1.000  O
  O56      1.0000 0.36436  0.48793  0.97870  Biso   1.000  O
  O57      1.0000 0.55063  0.64151  0.01689  Biso   1.000  O
  O58      1.0000 0.02431  0.45604  0.35134  Biso   1.000  O
  O59      1.0000 0.86143  0.48033  0.54104  Biso   1.000  O
  O60      1.0000 0.04761  0.64571  0.50834  Biso   1.000  O
  O61      1.0000 0.01652  0.02238  0.85039  Biso   1.000  O
  O62      1.0000 0.85981  0.00203  0.04288  Biso   1.000  O
  O63      1.0000 0.04838  0.82940  0.01414  Biso   1.000  O
  O64      1.0000 0.52522  0.03601  0.66290  Biso   1.000  O
  O65      1.0000 0.36162  0.99830  0.46775  Biso   1.000  O
  O66      1.0000 0.54595  0.82995  0.51856  Biso   1.000  O
  O67      1.0000 0.50754  0.53697  0.84763  Biso   1.000  O
  O68      1.0000 0.67561  0.49253  0.03412  Biso   1.000  O
  O69      1.0000 0.48561  0.33439  0.99551  Biso   1.000  O
  O70      1.0000 0.01874  0.52021  0.66751  Biso   1.000  O
  O71      1.0000 0.17498  0.48883  0.47681  Biso   1.000  O
  O72      1.0000 0.98936  0.32472  0.50028  Biso   1.000  O
  O73      1.0000 0.99855  0.43787  0.65920  Biso   1.000  O
  O74      1.0000 0.67398  0.97846  0.46485  Biso   1.000  O
  O75      1.0000 0.46498  0.64627  0.01685  Biso   1.000  O
  O76      1.0000 0.50764  0.45128  0.84639  Biso   1.000  O
  O77      1.0000 0.17125  0.98979  0.05177  Biso   1.000  O
  O78      1.0000 0.96319  0.63862  0.51189  Biso   1.000  O
  O79      1.0000 0.50354  0.95489  0.66558  Biso   1.000  O
  O80      1.0000 0.87020  0.47707  0.45632  Biso   1.000  O
  O81      1.0000 0.06639  0.14877  0.01112  Biso   1.000  O
  O82      1.0000 0.01687  0.93703  0.85140  Biso   1.000  O
  O83      1.0000 0.36898  0.48250  0.06019  Biso   1.000  O
  O84      1.0000 0.57561  0.14586  0.49626  Biso   1.000  O
  O85      1.0000 0.02901  0.53916  0.35216  Biso   1.000  O
  O86      1.0000 0.36359  0.99681  0.55348  Biso   1.000  O
  O87      1.0000 0.56722  0.33350  0.99862  Biso   1.000  O
  O88      1.0000 0.52191  0.52114  0.16750  Biso   1.000  O
  O89      1.0000 0.86176  0.98525  0.95806  Biso   1.000  O
  O90      1.0000 0.07205  0.33152  0.50366  Biso   1.000  O
  O91      1.0000 0.51785  0.02245  0.34709  Biso   1.000  O
  O92      1.0000 0.17258  0.49540  0.56109  Biso   1.000  O
  O93      1.0000 0.96423  0.83412  0.01031  Biso   1.000  O
  O94      1.0000 0.00892  0.03806  0.15555  Biso   1.000  O
  O95      1.0000 0.66571  0.48931  0.95067  Biso   1.000  O
  O96      1.0000 0.46626  0.82922  0.50463  Biso   1.000  O
  O97      1.0000 0.49441  0.19235  0.50293  Biso   1.000  O
  O98      1.0000 0.53250  0.43620  0.21064  Biso   1.000  O
  O99      1.0000 0.22561  0.49432  0.48004  Biso   1.000  O
  O100     1.0000 0.98887  0.19726  0.98521  Biso   1.000  O
  O101     1.0000 0.02661  0.45717  0.30217  Biso   1.000  O
  O102     1.0000 0.72405  0.49452  0.03202  Biso   1.000  O
  O103     1.0000 0.04303  0.69424  0.50649  Biso   1.000  O
  O104     1.0000 0.01679  0.95760  0.21103  Biso   1.000  O
  O105     1.0000 0.31465  0.00649  0.46592  Biso   1.000  O
  O106     1.0000 0.54923  0.69023  0.01673  Biso   1.000  O
  O107     1.0000 0.51001  0.93653  0.30439  Biso   1.000  O
  O108     1.0000 0.81248  0.00831  0.04132  Biso   1.000  O
  O109     1.0000 0.54530  0.78088  0.52000  Biso   1.000  O
  O110     1.0000 0.49674  0.54058  0.80112  Biso   1.000  O
  O111     1.0000 0.81333  0.47822  0.53724  Biso   1.000  O
  O112     1.0000 0.04551  0.78048  0.01547  Biso   1.000  O
  O113     1.0000 0.01494  0.52078  0.71695  Biso   1.000  O
  O114     1.0000 0.31516  0.48207  0.97897  Biso   1.000  O
  O115     1.0000 0.99100  0.27712  0.49586  Biso   1.000  O
  O116     1.0000 0.02057  0.02062  0.80041  Biso   1.000  O
  O117     1.0000 0.72427  0.97930  0.54894  Biso   1.000  O
  O118     1.0000 0.48860  0.28596  0.98783  Biso   1.000  O
  O119     1.0000 0.52821  0.03774  0.71205  Biso   1.000  O
  O120     1.0000 0.22477  0.98140  0.96873  Biso   1.000  O
  O121     1.0000 0.04823  0.46527  0.71582  Biso   1.000  O
  O122     1.0000 0.72184  0.01715  0.50748  Biso   1.000  O
  O123     1.0000 0.50586  0.68919  0.05946  Biso   1.000  O
  O124     1.0000 0.54116  0.49960  0.79258  Biso   1.000  O
  O125     1.0000 0.22344  0.02378  0.01152  Biso   1.000  O
  O126     1.0000 0.99994  0.69393  0.46930  Biso   1.000  O
  O127     1.0000 0.47969  0.00836  0.71618  Biso   1.000  O
  O128     1.0000 0.80852  0.51424  0.48928  Biso   1.000  O
  O129     1.0000 0.02051  0.20060  0.03742  Biso   1.000  O
  O130     1.0000 0.98284  0.97338  0.79794  Biso   1.000  O
  O131     1.0000 0.31426  0.52146  0.02379  Biso   1.000  O
  O132     1.0000 0.52950  0.19170  0.45674  Biso   1.000  O
  O133     1.0000 0.98668  0.50201  0.29872  Biso   1.000  O
  O134     1.0000 0.31130  0.95874  0.50517  Biso   1.000  O
  O135     1.0000 0.53695  0.28930  0.95417  Biso   1.000  O
  O136     1.0000 0.48862  0.47563  0.21880  Biso   1.000  O
  O137     1.0000 0.80916  0.95978  0.00667  Biso   1.000  O
  O138     1.0000 0.03020  0.27844  0.54242  Biso   1.000  O
  O139     1.0000 0.55546  0.97552  0.29995  Biso   1.000  O
  O140     1.0000 0.22833  0.45759  0.52422  Biso   1.000  O
  O141     1.0000 0.00487  0.78017  0.97364  Biso   1.000  O
  O142     1.0000 0.04950  0.00685  0.21008  Biso   1.000  O
  O143     1.0000 0.72189  0.45345  0.98690  Biso   1.000  O
  O144     1.0000 0.50250  0.78383  0.55701  Biso   1.000  O
  O145     1.0000 0.57068  0.48362  0.20705  Biso   1.000  O
  O146     1.0000 0.21634  0.54357  0.51742  Biso   1.000  O
  O147     1.0000 0.54646  0.19000  0.53789  Biso   1.000  O
  O148     1.0000 0.07204  0.49716  0.30607  Biso   1.000  O
  O149     1.0000 0.71353  0.53613  0.98865  Biso   1.000  O
  O150     1.0000 0.03678  0.19502  0.95546  Biso   1.000  O
  O151     1.0000 0.96828  0.99074  0.21025  Biso   1.000  O
  O152     1.0000 0.32027  0.04247  0.51042  Biso   1.000  O
  O153     1.0000 0.00443  0.69160  0.55505  Biso   1.000  O
  O154     1.0000 0.47054  0.97828  0.29619  Biso   1.000  O
  O155     1.0000 0.81956  0.04157  0.99271  Biso   1.000  O
  O156     1.0000 0.50832  0.69721  0.97574  Biso   1.000  O
  O157     1.0000 0.46178  0.49574  0.80220  Biso   1.000  O
  O158     1.0000 0.82037  0.43362  0.50265  Biso   1.000  O
  O159     1.0000 0.51173  0.77923  0.47404  Biso   1.000  O
  O160     1.0000 0.96471  0.48820  0.71451  Biso   1.000  O
  O161     1.0000 0.32005  0.43895  0.01966  Biso   1.000  O
  O162     1.0000 0.00295  0.78377  0.05962  Biso   1.000  O
  O163     1.0000 0.06276  0.98481  0.80295  Biso   1.000  O
  O164     1.0000 0.71752  0.93613  0.51070  Biso   1.000  O
  O165     1.0000 0.03603  0.28434  0.45647  Biso   1.000  O
  O166     1.0000 0.56105  0.98679  0.71071  Biso   1.000  O
  O167     1.0000 0.21260  0.94139  0.00827  Biso   1.000  O
  O168     1.0000 0.52497  0.28359  0.03668  Biso   1.000  O
  O169     1.0000 0.99795  0.03851  0.20188  Biso   1.000  O
  O170     1.0000 0.21838  0.98582  0.05280  Biso   1.000  O
  O171     1.0000 0.06862  0.19733  0.00476  Biso   1.000  O
  O172     1.0000 0.51333  0.01808  0.29876  Biso   1.000  O
  O173     1.0000 0.72311  0.97474  0.46622  Biso   1.000  O
  O174     1.0000 0.57912  0.19519  0.49218  Biso   1.000  O
  O175     1.0000 0.53183  0.52119  0.21597  Biso   1.000  O
  O176     1.0000 0.32057  0.47611  0.06292  Biso   1.000  O
  O177     1.0000 0.46486  0.69433  0.01615  Biso   1.000  O
  O178     1.0000 0.03148  0.54114  0.30342  Biso   1.000  O
  O179     1.0000 0.82204  0.46937  0.45199  Biso   1.000  O
  O180     1.0000 0.95969  0.68787  0.51796  Biso   1.000  O
  O181     1.0000 0.02908  0.93591  0.80322  Biso   1.000  O
  O182     1.0000 0.81508  0.99602  0.95750  Biso   1.000  O
  O183     1.0000 0.96066  0.78572  0.01696  Biso   1.000  O
  O184     1.0000 0.50921  0.95562  0.71397  Biso   1.000  O
  O185     1.0000 0.31505  0.99613  0.54946  Biso   1.000  O
  O186     1.0000 0.46354  0.78274  0.51432  Biso   1.000  O
  O187     1.0000 0.50354  0.45492  0.79903  Biso   1.000  O
  O188     1.0000 0.71304  0.49675  0.94906  Biso   1.000  O
  O189     1.0000 0.57001  0.28379  0.99979  Biso   1.000  O
  O190     1.0000 0.99587  0.43740  0.70877  Biso   1.000  O
  O191     1.0000 0.22010  0.50338  0.56396  Biso   1.000  O
  O192     1.0000 0.07549  0.28331  0.50140  Biso   1.000  O
