data_image0
_cell_length_a       46.7749
_cell_length_b       46.6929
_cell_length_c       46.5072
_cell_angle_alpha    90
_cell_angle_beta     90
_cell_angle_gamma    90

_symmetry_space_group_name_H-M    "P 1"
_symmetry_int_tables_number       1

loop_
  _symmetry_equiv_pos_as_xyz
  'x, y, z'

loop_
  _atom_site_label
  _atom_site_occupancy
  _atom_site_fract_x
  _atom_site_fract_y
  _atom_site_fract_z
  _atom_site_thermal_displace_type
  _atom_site_B_iso_or_equiv
  _atom_site_type_symbol
  C1       1.0000 0.56823  0.97058  0.34597  Biso   1.000  C
  C2       1.0000 0.33911  0.52594  0.02702  Biso   1.000  C
  C3       1.0000 0.00155  0.29570  0.58340  Biso   1.000  C
  C4       1.0000 0.06670  0.97112  0.19901  Biso   1.000  C
  C5       1.0000 0.83551  0.53607  0.52390  Biso   1.000  C
  C6       1.0000 0.51578  0.29615  0.96910  Biso   1.000  C
  C7       1.0000 0.96006  0.48497  0.33871  Biso   1.000  C
  C8       1.0000 0.19880  0.02242  0.03461  Biso   1.000  C
  C9       1.0000 0.51604  0.79444  0.58906  Biso   1.000  C
  C10      1.0000 0.46237  0.47077  0.21601  Biso   1.000  C
  C11      1.0000 0.69827  0.03388  0.52468  Biso   1.000  C
  C12      1.0000 0.01149  0.80441  0.96274  Biso   1.000  C
  C13      1.0000 0.46325  0.97663  0.70882  Biso   1.000  C
  C14      1.0000 0.69472  0.42785  0.02702  Biso   1.000  C
  C15      1.0000 0.02220  0.65333  0.46916  Biso   1.000  C
  C16      1.0000 0.96489  0.99045  0.84829  Biso   1.000  C
  C17      1.0000 0.20430  0.41391  0.52393  Biso   1.000  C
  C18      1.0000 0.52117  0.66265  0.09174  Biso   1.000  C
  C19      1.0000 0.07677  0.47737  0.70738  Biso   1.000  C
  C20      1.0000 0.83735  0.93188  0.03650  Biso   1.000  C
  C21      1.0000 0.51904  0.15088  0.46456  Biso   1.000  C
  C22      1.0000 0.57068  0.48086  0.83929  Biso   1.000  C
  C23      1.0000 0.33700  0.91596  0.52115  Biso   1.000  C
  C24      1.0000 0.03182  0.15985  0.08775  Biso   1.000  C
  C25      1.0000 0.33497  0.02275  0.52447  Biso   1.000  C
  C26      1.0000 0.52705  0.29471  0.07892  Biso   1.000  C
  C27      1.0000 0.06580  0.45850  0.34396  Biso   1.000  C
  C28      1.0000 0.83948  0.03865  0.02481  Biso   1.000  C
  C29      1.0000 0.01307  0.29714  0.47376  Biso   1.000  C
  C30      1.0000 0.56726  0.48484  0.21301  Biso   1.000  C
  C31      1.0000 0.20021  0.52339  0.51974  Biso   1.000  C
  C32      1.0000 0.01972  0.79873  0.07225  Biso   1.000  C
  C33      1.0000 0.45738  0.97906  0.34617  Biso   1.000  C
  C34      1.0000 0.69245  0.53789  0.02114  Biso   1.000  C
  C35      1.0000 0.51787  0.80000  0.48188  Biso   1.000  C
  C36      1.0000 0.95872  0.97182  0.20456  Biso   1.000  C
  C37      1.0000 0.69598  0.92470  0.52369  Biso   1.000  C
  C38      1.0000 0.51036  0.65763  0.98206  Biso   1.000  C
  C39      1.0000 0.96666  0.47862  0.70478  Biso   1.000  C
  C40      1.0000 0.19871  0.91604  0.01775  Biso   1.000  C
  C41      1.0000 0.02177  0.65344  0.57790  Biso   1.000  C
  C42      1.0000 0.46274  0.47675  0.84460  Biso   1.000  C
  C43      1.0000 0.83067  0.42543  0.52046  Biso   1.000  C
  C44      1.0000 0.01965  0.16266  0.97866  Biso   1.000  C
  C45      1.0000 0.57077  0.97967  0.70483  Biso   1.000  C
  C46      1.0000 0.33295  0.41603  0.03469  Biso   1.000  C
  C47      1.0000 0.49569  0.15332  0.57380  Biso   1.000  C
  C48      1.0000 0.07302  0.97709  0.84036  Biso   1.000  C
  C49      1.0000 0.02488  0.03917  0.84585  Biso   1.000  C
  C50      1.0000 0.83851  0.99339  0.08043  Biso   1.000  C
  C51      1.0000 0.06569  0.79945  0.01308  Biso   1.000  C
  C52      1.0000 0.51256  0.03043  0.70385  Biso   1.000  C
  C53      1.0000 0.33279  0.97178  0.46970  Biso   1.000  C
  C54      1.0000 0.57283  0.79732  0.53789  Biso   1.000  C
  C55      1.0000 0.51094  0.53255  0.84805  Biso   1.000  C
  C56      1.0000 0.69195  0.48234  0.07618  Biso   1.000  C
  C57      1.0000 0.46467  0.29060  0.02968  Biso   1.000  C
  C58      1.0000 0.02220  0.52883  0.70570  Biso   1.000  C
  C59      1.0000 0.19923  0.45957  0.46502  Biso   1.000  C
  C60      1.0000 0.95404  0.29180  0.52309  Biso   1.000  C
  C61      1.0000 0.01350  0.91561  0.20644  Biso   1.000  C
  C62      1.0000 0.19857  0.97729  0.97090  Biso   1.000  C
  C63      1.0000 0.96879  0.15947  0.03887  Biso   1.000  C
  C64      1.0000 0.51116  0.92354  0.34942  Biso   1.000  C
  C65      1.0000 0.69640  0.97580  0.58050  Biso   1.000  C
  C66      1.0000 0.45337  0.15238  0.50771  Biso   1.000  C
  C67      1.0000 0.52171  0.42407  0.20629  Biso   1.000  C
  C68      1.0000 0.33722  0.46907  0.97400  Biso   1.000  C
  C69      1.0000 0.56791  0.66868  0.03303  Biso   1.000  C
  C70      1.0000 0.00141  0.41941  0.33886  Biso   1.000  C
  C71      1.0000 0.83620  0.47788  0.57907  Biso   1.000  C
  C72      1.0000 0.07755  0.65436  0.52216  Biso   1.000  C
  C73      1.0000 0.02733  0.52499  0.34326  Biso   1.000  C
  C74      1.0000 0.33420  0.97235  0.58048  Biso   1.000  C
  C75      1.0000 0.57282  0.29607  0.01960  Biso   1.000  C
  C76      1.0000 0.50822  0.53195  0.21397  Biso   1.000  C
  C77      1.0000 0.83416  0.98044  0.97533  Biso   1.000  C
  C78      1.0000 0.06170  0.29734  0.53816  Biso   1.000  C
  C79      1.0000 0.51570  0.03040  0.34139  Biso   1.000  C
  C80      1.0000 0.19975  0.47087  0.57578  Biso   1.000  C
  C81      1.0000 0.95906  0.80457  0.01951  Biso   1.000  C
  C82      1.0000 0.01702  0.02687  0.20767  Biso   1.000  C
  C83      1.0000 0.69546  0.47966  0.96704  Biso   1.000  C
  C84      1.0000 0.46426  0.79295  0.53438  Biso   1.000  C
  C85      1.0000 0.01716  0.42294  0.70739  Biso   1.000  C
  C86      1.0000 0.69607  0.97825  0.47141  Biso   1.000  C
  C87      1.0000 0.46096  0.65500  0.04184  Biso   1.000  C
  C88      1.0000 0.52023  0.42520  0.84184  Biso   1.000  C
  C89      1.0000 0.19727  0.95816  0.07791  Biso   1.000  C
  C90      1.0000 0.96946  0.65541  0.52119  Biso   1.000  C
  C91      1.0000 0.51910  0.92276  0.71589  Biso   1.000  C
  C92      1.0000 0.83392  0.48110  0.46840  Biso   1.000  C
  C93      1.0000 0.07484  0.15659  0.02431  Biso   1.000  C
  C94      1.0000 0.01118  0.93204  0.83800  Biso   1.000  C
  C95      1.0000 0.33840  0.47284  0.08634  Biso   1.000  C
  C96      1.0000 0.56290  0.15316  0.52928  Biso   1.000  C
  C97      1.0000 0.69703  0.06681  0.52204  Biso   1.000  C
  C98      1.0000 0.52654  0.66253  0.12368  Biso   1.000  C
  C99      1.0000 0.10898  0.48028  0.70681  Biso   1.000  C
  C100     1.0000 0.19933  0.05516  0.03437  Biso   1.000  C
  C101     1.0000 0.02568  0.65242  0.43681  Biso   1.000  C
  C102     1.0000 0.60436  0.47880  0.83857  Biso   1.000  C
  C103     1.0000 0.83719  0.56781  0.51510  Biso   1.000  C
  C104     1.0000 0.03094  0.15921  0.11952  Biso   1.000  C
  C105     1.0000 0.43148  0.98432  0.70803  Biso   1.000  C
  C106     1.0000 0.33872  0.55706  0.02788  Biso   1.000  C
  C107     1.0000 0.52940  0.15294  0.43444  Biso   1.000  C
  C108     1.0000 0.93275  0.98818  0.84889  Biso   1.000  C
  C109     1.0000 0.33796  0.88428  0.51840  Biso   1.000  C
  C110     1.0000 0.51381  0.29668  0.93761  Biso   1.000  C
  C111     1.0000 0.92786  0.48426  0.34050  Biso   1.000  C
  C112     1.0000 0.83447  0.90048  0.03722  Biso   1.000  C
  C113     1.0000 0.00577  0.29492  0.61449  Biso   1.000  C
  C114     1.0000 0.42848  0.46719  0.21543  Biso   1.000  C
  C115     1.0000 0.19999  0.38239  0.52352  Biso   1.000  C
  C116     1.0000 0.00941  0.80474  0.93050  Biso   1.000  C
  C117     1.0000 0.59957  0.97062  0.34420  Biso   1.000  C
  C118     1.0000 0.69624  0.39493  0.03011  Biso   1.000  C
  C119     1.0000 0.51681  0.79342  0.62122  Biso   1.000  C
  C120     1.0000 0.09858  0.97359  0.19814  Biso   1.000  C
  C121     1.0000 0.83575  0.99547  0.11200  Biso   1.000  C
  C122     1.0000 0.09776  0.79744  0.01485  Biso   1.000  C
  C123     1.0000 0.02532  0.07143  0.84772  Biso   1.000  C
  C124     1.0000 0.33124  0.96836  0.43787  Biso   1.000  C
  C125     1.0000 0.60494  0.79572  0.53302  Biso   1.000  C
  C126     1.0000 0.50946  0.06157  0.70284  Biso   1.000  C
  C127     1.0000 0.69365  0.47806  0.10876  Biso   1.000  C
  C128     1.0000 0.43312  0.28989  0.03067  Biso   1.000  C
  C129     1.0000 0.50789  0.56486  0.84969  Biso   1.000  C
  C130     1.0000 0.19737  0.45084  0.43454  Biso   1.000  C
  C131     1.0000 0.92136  0.29273  0.52085  Biso   1.000  C
  C132     1.0000 0.02059  0.56100  0.70737  Biso   1.000  C
  C133     1.0000 0.19864  0.97764  0.93897  Biso   1.000  C
  C134     1.0000 0.93661  0.16231  0.04084  Biso   1.000  C
  C135     1.0000 0.01552  0.88378  0.20723  Biso   1.000  C
  C136     1.0000 0.69879  0.96933  0.61242  Biso   1.000  C
  C137     1.0000 0.42052  0.15090  0.51104  Biso   1.000  C
  C138     1.0000 0.50766  0.89143  0.35157  Biso   1.000  C
  C139     1.0000 0.33686  0.46603  0.94207  Biso   1.000  C
  C140     1.0000 0.60025  0.66733  0.03076  Biso   1.000  C
  C141     1.0000 0.52341  0.39232  0.20501  Biso   1.000  C
  C142     1.0000 0.83714  0.47238  0.61047  Biso   1.000  C
  C143     1.0000 0.10876  0.65443  0.51795  Biso   1.000  C
  C144     1.0000 0.99127  0.38855  0.34015  Biso   1.000  C
  C145     1.0000 0.33768  0.47782  0.11803  Biso   1.000  C
  C146     1.0000 0.09350  0.29634  0.54264  Biso   1.000  C
  C147     1.0000 0.51686  0.06205  0.33970  Biso   1.000  C
  C148     1.0000 0.83390  0.48074  0.43594  Biso   1.000  C
  C149     1.0000 0.60497  0.29851  0.02334  Biso   1.000  C
  C150     1.0000 0.01579  0.05944  0.20799  Biso   1.000  C
  C151     1.0000 0.19768  0.95091  0.10867  Biso   1.000  C
  C152     1.0000 0.43286  0.79157  0.53179  Biso   1.000  C
  C153     1.0000 0.03456  0.55586  0.34430  Biso   1.000  C
  C154     1.0000 0.69357  0.97785  0.43922  Biso   1.000  C
  C155     1.0000 0.92760  0.80494  0.02321  Biso   1.000  C
  C156     1.0000 0.50792  0.56424  0.21588  Biso   1.000  C
  C157     1.0000 0.69618  0.47364  0.93545  Biso   1.000  C
  C158     1.0000 0.93742  0.65750  0.51684  Biso   1.000  C
  C159     1.0000 0.51757  0.88920  0.71766  Biso   1.000  C
  C160     1.0000 0.19965  0.47028  0.60884  Biso   1.000  C
  C161     1.0000 0.42867  0.65448  0.04375  Biso   1.000  C
  C162     1.0000 0.00833  0.90046  0.83665  Biso   1.000  C
  C163     1.0000 0.83492  0.97670  0.94395  Biso   1.000  C
  C164     1.0000 0.59524  0.15579  0.52737  Biso   1.000  C
  C165     1.0000 0.01554  0.39090  0.70697  Biso   1.000  C
  C166     1.0000 0.33387  0.97742  0.61281  Biso   1.000  C
  C167     1.0000 0.10678  0.15499  0.02508  Biso   1.000  C
  C168     1.0000 0.51556  0.39289  0.84084  Biso   1.000  C
  C169     1.0000 0.02079  0.79569  0.10493  Biso   1.000  C
  C170     1.0000 0.10475  0.97797  0.84111  Biso   1.000  C
  C171     1.0000 0.84079  0.07092  0.02055  Biso   1.000  C
  C172     1.0000 0.51491  0.80157  0.45082  Biso   1.000  C
  C173     1.0000 0.60214  0.97672  0.70522  Biso   1.000  C
  C174     1.0000 0.33080  0.05291  0.51449  Biso   1.000  C
  C175     1.0000 0.52633  0.29500  0.11065  Biso   1.000  C
  C176     1.0000 0.43089  0.47145  0.84577  Biso   1.000  C
  C177     1.0000 0.69506  0.57059  0.02356  Biso   1.000  C
  C178     1.0000 0.00597  0.29662  0.44167  Biso   1.000  C
  C179     1.0000 0.93393  0.48021  0.70520  Biso   1.000  C
  C180     1.0000 0.19876  0.55559  0.51586  Biso   1.000  C
  C181     1.0000 0.02340  0.16287  0.94693  Biso   1.000  C
  C182     1.0000 0.92681  0.97405  0.20757  Biso   1.000  C
  C183     1.0000 0.19847  0.88442  0.01400  Biso   1.000  C
  C184     1.0000 0.49013  0.15286  0.60637  Biso   1.000  C
  C185     1.0000 0.42422  0.98024  0.34525  Biso   1.000  C
  C186     1.0000 0.69759  0.89247  0.51976  Biso   1.000  C
  C187     1.0000 0.50872  0.65765  0.94941  Biso   1.000  C
  C188     1.0000 0.59921  0.48525  0.20986  Biso   1.000  C
  C189     1.0000 0.33444  0.38486  0.03729  Biso   1.000  C
  C190     1.0000 0.02099  0.65391  0.61186  Biso   1.000  C
  C191     1.0000 0.09773  0.45313  0.34332  Biso   1.000  C
  C192     1.0000 0.83122  0.39352  0.51937  Biso   1.000  C
  C193     1.0000 0.86252  0.98118  0.92828  Biso   1.000  C
  C194     1.0000 0.91222  0.83300  0.02980  Biso   1.000  C
  C195     1.0000 0.01049  0.88418  0.86364  Biso   1.000  C
  C196     1.0000 0.36127  0.97726  0.62864  Biso   1.000  C
  C197     1.0000 0.41654  0.81811  0.52616  Biso   1.000  C
  C198     1.0000 0.51443  0.87383  0.69146  Biso   1.000  C
  C199     1.0000 0.67115  0.47774  0.91642  Biso   1.000  C
  C200     1.0000 0.61848  0.32679  0.02667  Biso   1.000  C
  C201     1.0000 0.51727  0.37611  0.86806  Biso   1.000  C
  C202     1.0000 0.17336  0.47286  0.62559  Biso   1.000  C
  C203     1.0000 0.11092  0.32125  0.53761  Biso   1.000  C
  C204     1.0000 0.01229  0.37459  0.68035  Biso   1.000  C
  C205     1.0000 0.16991  0.95369  0.12357  Biso   1.000  C
  C206     1.0000 0.12052  0.12580  0.02747  Biso   1.000  C
  C207     1.0000 0.02269  0.07633  0.18355  Biso   1.000  C
  C208     1.0000 0.66678  0.97918  0.42369  Biso   1.000  C
  C209     1.0000 0.61219  0.13054  0.52436  Biso   1.000  C
  C210     1.0000 0.52364  0.07755  0.36544  Biso   1.000  C
  C211     1.0000 0.36514  0.47697  0.13491  Biso   1.000  C
  C212     1.0000 0.41156  0.62784  0.04357  Biso   1.000  C
  C213     1.0000 0.51355  0.58105  0.18910  Biso   1.000  C
  C214     1.0000 0.86139  0.48403  0.42139  Biso   1.000  C
  C215     1.0000 0.91934  0.63135  0.51711  Biso   1.000  C
  C216     1.0000 0.03680  0.57212  0.37115  Biso   1.000  C
  C217     1.0000 0.12033  0.97349  0.86876  Biso   1.000  C
  C218     1.0000 0.86803  0.08579  0.02678  Biso   1.000  C
  C219     1.0000 0.01945  0.82013  0.12383  Biso   1.000  C
  C220     1.0000 0.61931  0.97417  0.67961  Biso   1.000  C
  C221     1.0000 0.35650  0.06957  0.51115  Biso   1.000  C
  C222     1.0000 0.51485  0.82880  0.43392  Biso   1.000  C
  C223     1.0000 0.41651  0.46739  0.87355  Biso   1.000  C
  C224     1.0000 0.66868  0.58850  0.02659  Biso   1.000  C
  C225     1.0000 0.52303  0.32313  0.12506  Biso   1.000  C
  C226     1.0000 0.91599  0.47903  0.67861  Biso   1.000  C
  C227     1.0000 0.17332  0.57356  0.51673  Biso   1.000  C
  C228     1.0000 0.99752  0.32229  0.42614  Biso   1.000  C
  C229     1.0000 0.91114  0.98039  0.18092  Biso   1.000  C
  C230     1.0000 0.16952  0.87039  0.01786  Biso   1.000  C
  C231     1.0000 0.02599  0.13616  0.93019  Biso   1.000  C
  C232     1.0000 0.40805  0.97596  0.37235  Biso   1.000  C
  C233     1.0000 0.67049  0.87635  0.52388  Biso   1.000  C
  C234     1.0000 0.49325  0.12666  0.62281  Biso   1.000  C
  C235     1.0000 0.61373  0.48053  0.18205  Biso   1.000  C
  C236     1.0000 0.36140  0.36950  0.03644  Biso   1.000  C
  C237     1.0000 0.50671  0.63056  0.93284  Biso   1.000  C
  C238     1.0000 0.11462  0.45493  0.37084  Biso   1.000  C
  C239     1.0000 0.85920  0.37699  0.52043  Biso   1.000  C
  C240     1.0000 0.02267  0.62697  0.62799  Biso   1.000  C
  C241     1.0000 0.62139  0.48056  0.86547  Biso   1.000  C
  C242     1.0000 0.86474  0.58310  0.51805  Biso   1.000  C
  C243     1.0000 0.51282  0.82138  0.63667  Biso   1.000  C
  C244     1.0000 0.12488  0.48036  0.67918  Biso   1.000  C
  C245     1.0000 0.36377  0.57379  0.03346  Biso   1.000  C
  C246     1.0000 0.00992  0.83165  0.91518  Biso   1.000  C
  C247     1.0000 0.91648  0.98540  0.87617  Biso   1.000  C
  C248     1.0000 0.66894  0.08073  0.52230  Biso   1.000  C
  C249     1.0000 0.00532  0.32230  0.63068  Biso   1.000  C
  C250     1.0000 0.41535  0.97844  0.68079  Biso   1.000  C
  C251     1.0000 0.17303  0.07075  0.03454  Biso   1.000  C
  C252     1.0000 0.51609  0.32245  0.92013  Biso   1.000  C
  C253     1.0000 0.41312  0.47307  0.18809  Biso   1.000  C
  C254     1.0000 0.17135  0.37050  0.52670  Biso   1.000  C
  C255     1.0000 0.52822  0.12745  0.41645  Biso   1.000  C
  C256     1.0000 0.91255  0.48683  0.36941  Biso   1.000  C
  C257     1.0000 0.66929  0.37831  0.03224  Biso   1.000  C
  C258     1.0000 0.02771  0.13063  0.13300  Biso   1.000  C
  C259     1.0000 0.11568  0.96558  0.17179  Biso   1.000  C
  C260     1.0000 0.36571  0.86761  0.52215  Biso   1.000  C
  C261     1.0000 0.02871  0.62530  0.42108  Biso   1.000  C
  C262     1.0000 0.61600  0.97295  0.37097  Biso   1.000  C
  C263     1.0000 0.86138  0.88355  0.03639  Biso   1.000  C
  C264     1.0000 0.52164  0.63574  0.14048  Biso   1.000  C
  C265     1.0000 0.02888  0.08460  0.87661  Biso   1.000  C
  C266     1.0000 0.86266  0.99284  0.12901  Biso   1.000  C
  C267     1.0000 0.11664  0.82336  0.01666  Biso   1.000  C
  C268     1.0000 0.50462  0.07591  0.67495  Biso   1.000  C
  C269     1.0000 0.35779  0.97194  0.42206  Biso   1.000  C
  C270     1.0000 0.62104  0.82247  0.53254  Biso   1.000  C
  C271     1.0000 0.50683  0.58046  0.87882  Biso   1.000  C
  C272     1.0000 0.66631  0.47847  0.12692  Biso   1.000  C
  C273     1.0000 0.41586  0.31587  0.03109  Biso   1.000  C
  C274     1.0000 0.02306  0.57742  0.68011  Biso   1.000  C
  C275     1.0000 0.16995  0.45425  0.41988  Biso   1.000  C
  C276     1.0000 0.90747  0.32151  0.52399  Biso   1.000  C
  C277     1.0000 0.01764  0.87130  0.17867  Biso   1.000  C
  C278     1.0000 0.17166  0.97413  0.92352  Biso   1.000  C
  C279     1.0000 0.92059  0.13639  0.03899  Biso   1.000  C
  C280     1.0000 0.51114  0.87751  0.37900  Biso   1.000  C
  C281     1.0000 0.67107  0.97028  0.62866  Biso   1.000  C
  C282     1.0000 0.40584  0.12326  0.51060  Biso   1.000  C
  C283     1.0000 0.52282  0.37668  0.17724  Biso   1.000  C
  C284     1.0000 0.36410  0.46698  0.92687  Biso   1.000  C
  C285     1.0000 0.61585  0.63930  0.02905  Biso   1.000  C
  C286     1.0000 0.99094  0.37492  0.36848  Biso   1.000  C
  C287     1.0000 0.86484  0.47673  0.62627  Biso   1.000  C
  C288     1.0000 0.12384  0.62758  0.51777  Biso   1.000  C
  C289     1.0000 0.36458  0.83704  0.52332  Biso   1.000  C
  C290     1.0000 0.51398  0.32164  0.88827  Biso   1.000  C
  C291     1.0000 0.88235  0.48279  0.36767  Biso   1.000  C
  C292     1.0000 0.85780  0.85183  0.03346  Biso   1.000  C
  C293     1.0000 0.00778  0.31990  0.66175  Biso   1.000  C
  C294     1.0000 0.38155  0.47117  0.18951  Biso   1.000  C
  C295     1.0000 0.16647  0.33874  0.52739  Biso   1.000  C
  C296     1.0000 0.01107  0.83169  0.88399  Biso   1.000  C
  C297     1.0000 0.64745  0.97452  0.36884  Biso   1.000  C
  C298     1.0000 0.67052  0.34677  0.03395  Biso   1.000  C
  C299     1.0000 0.51270  0.82160  0.66840  Biso   1.000  C
  C300     1.0000 0.14691  0.96436  0.17443  Biso   1.000  C
  C301     1.0000 0.66786  0.11103  0.52610  Biso   1.000  C
  C302     1.0000 0.52170  0.63437  0.17200  Biso   1.000  C
  C303     1.0000 0.15548  0.47662  0.67876  Biso   1.000  C
  C304     1.0000 0.17355  0.10234  0.03061  Biso   1.000  C
  C305     1.0000 0.03270  0.62473  0.38955  Biso   1.000  C
  C306     1.0000 0.65214  0.47710  0.86370  Biso   1.000  C
  C307     1.0000 0.86489  0.61522  0.51450  Biso   1.000  C
  C308     1.0000 0.02015  0.12901  0.16308  Biso   1.000  C
  C309     1.0000 0.38368  0.98445  0.68037  Biso   1.000  C
  C310     1.0000 0.36144  0.60578  0.03273  Biso   1.000  C
  C311     1.0000 0.52964  0.12939  0.38578  Biso   1.000  C
  C312     1.0000 0.88494  0.98318  0.87508  Biso   1.000  C
  C313     1.0000 0.16809  0.44704  0.38970  Biso   1.000  C
  C314     1.0000 0.37431  0.12254  0.51040  Biso   1.000  C
  C315     1.0000 0.52361  0.34505  0.17823  Biso   1.000  C
  C316     1.0000 0.66735  0.47822  0.15867  Biso   1.000  C
  C317     1.0000 0.88917  0.13691  0.03396  Biso   1.000  C
  C318     1.0000 0.99424  0.34132  0.37095  Biso   1.000  C
  C319     1.0000 0.35582  0.97015  0.39095  Biso   1.000  C
  C320     1.0000 0.15500  0.62811  0.51588  Biso   1.000  C
  C321     1.0000 0.01891  0.83916  0.17804  Biso   1.000  C
  C322     1.0000 0.85887  0.98844  0.16058  Biso   1.000  C
  C323     1.0000 0.64735  0.64072  0.02601  Biso   1.000  C
  C324     1.0000 0.51443  0.84536  0.37943  Biso   1.000  C
  C325     1.0000 0.86342  0.47400  0.65792  Biso   1.000  C
  C326     1.0000 0.65281  0.82285  0.52742  Biso   1.000  C
  C327     1.0000 0.50465  0.61160  0.87992  Biso   1.000  C
  C328     1.0000 0.36303  0.46228  0.89533  Biso   1.000  C
  C329     1.0000 0.14732  0.81876  0.01615  Biso   1.000  C
  C330     1.0000 0.01879  0.60773  0.68034  Biso   1.000  C
  C331     1.0000 0.67193  0.96875  0.65944  Biso   1.000  C
  C332     1.0000 0.87687  0.32229  0.52107  Biso   1.000  C
  C333     1.0000 0.02925  0.11621  0.87727  Biso   1.000  C
  C334     1.0000 0.17294  0.97817  0.89108  Biso   1.000  C
  C335     1.0000 0.38507  0.31552  0.03506  Biso   1.000  C
  C336     1.0000 0.50172  0.10710  0.67491  Biso   1.000  C
  C337     1.0000 0.67388  0.47555  0.88531  Biso   1.000  C
  C338     1.0000 0.88753  0.63589  0.51551  Biso   1.000  C
  C339     1.0000 0.51189  0.84360  0.69030  Biso   1.000  C
  C340     1.0000 0.17608  0.47303  0.65714  Biso   1.000  C
  C341     1.0000 0.38144  0.62789  0.03691  Biso   1.000  C
  C342     1.0000 0.01044  0.85343  0.86267  Biso   1.000  C
  C343     1.0000 0.86233  0.98179  0.89703  Biso   1.000  C
  C344     1.0000 0.64453  0.13112  0.52575  Biso   1.000  C
  C345     1.0000 0.01224  0.34227  0.68270  Biso   1.000  C
  C346     1.0000 0.36192  0.98242  0.65922  Biso   1.000  C
  C347     1.0000 0.15187  0.12467  0.02713  Biso   1.000  C
  C348     1.0000 0.51516  0.34431  0.86754  Biso   1.000  C
  C349     1.0000 0.36218  0.47335  0.16616  Biso   1.000  C
  C350     1.0000 0.14269  0.31981  0.53305  Biso   1.000  C
  C351     1.0000 0.52672  0.10831  0.36393  Biso   1.000  C
  C352     1.0000 0.86087  0.48123  0.38982  Biso   1.000  C
  C353     1.0000 0.64968  0.32498  0.03106  Biso   1.000  C
  C354     1.0000 0.01839  0.10732  0.18380  Biso   1.000  C
  C355     1.0000 0.17049  0.95923  0.15567  Biso   1.000  C
  C356     1.0000 0.38622  0.81545  0.52599  Biso   1.000  C
  C357     1.0000 0.03669  0.60316  0.36905  Biso   1.000  C
  C358     1.0000 0.66811  0.97662  0.39160  Biso   1.000  C
  C359     1.0000 0.87952  0.83132  0.03157  Biso   1.000  C
  C360     1.0000 0.51623  0.61208  0.19122  Biso   1.000  C
  C361     1.0000 0.02611  0.13751  0.89890  Biso   1.000  C
  C362     1.0000 0.87994  0.98377  0.18187  Biso   1.000  C
  C363     1.0000 0.16878  0.83870  0.01484  Biso   1.000  C
  C364     1.0000 0.49441  0.12859  0.65317  Biso   1.000  C
  C365     1.0000 0.37684  0.97379  0.36996  Biso   1.000  C
  C366     1.0000 0.67185  0.84510  0.52279  Biso   1.000  C
  C367     1.0000 0.50441  0.63243  0.90179  Biso   1.000  C
  C368     1.0000 0.64619  0.47935  0.18087  Biso   1.000  C
  C369     1.0000 0.36253  0.33843  0.03727  Biso   1.000  C
  C370     1.0000 0.01762  0.62976  0.65978  Biso   1.000  C
  C371     1.0000 0.14527  0.44827  0.36938  Biso   1.000  C
  C372     1.0000 0.85742  0.34523  0.52111  Biso   1.000  C
  C373     1.0000 0.01922  0.81839  0.15538  Biso   1.000  C
  C374     1.0000 0.15107  0.97790  0.86922  Biso   1.000  C
  C375     1.0000 0.86761  0.11667  0.02744  Biso   1.000  C
  C376     1.0000 0.51615  0.82583  0.40222  Biso   1.000  C
  C377     1.0000 0.65068  0.97035  0.68144  Biso   1.000  C
  C378     1.0000 0.35388  0.10079  0.51131  Biso   1.000  C
  C379     1.0000 0.52424  0.32322  0.15695  Biso   1.000  C
  C380     1.0000 0.38549  0.46241  0.87332  Biso   1.000  C
  C381     1.0000 0.66839  0.61899  0.02441  Biso   1.000  C
  C382     1.0000 0.99749  0.32174  0.39395  Biso   1.000  C
  C383     1.0000 0.88499  0.47452  0.67969  Biso   1.000  C
  C384     1.0000 0.17589  0.60487  0.51616  Biso   1.000  C
  C385     1.0000 0.20072  0.11723  0.03136  Biso   1.000  C
  C386     1.0000 0.01629  0.15598  0.17963  Biso   1.000  C
  C387     1.0000 0.16093  0.96918  0.20201  Biso   1.000  C
  C388     1.0000 0.69325  0.12917  0.52641  Biso   1.000  C
  C389     1.0000 0.53164  0.15707  0.37023  Biso   1.000  C
  C390     1.0000 0.66318  0.97407  0.34258  Biso   1.000  C
  C391     1.0000 0.33393  0.61917  0.02770  Biso   1.000  C
  C392     1.0000 0.52247  0.65990  0.18872  Biso   1.000  C
  C393     1.0000 0.36451  0.46697  0.21523  Biso   1.000  C
  C394     1.0000 0.83975  0.63186  0.50814  Biso   1.000  C
  C395     1.0000 0.03336  0.65077  0.37366  Biso   1.000  C
  C396     1.0000 0.86687  0.47925  0.34028  Biso   1.000  C
  C397     1.0000 0.83011  0.83615  0.03418  Biso   1.000  C
  C398     1.0000 0.01421  0.80654  0.86738  Biso   1.000  C
  C399     1.0000 0.86887  0.98297  0.84825  Biso   1.000  C
  C400     1.0000 0.33764  0.82227  0.52176  Biso   1.000  C
  C401     1.0000 0.51279  0.79459  0.68467  Biso   1.000  C
  C402     1.0000 0.36859  0.99271  0.70632  Biso   1.000  C
  C403     1.0000 0.69793  0.33033  0.03668  Biso   1.000  C
  C404     1.0000 0.51091  0.29595  0.87201  Biso   1.000  C
  C405     1.0000 0.66683  0.46922  0.83713  Biso   1.000  C
  C406     1.0000 0.19166  0.32063  0.52472  Biso   1.000  C
  C407     1.0000 0.00870  0.29185  0.67797  Biso   1.000  C
  C408     1.0000 0.17214  0.47613  0.70656  Biso   1.000  C
  C409     1.0000 0.16742  0.98464  0.84322  Biso   1.000  C
  C410     1.0000 0.84100  0.13301  0.02406  Biso   1.000  C
  C411     1.0000 0.02247  0.78989  0.17056  Biso   1.000  C
  C412     1.0000 0.66531  0.96912  0.70834  Biso   1.000  C
  C413     1.0000 0.32592  0.11586  0.51034  Biso   1.000  C
  C414     1.0000 0.51795  0.79853  0.38790  Biso   1.000  C
  C415     1.0000 0.37028  0.45862  0.84558  Biso   1.000  C
  C416     1.0000 0.69518  0.63354  0.01965  Biso   1.000  C
  C417     1.0000 0.52883  0.29650  0.17271  Biso   1.000  C
  C418     1.0000 0.87073  0.46805  0.70617  Biso   1.000  C
  C419     1.0000 0.20382  0.61952  0.51646  Biso   1.000  C
  C420     1.0000 0.00258  0.29367  0.37862  Biso   1.000  C
  C421     1.0000 0.86384  0.97995  0.20974  Biso   1.000  C
  C422     1.0000 0.19552  0.82232  0.01249  Biso   1.000  C
  C423     1.0000 0.02472  0.16390  0.88397  Biso   1.000  C
  C424     1.0000 0.36203  0.97307  0.34349  Biso   1.000  C
  C425     1.0000 0.69760  0.83063  0.51731  Biso   1.000  C
  C426     1.0000 0.49035  0.15513  0.66829  Biso   1.000  C
  C427     1.0000 0.66237  0.48324  0.20683  Biso   1.000  C
  C428     1.0000 0.33605  0.32146  0.03690  Biso   1.000  C
  C429     1.0000 0.50094  0.65967  0.88705  Biso   1.000  C
  C430     1.0000 0.15949  0.44003  0.34228  Biso   1.000  C
  C431     1.0000 0.82895  0.33088  0.51881  Biso   1.000  C
  C432     1.0000 0.01414  0.65552  0.67605  Biso   1.000  C
  C433     1.0000 0.02851  0.13250  0.85010  Biso   1.000  C
  C434     1.0000 0.82997  0.98807  0.17616  Biso   1.000  C
  C435     1.0000 0.16160  0.79212  0.01426  Biso   1.000  C
  C436     1.0000 0.50035  0.12378  0.70175  Biso   1.000  C
  C437     1.0000 0.32937  0.96653  0.37504  Biso   1.000  C
  C438     1.0000 0.66783  0.79675  0.52289  Biso   1.000  C
  C439     1.0000 0.50076  0.62736  0.85237  Biso   1.000  C
  C440     1.0000 0.69451  0.47767  0.17296  Biso   1.000  C
  C441     1.0000 0.36996  0.28843  0.03390  Biso   1.000  C
  C442     1.0000 0.01686  0.62276  0.70835  Biso   1.000  C
  C443     1.0000 0.19358  0.43945  0.37330  Biso   1.000  C
  C444     1.0000 0.85900  0.29547  0.51836  Biso   1.000  C
  C445     1.0000 0.01938  0.82221  0.20430  Biso   1.000  C
  C446     1.0000 0.19911  0.98364  0.87613  Biso   1.000  C
  C447     1.0000 0.87469  0.16382  0.03309  Biso   1.000  C
  C448     1.0000 0.51353  0.82851  0.35307  Biso   1.000  C
  C449     1.0000 0.69830  0.96681  0.67535  Biso   1.000  C
  C450     1.0000 0.35792  0.14960  0.51095  Biso   1.000  C
  C451     1.0000 0.52588  0.33036  0.20512  Biso   1.000  C
  C452     1.0000 0.33675  0.45777  0.87887  Biso   1.000  C
  C453     1.0000 0.66334  0.66771  0.02278  Biso   1.000  C
  C454     1.0000 0.99648  0.32554  0.34440  Biso   1.000  C
  C455     1.0000 0.83770  0.46530  0.67364  Biso   1.000  C
  C456     1.0000 0.17120  0.65463  0.51557  Biso   1.000  C
  C457     1.0000 0.03852  0.61814  0.34040  Biso   1.000  C
  C458     1.0000 0.33587  0.98736  0.67570  Biso   1.000  C
  C459     1.0000 0.66450  0.29803  0.03394  Biso   1.000  C
  C460     1.0000 0.51221  0.62647  0.21904  Biso   1.000  C
  C461     1.0000 0.83542  0.97957  0.88080  Biso   1.000  C
  C462     1.0000 0.15795  0.29196  0.53480  Biso   1.000  C
  C463     1.0000 0.52445  0.12438  0.33652  Biso   1.000  C
  C464     1.0000 0.20361  0.47200  0.67233  Biso   1.000  C
  C465     1.0000 0.86534  0.80490  0.02960  Biso   1.000  C
  C466     1.0000 0.01009  0.12192  0.20869  Biso   1.000  C
  C467     1.0000 0.70007  0.46811  0.87041  Biso   1.000  C
  C468     1.0000 0.37082  0.78922  0.52832  Biso   1.000  C
  C469     1.0000 0.01428  0.32736  0.71000  Biso   1.000  C
  C470     1.0000 0.69528  0.97536  0.37672  Biso   1.000  C
  C471     1.0000 0.36347  0.65396  0.03208  Biso   1.000  C
  C472     1.0000 0.51271  0.32941  0.84050  Biso   1.000  C
  C473     1.0000 0.19520  0.96220  0.17262  Biso   1.000  C
  C474     1.0000 0.87324  0.66311  0.51204  Biso   1.000  C
  C475     1.0000 0.51265  0.82768  0.71737  Biso   1.000  C
  C476     1.0000 0.83424  0.47893  0.37384  Biso   1.000  C
  C477     1.0000 0.16886  0.15016  0.02533  Biso   1.000  C
  C478     1.0000 0.01019  0.83863  0.83547  Biso   1.000  C
  C479     1.0000 0.33528  0.47081  0.18040  Biso   1.000  C
  C480     1.0000 0.65814  0.15885  0.52839  Biso   1.000  C
  C481     1.0000 0.38598  0.76394  0.53619  Biso   1.000  C
  C482     1.0000 0.51006  0.34530  0.81187  Biso   1.000  C
  C483     1.0000 0.80732  0.47538  0.38944  Biso   1.000  C
  C484     1.0000 0.88197  0.77830  0.02411  Biso   1.000  C
  C485     1.0000 0.01743  0.34501  0.73637  Biso   1.000  C
  C486     1.0000 0.30819  0.47374  0.16448  Biso   1.000  C
  C487     1.0000 0.14066  0.26653  0.54271  Biso   1.000  C
  C488     1.0000 0.00877  0.85432  0.80830  Biso   1.000  C
  C489     1.0000 0.72224  0.97874  0.39387  Biso   1.000  C
  C490     1.0000 0.64933  0.27142  0.03431  Biso   1.000  C
  C491     1.0000 0.51314  0.84260  0.74447  Biso   1.000  C
  C492     1.0000 0.22274  0.95720  0.15730  Biso   1.000  C
  C493     1.0000 0.64199  0.18534  0.53198  Biso   1.000  C
  C494     1.0000 0.50549  0.61019  0.24503  Biso   1.000  C
  C495     1.0000 0.23072  0.46986  0.65606  Biso   1.000  C
  C496     1.0000 0.15540  0.17880  0.02299  Biso   1.000  C
  C497     1.0000 0.04288  0.60193  0.31349  Biso   1.000  C
  C498     1.0000 0.72665  0.46346  0.88943  Biso   1.000  C
  C499     1.0000 0.89122  0.68806  0.51197  Biso   1.000  C
  C500     1.0000 0.00194  0.10539  0.23396  Biso   1.000  C
  C501     1.0000 0.30623  0.98768  0.65985  Biso   1.000  C
  C502     1.0000 0.38024  0.68009  0.03299  Biso   1.000  C
  C503     1.0000 0.51665  0.10791  0.31000  Biso   1.000  C
  C504     1.0000 0.80960  0.97401  0.89721  Biso   1.000  C
  C505     1.0000 0.64899  0.46789  0.81039  Biso   1.000  C
  C506     1.0000 0.81326  0.61567  0.49979  Biso   1.000  C
  C507     1.0000 0.51117  0.76694  0.66886  Biso   1.000  C
  C508     1.0000 0.15462  0.47992  0.73425  Biso   1.000  C
  C509     1.0000 0.30832  0.60328  0.02278  Biso   1.000  C
  C510     1.0000 0.01400  0.77924  0.88304  Biso   1.000  C
  C511     1.0000 0.88561  0.98668  0.82148  Biso   1.000  C
  C512     1.0000 0.72189  0.11602  0.52531  Biso   1.000  C
  C513     1.0000 0.00795  0.26579  0.66032  Biso   1.000  C
  C514     1.0000 0.38391  0.99854  0.73244  Biso   1.000  C
  C515     1.0000 0.22725  0.09997  0.03513  Biso   1.000  C
  C516     1.0000 0.51047  0.26985  0.88798  Biso   1.000  C
  C517     1.0000 0.38021  0.46240  0.24216  Biso   1.000  C
  C518     1.0000 0.21969  0.33268  0.51715  Biso   1.000  C
  C519     1.0000 0.53512  0.18275  0.38844  Biso   1.000  C
  C520     1.0000 0.88178  0.48226  0.31224  Biso   1.000  C
  C521     1.0000 0.72426  0.34742  0.03388  Biso   1.000  C
  C522     1.0000 0.02284  0.18463  0.16771  Biso   1.000  C
  C523     1.0000 0.14478  0.98110  0.22671  Biso   1.000  C
  C524     1.0000 0.31011  0.83792  0.51846  Biso   1.000  C
  C525     1.0000 0.02879  0.67922  0.38899  Biso   1.000  C
  C526     1.0000 0.64637  0.97123  0.31509  Biso   1.000  C
  C527     1.0000 0.80393  0.85445  0.03907  Biso   1.000  C
  C528     1.0000 0.52539  0.68820  0.17296  Biso   1.000  C
  C529     1.0000 0.81335  0.11900  0.01848  Biso   1.000  C
  C530     1.0000 0.02651  0.76544  0.15195  Biso   1.000  C
  C531     1.0000 0.15308  0.99032  0.81702  Biso   1.000  C
  C532     1.0000 0.29954  0.09923  0.50977  Biso   1.000  C
  C533     1.0000 0.51922  0.77233  0.40492  Biso   1.000  C
  C534     1.0000 0.64891  0.97215  0.73444  Biso   1.000  C
  C535     1.0000 0.72425  0.61721  0.01564  Biso   1.000  C
  C536     1.0000 0.52985  0.26831  0.15627  Biso   1.000  C
  C537     1.0000 0.38619  0.46101  0.81653  Biso   1.000  C
  C538     1.0000 0.22913  0.60167  0.51442  Biso   1.000  C
  C539     1.0000 0.00992  0.26682  0.39601  Biso   1.000  C
  C540     1.0000 0.88757  0.46960  0.73451  Biso   1.000  C
  C541     1.0000 0.22233  0.83689  0.00823  Biso   1.000  C
  C542     1.0000 0.02454  0.19149  0.90061  Biso   1.000  C
  C543     1.0000 0.87879  0.97206  0.23581  Biso   1.000  C
  C544     1.0000 0.72243  0.84680  0.51003  Biso   1.000  C
  C545     1.0000 0.48651  0.18270  0.65356  Biso   1.000  C
  C546     1.0000 0.37799  0.97782  0.31633  Biso   1.000  C
  C547     1.0000 0.30812  0.33708  0.03756  Biso   1.000  C
  C548     1.0000 0.50371  0.68659  0.90518  Biso   1.000  C
  C549     1.0000 0.64716  0.48935  0.23373  Biso   1.000  C
  C550     1.0000 0.80313  0.34929  0.51834  Biso   1.000  C
  C551     1.0000 0.01444  0.68242  0.65915  Biso   1.000  C
  C552     1.0000 0.14224  0.43871  0.31542  Biso   1.000  C
  C553     1.0000 0.02780  0.11753  0.82106  Biso   1.000  C
  C554     1.0000 0.80339  0.99180  0.15624  Biso   1.000  C
  C555     1.0000 0.14293  0.76554  0.01211  Biso   1.000  C
  C556     1.0000 0.50579  0.10877  0.72920  Biso   1.000  C
  C557     1.0000 0.30306  0.96561  0.39141  Biso   1.000  C
  C558     1.0000 0.65233  0.76838  0.52540  Biso   1.000  C
  C559     1.0000 0.49705  0.61284  0.82384  Biso   1.000  C
  C560     1.0000 0.72264  0.47484  0.15583  Biso   1.000  C
  C561     1.0000 0.38670  0.26186  0.03126  Biso   1.000  C
  C562     1.0000 0.01656  0.60618  0.73615  Biso   1.000  C
  C563     1.0000 0.22141  0.43335  0.38888  Biso   1.000  C
  C564     1.0000 0.87284  0.26814  0.51886  Biso   1.000  C
  C565     1.0000 0.01385  0.83467  0.23248  Biso   1.000  C
  C566     1.0000 0.22647  0.98186  0.89229  Biso   1.000  C
  C567     1.0000 0.89079  0.19135  0.03889  Biso   1.000  C
  C568     1.0000 0.50997  0.84287  0.32456  Biso   1.000  C
  C569     1.0000 0.72576  0.96695  0.65911  Biso   1.000  C
  C570     1.0000 0.37273  0.17655  0.51344  Biso   1.000  C
  C571     1.0000 0.52554  0.34466  0.23306  Biso   1.000  C
  C572     1.0000 0.30935  0.45624  0.89469  Biso   1.000  C
  C573     1.0000 0.64662  0.69436  0.02679  Biso   1.000  C
  C574     1.0000 0.99324  0.33890  0.31621  Biso   1.000  C
  C575     1.0000 0.81092  0.45981  0.65719  Biso   1.000  C
  C576     1.0000 0.15545  0.68222  0.51685  Biso   1.000  C
  C577     1.0000 0.31013  0.47769  0.13325  Biso   1.000  C
  C578     1.0000 0.10934  0.26950  0.54698  Biso   1.000  C
  C579     1.0000 0.51438  0.07700  0.31081  Biso   1.000  C
  C580     1.0000 0.80725  0.47558  0.42024  Biso   1.000  C
  C581     1.0000 0.61935  0.27196  0.02642  Biso   1.000  C
  C582     1.0000 0.00582  0.07360  0.23471  Biso   1.000  C
  C583     1.0000 0.22397  0.94904  0.12627  Biso   1.000  C
  C584     1.0000 0.41791  0.76529  0.53797  Biso   1.000  C
  C585     1.0000 0.04049  0.57037  0.31643  Biso   1.000  C
  C586     1.0000 0.72158  0.97729  0.42475  Biso   1.000  C
  C587     1.0000 0.91242  0.77812  0.02015  Biso   1.000  C
  C588     1.0000 0.50406  0.57876  0.24336  Biso   1.000  C
  C589     1.0000 0.72342  0.46592  0.92113  Biso   1.000  C
  C590     1.0000 0.92232  0.68479  0.51471  Biso   1.000  C
  C591     1.0000 0.51832  0.87389  0.74462  Biso   1.000  C
  C592     1.0000 0.22774  0.46851  0.62405  Biso   1.000  C
  C593     1.0000 0.41138  0.68118  0.03911  Biso   1.000  C
  C594     1.0000 0.00670  0.88506  0.80956  Biso   1.000  C
  C595     1.0000 0.80886  0.97207  0.92881  Biso   1.000  C
  C596     1.0000 0.60977  0.18447  0.53047  Biso   1.000  C
  C597     1.0000 0.01718  0.37604  0.73433  Biso   1.000  C
  C598     1.0000 0.30546  0.98285  0.62819  Biso   1.000  C
  C599     1.0000 0.12426  0.18022  0.02384  Biso   1.000  C
  C600     1.0000 0.51078  0.37613  0.81449  Biso   1.000  C
  C601     1.0000 0.22587  0.97889  0.92278  Biso   1.000  C
  C602     1.0000 0.92178  0.19054  0.04229  Biso   1.000  C
  C603     1.0000 0.01466  0.86551  0.23399  Biso   1.000  C
  C604     1.0000 0.72626  0.96754  0.62789  Biso   1.000  C
  C605     1.0000 0.40315  0.17750  0.51461  Biso   1.000  C
  C606     1.0000 0.50782  0.87506  0.32422  Biso   1.000  C
  C607     1.0000 0.31004  0.46027  0.92570  Biso   1.000  C
  C608     1.0000 0.61510  0.69474  0.03036  Biso   1.000  C
  C609     1.0000 0.52586  0.37530  0.23314  Biso   1.000  C
  C610     1.0000 0.81031  0.46696  0.62593  Biso   1.000  C
  C611     1.0000 0.12376  0.68108  0.51535  Biso   1.000  C
  C612     1.0000 0.99034  0.37014  0.31502  Biso   1.000  C
  C613     1.0000 0.80714  0.99527  0.12455  Biso   1.000  C
  C614     1.0000 0.11154  0.76896  0.01295  Biso   1.000  C
  C615     1.0000 0.02816  0.08557  0.82028  Biso   1.000  C
  C616     1.0000 0.30321  0.96469  0.42314  Biso   1.000  C
  C617     1.0000 0.61999  0.76802  0.52723  Biso   1.000  C
  C618     1.0000 0.51017  0.07828  0.73114  Biso   1.000  C
  C619     1.0000 0.72198  0.47468  0.12279  Biso   1.000  C
  C620     1.0000 0.41866  0.26207  0.02989  Biso   1.000  C
  C621     1.0000 0.50357  0.58200  0.82176  Biso   1.000  C
  C622     1.0000 0.22250  0.43864  0.41949  Biso   1.000  C
  C623     1.0000 0.90524  0.26664  0.51800  Biso   1.000  C
  C624     1.0000 0.01859  0.57535  0.73582  Biso   1.000  C
  C625     1.0000 0.02309  0.19006  0.93182  Biso   1.000  C
  C626     1.0000 0.91145  0.97024  0.23440  Biso   1.000  C
  C627     1.0000 0.22471  0.86795  0.00793  Biso   1.000  C
  C628     1.0000 0.48466  0.18007  0.62348  Biso   1.000  C
  C629     1.0000 0.40880  0.98273  0.31794  Biso   1.000  C
  C630     1.0000 0.72426  0.87723  0.51255  Biso   1.000  C
  C631     1.0000 0.50679  0.68428  0.93602  Biso   1.000  C
  C632     1.0000 0.61689  0.49190  0.23473  Biso   1.000  C
  C633     1.0000 0.30696  0.36806  0.03941  Biso   1.000  C
  C634     1.0000 0.01613  0.68057  0.62719  Biso   1.000  C
  C635     1.0000 0.11071  0.44524  0.31562  Biso   1.000  C
  C636     1.0000 0.80440  0.37931  0.51843  Biso   1.000  C
  C637     1.0000 0.02245  0.76721  0.12044  Biso   1.000  C
  C638     1.0000 0.12162  0.98545  0.81507  Biso   1.000  C
  C639     1.0000 0.81382  0.08705  0.01595  Biso   1.000  C
  C640     1.0000 0.51781  0.77421  0.43655  Biso   1.000  C
  C641     1.0000 0.61767  0.97705  0.73271  Biso   1.000  C
  C642     1.0000 0.30111  0.06694  0.51198  Biso   1.000  C
  C643     1.0000 0.52922  0.26798  0.12556  Biso   1.000  C
  C644     1.0000 0.41644  0.46939  0.81638  Biso   1.000  C
  C645     1.0000 0.72339  0.58425  0.01765  Biso   1.000  C
  C646     1.0000 0.01059  0.26899  0.42653  Biso   1.000  C
  C647     1.0000 0.91958  0.47464  0.73316  Biso   1.000  C
  C648     1.0000 0.22535  0.57039  0.51266  Biso   1.000  C
  C649     1.0000 0.02682  0.67919  0.42049  Biso   1.000  C
  C650     1.0000 0.41449  0.99322  0.73438  Biso   1.000  C
  C651     1.0000 0.72330  0.37929  0.03093  Biso   1.000  C
  C652     1.0000 0.52915  0.68937  0.14175  Biso   1.000  C
  C653     1.0000 0.91727  0.98794  0.82085  Biso   1.000  C
  C654     1.0000 0.22383  0.36336  0.51806  Biso   1.000  C
  C655     1.0000 0.53297  0.18043  0.42059  Biso   1.000  C
  C656     1.0000 0.12446  0.47960  0.73385  Biso   1.000  C
  C657     1.0000 0.80662  0.88622  0.04061  Biso   1.000  C
  C658     1.0000 0.02910  0.18562  0.13735  Biso   1.000  C
  C659     1.0000 0.61873  0.47388  0.81127  Biso   1.000  C
  C660     1.0000 0.31031  0.86951  0.51388  Biso   1.000  C
  C661     1.0000 0.00790  0.26717  0.62875  Biso   1.000  C
  C662     1.0000 0.61431  0.97073  0.31590  Biso   1.000  C
  C663     1.0000 0.31043  0.57158  0.02199  Biso   1.000  C
  C664     1.0000 0.51285  0.26933  0.92054  Biso   1.000  C
  C665     1.0000 0.11307  0.98070  0.22441  Biso   1.000  C
  C666     1.0000 0.81183  0.58512  0.50374  Biso   1.000  C
  C667     1.0000 0.51363  0.76651  0.63783  Biso   1.000  C
  C668     1.0000 0.91214  0.48265  0.31329  Biso   1.000  C
  C669     1.0000 0.22750  0.06967  0.03382  Biso   1.000  C
  C670     1.0000 0.00845  0.77771  0.91396  Biso   1.000  C
  C671     1.0000 0.41214  0.46276  0.24133  Biso   1.000  C
  C672     1.0000 0.72400  0.08504  0.52416  Biso   1.000  C
  C673     1.0000 0.21545  0.98668  0.82965  Biso   1.000  C
  C674     1.0000 0.82730  0.17841  0.03044  Biso   1.000  C
  C675     1.0000 0.02530  0.77545  0.21726  Biso   1.000  C
  C676     1.0000 0.71307  0.97023  0.72189  Biso   1.000  C
  C677     1.0000 0.30933  0.15998  0.51260  Biso   1.000  C
  C678     1.0000 0.51584  0.78242  0.34100  Biso   1.000  C
  C679     1.0000 0.32201  0.45985  0.83268  Biso   1.000  C
  C680     1.0000 0.71141  0.67964  0.02065  Biso   1.000  C
  C681     1.0000 0.52793  0.28306  0.21767  Biso   1.000  C
  C682     1.0000 0.82492  0.45945  0.72019  Biso   1.000  C
  C683     1.0000 0.21783  0.66668  0.51762  Biso   1.000  C
  C684     1.0000 0.00425  0.27845  0.33280  Biso   1.000  C
  C685     1.0000 0.81805  0.97942  0.22394  Biso   1.000  C
  C686     1.0000 0.20608  0.77372  0.01370  Biso   1.000  C
  C687     1.0000 0.02617  0.17895  0.83832  Biso   1.000  C
  C688     1.0000 0.31483  0.96996  0.32905  Biso   1.000  C
  C689     1.0000 0.71442  0.78460  0.51275  Biso   1.000  C
  C690     1.0000 0.49450  0.16859  0.71551  Biso   1.000  C
  C691     1.0000 0.70988  0.47773  0.21968  Biso   1.000  C
  C692     1.0000 0.32212  0.27709  0.03610  Biso   1.000  C
  C693     1.0000 0.49897  0.67565  0.84100  Biso   1.000  C
  C694     1.0000 0.20622  0.43458  0.32549  Biso   1.000  C
  C695     1.0000 0.81174  0.28529  0.51439  Biso   1.000  C
  C696     1.0000 0.01303  0.67073  0.72261  Biso   1.000  C
  C697     1.0000 0.71002  0.97249  0.33001  Biso   1.000  C
  C698     1.0000 0.31530  0.66576  0.02732  Biso   1.000  C
  C699     1.0000 0.01667  0.28175  0.72552  Biso   1.000  C
  C700     1.0000 0.20661  0.97169  0.21992  Biso   1.000  C
  C701     1.0000 0.82635  0.67903  0.50291  Biso   1.000  C
  C702     1.0000 0.50862  0.28316  0.82481  Biso   1.000  C
  C703     1.0000 0.82091  0.47519  0.32813  Biso   1.000  C
  C704     1.0000 0.21461  0.16286  0.02592  Biso   1.000  C
  C705     1.0000 0.50945  0.78129  0.73126  Biso   1.000  C
  C706     1.0000 0.31607  0.46183  0.22551  Biso   1.000  C
  C707     1.0000 0.70424  0.17647  0.52656  Biso   1.000  C
  C708     1.0000 0.01852  0.79110  0.82050  Biso   1.000  C
  C709     1.0000 0.32139  0.99246  0.72308  Biso   1.000  C
  C710     1.0000 0.71024  0.28358  0.03819  Biso   1.000  C
  C711     1.0000 0.03753  0.66351  0.32478  Biso   1.000  C
  C712     1.0000 0.82195  0.97898  0.83355  Biso   1.000  C
  C713     1.0000 0.20367  0.27158  0.52707  Biso   1.000  C
  C714     1.0000 0.51660  0.67294  0.23512  Biso   1.000  C
  C715     1.0000 0.21736  0.47351  0.72074  Biso   1.000  C
  C716     1.0000 0.81961  0.78870  0.03560  Biso   1.000  C
  C717     1.0000 0.52721  0.17044  0.32386  Biso   1.000  C
  C718     1.0000 0.71330  0.45851  0.82504  Biso   1.000  C
  C719     1.0000 0.32512  0.77430  0.52714  Biso   1.000  C
  C720     1.0000 0.00942  0.16742  0.22614  Biso   1.000  C
  C721     1.0000 0.53053  0.78700  0.31213  Biso   1.000  C
  C722     1.0000 0.32147  0.48463  0.81247  Biso   1.000  C
  C723     1.0000 0.78579  0.28835  0.53074  Biso   1.000  C
  C724     1.0000 0.01053  0.74795  0.21439  Biso   1.000  C
  C725     1.0000 0.79686  0.47189  0.71695  Biso   1.000  C
  C726     1.0000 0.29674  0.27667  0.01536  Biso   1.000  C
  C727     1.0000 0.99103  0.24981  0.33719  Biso   1.000  C
  C728     1.0000 0.24230  0.00269  0.83472  Biso   1.000  C
  C729     1.0000 0.74444  0.78943  0.52333  Biso   1.000  C
  C730     1.0000 0.50582  0.28132  0.24103  Biso   1.000  C
  C731     1.0000 0.73992  0.95459  0.72025  Biso   1.000  C
  C732     1.0000 0.23289  0.77428  0.99715  Biso   1.000  C
  C733     1.0000 0.48104  0.16855  0.74409  Biso   1.000  C
  C734     1.0000 0.70671  0.46258  0.24754  Biso   1.000  C
  C735     1.0000 0.21330  0.69499  0.50395  Biso   1.000  C
  C736     1.0000 0.01110  0.20582  0.84341  Biso   1.000  C
  C737     1.0000 0.23153  0.41604  0.32668  Biso   1.000  C
  C738     1.0000 0.73800  0.67331  0.03640  Biso   1.000  C
  C739     1.0000 0.03205  0.66939  0.74880  Biso   1.000  C
  C740     1.0000 0.78887  0.96638  0.21578  Biso   1.000  C
  C741     1.0000 0.28435  0.16007  0.49195  Biso   1.000  C
  C742     1.0000 0.51530  0.67109  0.81505  Biso   1.000  C
  C743     1.0000 0.28967  0.95110  0.33067  Biso   1.000  C
  C744     1.0000 0.82607  0.20008  0.05378  Biso   1.000  C
  C745     1.0000 0.04968  0.69195  0.32981  Biso   1.000  C
  C746     1.0000 0.29445  0.00905  0.72019  Biso   1.000  C
  C747     1.0000 0.73811  0.28795  0.05548  Biso   1.000  C
  C748     1.0000 0.54003  0.69350  0.23495  Biso   1.000  C
  C749     1.0000 0.82688  0.96185  0.80742  Biso   1.000  C
  C750     1.0000 0.23311  0.27484  0.53609  Biso   1.000  C
  C751     1.0000 0.54014  0.16527  0.29546  Biso   1.000  C
  C752     1.0000 0.23926  0.45017  0.72139  Biso   1.000  C
  C753     1.0000 0.79121  0.79339  0.02275  Biso   1.000  C
  C754     1.0000 0.02419  0.16158  0.25402  Biso   1.000  C
  C755     1.0000 0.70695  0.44189  0.79732  Biso   1.000  C
  C756     1.0000 0.29646  0.77754  0.53895  Biso   1.000  C
  C757     1.0000 0.00070  0.25459  0.72802  Biso   1.000  C
  C758     1.0000 0.70772  0.98546  0.30093  Biso   1.000  C
  C759     1.0000 0.28596  0.66059  0.03693  Biso   1.000  C
  C760     1.0000 0.52469  0.28341  0.79734  Biso   1.000  C
  C761     1.0000 0.23428  0.98483  0.21646  Biso   1.000  C
  C762     1.0000 0.83040  0.70844  0.49113  Biso   1.000  C
  C763     1.0000 0.48968  0.78488  0.75488  Biso   1.000  C
  C764     1.0000 0.79241  0.48878  0.33147  Biso   1.000  C
  C765     1.0000 0.23812  0.16076  0.04735  Biso   1.000  C
  C766     1.0000 0.00028  0.79124  0.79332  Biso   1.000  C
  C767     1.0000 0.31375  0.47493  0.25405  Biso   1.000  C
  C768     1.0000 0.69719  0.20192  0.51111  Biso   1.000  C
  C769     1.0000 0.48546  0.70430  0.84540  Biso   1.000  C
  C770     1.0000 0.82990  0.44122  0.74487  Biso   1.000  C
  C771     1.0000 0.70825  0.75757  0.49795  Biso   1.000  C
  C772     1.0000 0.99794  0.69700  0.71782  Biso   1.000  C
  C773     1.0000 0.30055  0.43925  0.82987  Biso   1.000  C
  C774     1.0000 0.20084  0.74858  0.03080  Biso   1.000  C
  C775     1.0000 0.04194  0.17560  0.81130  Biso   1.000  C
  C776     1.0000 0.70894  0.98953  0.74703  Biso   1.000  C
  C777     1.0000 0.81401  0.25896  0.49813  Biso   1.000  C
  C778     1.0000 0.51124  0.19429  0.70992  Biso   1.000  C
  C779     1.0000 0.20994  0.97152  0.80266  Biso   1.000  C
  C780     1.0000 0.32541  0.25044  0.05327  Biso   1.000  C
  C781     1.0000 0.54848  0.25789  0.21578  Biso   1.000  C
  C782     1.0000 0.20400  0.45569  0.30202  Biso   1.000  C
  C783     1.0000 0.30978  0.18065  0.53581  Biso   1.000  C
  C784     1.0000 0.02375  0.28152  0.30704  Biso   1.000  C
  C785     1.0000 0.73833  0.49031  0.21474  Biso   1.000  C
  C786     1.0000 0.80485  0.18141  0.00817  Biso   1.000  C
  C787     1.0000 0.04014  0.77844  0.24502  Biso   1.000  C
  C788     1.0000 0.31680  0.99170  0.30505  Biso   1.000  C
  C789     1.0000 0.24543  0.66033  0.53210  Biso   1.000  C
  C790     1.0000 0.50341  0.75301  0.34543  Biso   1.000  C
  C791     1.0000 0.82212  0.98890  0.25421  Biso   1.000  C
  C792     1.0000 0.70899  0.70733  0.00688  Biso   1.000  C
  C793     1.0000 0.51643  0.19948  0.32871  Biso   1.000  C
  C794     1.0000 0.29355  0.43916  0.21819  Biso   1.000  C
  C795     1.0000 0.19431  0.24385  0.51664  Biso   1.000  C
  C796     1.0000 0.99361  0.19563  0.22378  Biso   1.000  C
  C797     1.0000 0.82508  0.45888  0.30083  Biso   1.000  C
  C798     1.0000 0.70939  0.25608  0.02188  Biso   1.000  C
  C799     1.0000 0.02282  0.65897  0.29768  Biso   1.000  C
  C800     1.0000 0.19775  0.96345  0.24912  Biso   1.000  C
  C801     1.0000 0.33316  0.74769  0.51310  Biso   1.000  C
  C802     1.0000 0.49309  0.67554  0.25554  Biso   1.000  C
  C803     1.0000 0.73675  0.95614  0.33645  Biso   1.000  C
  C804     1.0000 0.82588  0.75960  0.04667  Biso   1.000  C
  C805     1.0000 0.52531  0.75497  0.73041  Biso   1.000  C
  C806     1.0000 0.74269  0.47087  0.82592  Biso   1.000  C
  C807     1.0000 0.79656  0.67559  0.51426  Biso   1.000  C
  C808     1.0000 0.03707  0.76569  0.82508  Biso   1.000  C
  C809     1.0000 0.21716  0.49542  0.74456  Biso   1.000  C
  C810     1.0000 0.31980  0.69183  0.01100  Biso   1.000  C
  C811     1.0000 0.03626  0.28763  0.75007  Biso   1.000  C
  C812     1.0000 0.79553  0.99658  0.83572  Biso   1.000  C
  C813     1.0000 0.73375  0.17493  0.54103  Biso   1.000  C
  C814     1.0000 0.48947  0.25871  0.82932  Biso   1.000  C
  C815     1.0000 0.32735  0.97539  0.74995  Biso   1.000  C
  C816     1.0000 0.21612  0.18728  0.00498  Biso   1.000  C
  C817     1.0000 0.01177  0.22816  0.82267  Biso   1.000  C
  C818     1.0000 0.76974  0.95785  0.23769  Biso   1.000  C
  C819     1.0000 0.25178  0.75206  0.99871  Biso   1.000  C
  C820     1.0000 0.48318  0.19054  0.76506  Biso   1.000  C
  C821     1.0000 0.26620  0.95596  0.31277  Biso   1.000  C
  C822     1.0000 0.76682  0.77063  0.51617  Biso   1.000  C
  C823     1.0000 0.51647  0.69045  0.79269  Biso   1.000  C
  C824     1.0000 0.72832  0.46311  0.26855  Biso   1.000  C
  C825     1.0000 0.27568  0.25478  0.01446  Biso   1.000  C
  C826     1.0000 0.03244  0.69262  0.76880  Biso   1.000  C
  C827     1.0000 0.25224  0.41900  0.30513  Biso   1.000  C
  C828     1.0000 0.76342  0.26782  0.52967  Biso   1.000  C
  C829     1.0000 0.01347  0.72477  0.23430  Biso   1.000  C
  C830     1.0000 0.26275  0.00191  0.81320  Biso   1.000  C
  C831     1.0000 0.80334  0.22057  0.05607  Biso   1.000  C
  C832     1.0000 0.53005  0.76443  0.29132  Biso   1.000  C
  C833     1.0000 0.76051  0.95743  0.74211  Biso   1.000  C
  C834     1.0000 0.26396  0.18176  0.49808  Biso   1.000  C
  C835     1.0000 0.50531  0.25782  0.25977  Biso   1.000  C
  C836     1.0000 0.29878  0.48699  0.79284  Biso   1.000  C
  C837     1.0000 0.75987  0.69344  0.03793  Biso   1.000  C
  C838     1.0000 0.99743  0.22694  0.31803  Biso   1.000  C
  C839     1.0000 0.77463  0.46615  0.73621  Biso   1.000  C
  C840     1.0000 0.23604  0.71435  0.50425  Biso   1.000  C
  C841     1.0000 0.23153  0.97051  0.78172  Biso   1.000  C
  C842     1.0000 0.78476  0.20273  0.01039  Biso   1.000  C
  C843     1.0000 0.04070  0.75667  0.26478  Biso   1.000  C
  C844     1.0000 0.73002  0.99087  0.77016  Biso   1.000  C
  C845     1.0000 0.28712  0.20000  0.54073  Biso   1.000  C
  C846     1.0000 0.50486  0.73252  0.32370  Biso   1.000  C
  C847     1.0000 0.27808  0.44253  0.80884  Biso   1.000  C
  C848     1.0000 0.73267  0.72666  0.00864  Biso   1.000  C
  C849     1.0000 0.54672  0.23582  0.23588  Biso   1.000  C
  C850     1.0000 0.80652  0.43690  0.76532  Biso   1.000  C
  C851     1.0000 0.26649  0.68005  0.53288  Biso   1.000  C
  C852     1.0000 0.02521  0.25829  0.28724  Biso   1.000  C
  C853     1.0000 0.80057  0.98163  0.27403  Biso   1.000  C
  C854     1.0000 0.22123  0.72580  0.03205  Biso   1.000  C
  C855     1.0000 0.04156  0.19878  0.79248  Biso   1.000  C
  C856     1.0000 0.29236  0.99350  0.28780  Biso   1.000  C
  C857     1.0000 0.73110  0.73858  0.49072  Biso   1.000  C
  C858     1.0000 0.51065  0.21744  0.73003  Biso   1.000  C
  C859     1.0000 0.75936  0.49002  0.23667  Biso   1.000  C
  C860     1.0000 0.30395  0.22907  0.04964  Biso   1.000  C
  C861     1.0000 0.48822  0.72410  0.82339  Biso   1.000  C
  C862     1.0000 0.22432  0.45547  0.28072  Biso   1.000  C
  C863     1.0000 0.79280  0.23739  0.49920  Biso   1.000  C
  C864     1.0000 0.00247  0.72100  0.73461  Biso   1.000  C
  C865     1.0000 0.72923  0.43931  0.77632  Biso   1.000  C
  C866     1.0000 0.80704  0.72823  0.49050  Biso   1.000  C
  C867     1.0000 0.48865  0.76296  0.77586  Biso   1.000  C
  C868     1.0000 0.25702  0.44709  0.74543  Biso   1.000  C
  C869     1.0000 0.26385  0.68021  0.03332  Biso   1.000  C
  C870     1.0000 0.00176  0.76715  0.77601  Biso   1.000  C
  C871     1.0000 0.80562  0.96110  0.78518  Biso   1.000  C
  C872     1.0000 0.71757  0.22370  0.50688  Biso   1.000  C
  C873     1.0000 0.00454  0.23690  0.75188  Biso   1.000  C
  C874     1.0000 0.27325  0.00714  0.74185  Biso   1.000  C
  C875     1.0000 0.26021  0.18145  0.04776  Biso   1.000  C
  C876     1.0000 0.51947  0.26188  0.77622  Biso   1.000  C
  C877     1.0000 0.29222  0.46511  0.27242  Biso   1.000  C
  C878     1.0000 0.25307  0.25256  0.53343  Biso   1.000  C
  C879     1.0000 0.53843  0.18652  0.27430  Biso   1.000  C
  C880     1.0000 0.77204  0.48870  0.31025  Biso   1.000  C
  C881     1.0000 0.76085  0.26792  0.05385  Biso   1.000  C
  C882     1.0000 0.02420  0.18248  0.27585  Biso   1.000  C
  C883     1.0000 0.25256  0.98832  0.24013  Biso   1.000  C
  C884     1.0000 0.27649  0.75680  0.53650  Biso   1.000  C
  C885     1.0000 0.04787  0.71425  0.30878  Biso   1.000  C
  C886     1.0000 0.72916  0.98166  0.27926  Biso   1.000  C
  C887     1.0000 0.77029  0.77146  0.02192  Biso   1.000  C
  C888     1.0000 0.53956  0.71604  0.25629  Biso   1.000  C
  C889     1.0000 0.75613  0.95254  0.31422  Biso   1.000  C
  C890     1.0000 0.29794  0.71126  0.00768  Biso   1.000  C
  C891     1.0000 0.04105  0.26811  0.77344  Biso   1.000  C
  C892     1.0000 0.21795  0.96583  0.27246  Biso   1.000  C
  C893     1.0000 0.77393  0.69511  0.51308  Biso   1.000  C
  C894     1.0000 0.48458  0.23844  0.80672  Biso   1.000  C
  C895     1.0000 0.80428  0.46070  0.27867  Biso   1.000  C
  C896     1.0000 0.23876  0.20671  0.00639  Biso   1.000  C
  C897     1.0000 0.52074  0.73265  0.75063  Biso   1.000  C
  C898     1.0000 0.27360  0.43038  0.23705  Biso   1.000  C
  C899     1.0000 0.75408  0.19632  0.53443  Biso   1.000  C
  C900     1.0000 0.03767  0.74179  0.80558  Biso   1.000  C
  C901     1.0000 0.30291  0.97245  0.76946  Biso   1.000  C
  C902     1.0000 0.73320  0.23795  0.02141  Biso   1.000  C
  C903     1.0000 0.02206  0.68075  0.27709  Biso   1.000  C
  C904     1.0000 0.77504  0.99511  0.81335  Biso   1.000  C
  C905     1.0000 0.21428  0.22233  0.51297  Biso   1.000  C
  C906     1.0000 0.49108  0.69930  0.27367  Biso   1.000  C
  C907     1.0000 0.23613  0.49219  0.76731  Biso   1.000  C
  C908     1.0000 0.80640  0.73759  0.04165  Biso   1.000  C
  C909     1.0000 0.51894  0.22060  0.30766  Biso   1.000  C
  C910     1.0000 0.76337  0.46552  0.80626  Biso   1.000  C
  C911     1.0000 0.31293  0.72575  0.51166  Biso   1.000  C
  C912     1.0000 0.99547  0.21545  0.24558  Biso   1.000  C
  C913     1.0000 0.77928  0.45042  0.76040  Biso   1.000  C
  C914     1.0000 0.75926  0.74510  0.50018  Biso   1.000  C
  C915     1.0000 0.50296  0.71577  0.79751  Biso   1.000  C
  C916     1.0000 0.27733  0.46592  0.79118  Biso   1.000  C
  C917     1.0000 0.24682  0.72851  0.01601  Biso   1.000  C
  C918     1.0000 0.01687  0.71853  0.76202  Biso   1.000  C
  C919     1.0000 0.75724  0.97517  0.76710  Biso   1.000  C
  C920     1.0000 0.76774  0.24280  0.51338  Biso   1.000  C
  C921     1.0000 0.02683  0.22408  0.79679  Biso   1.000  C
  C922     1.0000 0.25701  0.98638  0.78744  Biso   1.000  C
  C923     1.0000 0.27946  0.23029  0.03150  Biso   1.000  C
  C924     1.0000 0.49738  0.21552  0.75752  Biso   1.000  C
  C925     1.0000 0.24941  0.43889  0.28357  Biso   1.000  C
  C926     1.0000 0.26518  0.20211  0.52008  Biso   1.000  C
  C927     1.0000 0.52789  0.23698  0.25789  Biso   1.000  C
  C928     1.0000 0.75445  0.47550  0.26236  Biso   1.000  C
  C929     1.0000 0.78308  0.22293  0.03380  Biso   1.000  C
  C930     1.0000 0.01216  0.23291  0.29290  Biso   1.000  C
  C931     1.0000 0.26855  0.97545  0.29064  Biso   1.000  C
  C932     1.0000 0.26231  0.70810  0.51957  Biso   1.000  C
  C933     1.0000 0.02833  0.73003  0.25977  Biso   1.000  C
  C934     1.0000 0.77731  0.96407  0.26562  Biso   1.000  C
  C935     1.0000 0.75650  0.72038  0.02484  Biso   1.000  C
  C936     1.0000 0.51638  0.73869  0.29735  Biso   1.000  C
  C937     1.0000 0.75906  0.24360  0.03589  Biso   1.000  C
  C938     1.0000 0.03269  0.70840  0.28299  Biso   1.000  C
  C939     1.0000 0.27747  0.98743  0.76389  Biso   1.000  C
  C940     1.0000 0.24339  0.22655  0.52099  Biso   1.000  C
  C941     1.0000 0.51588  0.71648  0.27538  Biso   1.000  C
  C942     1.0000 0.78030  0.97724  0.78988  Biso   1.000  C
  C943     1.0000 0.77812  0.74309  0.03014  Biso   1.000  C
  C944     1.0000 0.52855  0.21455  0.28047  Biso   1.000  C
  C945     1.0000 0.25498  0.46822  0.76809  Biso   1.000  C
  C946     1.0000 0.28421  0.73021  0.52287  Biso   1.000  C
  C947     1.0000 0.01201  0.20986  0.27015  Biso   1.000  C
  C948     1.0000 0.75724  0.44907  0.78294  Biso   1.000  C
  C949     1.0000 0.26923  0.70597  0.01815  Biso   1.000  C
  C950     1.0000 0.02494  0.24407  0.77292  Biso   1.000  C
  C951     1.0000 0.75202  0.96288  0.28539  Biso   1.000  C
  C952     1.0000 0.78010  0.72078  0.49925  Biso   1.000  C
  C953     1.0000 0.49974  0.24005  0.78127  Biso   1.000  C
  C954     1.0000 0.24542  0.97760  0.26797  Biso   1.000  C
  C955     1.0000 0.25975  0.20528  0.02817  Biso   1.000  C
  C956     1.0000 0.50247  0.73713  0.77356  Biso   1.000  C
  C957     1.0000 0.77798  0.47449  0.28342  Biso   1.000  C
  C958     1.0000 0.74601  0.22026  0.51762  Biso   1.000  C
  C959     1.0000 0.01945  0.74286  0.78147  Biso   1.000  C
  C960     1.0000 0.27356  0.44318  0.26462  Biso   1.000  C
  Cu1      1.0000 0.02109  0.47503  0.68070  Biso   1.000  Cu
  Cu2      1.0000 0.66961  0.97898  0.52703  Biso   1.000  Cu
  Cu3      1.0000 0.51640  0.63321  0.03662  Biso   1.000  Cu
  Cu4      1.0000 0.51782  0.47771  0.87184  Biso   1.000  Cu
  Cu5      1.0000 0.17036  0.97082  0.02474  Biso   1.000  Cu
  Cu6      1.0000 0.02329  0.62744  0.52468  Biso   1.000  Cu
  Cu7      1.0000 0.51832  0.97375  0.68133  Biso   1.000  Cu
  Cu8      1.0000 0.86059  0.47964  0.52577  Biso   1.000  Cu
  Cu9      1.0000 0.02121  0.13255  0.03206  Biso   1.000  Cu
  Cu10     1.0000 0.01867  0.98213  0.87138  Biso   1.000  Cu
  Cu11     1.0000 0.36493  0.47097  0.03074  Biso   1.000  Cu
  Cu12     1.0000 0.50865  0.12577  0.51776  Biso   1.000  Cu
  Cu13     1.0000 0.01318  0.47287  0.37078  Biso   1.000  Cu
  Cu14     1.0000 0.36385  0.96914  0.52429  Biso   1.000  Cu
  Cu15     1.0000 0.51982  0.31940  0.02502  Biso   1.000  Cu
  Cu16     1.0000 0.51325  0.47879  0.18588  Biso   1.000  Cu
  Cu17     1.0000 0.86394  0.98489  0.03001  Biso   1.000  Cu
  Cu18     1.0000 0.00685  0.32353  0.53075  Biso   1.000  Cu
  Cu19     1.0000 0.51571  0.97834  0.37474  Biso   1.000  Cu
  Cu20     1.0000 0.17413  0.46829  0.52124  Biso   1.000  Cu
  Cu21     1.0000 0.01167  0.82988  0.01744  Biso   1.000  Cu
  Cu22     1.0000 0.01210  0.97252  0.17628  Biso   1.000  Cu
  Cu23     1.0000 0.66670  0.48245  0.01989  Biso   1.000  Cu
  Cu24     1.0000 0.51581  0.82313  0.53770  Biso   1.000  Cu
  Cu25     1.0000 0.22550  0.96875  0.02530  Biso   1.000  Cu
  Cu26     1.0000 0.02519  0.18698  0.03447  Biso   1.000  Cu
  Cu27     1.0000 0.01558  0.97160  0.22995  Biso   1.000  Cu
  Cu28     1.0000 0.72419  0.97855  0.52552  Biso   1.000  Cu
  Cu29     1.0000 0.50753  0.17962  0.52031  Biso   1.000  Cu
  Cu30     1.0000 0.51221  0.97504  0.31980  Biso   1.000  Cu
  Cu31     1.0000 0.31191  0.47088  0.03206  Biso   1.000  Cu
  Cu32     1.0000 0.51138  0.68780  0.03452  Biso   1.000  Cu
  Cu33     1.0000 0.51458  0.47621  0.23818  Biso   1.000  Cu
  Cu34     1.0000 0.80804  0.48076  0.52366  Biso   1.000  Cu
  Cu35     1.0000 0.02331  0.68094  0.52270  Biso   1.000  Cu
  Cu36     1.0000 0.01243  0.47298  0.31567  Biso   1.000  Cu
  Cu37     1.0000 0.80976  0.98629  0.02748  Biso   1.000  Cu
  Cu38     1.0000 0.01235  0.77476  0.01440  Biso   1.000  Cu
  Cu39     1.0000 0.01690  0.98680  0.81747  Biso   1.000  Cu
  Cu40     1.0000 0.30916  0.96967  0.52618  Biso   1.000  Cu
  Cu41     1.0000 0.51811  0.76778  0.53474  Biso   1.000  Cu
  Cu42     1.0000 0.51805  0.97918  0.73612  Biso   1.000  Cu
  Cu43     1.0000 0.72179  0.48343  0.02341  Biso   1.000  Cu
  Cu44     1.0000 0.51848  0.26753  0.02293  Biso   1.000  Cu
  Cu45     1.0000 0.51711  0.48094  0.81629  Biso   1.000  Cu
  Cu46     1.0000 0.22999  0.46668  0.52006  Biso   1.000  Cu
  Cu47     1.0000 0.00825  0.26936  0.52700  Biso   1.000  Cu
  Cu48     1.0000 0.01980  0.47668  0.73638  Biso   1.000  Cu
  H1       1.0000 0.25522  0.76011  0.54508  Biso   1.000  H
  H2       1.0000 0.53278  0.26189  0.75665  Biso   1.000  H
  H3       1.0000 0.74877  0.49750  0.31325  Biso   1.000  H
  H4       1.0000 0.74902  0.77934  0.01547  Biso   1.000  H
  H5       1.0000 0.99210  0.21871  0.75663  Biso   1.000  H
  H6       1.0000 0.29093  0.47750  0.29403  Biso   1.000  H
  H7       1.0000 0.27644  0.25588  0.53954  Biso   1.000  H
  H8       1.0000 0.98767  0.76868  0.75753  Biso   1.000  H
  H9       1.0000 0.72747  0.99133  0.25802  Biso   1.000  H
  H10      1.0000 0.77934  0.27176  0.06873  Biso   1.000  H
  H11      1.0000 0.47303  0.76406  0.79454  Biso   1.000  H
  H12      1.0000 0.27079  0.00050  0.23569  Biso   1.000  H
  H13      1.0000 0.71356  0.24100  0.49125  Biso   1.000  H
  H14      1.0000 0.55823  0.73121  0.25706  Biso   1.000  H
  H15      1.0000 0.27031  0.42725  0.74680  Biso   1.000  H
  H16      1.0000 0.27652  0.18042  0.06433  Biso   1.000  H
  H17      1.0000 0.05892  0.73504  0.31206  Biso   1.000  H
  H18      1.0000 0.72411  0.42779  0.75762  Biso   1.000  H
  H19      1.0000 0.81179  0.74973  0.48112  Biso   1.000  H
  H20      1.0000 0.03804  0.17827  0.29437  Biso   1.000  H
  H21      1.0000 0.25140  0.01770  0.74070  Biso   1.000  H
  H22      1.0000 0.24190  0.67681  0.04210  Biso   1.000  H
  H23      1.0000 0.54661  0.17960  0.25385  Biso   1.000  H
  H24      1.0000 0.80997  0.94926  0.76597  Biso   1.000  H
  H25      1.0000 0.28293  0.01560  0.81372  Biso   1.000  H
  H26      1.0000 0.80198  0.23407  0.07387  Biso   1.000  H
  H27      1.0000 0.00439  0.70459  0.22781  Biso   1.000  H
  H28      1.0000 0.78281  0.94857  0.73866  Biso   1.000  H
  H29      1.0000 0.24381  0.18118  0.48426  Biso   1.000  H
  H30      1.0000 0.53847  0.76836  0.26910  Biso   1.000  H
  H31      1.0000 0.29949  0.50458  0.77691  Biso   1.000  H
  H32      1.0000 0.77992  0.68859  0.04981  Biso   1.000  H
  H33      1.0000 0.48781  0.25593  0.27538  Biso   1.000  H
  H34      1.0000 0.75379  0.47653  0.73602  Biso   1.000  H
  H35      1.0000 0.23257  0.73434  0.49325  Biso   1.000  H
  H36      1.0000 0.98908  0.20670  0.32353  Biso   1.000  H
  H37      1.0000 0.74950  0.94630  0.23326  Biso   1.000  H
  H38      1.0000 0.27196  0.75417  0.98565  Biso   1.000  H
  H39      1.0000 0.99949  0.24886  0.82576  Biso   1.000  H
  H40      1.0000 0.24719  0.94344  0.31633  Biso   1.000  H
  H41      1.0000 0.78997  0.77471  0.52343  Biso   1.000  H
  H42      1.0000 0.47453  0.18393  0.78742  Biso   1.000  H
  H43      1.0000 0.72449  0.45092  0.28738  Biso   1.000  H
  H44      1.0000 0.25646  0.25872  0.00068  Biso   1.000  H
  H45      1.0000 0.52897  0.68265  0.77332  Biso   1.000  H
  H46      1.0000 0.27317  0.40884  0.30921  Biso   1.000  H
  H47      1.0000 0.74398  0.26793  0.54232  Biso   1.000  H
  H48      1.0000 0.04792  0.69159  0.78632  Biso   1.000  H
  H49      1.0000 0.22058  0.47081  0.26236  Biso   1.000  H
  H50      1.0000 0.28815  0.21363  0.56032  Biso   1.000  H
  H51      1.0000 0.56149  0.21776  0.23392  Biso   1.000  H
  H52      1.0000 0.78097  0.49971  0.23378  Biso   1.000  H
  H53      1.0000 0.77417  0.20708  0.98932  Biso   1.000  H
  H54      1.0000 0.03592  0.26254  0.26552  Biso   1.000  H
  H55      1.0000 0.29119  0.01063  0.27278  Biso   1.000  H
  H56      1.0000 0.28667  0.67514  0.54518  Biso   1.000  H
  H57      1.0000 0.05135  0.76199  0.28527  Biso   1.000  H
  H58      1.0000 0.80202  0.98706  0.29736  Biso   1.000  H
  H59      1.0000 0.72871  0.74813  0.99775  Biso   1.000  H
  H60      1.0000 0.49572  0.71191  0.32935  Biso   1.000  H
  H61      1.0000 0.81097  0.42655  0.78494  Biso   1.000  H
  H62      1.0000 0.72320  0.71868  0.47739  Biso   1.000  H
  H63      1.0000 0.47541  0.74403  0.83001  Biso   1.000  H
  H64      1.0000 0.26024  0.42735  0.80838  Biso   1.000  H
  H65      1.0000 0.21865  0.70929  0.04974  Biso   1.000  H
  H66      1.0000 0.99415  0.74137  0.72909  Biso   1.000  H
  H67      1.0000 0.72480  0.00404  0.78988  Biso   1.000  H
  H68      1.0000 0.79436  0.21614  0.48656  Biso   1.000  H
  H69      1.0000 0.05491  0.19886  0.77286  Biso   1.000  H
  H70      1.0000 0.22786  0.95574  0.76297  Biso   1.000  H
  H71      1.0000 0.30537  0.21029  0.06461  Biso   1.000  H
  H72      1.0000 0.52455  0.23653  0.72437  Biso   1.000  H
  H73      1.0000 0.78486  0.47572  0.81012  Biso   1.000  H
  H74      1.0000 0.75309  0.69016  0.52403  Biso   1.000  H
  H75      1.0000 0.53536  0.71579  0.74718  Biso   1.000  H
  H76      1.0000 0.23617  0.50838  0.78384  Biso   1.000  H
  H77      1.0000 0.30214  0.73167  0.99723  Biso   1.000  H
  H78      1.0000 0.05343  0.72487  0.80638  Biso   1.000  H
  H79      1.0000 0.75511  0.00768  0.81395  Biso   1.000  H
  H80      1.0000 0.77617  0.19308  0.54341  Biso   1.000  H
  H81      1.0000 0.05705  0.27199  0.79051  Biso   1.000  H
  H82      1.0000 0.30171  0.95938  0.78903  Biso   1.000  H
  H83      1.0000 0.23799  0.22446  0.99035  Biso   1.000  H
  H84      1.0000 0.46979  0.22141  0.81220  Biso   1.000  H
  H85      1.0000 0.25756  0.41374  0.22846  Biso   1.000  H
  H86      1.0000 0.20882  0.20175  0.50165  Biso   1.000  H
  H87      1.0000 0.51299  0.24225  0.31532  Biso   1.000  H
  H88      1.0000 0.80898  0.45030  0.25835  Biso   1.000  H
  H89      1.0000 0.72942  0.21840  0.00702  Biso   1.000  H
  H90      1.0000 0.98454  0.23583  0.24428  Biso   1.000  H
  H91      1.0000 0.21130  0.95817  0.29398  Biso   1.000  H
  H92      1.0000 0.31796  0.70562  0.50010  Biso   1.000  H
  H93      1.0000 0.00976  0.67458  0.25766  Biso   1.000  H
  H94      1.0000 0.77408  0.93781  0.31920  Biso   1.000  H
  H95      1.0000 0.81519  0.71510  0.04375  Biso   1.000  H
  H96      1.0000 0.47106  0.70276  0.28535  Biso   1.000  H
  H97      1.0000 0.88105  0.98552  0.94037  Biso   1.000  H
  H98      1.0000 0.92402  0.85304  0.03360  Biso   1.000  H
  H99      1.0000 0.01139  0.89517  0.88549  Biso   1.000  H
  H100     1.0000 0.38055  0.97316  0.61683  Biso   1.000  H
  H101     1.0000 0.42701  0.83967  0.52408  Biso   1.000  H
  H102     1.0000 0.51444  0.88801  0.67302  Biso   1.000  H
  H103     1.0000 0.65027  0.48401  0.92723  Biso   1.000  H
  H104     1.0000 0.60573  0.34600  0.02525  Biso   1.000  H
  H105     1.0000 0.51862  0.38645  0.88880  Biso   1.000  H
  H106     1.0000 0.15292  0.47824  0.61518  Biso   1.000  H
  H107     1.0000 0.10032  0.34168  0.53487  Biso   1.000  H
  H108     1.0000 0.00851  0.38673  0.65929  Biso   1.000  H
  H109     1.0000 0.14975  0.95533  0.11121  Biso   1.000  H
  H110     1.0000 0.10810  0.10652  0.03182  Biso   1.000  H
  H111     1.0000 0.03324  0.06552  0.16354  Biso   1.000  H
  H112     1.0000 0.64502  0.98267  0.43476  Biso   1.000  H
  H113     1.0000 0.60109  0.11072  0.52140  Biso   1.000  H
  H114     1.0000 0.52926  0.06875  0.38699  Biso   1.000  H
  H115     1.0000 0.38813  0.47824  0.12678  Biso   1.000  H
  H116     1.0000 0.42268  0.60765  0.04937  Biso   1.000  H
  H117     1.0000 0.51657  0.57036  0.16678  Biso   1.000  H
  H118     1.0000 0.88216  0.49053  0.43197  Biso   1.000  H
  H119     1.0000 0.93021  0.61027  0.52061  Biso   1.000  H
  H120     1.0000 0.03502  0.56151  0.39248  Biso   1.000  H
  H121     1.0000 0.10889  0.97180  0.89029  Biso   1.000  H
  H122     1.0000 0.88824  0.07512  0.03232  Biso   1.000  H
  H123     1.0000 0.01220  0.84049  0.11520  Biso   1.000  H
  H124     1.0000 0.61154  0.97337  0.65690  Biso   1.000  H
  H125     1.0000 0.37765  0.05920  0.51145  Biso   1.000  H
  H126     1.0000 0.51343  0.84997  0.44428  Biso   1.000  H
  H127     1.0000 0.42585  0.46946  0.89382  Biso   1.000  H
  H128     1.0000 0.64650  0.58021  0.02854  Biso   1.000  H
  H129     1.0000 0.51951  0.34301  0.11295  Biso   1.000  H
  H130     1.0000 0.92638  0.48263  0.65764  Biso   1.000  H
  H131     1.0000 0.15233  0.56207  0.51827  Biso   1.000  H
  H132     1.0000 0.99223  0.34219  0.43680  Biso   1.000  H
  H133     1.0000 0.92426  0.98064  0.16073  Biso   1.000  H
  H134     1.0000 0.14926  0.88232  0.01904  Biso   1.000  H
  H135     1.0000 0.02714  0.11644  0.94338  Biso   1.000  H
  H136     1.0000 0.41904  0.97446  0.39309  Biso   1.000  H
  H137     1.0000 0.65108  0.88780  0.53065  Biso   1.000  H
  H138     1.0000 0.49883  0.10490  0.61414  Biso   1.000  H
  H139     1.0000 0.60346  0.47796  0.15937  Biso   1.000  H
  H140     1.0000 0.38407  0.37869  0.03502  Biso   1.000  H
  H141     1.0000 0.50901  0.61183  0.94690  Biso   1.000  H
  H142     1.0000 0.10724  0.46123  0.39260  Biso   1.000  H
  H143     1.0000 0.87881  0.38843  0.51862  Biso   1.000  H
  H144     1.0000 0.02308  0.60573  0.61822  Biso   1.000  H
  H145     1.0000 0.61185  0.48303  0.88809  Biso   1.000  H
  H146     1.0000 0.88386  0.57023  0.52541  Biso   1.000  H
  H147     1.0000 0.50898  0.84093  0.62510  Biso   1.000  H
  H148     1.0000 0.11122  0.48364  0.65979  Biso   1.000  H
  H149     1.0000 0.38704  0.56618  0.03669  Biso   1.000  H
  H150     1.0000 0.00714  0.85195  0.92690  Biso   1.000  H
  H151     1.0000 0.92779  0.98720  0.89578  Biso   1.000  H
  H152     1.0000 0.64926  0.07021  0.52149  Biso   1.000  H
  H153     1.0000 0.00764  0.34475  0.62110  Biso   1.000  H
  H154     1.0000 0.42663  0.97043  0.65994  Biso   1.000  H
  H155     1.0000 0.15146  0.06079  0.03118  Biso   1.000  H
  H156     1.0000 0.52009  0.34311  0.93166  Biso   1.000  H
  H157     1.0000 0.42440  0.47632  0.16804  Biso   1.000  H
  H158     1.0000 0.15270  0.38689  0.53009  Biso   1.000  H
  H159     1.0000 0.52453  0.10730  0.42809  Biso   1.000  H
  H160     1.0000 0.92488  0.48839  0.38897  Biso   1.000  H
  H161     1.0000 0.64882  0.38921  0.02976  Biso   1.000  H
  H162     1.0000 0.03033  0.11092  0.11901  Biso   1.000  H
  H163     1.0000 0.10468  0.96275  0.15038  Biso   1.000  H
  H164     1.0000 0.38655  0.87880  0.52223  Biso   1.000  H
  H165     1.0000 0.02889  0.60494  0.43179  Biso   1.000  H
  H166     1.0000 0.60727  0.96982  0.39329  Biso   1.000  H
  H167     1.0000 0.88288  0.89374  0.03502  Biso   1.000  H
  H168     1.0000 0.51600  0.61634  0.12980  Biso   1.000  H
  H169     1.0000 0.02617  0.07407  0.89832  Biso   1.000  H
  H170     1.0000 0.88346  0.99151  0.11882  Biso   1.000  H
  H171     1.0000 0.10438  0.84347  0.01889  Biso   1.000  H
  H172     1.0000 0.50104  0.06553  0.65368  Biso   1.000  H
  H173     1.0000 0.37856  0.97355  0.43508  Biso   1.000  H
  H174     1.0000 0.60866  0.84153  0.54030  Biso   1.000  H
  H175     1.0000 0.50850  0.56795  0.90002  Biso   1.000  H
  H176     1.0000 0.64567  0.48154  0.11840  Biso   1.000  H
  H177     1.0000 0.42748  0.33644  0.02708  Biso   1.000  H
  H178     1.0000 0.02727  0.56606  0.65930  Biso   1.000  H
  H179     1.0000 0.14960  0.46018  0.43084  Biso   1.000  H
  H180     1.0000 0.92066  0.33979  0.52965  Biso   1.000  H
  H181     1.0000 0.01667  0.88204  0.15814  Biso   1.000  H
  H182     1.0000 0.15087  0.96930  0.93342  Biso   1.000  H
  H183     1.0000 0.92982  0.11476  0.03784  Biso   1.000  H
  H184     1.0000 0.51249  0.89109  0.39786  Biso   1.000  H
  H185     1.0000 0.64941  0.97060  0.62030  Biso   1.000  H
  H186     1.0000 0.41663  0.10192  0.51051  Biso   1.000  H
  H187     1.0000 0.52211  0.38654  0.15564  Biso   1.000  H
  H188     1.0000 0.38493  0.46904  0.93800  Biso   1.000  H
  H189     1.0000 0.60441  0.61751  0.02839  Biso   1.000  H
  H190     1.0000 0.98510  0.38733  0.38947  Biso   1.000  H
  H191     1.0000 0.88465  0.48456  0.61481  Biso   1.000  H
  H192     1.0000 0.11245  0.60650  0.51757  Biso   1.000  H
  H193     1.0000 0.28837  0.82751  0.51442  Biso   1.000  H
  H194     1.0000 0.50582  0.25029  0.87679  Biso   1.000  H
  H195     1.0000 0.87200  0.48498  0.28987  Biso   1.000  H
  H196     1.0000 0.78428  0.84224  0.04405  Biso   1.000  H
  H197     1.0000 0.01092  0.24680  0.67317  Biso   1.000  H
  H198     1.0000 0.36921  0.45983  0.26268  Biso   1.000  H
  H199     1.0000 0.23910  0.31855  0.51338  Biso   1.000  H
  H200     1.0000 0.01160  0.75740  0.87297  Biso   1.000  H
  H201     1.0000 0.65652  0.97211  0.29361  Biso   1.000  H
  H202     1.0000 0.74595  0.33658  0.03507  Biso   1.000  H
  H203     1.0000 0.51176  0.74479  0.68065  Biso   1.000  H
  H204     1.0000 0.15416  0.98838  0.24759  Biso   1.000  H
  H205     1.0000 0.74146  0.12980  0.52296  Biso   1.000  H
  H206     1.0000 0.52531  0.71074  0.18372  Biso   1.000  H
  H207     1.0000 0.16615  0.47977  0.75463  Biso   1.000  H
  H208     1.0000 0.24814  0.10978  0.03921  Biso   1.000  H
  H209     1.0000 0.02673  0.69920  0.37695  Biso   1.000  H
  H210     1.0000 0.65616  0.46326  0.78907  Biso   1.000  H
  H211     1.0000 0.79465  0.62768  0.49180  Biso   1.000  H
  H212     1.0000 0.02017  0.20497  0.17766  Biso   1.000  H
  H213     1.0000 0.37503  0.00733  0.75280  Biso   1.000  H
  H214     1.0000 0.28878  0.61498  0.01714  Biso   1.000  H
  H215     1.0000 0.53836  0.20392  0.37848  Biso   1.000  H
  H216     1.0000 0.87260  0.99095  0.80058  Biso   1.000  H
  H217     1.0000 0.24013  0.42588  0.37662  Biso   1.000  H
  H218     1.0000 0.36189  0.19729  0.51531  Biso   1.000  H
  H219     1.0000 0.52594  0.33134  0.25171  Biso   1.000  H
  H220     1.0000 0.74410  0.47324  0.16508  Biso   1.000  H
  H221     1.0000 0.88091  0.21272  0.03902  Biso   1.000  H
  H222     1.0000 0.99362  0.32548  0.29670  Biso   1.000  H
  H223     1.0000 0.28103  0.96244  0.38040  Biso   1.000  H
  H224     1.0000 0.16609  0.70312  0.51686  Biso   1.000  H
  H225     1.0000 0.01434  0.82218  0.25401  Biso   1.000  H
  H226     1.0000 0.78148  0.99084  0.16508  Biso   1.000  H
  H227     1.0000 0.65585  0.71547  0.02724  Biso   1.000  H
  H228     1.0000 0.51230  0.83157  0.30279  Biso   1.000  H
  H229     1.0000 0.79048  0.45266  0.66627  Biso   1.000  H
  H230     1.0000 0.66426  0.74745  0.52674  Biso   1.000  H
  H231     1.0000 0.48955  0.62366  0.80467  Biso   1.000  H
  H232     1.0000 0.28929  0.45469  0.88152  Biso   1.000  H
  H233     1.0000 0.15277  0.74377  0.00939  Biso   1.000  H
  H234     1.0000 0.01274  0.61746  0.75646  Biso   1.000  H
  H235     1.0000 0.74665  0.96614  0.66936  Biso   1.000  H
  H236     1.0000 0.86123  0.24766  0.51748  Biso   1.000  H
  H237     1.0000 0.02562  0.12796  0.80159  Biso   1.000  H
  H238     1.0000 0.24751  0.98458  0.88045  Biso   1.000  H
  H239     1.0000 0.37612  0.24133  0.03039  Biso   1.000  H
  H240     1.0000 0.50496  0.12066  0.74992  Biso   1.000  H
  H241     1.0000 0.74770  0.45552  0.88201  Biso   1.000  H
  H242     1.0000 0.88412  0.71007  0.50974  Biso   1.000  H
  H243     1.0000 0.51120  0.83033  0.76365  Biso   1.000  H
  H244     1.0000 0.25249  0.47078  0.66626  Biso   1.000  H
  H245     1.0000 0.36925  0.70071  0.03258  Biso   1.000  H
  H246     1.0000 0.01079  0.84483  0.78766  Biso   1.000  H
  H247     1.0000 0.79047  0.97287  0.88356  Biso   1.000  H
  H248     1.0000 0.64996  0.20644  0.53310  Biso   1.000  H
  H249     1.0000 0.01903  0.33545  0.75802  Biso   1.000  H
  H250     1.0000 0.28463  0.98896  0.67112  Biso   1.000  H
  H251     1.0000 0.16733  0.19825  0.02112  Biso   1.000  H
  H252     1.0000 0.50628  0.33401  0.79161  Biso   1.000  H
  H253     1.0000 0.28801  0.47334  0.17752  Biso   1.000  H
  H254     1.0000 0.15083  0.24567  0.54287  Biso   1.000  H
  H255     1.0000 0.51491  0.11865  0.28759  Biso   1.000  H
  H256     1.0000 0.78588  0.47270  0.37928  Biso   1.000  H
  H257     1.0000 0.65915  0.25133  0.03937  Biso   1.000  H
  H258     1.0000 0.99679  0.11391  0.25489  Biso   1.000  H
  H259     1.0000 0.24308  0.95529  0.17055  Biso   1.000  H
  H260     1.0000 0.37549  0.74402  0.54011  Biso   1.000  H
  H261     1.0000 0.04578  0.61164  0.29169  Biso   1.000  H
  H262     1.0000 0.74315  0.98231  0.38304  Biso   1.000  H
  H263     1.0000 0.87150  0.75783  0.02100  Biso   1.000  H
  H264     1.0000 0.50094  0.62258  0.26709  Biso   1.000  H
  H265     1.0000 0.02625  0.21114  0.88982  Biso   1.000  H
  H266     1.0000 0.86926  0.96583  0.25678  Biso   1.000  H
  H267     1.0000 0.24292  0.82571  0.00828  Biso   1.000  H
  H268     1.0000 0.48322  0.20404  0.66463  Biso   1.000  H
  H269     1.0000 0.37001  0.97628  0.29479  Biso   1.000  H
  H270     1.0000 0.74224  0.83494  0.50390  Biso   1.000  H
  H271     1.0000 0.50404  0.70688  0.89287  Biso   1.000  H
  H272     1.0000 0.66098  0.49283  0.25300  Biso   1.000  H
  H273     1.0000 0.28817  0.32569  0.03794  Biso   1.000  H
  H274     1.0000 0.01544  0.70495  0.66824  Biso   1.000  H
  H275     1.0000 0.15158  0.43131  0.29543  Biso   1.000  H
  H276     1.0000 0.78155  0.34136  0.51597  Biso   1.000  H
  H277     1.0000 0.03167  0.74398  0.16164  Biso   1.000  H
  H278     1.0000 0.16731  0.99748  0.79883  Biso   1.000  H
  H279     1.0000 0.79500  0.13218  0.01526  Biso   1.000  H
  H280     1.0000 0.52030  0.75079  0.39588  Biso   1.000  H
  H281     1.0000 0.65712  0.96991  0.75649  Biso   1.000  H
  H282     1.0000 0.27832  0.10993  0.50843  Biso   1.000  H
  H283     1.0000 0.53203  0.24833  0.16771  Biso   1.000  H
  H284     1.0000 0.37660  0.45536  0.79560  Biso   1.000  H
  H285     1.0000 0.74512  0.62577  0.01287  Biso   1.000  H
  H286     1.0000 0.01364  0.24411  0.38887  Biso   1.000  H
  H287     1.0000 0.87809  0.46722  0.75621  Biso   1.000  H
  H288     1.0000 0.25056  0.61157  0.51060  Biso   1.000  H
  H289     1.0000 0.11336  0.20118  0.02473  Biso   1.000  H
  H290     1.0000 0.00024  0.06320  0.25543  Biso   1.000  H
  H291     1.0000 0.24505  0.94392  0.11685  Biso   1.000  H
  H292     1.0000 0.59658  0.20421  0.53351  Biso   1.000  H
  H293     1.0000 0.51024  0.06743  0.28860  Biso   1.000  H
  H294     1.0000 0.74133  0.97518  0.43644  Biso   1.000  H
  H295     1.0000 0.42284  0.70232  0.04039  Biso   1.000  H
  H296     1.0000 0.49843  0.56742  0.26280  Biso   1.000  H
  H297     1.0000 0.29162  0.48062  0.11890  Biso   1.000  H
  H298     1.0000 0.93636  0.70406  0.51671  Biso   1.000  H
  H299     1.0000 0.03983  0.55566  0.29748  Biso   1.000  H
  H300     1.0000 0.78576  0.47499  0.42895  Biso   1.000  H
  H301     1.0000 0.92326  0.75714  0.01674  Biso   1.000  H
  H302     1.0000 0.00642  0.89661  0.78974  Biso   1.000  H
  H303     1.0000 0.78924  0.96340  0.93890  Biso   1.000  H
  H304     1.0000 0.43116  0.74564  0.54091  Biso   1.000  H
  H305     1.0000 0.52266  0.88552  0.76607  Biso   1.000  H
  H306     1.0000 0.28518  0.98322  0.61432  Biso   1.000  H
  H307     1.0000 0.60834  0.25039  0.02150  Biso   1.000  H
  H308     1.0000 0.51039  0.39004  0.79501  Biso   1.000  H
  H309     1.0000 0.74202  0.46246  0.93715  Biso   1.000  H
  H310     1.0000 0.09748  0.25189  0.55387  Biso   1.000  H
  H311     1.0000 0.01978  0.38894  0.75345  Biso   1.000  H
  H312     1.0000 0.24777  0.46616  0.61181  Biso   1.000  H
  H313     1.0000 0.24702  0.98144  0.93351  Biso   1.000  H
  H314     1.0000 0.93275  0.21305  0.04610  Biso   1.000  H
  H315     1.0000 0.01255  0.87767  0.25506  Biso   1.000  H
  H316     1.0000 0.74727  0.96649  0.61936  Biso   1.000  H
  H317     1.0000 0.41279  0.19940  0.51653  Biso   1.000  H
  H318     1.0000 0.50668  0.88679  0.30409  Biso   1.000  H
  H319     1.0000 0.28967  0.45745  0.93790  Biso   1.000  H
  H320     1.0000 0.60369  0.71476  0.03351  Biso   1.000  H
  H321     1.0000 0.52697  0.38553  0.25320  Biso   1.000  H
  H322     1.0000 0.79002  0.46701  0.61215  Biso   1.000  H
  H323     1.0000 0.11352  0.70106  0.51816  Biso   1.000  H
  H324     1.0000 0.99158  0.37935  0.29297  Biso   1.000  H
  H325     1.0000 0.78728  0.99714  0.11192  Biso   1.000  H
  H326     1.0000 0.09761  0.75014  0.00992  Biso   1.000  H
  H327     1.0000 0.02749  0.07214  0.79960  Biso   1.000  H
  H328     1.0000 0.28271  0.96226  0.43456  Biso   1.000  H
  H329     1.0000 0.60823  0.74837  0.52863  Biso   1.000  H
  H330     1.0000 0.51049  0.06868  0.75237  Biso   1.000  H
  H331     1.0000 0.74083  0.47278  0.10830  Biso   1.000  H
  H332     1.0000 0.43104  0.24167  0.02792  Biso   1.000  H
  H333     1.0000 0.50412  0.57121  0.80068  Biso   1.000  H
  H334     1.0000 0.24180  0.43424  0.43212  Biso   1.000  H
  H335     1.0000 0.91335  0.24524  0.51372  Biso   1.000  H
  H336     1.0000 0.01783  0.56219  0.75586  Biso   1.000  H
  H337     1.0000 0.02373  0.21004  0.94524  Biso   1.000  H
  H338     1.0000 0.92389  0.96428  0.25274  Biso   1.000  H
  H339     1.0000 0.24525  0.87992  0.00511  Biso   1.000  H
  H340     1.0000 0.48030  0.20032  0.61134  Biso   1.000  H
  H341     1.0000 0.41732  0.98560  0.29502  Biso   1.000  H
  H342     1.0000 0.74378  0.89003  0.50916  Biso   1.000  H
  H343     1.0000 0.50995  0.70325  0.94877  Biso   1.000  H
  H344     1.0000 0.60882  0.50258  0.25494  Biso   1.000  H
  H345     1.0000 0.28526  0.37916  0.04176  Biso   1.000  H
  H346     1.0000 0.01578  0.69771  0.61232  Biso   1.000  H
  H347     1.0000 0.09716  0.44633  0.29552  Biso   1.000  H
  H348     1.0000 0.78497  0.39216  0.51699  Biso   1.000  H
  H349     1.0000 0.02251  0.74740  0.10771  Biso   1.000  H
  H350     1.0000 0.10953  0.98585  0.79567  Biso   1.000  H
  H351     1.0000 0.79526  0.07398  0.01082  Biso   1.000  H
  H352     1.0000 0.51774  0.75260  0.44770  Biso   1.000  H
  H353     1.0000 0.60683  0.97949  0.75388  Biso   1.000  H
  H354     1.0000 0.28037  0.05452  0.50941  Biso   1.000  H
  H355     1.0000 0.52722  0.24706  0.11460  Biso   1.000  H
  H356     1.0000 0.42711  0.47274  0.79525  Biso   1.000  H
  H357     1.0000 0.74425  0.57194  0.01776  Biso   1.000  H
  H358     1.0000 0.01636  0.24966  0.43783  Biso   1.000  H
  H359     1.0000 0.93205  0.47414  0.75258  Biso   1.000  H
  H360     1.0000 0.24459  0.55775  0.50887  Biso   1.000  H
  H361     1.0000 0.02665  0.69968  0.42968  Biso   1.000  H
  H362     1.0000 0.42450  0.99586  0.75537  Biso   1.000  H
  H363     1.0000 0.74345  0.39119  0.02803  Biso   1.000  H
  H364     1.0000 0.53502  0.70856  0.13285  Biso   1.000  H
  H365     1.0000 0.92861  0.98978  0.80048  Biso   1.000  H
  H366     1.0000 0.24525  0.37240  0.51622  Biso   1.000  H
  H367     1.0000 0.53820  0.19910  0.43435  Biso   1.000  H
  H368     1.0000 0.11191  0.47994  0.75551  Biso   1.000  H
  H369     1.0000 0.78953  0.90112  0.04579  Biso   1.000  H
  H370     1.0000 0.03120  0.20633  0.12617  Biso   1.000  H
  H371     1.0000 0.60725  0.47580  0.79002  Biso   1.000  H
  H372     1.0000 0.28924  0.87934  0.50654  Biso   1.000  H
  H373     1.0000 0.00332  0.24736  0.61814  Biso   1.000  H
  H374     1.0000 0.60147  0.96838  0.29592  Biso   1.000  H
  H375     1.0000 0.29073  0.56048  0.01734  Biso   1.000  H
  H376     1.0000 0.51241  0.24922  0.93121  Biso   1.000  H
  H377     1.0000 0.10314  0.98736  0.24493  Biso   1.000  H
  H378     1.0000 0.79221  0.57431  0.49735  Biso   1.000  H
  H379     1.0000 0.51735  0.74686  0.62557  Biso   1.000  H
  H380     1.0000 0.92299  0.48435  0.29334  Biso   1.000  H
  H381     1.0000 0.24724  0.05646  0.03595  Biso   1.000  H
  H382     1.0000 0.00544  0.75716  0.92237  Biso   1.000  H
  H383     1.0000 0.42260  0.45880  0.26246  Biso   1.000  H
  H384     1.0000 0.74467  0.07275  0.52516  Biso   1.000  H
  H385     1.0000 0.23222  0.39889  0.34281  Biso   1.000  H
  H386     1.0000 0.28348  0.14413  0.47502  Biso   1.000  H
  H387     1.0000 0.48908  0.29747  0.24220  Biso   1.000  H
  H388     1.0000 0.68712  0.45201  0.25280  Biso   1.000  H
  H389     1.0000 0.84368  0.20187  0.06912  Biso   1.000  H
  H390     1.0000 0.97747  0.24380  0.35483  Biso   1.000  H
  H391     1.0000 0.28584  0.93548  0.34782  Biso   1.000  H
  H392     1.0000 0.19438  0.69861  0.48991  Biso   1.000  H
  H393     1.0000 0.99846  0.74264  0.19590  Biso   1.000  H
  H394     1.0000 0.78310  0.95984  0.19363  Biso   1.000  H
  H395     1.0000 0.74041  0.65304  0.04780  Biso   1.000  H
  H396     1.0000 0.54588  0.80437  0.30984  Biso   1.000  H
  H397     1.0000 0.78960  0.48606  0.69745  Biso   1.000  H
  H398     1.0000 0.74908  0.80566  0.54089  Biso   1.000  H
  H399     1.0000 0.52800  0.65143  0.80896  Biso   1.000  H
  H400     1.0000 0.33867  0.50211  0.81039  Biso   1.000  H
  H401     1.0000 0.23741  0.79249  0.98258  Biso   1.000  H
  H402     1.0000 0.04634  0.65157  0.75364  Biso   1.000  H
  H403     1.0000 0.74635  0.94078  0.70178  Biso   1.000  H
  H404     1.0000 0.78377  0.30569  0.54651  Biso   1.000  H
  H405     1.0000 0.99465  0.20659  0.86004  Biso   1.000  H
  H406     1.0000 0.24654  0.01503  0.85440  Biso   1.000  H
  H407     1.0000 0.29379  0.29429  0.99792  Biso   1.000  H
  H408     1.0000 0.46746  0.14977  0.74939  Biso   1.000  H
  H409     1.0000 0.29333  0.43022  0.19505  Biso   1.000  H
  H410     1.0000 0.17181  0.24103  0.50529  Biso   1.000  H
  H411     1.0000 0.50567  0.20702  0.34909  Biso   1.000  H
  H412     1.0000 0.84486  0.44585  0.30002  Biso   1.000  H
  H413     1.0000 0.69136  0.25117  0.00668  Biso   1.000  H
  H414     1.0000 0.98276  0.20389  0.20384  Biso   1.000  H
  H415     1.0000 0.17764  0.95239  0.25335  Biso   1.000  H
  H416     1.0000 0.35354  0.74151  0.50450  Biso   1.000  H
  H417     1.0000 0.01333  0.63839  0.29357  Biso   1.000  H
  H418     1.0000 0.74188  0.94409  0.35842  Biso   1.000  H
  H419     1.0000 0.84690  0.75467  0.05578  Biso   1.000  H
  H420     1.0000 0.47290  0.66210  0.25500  Biso   1.000  H
  H421     1.0000 0.74851  0.48835  0.84229  Biso   1.000  H
  H422     1.0000 0.79321  0.65536  0.52495  Biso   1.000  H
  H423     1.0000 0.54311  0.75149  0.71394  Biso   1.000  H
  H424     1.0000 0.20132  0.51455  0.74236  Biso   1.000  H
  H425     1.0000 0.34020  0.69797  0.00230  Biso   1.000  H
  H426     1.0000 0.05232  0.76483  0.84379  Biso   1.000  H
  H427     1.0000 0.79229  0.01206  0.85338  Biso   1.000  H
  H428     1.0000 0.74037  0.15862  0.55747  Biso   1.000  H
  H429     1.0000 0.04803  0.30810  0.75230  Biso   1.000  H
  H430     1.0000 0.34654  0.96085  0.75356  Biso   1.000  H
  H431     1.0000 0.19975  0.18790  0.98811  Biso   1.000  H
  H432     1.0000 0.47637  0.25823  0.84836  Biso   1.000  H
  H433     1.0000 0.29162  0.02372  0.70221  Biso   1.000  H
  H434     1.0000 0.74100  0.30681  0.07236  Biso   1.000  H
  H435     1.0000 0.05975  0.69476  0.35076  Biso   1.000  H
  H436     1.0000 0.84510  0.94738  0.80574  Biso   1.000  H
  H437     1.0000 0.24124  0.29317  0.54722  Biso   1.000  H
  H438     1.0000 0.55850  0.69147  0.22056  Biso   1.000  H
  H439     1.0000 0.24205  0.43433  0.70295  Biso   1.000  H
  H440     1.0000 0.78434  0.81521  0.01374  Biso   1.000  H
  H441     1.0000 0.54883  0.14400  0.28945  Biso   1.000  H
  H442     1.0000 0.68547  0.43276  0.79178  Biso   1.000  H
  H443     1.0000 0.28697  0.79558  0.55129  Biso   1.000  H
  H444     1.0000 0.03610  0.14105  0.25563  Biso   1.000  H
  H445     1.0000 0.68911  0.99944  0.29814  Biso   1.000  H
  H446     1.0000 0.27894  0.64014  0.04833  Biso   1.000  H
  H447     1.0000 0.98445  0.24767  0.71139  Biso   1.000  H
  H448     1.0000 0.24128  0.99421  0.19530  Biso   1.000  H
  H449     1.0000 0.85182  0.71530  0.48454  Biso   1.000  H
  H450     1.0000 0.54405  0.29747  0.79517  Biso   1.000  H
  H451     1.0000 0.78626  0.50105  0.34988  Biso   1.000  H
  H452     1.0000 0.23762  0.14533  0.06497  Biso   1.000  H
  H453     1.0000 0.47532  0.80440  0.75531  Biso   1.000  H
  H454     1.0000 0.32894  0.49234  0.26047  Biso   1.000  H
  H455     1.0000 0.67636  0.20570  0.49859  Biso   1.000  H
  H456     1.0000 0.98558  0.80811  0.78469  Biso   1.000  H
  H457     1.0000 0.68612  0.75459  0.48938  Biso   1.000  H
  H458     1.0000 0.47282  0.70745  0.86436  Biso   1.000  H
  H459     1.0000 0.85121  0.43107  0.74653  Biso   1.000  H
  H460     1.0000 0.18092  0.74589  0.04511  Biso   1.000  H
  H461     1.0000 0.97994  0.69825  0.70107  Biso   1.000  H
  H462     1.0000 0.29815  0.42044  0.84372  Biso   1.000  H
  H463     1.0000 0.83185  0.25537  0.48484  Biso   1.000  H
  H464     1.0000 0.05549  0.15698  0.80784  Biso   1.000  H
  H465     1.0000 0.68852  0.00034  0.74995  Biso   1.000  H
  H466     1.0000 0.34359  0.24824  0.06773  Biso   1.000  H
  H467     1.0000 0.52367  0.19682  0.68966  Biso   1.000  H
  H468     1.0000 0.19067  0.95864  0.79853  Biso   1.000  H
  H469     1.0000 0.32555  0.18150  0.55292  Biso   1.000  H
  H470     1.0000 0.56430  0.25814  0.19942  Biso   1.000  H
  H471     1.0000 0.18499  0.47034  0.30031  Biso   1.000  H
  H472     1.0000 0.80397  0.16984  0.98738  Biso   1.000  H
  H473     1.0000 0.03749  0.30009  0.30321  Biso   1.000  H
  H474     1.0000 0.74367  0.50197  0.19564  Biso   1.000  H
  H475     1.0000 0.25251  0.64051  0.54551  Biso   1.000  H
  H476     1.0000 0.04851  0.79817  0.25399  Biso   1.000  H
  H477     1.0000 0.33577  0.00547  0.30237  Biso   1.000  H
  H478     1.0000 0.68880  0.71138  0.99670  Biso   1.000  H
  H479     1.0000 0.49048  0.74915  0.36369  Biso   1.000  H
  H480     1.0000 0.84191  0.99945  0.26090  Biso   1.000  H
  N1       1.0000 0.68556  0.15608  0.52695  Biso   1.000  N
  N2       1.0000 0.51716  0.65333  0.21580  Biso   1.000  N
  N3       1.0000 0.19913  0.47413  0.69969  Biso   1.000  N
  N4       1.0000 0.19569  0.14371  0.02706  Biso   1.000  N
  N5       1.0000 0.03542  0.64507  0.34600  Biso   1.000  N
  N6       1.0000 0.69367  0.46503  0.84349  Biso   1.000  N
  N7       1.0000 0.84504  0.65900  0.50812  Biso   1.000  N
  N8       1.0000 0.01067  0.14958  0.20564  Biso   1.000  N
  N9       1.0000 0.34027  0.99193  0.70243  Biso   1.000  N
  N10      1.0000 0.33599  0.64747  0.02829  Biso   1.000  N
  N11      1.0000 0.52794  0.15122  0.34339  Biso   1.000  N
  N12      1.0000 0.84075  0.98094  0.85369  Biso   1.000  N
  N13      1.0000 0.34301  0.79444  0.52507  Biso   1.000  N
  N14      1.0000 0.51156  0.30172  0.84447  Biso   1.000  N
  N15      1.0000 0.84029  0.47700  0.34737  Biso   1.000  N
  N16      1.0000 0.83752  0.80957  0.03384  Biso   1.000  N
  N17      1.0000 0.01215  0.29900  0.70479  Biso   1.000  N
  N18      1.0000 0.33828  0.46698  0.20832  Biso   1.000  N
  N19      1.0000 0.18568  0.29330  0.52853  Biso   1.000  N
  N20      1.0000 0.01427  0.81144  0.83981  Biso   1.000  N
  N21      1.0000 0.69027  0.97377  0.34926  Biso   1.000  N
  N22      1.0000 0.69185  0.30348  0.03686  Biso   1.000  N
  N23      1.0000 0.51130  0.80054  0.71168  Biso   1.000  N
  N24      1.0000 0.18802  0.96741  0.19935  Biso   1.000  N
  N25      1.0000 0.84360  0.46352  0.70047  Biso   1.000  N
  N26      1.0000 0.69395  0.80304  0.51772  Biso   1.000  N
  N27      1.0000 0.50038  0.65511  0.85953  Biso   1.000  N
  N28      1.0000 0.34276  0.45678  0.85132  Biso   1.000  N
  N29      1.0000 0.18917  0.79543  0.01373  Biso   1.000  N
  N30      1.0000 0.01324  0.65012  0.70309  Biso   1.000  N
  N31      1.0000 0.69291  0.96738  0.70342  Biso   1.000  N
  N32      1.0000 0.83226  0.30262  0.51684  Biso   1.000  N
  N33      1.0000 0.02682  0.15917  0.85679  Biso   1.000  N
  N34      1.0000 0.19459  0.98552  0.84818  Biso   1.000  N
  N35      1.0000 0.34334  0.29498  0.03613  Biso   1.000  N
  N36      1.0000 0.49375  0.14981  0.69504  Biso   1.000  N
  N37      1.0000 0.18732  0.43690  0.34659  Biso   1.000  N
  N38      1.0000 0.33050  0.14273  0.51130  Biso   1.000  N
  N39      1.0000 0.52771  0.30280  0.19973  Biso   1.000  N
  N40      1.0000 0.69017  0.48014  0.20049  Biso   1.000  N
  N41      1.0000 0.84744  0.15891  0.02834  Biso   1.000  N
  N42      1.0000 0.00146  0.29887  0.35136  Biso   1.000  N
  N43      1.0000 0.33533  0.96803  0.34837  Biso   1.000  N
  N44      1.0000 0.19953  0.64779  0.51616  Biso   1.000  N
  N45      1.0000 0.02227  0.79481  0.19799  Biso   1.000  N
  N46      1.0000 0.83650  0.98328  0.20369  Biso   1.000  N
  N47      1.0000 0.69099  0.66169  0.02075  Biso   1.000  N
  N48      1.0000 0.51612  0.80147  0.36039  Biso   1.000  N
  O1       1.0000 0.36450  0.51512  0.02609  Biso   1.000  O
  O2       1.0000 0.99968  0.31992  0.57206  Biso   1.000  O
  O3       1.0000 0.55856  0.97462  0.37191  Biso   1.000  O
  O4       1.0000 0.85855  0.52301  0.52725  Biso   1.000  O
  O5       1.0000 0.51611  0.32053  0.98276  Biso   1.000  O
  O6       1.0000 0.05364  0.96947  0.17485  Biso   1.000  O
  O7       1.0000 0.17398  0.01220  0.03155  Biso   1.000  O
  O8       1.0000 0.51639  0.82058  0.57911  Biso   1.000  O
  O9       1.0000 0.97374  0.48489  0.36370  Biso   1.000  O
  O10      1.0000 0.67462  0.02028  0.52477  Biso   1.000  O
  O11      1.0000 0.01006  0.82838  0.97648  Biso   1.000  O
  O12      1.0000 0.47309  0.47480  0.19113  Biso   1.000  O
  O13      1.0000 0.67055  0.44076  0.02417  Biso   1.000  O
  O14      1.0000 0.02223  0.62919  0.48152  Biso   1.000  O
  O15      1.0000 0.47589  0.97327  0.68439  Biso   1.000  O
  O16      1.0000 0.18063  0.42726  0.52612  Biso   1.000  O
  O17      1.0000 0.52273  0.63868  0.07714  Biso   1.000  O
  O18      1.0000 0.97766  0.98761  0.87280  Biso   1.000  O
  O19      1.0000 0.86174  0.94450  0.03576  Biso   1.000  O
  O20      1.0000 0.51607  0.12565  0.47650  Biso   1.000  O
  O21      1.0000 0.06493  0.47582  0.68264  Biso   1.000  O
  O22      1.0000 0.36155  0.92734  0.52097  Biso   1.000  O
  O23      1.0000 0.02800  0.13527  0.07533  Biso   1.000  O
  O24      1.0000 0.55934  0.48026  0.86447  Biso   1.000  O
  O25      1.0000 0.97084  0.97487  0.17962  Biso   1.000  O
  O26      1.0000 0.17413  0.92749  0.02042  Biso   1.000  O
  O27      1.0000 0.01741  0.13786  0.98932  Biso   1.000  O
  O28      1.0000 0.47122  0.98156  0.36974  Biso   1.000  O
  O29      1.0000 0.67139  0.93618  0.52691  Biso   1.000  O
  O30      1.0000 0.50382  0.12935  0.56179  Biso   1.000  O
  O31      1.0000 0.55514  0.48244  0.18908  Biso   1.000  O
  O32      1.0000 0.35743  0.42789  0.03145  Biso   1.000  O
  O33      1.0000 0.51155  0.63453  0.99559  Biso   1.000  O
  O34      1.0000 0.05328  0.46142  0.36828  Biso   1.000  O
  O35      1.0000 0.85531  0.43718  0.52397  Biso   1.000  O
  O36      1.0000 0.02249  0.62873  0.56445  Biso   1.000  O
  O37      1.0000 0.05991  0.97313  0.86479  Biso   1.000  O
  O38      1.0000 0.86403  0.02605  0.02723  Biso   1.000  O
  O39      1.0000 0.01963  0.82436  0.06079  Biso   1.000  O
  O40      1.0000 0.55806  0.97615  0.68090  Biso   1.000  O
  O41      1.0000 0.35998  0.01242  0.52585  Biso   1.000  O
  O42      1.0000 0.51738  0.82325  0.49566  Biso   1.000  O
  O43      1.0000 0.47539  0.47492  0.86921  Biso   1.000  O
  O44      1.0000 0.66744  0.52571  0.02145  Biso   1.000  O
  O45      1.0000 0.52809  0.31891  0.06708  Biso   1.000  O
  O46      1.0000 0.97879  0.47966  0.67992  Biso   1.000  O
  O47      1.0000 0.17724  0.51082  0.52582  Biso   1.000  O
  O48      1.0000 0.01152  0.32168  0.48680  Biso   1.000  O
  O49      1.0000 0.01074  0.92689  0.18152  Biso   1.000  O
  O50      1.0000 0.17405  0.97787  0.98321  Biso   1.000  O
  O51      1.0000 0.97937  0.13437  0.03487  Biso   1.000  O
  O52      1.0000 0.51280  0.93687  0.37293  Biso   1.000  O
  O53      1.0000 0.67233  0.97814  0.56804  Biso   1.000  O
  O54      1.0000 0.46788  0.12848  0.51035  Biso   1.000  O
  O55      1.0000 0.51874  0.43773  0.18250  Biso   1.000  O
  O56      1.0000 0.36106  0.47065  0.98628  Biso   1.000  O
  O57      1.0000 0.55685  0.64382  0.03318  Biso   1.000  O
  O58      1.0000 0.00224  0.43254  0.36342  Biso   1.000  O
  O59      1.0000 0.86080  0.47613  0.56628  Biso   1.000  O
  O60      1.0000 0.06381  0.63097  0.52404  Biso   1.000  O
  O61      1.0000 0.02727  0.02510  0.86893  Biso   1.000  O
  O62      1.0000 0.86370  0.98952  0.07036  Biso   1.000  O
  O63      1.0000 0.05371  0.82398  0.01368  Biso   1.000  O
  O64      1.0000 0.51364  0.01600  0.68084  Biso   1.000  O
  O65      1.0000 0.35748  0.97388  0.48121  Biso   1.000  O
  O66      1.0000 0.56018  0.82113  0.54008  Biso   1.000  O
  O67      1.0000 0.51410  0.51934  0.87213  Biso   1.000  O
  O68      1.0000 0.66687  0.48239  0.06367  Biso   1.000  O
  O69      1.0000 0.47686  0.31506  0.03446  Biso   1.000  O
  O70      1.0000 0.02248  0.51581  0.68167  Biso   1.000  O
  O71      1.0000 0.17489  0.46334  0.47693  Biso   1.000  O
  O72      1.0000 0.96624  0.31635  0.52614  Biso   1.000  O
  O73      1.0000 0.01513  0.43442  0.68200  Biso   1.000  O
  O74      1.0000 0.67161  0.97508  0.48564  Biso   1.000  O
  O75      1.0000 0.47508  0.63124  0.03921  Biso   1.000  O
  O76      1.0000 0.52447  0.43641  0.86624  Biso   1.000  O
  O77      1.0000 0.17340  0.96004  0.06563  Biso   1.000  O
  O78      1.0000 0.98007  0.63099  0.52180  Biso   1.000  O
  O79      1.0000 0.51719  0.93325  0.68995  Biso   1.000  O
  O80      1.0000 0.85733  0.47900  0.48296  Biso   1.000  O
  O81      1.0000 0.06179  0.13240  0.02362  Biso   1.000  O
  O82      1.0000 0.00852  0.94215  0.86304  Biso   1.000  O
  O83      1.0000 0.36288  0.46938  0.07451  Biso   1.000  O
  O84      1.0000 0.55089  0.12874  0.52894  Biso   1.000  O
  O85      1.0000 0.02330  0.51389  0.36845  Biso   1.000  O
  O86      1.0000 0.35791  0.97100  0.56668  Biso   1.000  O
  O87      1.0000 0.56097  0.32027  0.02096  Biso   1.000  O
  O88      1.0000 0.50601  0.51994  0.18861  Biso   1.000  O
  O89      1.0000 0.85918  0.98449  0.98742  Biso   1.000  O
  O90      1.0000 0.04888  0.32343  0.53517  Biso   1.000  O
  O91      1.0000 0.51657  0.01982  0.36696  Biso   1.000  O
  O92      1.0000 0.17593  0.46816  0.56243  Biso   1.000  O
  O93      1.0000 0.97055  0.82934  0.01885  Biso   1.000  O
  O94      1.0000 0.01681  0.01569  0.18200  Biso   1.000  O
  O95      1.0000 0.67004  0.48229  0.97919  Biso   1.000  O
  O96      1.0000 0.47384  0.81821  0.53873  Biso   1.000  O
  O97      1.0000 0.46587  0.17713  0.50817  Biso   1.000  O
  O98      1.0000 0.51967  0.43393  0.23163  Biso   1.000  O
  O99      1.0000 0.22506  0.46220  0.47617  Biso   1.000  O
  O100     1.0000 0.98325  0.18226  0.04120  Biso   1.000  O
  O101     1.0000 0.00573  0.43082  0.31378  Biso   1.000  O
  O102     1.0000 0.71702  0.48406  0.06373  Biso   1.000  O
  O103     1.0000 0.06585  0.67905  0.52047  Biso   1.000  O
  O104     1.0000 0.01486  0.92982  0.23078  Biso   1.000  O
  O105     1.0000 0.30880  0.96809  0.48278  Biso   1.000  O
  O106     1.0000 0.55306  0.69226  0.03264  Biso   1.000  O
  O107     1.0000 0.51085  0.93279  0.32364  Biso   1.000  O
  O108     1.0000 0.81402  0.99399  0.06762  Biso   1.000  O
  O109     1.0000 0.56049  0.77359  0.53592  Biso   1.000  O
  O110     1.0000 0.51078  0.52148  0.82334  Biso   1.000  O
  O111     1.0000 0.81159  0.48138  0.56726  Biso   1.000  O
  O112     1.0000 0.05371  0.77490  0.01158  Biso   1.000  O
  O113     1.0000 0.02424  0.51692  0.73010  Biso   1.000  O
  O114     1.0000 0.31183  0.46816  0.98573  Biso   1.000  O
  O115     1.0000 0.96689  0.26625  0.52329  Biso   1.000  O
  O116     1.0000 0.02151  0.02678  0.82224  Biso   1.000  O
  O117     1.0000 0.72130  0.97582  0.56825  Biso   1.000  O
  O118     1.0000 0.47827  0.26656  0.02415  Biso   1.000  O
  O119     1.0000 0.51547  0.01975  0.72889  Biso   1.000  O
  O120     1.0000 0.22251  0.97671  0.98401  Biso   1.000  O
  O121     1.0000 0.06357  0.47577  0.73095  Biso   1.000  O
  O122     1.0000 0.72284  0.02196  0.52603  Biso   1.000  O
  O123     1.0000 0.51504  0.68640  0.08053  Biso   1.000  O
  O124     1.0000 0.55707  0.48202  0.81535  Biso   1.000  O
  O125     1.0000 0.22225  0.00953  0.03616  Biso   1.000  O
  O126     1.0000 0.02037  0.67842  0.48079  Biso   1.000  O
  O127     1.0000 0.47474  0.97679  0.73308  Biso   1.000  O
  O128     1.0000 0.81006  0.52531  0.52421  Biso   1.000  O
  O129     1.0000 0.03479  0.18366  0.07640  Biso   1.000  O
  O130     1.0000 0.97595  0.99141  0.82262  Biso   1.000  O
  O131     1.0000 0.31553  0.51208  0.02469  Biso   1.000  O
  O132     1.0000 0.51618  0.17597  0.47774  Biso   1.000  O
  O133     1.0000 0.97269  0.48502  0.31418  Biso   1.000  O
  O134     1.0000 0.31157  0.92702  0.52282  Biso   1.000  O
  O135     1.0000 0.51576  0.27132  0.98067  Biso   1.000  O
  O136     1.0000 0.47540  0.47023  0.23971  Biso   1.000  O
  O137     1.0000 0.81346  0.94543  0.03441  Biso   1.000  O
  O138     1.0000 0.00414  0.27149  0.56898  Biso   1.000  O
  O139     1.0000 0.55239  0.96914  0.32342  Biso   1.000  O
  O140     1.0000 0.22928  0.42494  0.52320  Biso   1.000  O
  O141     1.0000 0.01126  0.77958  0.97382  Biso   1.000  O
  O142     1.0000 0.05539  0.97095  0.22331  Biso   1.000  O
  O143     1.0000 0.71869  0.44070  0.02577  Biso   1.000  O
  O144     1.0000 0.51496  0.77028  0.57580  Biso   1.000  O
  O145     1.0000 0.55530  0.48383  0.23695  Biso   1.000  O
  O146     1.0000 0.22381  0.50939  0.51744  Biso   1.000  O
  O147     1.0000 0.49304  0.17880  0.56214  Biso   1.000  O
  O148     1.0000 0.05407  0.46098  0.31891  Biso   1.000  O
  O149     1.0000 0.71745  0.52492  0.02069  Biso   1.000  O
  O150     1.0000 0.01865  0.18608  0.99373  Biso   1.000  O
  O151     1.0000 0.97262  0.96994  0.22818  Biso   1.000  O
  O152     1.0000 0.31202  0.00918  0.52832  Biso   1.000  O
  O153     1.0000 0.01927  0.67752  0.56448  Biso   1.000  O
  O154     1.0000 0.46989  0.97843  0.32220  Biso   1.000  O
  O155     1.0000 0.81532  0.02601  0.02157  Biso   1.000  O
  O156     1.0000 0.51227  0.68152  0.99341  Biso   1.000  O
  O157     1.0000 0.47424  0.48038  0.81993  Biso   1.000  O
  O158     1.0000 0.80538  0.43783  0.51891  Biso   1.000  O
  O159     1.0000 0.51850  0.77524  0.49296  Biso   1.000  O
  O160     1.0000 0.98004  0.47628  0.72929  Biso   1.000  O
  O161     1.0000 0.30832  0.43053  0.03466  Biso   1.000  O
  O162     1.0000 0.01662  0.77629  0.05839  Biso   1.000  O
  O163     1.0000 0.06042  0.98275  0.81673  Biso   1.000  O
  O164     1.0000 0.71894  0.93892  0.52300  Biso   1.000  O
  O165     1.0000 0.01601  0.27330  0.48595  Biso   1.000  O
  O166     1.0000 0.55939  0.98400  0.72991  Biso   1.000  O
  O167     1.0000 0.22292  0.92852  0.01977  Biso   1.000  O
  O168     1.0000 0.52599  0.27054  0.06565  Biso   1.000  O
  O169     1.0000 0.01874  0.01239  0.23072  Biso   1.000  O
  O170     1.0000 0.22254  0.96264  0.06550  Biso   1.000  O
  O171     1.0000 0.06448  0.18188  0.02617  Biso   1.000  O
  O172     1.0000 0.51774  0.01636  0.31773  Biso   1.000  O
  O173     1.0000 0.72013  0.98260  0.48343  Biso   1.000  O
  O174     1.0000 0.54887  0.17614  0.53062  Biso   1.000  O
  O175     1.0000 0.50894  0.51775  0.23825  Biso   1.000  O
  O176     1.0000 0.31476  0.47291  0.07452  Biso   1.000  O
  O177     1.0000 0.47323  0.68007  0.04140  Biso   1.000  O
  O178     1.0000 0.02373  0.51313  0.31895  Biso   1.000  O
  O179     1.0000 0.80952  0.48192  0.48036  Biso   1.000  O
  O180     1.0000 0.98223  0.68008  0.52404  Biso   1.000  O
  O181     1.0000 0.01655  0.94581  0.81546  Biso   1.000  O
  O182     1.0000 0.81044  0.97752  0.98786  Biso   1.000  O
  O183     1.0000 0.97169  0.77947  0.01800  Biso   1.000  O
  O184     1.0000 0.51969  0.93793  0.73876  Biso   1.000  O
  O185     1.0000 0.30999  0.96999  0.56786  Biso   1.000  O
  O186     1.0000 0.47751  0.76989  0.53131  Biso   1.000  O
  O187     1.0000 0.51769  0.43859  0.81740  Biso   1.000  O
  O188     1.0000 0.71994  0.48246  0.97844  Biso   1.000  O
  O189     1.0000 0.56148  0.27127  0.01891  Biso   1.000  O
  O190     1.0000 0.02026  0.43659  0.73047  Biso   1.000  O
  O191     1.0000 0.22551  0.47108  0.56431  Biso   1.000  O
  O192     1.0000 0.05063  0.27276  0.53226  Biso   1.000  O
