data_image0
_cell_length_a       46.9559
_cell_length_b       46.6234
_cell_length_c       46.595
_cell_angle_alpha    90
_cell_angle_beta     90
_cell_angle_gamma    90

_symmetry_space_group_name_H-M    "P 1"
_symmetry_int_tables_number       1

loop_
  _symmetry_equiv_pos_as_xyz
  'x, y, z'

loop_
  _atom_site_label
  _atom_site_occupancy
  _atom_site_fract_x
  _atom_site_fract_y
  _atom_site_fract_z
  _atom_site_thermal_displace_type
  _atom_site_B_iso_or_equiv
  _atom_site_type_symbol
  C1       1.0000 0.59284  0.98153  0.34260  Biso   1.000  C
  C2       1.0000 0.34991  0.55088  0.02201  Biso   1.000  C
  C3       1.0000 0.05080  0.29720  0.57547  Biso   1.000  C
  C4       1.0000 0.08902  0.97540  0.19359  Biso   1.000  C
  C5       1.0000 0.84268  0.51883  0.51679  Biso   1.000  C
  C6       1.0000 0.52053  0.29581  0.97285  Biso   1.000  C
  C7       1.0000 0.97734  0.46269  0.34215  Biso   1.000  C
  C8       1.0000 0.19713  0.05413  0.99674  Biso   1.000  C
  C9       1.0000 0.52105  0.80150  0.56361  Biso   1.000  C
  C10      1.0000 0.47783  0.49589  0.20194  Biso   1.000  C
  C11      1.0000 0.70903  0.02576  0.53330  Biso   1.000  C
  C12      1.0000 0.03357  0.79675  0.96275  Biso   1.000  C
  C13      1.0000 0.45759  0.96803  0.69623  Biso   1.000  C
  C14      1.0000 0.70750  0.40752  0.02129  Biso   1.000  C
  C15      1.0000 0.02076  0.66098  0.46445  Biso   1.000  C
  C16      1.0000 0.95767  0.98038  0.84488  Biso   1.000  C
  C17      1.0000 0.21070  0.43613  0.52441  Biso   1.000  C
  C18      1.0000 0.52698  0.66272  0.06233  Biso   1.000  C
  C19      1.0000 0.07895  0.47987  0.70458  Biso   1.000  C
  C20      1.0000 0.84825  0.90876  0.02077  Biso   1.000  C
  C21      1.0000 0.53421  0.16207  0.47059  Biso   1.000  C
  C22      1.0000 0.57975  0.46976  0.83886  Biso   1.000  C
  C23      1.0000 0.33806  0.92920  0.49741  Biso   1.000  C
  C24      1.0000 0.00909  0.15719  0.07379  Biso   1.000  C
  C25      1.0000 0.34775  0.03659  0.51543  Biso   1.000  C
  C26      1.0000 0.50352  0.30571  0.07968  Biso   1.000  C
  C27      1.0000 0.08366  0.47925  0.34239  Biso   1.000  C
  C28      1.0000 0.84366  0.01571  0.04112  Biso   1.000  C
  C29      1.0000 0.03283  0.29011  0.46870  Biso   1.000  C
  C30      1.0000 0.58708  0.49738  0.19745  Biso   1.000  C
  C31      1.0000 0.20488  0.54295  0.51786  Biso   1.000  C
  C32      1.0000 0.04096  0.79700  0.07128  Biso   1.000  C
  C33      1.0000 0.48100  0.99202  0.33292  Biso   1.000  C
  C34      1.0000 0.71281  0.51756  0.01145  Biso   1.000  C
  C35      1.0000 0.50957  0.80556  0.45671  Biso   1.000  C
  C36      1.0000 0.98030  0.97205  0.20345  Biso   1.000  C
  C37      1.0000 0.70012  0.91801  0.54047  Biso   1.000  C
  C38      1.0000 0.54015  0.65845  0.95529  Biso   1.000  C
  C39      1.0000 0.96851  0.47335  0.69848  Biso   1.000  C
  C40      1.0000 0.20305  0.94376  0.01789  Biso   1.000  C
  C41      1.0000 0.01558  0.65819  0.57235  Biso   1.000  C
  C42      1.0000 0.47155  0.47043  0.84098  Biso   1.000  C
  C43      1.0000 0.85099  0.40835  0.51865  Biso   1.000  C
  C44      1.0000 0.01365  0.15813  0.96716  Biso   1.000  C
  C45      1.0000 0.56892  0.96534  0.70645  Biso   1.000  C
  C46      1.0000 0.34332  0.44002  0.01805  Biso   1.000  C
  C47      1.0000 0.53143  0.15896  0.58217  Biso   1.000  C
  C48      1.0000 0.06837  0.97328  0.83502  Biso   1.000  C
  C49      1.0000 0.02034  0.03120  0.84158  Biso   1.000  C
  C50      1.0000 0.84552  0.95014  0.08751  Biso   1.000  C
  C51      1.0000 0.09040  0.80438  0.01548  Biso   1.000  C
  C52      1.0000 0.51345  0.02371  0.70481  Biso   1.000  C
  C53      1.0000 0.34605  0.99588  0.45402  Biso   1.000  C
  C54      1.0000 0.57217  0.80204  0.50093  Biso   1.000  C
  C55      1.0000 0.52239  0.52470  0.83891  Biso   1.000  C
  C56      1.0000 0.70711  0.46414  0.06998  Biso   1.000  C
  C57      1.0000 0.45906  0.30322  0.01851  Biso   1.000  C
  C58      1.0000 0.02333  0.53102  0.69868  Biso   1.000  C
  C59      1.0000 0.20841  0.48780  0.47134  Biso   1.000  C
  C60      1.0000 0.98768  0.28877  0.53250  Biso   1.000  C
  C61      1.0000 0.03752  0.92214  0.20200  Biso   1.000  C
  C62      1.0000 0.20179  0.98772  0.95240  Biso   1.000  C
  C63      1.0000 0.95647  0.15424  0.01855  Biso   1.000  C
  C64      1.0000 0.53221  0.93345  0.33105  Biso   1.000  C
  C65      1.0000 0.69943  0.97370  0.58961  Biso   1.000  C
  C66      1.0000 0.47789  0.16253  0.52524  Biso   1.000  C
  C67      1.0000 0.53581  0.43820  0.20095  Biso   1.000  C
  C68      1.0000 0.34501  0.49972  0.96564  Biso   1.000  C
  C69      1.0000 0.59135  0.65678  0.01178  Biso   1.000  C
  C70      1.0000 0.04387  0.41932  0.34470  Biso   1.000  C
  C71      1.0000 0.84279  0.46310  0.56838  Biso   1.000  C
  C72      1.0000 0.06923  0.66335  0.52011  Biso   1.000  C
  C73      1.0000 0.02158  0.52723  0.34134  Biso   1.000  C
  C74      1.0000 0.33325  0.97392  0.56001  Biso   1.000  C
  C75      1.0000 0.56601  0.29650  0.03583  Biso   1.000  C
  C76      1.0000 0.53041  0.54897  0.20138  Biso   1.000  C
  C77      1.0000 0.83873  0.97196  0.97974  Biso   1.000  C
  C78      1.0000 0.09335  0.29864  0.51025  Biso   1.000  C
  C79      1.0000 0.54127  0.04073  0.33713  Biso   1.000  C
  C80      1.0000 0.20612  0.49240  0.57793  Biso   1.000  C
  C81      1.0000 0.98038  0.79275  0.01475  Biso   1.000  C
  C82      1.0000 0.03257  0.02990  0.19857  Biso   1.000  C
  C83      1.0000 0.71263  0.45624  0.96139  Biso   1.000  C
  C84      1.0000 0.46269  0.80007  0.51195  Biso   1.000  C
  C85      1.0000 0.02453  0.42274  0.70309  Biso   1.000  C
  C86      1.0000 0.70469  0.96656  0.48090  Biso   1.000  C
  C87      1.0000 0.48240  0.66592  0.00089  Biso   1.000  C
  C88      1.0000 0.52824  0.41601  0.84127  Biso   1.000  C
  C89      1.0000 0.20508  0.00700  0.05887  Biso   1.000  C
  C90      1.0000 0.95909  0.65413  0.51399  Biso   1.000  C
  C91      1.0000 0.51143  0.91517  0.69783  Biso   1.000  C
  C92      1.0000 0.84526  0.46239  0.45970  Biso   1.000  C
  C93      1.0000 0.06324  0.16478  0.02165  Biso   1.000  C
  C94      1.0000 0.00452  0.92478  0.84065  Biso   1.000  C
  C95      1.0000 0.34932  0.49301  0.07597  Biso   1.000  C
  C96      1.0000 0.58721  0.16009  0.52884  Biso   1.000  C
  C97      1.0000 0.71059  0.05756  0.52945  Biso   1.000  C
  C98      1.0000 0.51868  0.66326  0.09365  Biso   1.000  C
  C99      1.0000 0.10999  0.48876  0.70393  Biso   1.000  C
  C100     1.0000 0.19808  0.08640  0.99812  Biso   1.000  C
  C101     1.0000 0.02555  0.66121  0.43359  Biso   1.000  C
  C102     1.0000 0.61181  0.46734  0.83815  Biso   1.000  C
  C103     1.0000 0.84058  0.55029  0.51561  Biso   1.000  C
  C104     1.0000 0.01296  0.15662  0.10522  Biso   1.000  C
  C105     1.0000 0.42508  0.96881  0.69334  Biso   1.000  C
  C106     1.0000 0.34902  0.58230  0.01367  Biso   1.000  C
  C107     1.0000 0.53753  0.16222  0.43924  Biso   1.000  C
  C108     1.0000 0.92539  0.97791  0.84763  Biso   1.000  C
  C109     1.0000 0.33739  0.89612  0.49691  Biso   1.000  C
  C110     1.0000 0.52888  0.29318  0.94305  Biso   1.000  C
  C111     1.0000 0.94576  0.46207  0.33973  Biso   1.000  C
  C112     1.0000 0.84819  0.87651  0.01166  Biso   1.000  C
  C113     1.0000 0.05319  0.29782  0.60690  Biso   1.000  C
  C114     1.0000 0.44497  0.49758  0.20409  Biso   1.000  C
  C115     1.0000 0.21323  0.40366  0.51930  Biso   1.000  C
  C116     1.0000 0.02655  0.79726  0.93177  Biso   1.000  C
  C117     1.0000 0.62462  0.97956  0.34601  Biso   1.000  C
  C118     1.0000 0.70148  0.37714  0.02924  Biso   1.000  C
  C119     1.0000 0.51583  0.79943  0.59582  Biso   1.000  C
  C120     1.0000 0.12136  0.97495  0.19189  Biso   1.000  C
  C121     1.0000 0.84610  0.94904  0.11993  Biso   1.000  C
  C122     1.0000 0.12322  0.80836  0.01739  Biso   1.000  C
  C123     1.0000 0.02771  0.06222  0.84231  Biso   1.000  C
  C124     1.0000 0.34928  0.99691  0.42224  Biso   1.000  C
  C125     1.0000 0.60482  0.80251  0.49659  Biso   1.000  C
  C126     1.0000 0.51811  0.05510  0.70394  Biso   1.000  C
  C127     1.0000 0.70674  0.46346  0.10298  Biso   1.000  C
  C128     1.0000 0.42672  0.30516  0.01427  Biso   1.000  C
  C129     1.0000 0.52172  0.55616  0.83660  Biso   1.000  C
  C130     1.0000 0.20954  0.48564  0.43904  Biso   1.000  C
  C131     1.0000 0.95578  0.28798  0.53639  Biso   1.000  C
  C132     1.0000 0.02181  0.56361  0.69932  Biso   1.000  C
  C133     1.0000 0.20062  0.97543  0.92329  Biso   1.000  C
  C134     1.0000 0.92481  0.15045  0.01734  Biso   1.000  C
  C135     1.0000 0.03991  0.88980  0.20137  Biso   1.000  C
  C136     1.0000 0.69884  0.97086  0.62076  Biso   1.000  C
  C137     1.0000 0.44579  0.16300  0.52538  Biso   1.000  C
  C138     1.0000 0.53247  0.90088  0.33104  Biso   1.000  C
  C139     1.0000 0.34669  0.50301  0.93426  Biso   1.000  C
  C140     1.0000 0.62371  0.65339  0.00911  Biso   1.000  C
  C141     1.0000 0.52916  0.40618  0.20277  Biso   1.000  C
  C142     1.0000 0.84329  0.46267  0.60040  Biso   1.000  C
  C143     1.0000 0.10033  0.66842  0.51601  Biso   1.000  C
  C144     1.0000 0.05050  0.38810  0.34411  Biso   1.000  C
  C145     1.0000 0.34739  0.49120  0.10788  Biso   1.000  C
  C146     1.0000 0.12503  0.30191  0.50846  Biso   1.000  C
  C147     1.0000 0.54046  0.07224  0.33715  Biso   1.000  C
  C148     1.0000 0.84550  0.46020  0.42706  Biso   1.000  C
  C149     1.0000 0.59638  0.29285  0.04131  Biso   1.000  C
  C150     1.0000 0.03100  0.06216  0.20053  Biso   1.000  C
  C151     1.0000 0.20653  0.00409  0.09081  Biso   1.000  C
  C152     1.0000 0.42976  0.80047  0.51448  Biso   1.000  C
  C153     1.0000 0.02092  0.55889  0.34219  Biso   1.000  C
  C154     1.0000 0.70905  0.96875  0.44984  Biso   1.000  C
  C155     1.0000 0.94858  0.78989  0.01009  Biso   1.000  C
  C156     1.0000 0.53045  0.58259  0.19822  Biso   1.000  C
  C157     1.0000 0.71215  0.45372  0.93064  Biso   1.000  C
  C158     1.0000 0.92785  0.65368  0.51448  Biso   1.000  C
  C159     1.0000 0.50604  0.88406  0.69607  Biso   1.000  C
  C160     1.0000 0.20389  0.49712  0.60965  Biso   1.000  C
  C161     1.0000 0.45003  0.66916  0.99685  Biso   1.000  C
  C162     1.0000 0.00278  0.89267  0.84229  Biso   1.000  C
  C163     1.0000 0.83684  0.97438  0.94702  Biso   1.000  C
  C164     1.0000 0.62035  0.15918  0.53166  Biso   1.000  C
  C165     1.0000 0.02339  0.38984  0.70125  Biso   1.000  C
  C166     1.0000 0.33214  0.97539  0.59278  Biso   1.000  C
  C167     1.0000 0.09548  0.16965  0.02231  Biso   1.000  C
  C168     1.0000 0.52644  0.38279  0.84325  Biso   1.000  C
  C169     1.0000 0.03755  0.79740  0.10255  Biso   1.000  C
  C170     1.0000 0.09934  0.97432  0.83201  Biso   1.000  C
  C171     1.0000 0.84045  0.04766  0.04108  Biso   1.000  C
  C172     1.0000 0.50586  0.80613  0.42451  Biso   1.000  C
  C173     1.0000 0.60153  0.96161  0.70965  Biso   1.000  C
  C174     1.0000 0.34881  0.06810  0.51760  Biso   1.000  C
  C175     1.0000 0.50083  0.30744  0.11180  Biso   1.000  C
  C176     1.0000 0.43921  0.47287  0.84144  Biso   1.000  C
  C177     1.0000 0.71540  0.55021  0.00501  Biso   1.000  C
  C178     1.0000 0.03372  0.29089  0.43725  Biso   1.000  C
  C179     1.0000 0.93609  0.46705  0.69607  Biso   1.000  C
  C180     1.0000 0.20344  0.57532  0.51439  Biso   1.000  C
  C181     1.0000 0.01590  0.15868  0.93522  Biso   1.000  C
  C182     1.0000 0.94847  0.97149  0.20680  Biso   1.000  C
  C183     1.0000 0.20696  0.91275  0.02127  Biso   1.000  C
  C184     1.0000 0.53456  0.15595  0.61345  Biso   1.000  C
  C185     1.0000 0.44905  0.98724  0.33154  Biso   1.000  C
  C186     1.0000 0.69936  0.88658  0.54104  Biso   1.000  C
  C187     1.0000 0.53922  0.65622  0.92329  Biso   1.000  C
  C188     1.0000 0.61868  0.49496  0.19720  Biso   1.000  C
  C189     1.0000 0.33914  0.40807  0.00918  Biso   1.000  C
  C190     1.0000 0.01385  0.66026  0.60363  Biso   1.000  C
  C191     1.0000 0.11493  0.48336  0.34239  Biso   1.000  C
  C192     1.0000 0.85198  0.37725  0.52574  Biso   1.000  C
  C193     1.0000 0.86272  0.97723  0.93031  Biso   1.000  C
  C194     1.0000 0.92958  0.81524  0.00944  Biso   1.000  C
  C195     1.0000 0.00799  0.87503  0.86903  Biso   1.000  C
  C196     1.0000 0.35914  0.97270  0.60910  Biso   1.000  C
  C197     1.0000 0.41276  0.82757  0.51311  Biso   1.000  C
  C198     1.0000 0.50502  0.87157  0.66809  Biso   1.000  C
  C199     1.0000 0.68467  0.45606  0.91569  Biso   1.000  C
  C200     1.0000 0.61528  0.31769  0.03834  Biso   1.000  C
  C201     1.0000 0.52738  0.36727  0.87131  Biso   1.000  C
  C202     1.0000 0.17562  0.49439  0.62447  Biso   1.000  C
  C203     1.0000 0.13897  0.32860  0.51491  Biso   1.000  C
  C204     1.0000 0.02925  0.37455  0.67456  Biso   1.000  C
  C205     1.0000 0.18241  0.99561  0.10676  Biso   1.000  C
  C206     1.0000 0.11474  0.14441  0.01931  Biso   1.000  C
  C207     1.0000 0.02578  0.07932  0.17342  Biso   1.000  C
  C208     1.0000 0.68483  0.97432  0.43022  Biso   1.000  C
  C209     1.0000 0.63527  0.12983  0.53083  Biso   1.000  C
  C210     1.0000 0.53722  0.08686  0.36541  Biso   1.000  C
  C211     1.0000 0.37534  0.49565  0.12373  Biso   1.000  C
  C212     1.0000 0.43348  0.64312  0.99988  Biso   1.000  C
  C213     1.0000 0.52638  0.59481  0.17030  Biso   1.000  C
  C214     1.0000 0.87262  0.45954  0.41263  Biso   1.000  C
  C215     1.0000 0.91419  0.62455  0.51736  Biso   1.000  C
  C216     1.0000 0.01951  0.57696  0.36838  Biso   1.000  C
  C217     1.0000 0.11671  0.97683  0.85774  Biso   1.000  C
  C218     1.0000 0.86428  0.06527  0.03359  Biso   1.000  C
  C219     1.0000 0.03821  0.82327  0.12068  Biso   1.000  C
  C220     1.0000 0.61828  0.96474  0.68472  Biso   1.000  C
  C221     1.0000 0.37640  0.08369  0.51911  Biso   1.000  C
  C222     1.0000 0.51338  0.83340  0.40979  Biso   1.000  C
  C223     1.0000 0.42385  0.47753  0.86807  Biso   1.000  C
  C224     1.0000 0.68900  0.56774  0.00790  Biso   1.000  C
  C225     1.0000 0.50486  0.33598  0.12688  Biso   1.000  C
  C226     1.0000 0.92007  0.46496  0.66921  Biso   1.000  C
  C227     1.0000 0.17527  0.59023  0.51512  Biso   1.000  C
  C228     1.0000 0.03761  0.31893  0.42120  Biso   1.000  C
  C229     1.0000 0.93022  0.96585  0.18216  Biso   1.000  C
  C230     1.0000 0.18219  0.89315  0.02021  Biso   1.000  C
  C231     1.0000 0.01807  0.13215  0.91950  Biso   1.000  C
  C232     1.0000 0.43104  0.98965  0.35768  Biso   1.000  C
  C233     1.0000 0.67420  0.87267  0.53114  Biso   1.000  C
  C234     1.0000 0.53001  0.12839  0.62841  Biso   1.000  C
  C235     1.0000 0.63166  0.48844  0.16971  Biso   1.000  C
  C236     1.0000 0.36342  0.38872  0.00970  Biso   1.000  C
  C237     1.0000 0.53886  0.62735  0.90930  Biso   1.000  C
  C238     1.0000 0.13106  0.48186  0.36948  Biso   1.000  C
  C239     1.0000 0.88099  0.36446  0.52729  Biso   1.000  C
  C240     1.0000 0.01561  0.63232  0.62023  Biso   1.000  C
  C241     1.0000 0.62905  0.46315  0.86383  Biso   1.000  C
  C242     1.0000 0.86735  0.56844  0.51780  Biso   1.000  C
  C243     1.0000 0.51160  0.82567  0.61229  Biso   1.000  C
  C244     1.0000 0.12494  0.48807  0.67609  Biso   1.000  C
  C245     1.0000 0.37677  0.59670  0.00919  Biso   1.000  C
  C246     1.0000 0.02078  0.82474  0.91608  Biso   1.000  C
  C247     1.0000 0.91143  0.97844  0.87518  Biso   1.000  C
  C248     1.0000 0.68423  0.07505  0.52660  Biso   1.000  C
  C249     1.0000 0.04479  0.32357  0.62252  Biso   1.000  C
  C250     1.0000 0.41008  0.97049  0.66469  Biso   1.000  C
  C251     1.0000 0.17007  0.10010  0.00363  Biso   1.000  C
  C252     1.0000 0.52995  0.31868  0.92423  Biso   1.000  C
  C253     1.0000 0.42711  0.49848  0.17600  Biso   1.000  C
  C254     1.0000 0.18749  0.38494  0.51988  Biso   1.000  C
  C255     1.0000 0.53760  0.13626  0.42058  Biso   1.000  C
  C256     1.0000 0.92858  0.46001  0.36535  Biso   1.000  C
  C257     1.0000 0.67232  0.36503  0.03453  Biso   1.000  C
  C258     1.0000 0.01901  0.12982  0.12106  Biso   1.000  C
  C259     1.0000 0.13520  0.98049  0.16416  Biso   1.000  C
  C260     1.0000 0.36400  0.87998  0.50289  Biso   1.000  C
  C261     1.0000 0.02444  0.63262  0.41856  Biso   1.000  C
  C262     1.0000 0.63856  0.97925  0.37548  Biso   1.000  C
  C263     1.0000 0.87682  0.86264  0.01038  Biso   1.000  C
  C264     1.0000 0.52271  0.63883  0.11237  Biso   1.000  C
  C265     1.0000 0.02502  0.08003  0.86893  Biso   1.000  C
  C266     1.0000 0.87559  0.95178  0.13418  Biso   1.000  C
  C267     1.0000 0.13593  0.83620  0.01837  Biso   1.000  C
  C268     1.0000 0.52187  0.07213  0.67675  Biso   1.000  C
  C269     1.0000 0.37613  0.99539  0.40707  Biso   1.000  C
  C270     1.0000 0.62231  0.82703  0.50583  Biso   1.000  C
  C271     1.0000 0.52529  0.57289  0.86260  Biso   1.000  C
  C272     1.0000 0.67949  0.46831  0.11753  Biso   1.000  C
  C273     1.0000 0.41239  0.33428  0.01208  Biso   1.000  C
  C274     1.0000 0.02099  0.58022  0.67034  Biso   1.000  C
  C275     1.0000 0.18267  0.48494  0.42065  Biso   1.000  C
  C276     1.0000 0.93803  0.31586  0.53427  Biso   1.000  C
  C277     1.0000 0.03984  0.87425  0.17343  Biso   1.000  C
  C278     1.0000 0.17176  0.97446  0.90916  Biso   1.000  C
  C279     1.0000 0.91290  0.12119  0.02434  Biso   1.000  C
  C280     1.0000 0.52762  0.88563  0.35737  Biso   1.000  C
  C281     1.0000 0.67053  0.96646  0.63428  Biso   1.000  C
  C282     1.0000 0.43082  0.13487  0.52477  Biso   1.000  C
  C283     1.0000 0.51796  0.38930  0.17666  Biso   1.000  C
  C284     1.0000 0.37329  0.49670  0.91949  Biso   1.000  C
  C285     1.0000 0.63766  0.62347  0.00914  Biso   1.000  C
  C286     1.0000 0.04762  0.37089  0.37085  Biso   1.000  C
  C287     1.0000 0.86990  0.46344  0.61717  Biso   1.000  C
  C288     1.0000 0.11872  0.64138  0.51489  Biso   1.000  C
  C289     1.0000 0.36076  0.84907  0.50238  Biso   1.000  C
  C290     1.0000 0.53443  0.31507  0.89392  Biso   1.000  C
  C291     1.0000 0.89668  0.46024  0.36192  Biso   1.000  C
  C292     1.0000 0.87679  0.83134  0.00918  Biso   1.000  C
  C293     1.0000 0.04218  0.32292  0.65461  Biso   1.000  C
  C294     1.0000 0.39638  0.49795  0.17711  Biso   1.000  C
  C295     1.0000 0.19135  0.35331  0.51677  Biso   1.000  C
  C296     1.0000 0.01329  0.82232  0.88681  Biso   1.000  C
  C297     1.0000 0.67044  0.97729  0.37645  Biso   1.000  C
  C298     1.0000 0.66928  0.33402  0.03939  Biso   1.000  C
  C299     1.0000 0.50731  0.82059  0.64315  Biso   1.000  C
  C300     1.0000 0.16619  0.98787  0.16177  Biso   1.000  C
  C301     1.0000 0.68758  0.10631  0.52585  Biso   1.000  C
  C302     1.0000 0.52053  0.64572  0.14297  Biso   1.000  C
  C303     1.0000 0.15535  0.49518  0.67745  Biso   1.000  C
  C304     1.0000 0.16821  0.13136  0.00788  Biso   1.000  C
  C305     1.0000 0.02804  0.63145  0.38730  Biso   1.000  C
  C306     1.0000 0.66030  0.45827  0.86403  Biso   1.000  C
  C307     1.0000 0.86318  0.60030  0.51791  Biso   1.000  C
  C308     1.0000 0.02097  0.13237  0.15186  Biso   1.000  C
  C309     1.0000 0.37840  0.97434  0.66287  Biso   1.000  C
  C310     1.0000 0.37921  0.62764  0.00625  Biso   1.000  C
  C311     1.0000 0.53672  0.13942  0.38885  Biso   1.000  C
  C312     1.0000 0.87896  0.97640  0.87674  Biso   1.000  C
  C313     1.0000 0.18329  0.48501  0.38936  Biso   1.000  C
  C314     1.0000 0.39905  0.13682  0.52253  Biso   1.000  C
  C315     1.0000 0.51561  0.35813  0.17847  Biso   1.000  C
  C316     1.0000 0.68303  0.47596  0.14813  Biso   1.000  C
  C317     1.0000 0.88087  0.11959  0.02597  Biso   1.000  C
  C318     1.0000 0.04457  0.33894  0.36880  Biso   1.000  C
  C319     1.0000 0.37668  0.99267  0.37622  Biso   1.000  C
  C320     1.0000 0.14963  0.64231  0.50870  Biso   1.000  C
  C321     1.0000 0.03767  0.84220  0.17440  Biso   1.000  C
  C322     1.0000 0.87765  0.95308  0.16579  Biso   1.000  C
  C323     1.0000 0.66876  0.62186  0.00454  Biso   1.000  C
  C324     1.0000 0.52124  0.85511  0.35705  Biso   1.000  C
  C325     1.0000 0.86719  0.46431  0.64806  Biso   1.000  C
  C326     1.0000 0.65323  0.82310  0.51422  Biso   1.000  C
  C327     1.0000 0.52787  0.60423  0.85882  Biso   1.000  C
  C328     1.0000 0.37346  0.49253  0.88866  Biso   1.000  C
  C329     1.0000 0.16788  0.83843  0.01867  Biso   1.000  C
  C330     1.0000 0.01714  0.61141  0.67277  Biso   1.000  C
  C331     1.0000 0.67075  0.96576  0.66607  Biso   1.000  C
  C332     1.0000 0.90594  0.31262  0.53700  Biso   1.000  C
  C333     1.0000 0.02310  0.11062  0.86742  Biso   1.000  C
  C334     1.0000 0.17066  0.97460  0.87749  Biso   1.000  C
  C335     1.0000 0.38080  0.33548  0.00820  Biso   1.000  C
  C336     1.0000 0.52615  0.10402  0.67950  Biso   1.000  C
  C337     1.0000 0.68340  0.45516  0.88388  Biso   1.000  C
  C338     1.0000 0.88318  0.62353  0.51665  Biso   1.000  C
  C339     1.0000 0.50609  0.83956  0.66713  Biso   1.000  C
  C340     1.0000 0.17682  0.49635  0.65544  Biso   1.000  C
  C341     1.0000 0.40260  0.64566  0.00128  Biso   1.000  C
  C342     1.0000 0.00833  0.84382  0.86563  Biso   1.000  C
  C343     1.0000 0.85826  0.97554  0.89878  Biso   1.000  C
  C344     1.0000 0.66692  0.12984  0.52682  Biso   1.000  C
  C345     1.0000 0.03429  0.34385  0.67580  Biso   1.000  C
  C346     1.0000 0.35728  0.97473  0.64052  Biso   1.000  C
  C347     1.0000 0.14478  0.15006  0.01416  Biso   1.000  C
  C348     1.0000 0.53280  0.33585  0.87157  Biso   1.000  C
  C349     1.0000 0.37411  0.49557  0.15534  Biso   1.000  C
  C350     1.0000 0.17102  0.32958  0.51283  Biso   1.000  C
  C351     1.0000 0.53729  0.11838  0.36602  Biso   1.000  C
  C352     1.0000 0.87269  0.46049  0.38173  Biso   1.000  C
  C353     1.0000 0.64607  0.31412  0.04148  Biso   1.000  C
  C354     1.0000 0.02322  0.11052  0.17414  Biso   1.000  C
  C355     1.0000 0.18522  0.99332  0.13822  Biso   1.000  C
  C356     1.0000 0.38166  0.82666  0.50547  Biso   1.000  C
  C357     1.0000 0.02582  0.60859  0.36715  Biso   1.000  C
  C358     1.0000 0.68979  0.97616  0.40047  Biso   1.000  C
  C359     1.0000 0.89837  0.81078  0.00840  Biso   1.000  C
  C360     1.0000 0.52477  0.62607  0.16769  Biso   1.000  C
  C361     1.0000 0.02154  0.13276  0.88798  Biso   1.000  C
  C362     1.0000 0.89982  0.95862  0.18475  Biso   1.000  C
  C363     1.0000 0.18689  0.86215  0.01918  Biso   1.000  C
  C364     1.0000 0.53106  0.12613  0.65985  Biso   1.000  C
  C365     1.0000 0.39983  0.99143  0.35589  Biso   1.000  C
  C366     1.0000 0.67541  0.84218  0.52431  Biso   1.000  C
  C367     1.0000 0.53273  0.62707  0.87850  Biso   1.000  C
  C368     1.0000 0.66284  0.48345  0.16945  Biso   1.000  C
  C369     1.0000 0.36028  0.35839  0.00666  Biso   1.000  C
  C370     1.0000 0.01519  0.63335  0.65102  Biso   1.000  C
  C371     1.0000 0.16188  0.48654  0.36795  Biso   1.000  C
  C372     1.0000 0.88302  0.33369  0.53414  Biso   1.000  C
  C373     1.0000 0.03871  0.82162  0.15257  Biso   1.000  C
  C374     1.0000 0.14820  0.97603  0.85622  Biso   1.000  C
  C375     1.0000 0.85996  0.09645  0.03091  Biso   1.000  C
  C376     1.0000 0.51485  0.83318  0.37828  Biso   1.000  C
  C377     1.0000 0.64949  0.96407  0.68733  Biso   1.000  C
  C378     1.0000 0.37582  0.11512  0.52269  Biso   1.000  C
  C379     1.0000 0.51036  0.33602  0.15798  Biso   1.000  C
  C380     1.0000 0.39325  0.48537  0.86747  Biso   1.000  C
  C381     1.0000 0.69083  0.60008  0.00467  Biso   1.000  C
  C382     1.0000 0.03908  0.31755  0.38972  Biso   1.000  C
  C383     1.0000 0.88867  0.46428  0.67038  Biso   1.000  C
  C384     1.0000 0.17303  0.62169  0.50820  Biso   1.000  C
  C385     1.0000 0.19325  0.14917  0.00406  Biso   1.000  C
  C386     1.0000 0.01877  0.15932  0.16848  Biso   1.000  C
  C387     1.0000 0.18445  0.98699  0.18740  Biso   1.000  C
  C388     1.0000 0.71561  0.11986  0.52414  Biso   1.000  C
  C389     1.0000 0.53668  0.16665  0.37428  Biso   1.000  C
  C390     1.0000 0.68824  0.97637  0.35216  Biso   1.000  C
  C391     1.0000 0.35357  0.64564  0.00684  Biso   1.000  C
  C392     1.0000 0.51533  0.67433  0.15659  Biso   1.000  C
  C393     1.0000 0.38096  0.49434  0.20528  Biso   1.000  C
  C394     1.0000 0.83426  0.61395  0.51693  Biso   1.000  C
  C395     1.0000 0.03554  0.65720  0.37120  Biso   1.000  C
  C396     1.0000 0.88286  0.46155  0.33467  Biso   1.000  C
  C397     1.0000 0.84998  0.81475  0.00464  Biso   1.000  C
  C398     1.0000 0.01156  0.79583  0.87166  Biso   1.000  C
  C399     1.0000 0.86227  0.97318  0.85091  Biso   1.000  C
  C400     1.0000 0.33454  0.83463  0.49689  Biso   1.000  C
  C401     1.0000 0.50963  0.79246  0.65658  Biso   1.000  C
  C402     1.0000 0.36171  0.97782  0.68953  Biso   1.000  C
  C403     1.0000 0.69587  0.31533  0.04076  Biso   1.000  C
  C404     1.0000 0.53758  0.28770  0.88081  Biso   1.000  C
  C405     1.0000 0.67538  0.45908  0.83723  Biso   1.000  C
  C406     1.0000 0.21951  0.33934  0.51528  Biso   1.000  C
  C407     1.0000 0.04332  0.29518  0.66885  Biso   1.000  C
  C408     1.0000 0.17078  0.50254  0.70390  Biso   1.000  C
  C409     1.0000 0.16224  0.97311  0.82754  Biso   1.000  C
  C410     1.0000 0.83291  0.11200  0.03460  Biso   1.000  C
  C411     1.0000 0.03556  0.79334  0.16626  Biso   1.000  C
  C412     1.0000 0.66446  0.95934  0.71487  Biso   1.000  C
  C413     1.0000 0.34811  0.13138  0.52070  Biso   1.000  C
  C414     1.0000 0.51166  0.80574  0.36231  Biso   1.000  C
  C415     1.0000 0.37755  0.48692  0.83983  Biso   1.000  C
  C416     1.0000 0.71809  0.61357  0.99832  Biso   1.000  C
  C417     1.0000 0.51275  0.30871  0.17452  Biso   1.000  C
  C418     1.0000 0.87224  0.46415  0.69588  Biso   1.000  C
  C419     1.0000 0.19803  0.63891  0.50111  Biso   1.000  C
  C420     1.0000 0.04073  0.29058  0.37499  Biso   1.000  C
  C421     1.0000 0.88658  0.96172  0.21314  Biso   1.000  C
  C422     1.0000 0.21498  0.84846  0.01851  Biso   1.000  C
  C423     1.0000 0.02488  0.15999  0.87258  Biso   1.000  C
  C424     1.0000 0.38719  0.98790  0.32793  Biso   1.000  C
  C425     1.0000 0.70025  0.82465  0.52976  Biso   1.000  C
  C426     1.0000 0.53345  0.15235  0.67706  Biso   1.000  C
  C427     1.0000 0.67936  0.48660  0.19528  Biso   1.000  C
  C428     1.0000 0.33213  0.34518  0.00242  Biso   1.000  C
  C429     1.0000 0.53000  0.65410  0.86063  Biso   1.000  C
  C430     1.0000 0.17831  0.49222  0.34236  Biso   1.000  C
  C431     1.0000 0.85668  0.31639  0.53714  Biso   1.000  C
  C432     1.0000 0.01301  0.66059  0.66660  Biso   1.000  C
  C433     1.0000 0.02790  0.12486  0.83954  Biso   1.000  C
  C434     1.0000 0.85146  0.95410  0.18307  Biso   1.000  C
  C435     1.0000 0.18535  0.81262  0.01647  Biso   1.000  C
  C436     1.0000 0.52650  0.11865  0.70694  Biso   1.000  C
  C437     1.0000 0.35136  0.99003  0.35852  Biso   1.000  C
  C438     1.0000 0.66776  0.79517  0.51083  Biso   1.000  C
  C439     1.0000 0.52408  0.61890  0.83039  Biso   1.000  C
  C440     1.0000 0.71009  0.47414  0.16263  Biso   1.000  C
  C441     1.0000 0.36363  0.31051  0.00769  Biso   1.000  C
  C442     1.0000 0.01477  0.62762  0.70005  Biso   1.000  C
  C443     1.0000 0.21119  0.48869  0.37455  Biso   1.000  C
  C444     1.0000 0.89176  0.28429  0.54135  Biso   1.000  C
  C445     1.0000 0.03791  0.82605  0.20073  Biso   1.000  C
  C446     1.0000 0.19608  0.97353  0.86072  Biso   1.000  C
  C447     1.0000 0.86237  0.14407  0.02526  Biso   1.000  C
  C448     1.0000 0.52477  0.83936  0.33008  Biso   1.000  C
  C449     1.0000 0.69745  0.96443  0.68313  Biso   1.000  C
  C450     1.0000 0.38222  0.16434  0.52052  Biso   1.000  C
  C451     1.0000 0.52164  0.34320  0.20572  Biso   1.000  C
  C452     1.0000 0.34626  0.49753  0.87106  Biso   1.000  C
  C453     1.0000 0.68499  0.64812  0.99889  Biso   1.000  C
  C454     1.0000 0.04705  0.32319  0.34213  Biso   1.000  C
  C455     1.0000 0.83908  0.46367  0.66306  Biso   1.000  C
  C456     1.0000 0.16376  0.67056  0.50340  Biso   1.000  C
  C457     1.0000 0.03219  0.62209  0.34037  Biso   1.000  C
  C458     1.0000 0.32947  0.97950  0.65535  Biso   1.000  C
  C459     1.0000 0.65918  0.28520  0.04388  Biso   1.000  C
  C460     1.0000 0.52388  0.64443  0.19163  Biso   1.000  C
  C461     1.0000 0.83067  0.97310  0.88452  Biso   1.000  C
  C462     1.0000 0.18963  0.30469  0.50668  Biso   1.000  C
  C463     1.0000 0.53909  0.13568  0.33973  Biso   1.000  C
  C464     1.0000 0.20371  0.50079  0.67219  Biso   1.000  C
  C465     1.0000 0.88524  0.78332  0.00645  Biso   1.000  C
  C466     1.0000 0.02362  0.12590  0.20039  Biso   1.000  C
  C467     1.0000 0.70891  0.45554  0.86770  Biso   1.000  C
  C468     1.0000 0.36594  0.80071  0.50321  Biso   1.000  C
  C469     1.0000 0.03354  0.32632  0.70206  Biso   1.000  C
  C470     1.0000 0.71747  0.97352  0.38813  Biso   1.000  C
  C471     1.0000 0.38918  0.67470  0.99919  Biso   1.000  C
  C472     1.0000 0.53473  0.31842  0.84624  Biso   1.000  C
  C473     1.0000 0.21321  0.99848  0.15249  Biso   1.000  C
  C474     1.0000 0.86456  0.64892  0.51667  Biso   1.000  C
  C475     1.0000 0.50771  0.82217  0.69262  Biso   1.000  C
  C476     1.0000 0.84605  0.46178  0.36356  Biso   1.000  C
  C477     1.0000 0.15739  0.17944  0.01186  Biso   1.000  C
  C478     1.0000 0.00421  0.82927  0.83913  Biso   1.000  C
  C479     1.0000 0.34622  0.49391  0.17205  Biso   1.000  C
  C480     1.0000 0.68494  0.15475  0.52712  Biso   1.000  C
  C481     1.0000 0.38133  0.77355  0.50888  Biso   1.000  C
  C482     1.0000 0.53001  0.33259  0.81878  Biso   1.000  C
  C483     1.0000 0.81844  0.46202  0.37744  Biso   1.000  C
  C484     1.0000 0.90362  0.75709  0.00774  Biso   1.000  C
  C485     1.0000 0.02489  0.34062  0.72791  Biso   1.000  C
  C486     1.0000 0.31925  0.48718  0.15562  Biso   1.000  C
  C487     1.0000 0.17416  0.27628  0.50292  Biso   1.000  C
  C488     1.0000 0.00024  0.84627  0.81232  Biso   1.000  C
  C489     1.0000 0.74300  0.97064  0.40770  Biso   1.000  C
  C490     1.0000 0.64027  0.25888  0.04529  Biso   1.000  C
  C491     1.0000 0.50691  0.83582  0.72133  Biso   1.000  C
  C492     1.0000 0.23717  0.00959  0.13534  Biso   1.000  C
  C493     1.0000 0.67079  0.18362  0.52886  Biso   1.000  C
  C494     1.0000 0.52792  0.63038  0.22067  Biso   1.000  C
  C495     1.0000 0.23068  0.50379  0.65808  Biso   1.000  C
  C496     1.0000 0.13828  0.20473  0.01513  Biso   1.000  C
  C497     1.0000 0.03125  0.60494  0.31336  Biso   1.000  C
  C498     1.0000 0.73655  0.45093  0.88183  Biso   1.000  C
  C499     1.0000 0.87810  0.67815  0.51712  Biso   1.000  C
  C500     1.0000 0.02729  0.10959  0.22768  Biso   1.000  C
  C501     1.0000 0.30343  0.98219  0.63876  Biso   1.000  C
  C502     1.0000 0.40709  0.70077  0.99559  Biso   1.000  C
  C503     1.0000 0.54055  0.12119  0.31221  Biso   1.000  C
  C504     1.0000 0.80413  0.96947  0.90132  Biso   1.000  C
  C505     1.0000 0.65853  0.46311  0.80891  Biso   1.000  C
  C506     1.0000 0.80834  0.59484  0.51688  Biso   1.000  C
  C507     1.0000 0.51327  0.76619  0.63875  Biso   1.000  C
  C508     1.0000 0.15777  0.50198  0.73204  Biso   1.000  C
  C509     1.0000 0.32556  0.63205  0.01411  Biso   1.000  C
  C510     1.0000 0.01659  0.76732  0.88720  Biso   1.000  C
  C511     1.0000 0.87609  0.97069  0.82185  Biso   1.000  C
  C512     1.0000 0.74156  0.10134  0.52179  Biso   1.000  C
  C513     1.0000 0.05234  0.26925  0.65389  Biso   1.000  C
  C514     1.0000 0.37766  0.97534  0.71905  Biso   1.000  C
  C515     1.0000 0.22327  0.13512  0.99985  Biso   1.000  C
  C516     1.0000 0.53974  0.26312  0.89955  Biso   1.000  C
  C517     1.0000 0.39848  0.49418  0.23237  Biso   1.000  C
  C518     1.0000 0.24385  0.35748  0.51612  Biso   1.000  C
  C519     1.0000 0.53803  0.19337  0.39238  Biso   1.000  C
  C520     1.0000 0.90043  0.46582  0.30804  Biso   1.000  C
  C521     1.0000 0.72488  0.32694  0.03883  Biso   1.000  C
  C522     1.0000 0.01379  0.18603  0.15200  Biso   1.000  C
  C523     1.0000 0.17190  0.97830  0.21615  Biso   1.000  C
  C524     1.0000 0.30819  0.85029  0.49206  Biso   1.000  C
  C525     1.0000 0.03660  0.68666  0.38527  Biso   1.000  C
  C526     1.0000 0.67523  0.97500  0.32409  Biso   1.000  C
  C527     1.0000 0.82262  0.83086  0.00009  Biso   1.000  C
  C528     1.0000 0.51052  0.69837  0.13631  Biso   1.000  C
  C529     1.0000 0.80707  0.09457  0.04046  Biso   1.000  C
  C530     1.0000 0.02959  0.76677  0.14765  Biso   1.000  C
  C531     1.0000 0.14519  0.97211  0.80161  Biso   1.000  C
  C532     1.0000 0.31891  0.11612  0.51924  Biso   1.000  C
  C533     1.0000 0.50473  0.77834  0.37707  Biso   1.000  C
  C534     1.0000 0.64721  0.95603  0.73957  Biso   1.000  C
  C535     1.0000 0.74413  0.59573  0.99408  Biso   1.000  C
  C536     1.0000 0.50728  0.28159  0.15978  Biso   1.000  C
  C537     1.0000 0.39249  0.47728  0.81393  Biso   1.000  C
  C538     1.0000 0.22511  0.62385  0.49856  Biso   1.000  C
  C539     1.0000 0.03585  0.26308  0.38976  Biso   1.000  C
  C540     1.0000 0.88869  0.46620  0.72365  Biso   1.000  C
  C541     1.0000 0.24025  0.86810  0.02083  Biso   1.000  C
  C542     1.0000 0.02246  0.18739  0.88843  Biso   1.000  C
  C543     1.0000 0.90339  0.97114  0.23917  Biso   1.000  C
  C544     1.0000 0.72574  0.83787  0.54307  Biso   1.000  C
  C545     1.0000 0.53778  0.18032  0.66229  Biso   1.000  C
  C546     1.0000 0.40523  0.98300  0.30176  Biso   1.000  C
  C547     1.0000 0.30556  0.36395  0.00091  Biso   1.000  C
  C548     1.0000 0.53051  0.68276  0.87623  Biso   1.000  C
  C549     1.0000 0.66708  0.49218  0.22326  Biso   1.000  C
  C550     1.0000 0.82726  0.33079  0.53617  Biso   1.000  C
  C551     1.0000 0.01032  0.68792  0.65031  Biso   1.000  C
  C552     1.0000 0.16131  0.49424  0.31420  Biso   1.000  C
  C553     1.0000 0.03316  0.10883  0.81339  Biso   1.000  C
  C554     1.0000 0.82247  0.94991  0.16965  Biso   1.000  C
  C555     1.0000 0.17229  0.78321  0.01410  Biso   1.000  C
  C556     1.0000 0.52465  0.10126  0.73345  Biso   1.000  C
  C557     1.0000 0.32241  0.99247  0.37288  Biso   1.000  C
  C558     1.0000 0.65172  0.77193  0.49431  Biso   1.000  C
  C559     1.0000 0.51807  0.60085  0.80490  Biso   1.000  C
  C560     1.0000 0.73634  0.46717  0.14866  Biso   1.000  C
  C561     1.0000 0.37737  0.28126  0.01198  Biso   1.000  C
  C562     1.0000 0.01494  0.61112  0.72677  Biso   1.000  C
  C563     1.0000 0.23691  0.49023  0.39271  Biso   1.000  C
  C564     1.0000 0.90958  0.25899  0.54544  Biso   1.000  C
  C565     1.0000 0.04219  0.84301  0.22691  Biso   1.000  C
  C566     1.0000 0.22496  0.97003  0.87354  Biso   1.000  C
  C567     1.0000 0.87370  0.17292  0.01941  Biso   1.000  C
  C568     1.0000 0.52849  0.85534  0.30353  Biso   1.000  C
  C569     1.0000 0.72495  0.96898  0.66777  Biso   1.000  C
  C570     1.0000 0.39802  0.19189  0.52285  Biso   1.000  C
  C571     1.0000 0.53010  0.35972  0.23252  Biso   1.000  C
  C572     1.0000 0.31858  0.50634  0.88592  Biso   1.000  C
  C573     1.0000 0.67264  0.67716  0.00249  Biso   1.000  C
  C574     1.0000 0.05115  0.34016  0.31605  Biso   1.000  C
  C575     1.0000 0.81145  0.46178  0.64527  Biso   1.000  C
  C576     1.0000 0.14511  0.69707  0.50662  Biso   1.000  C
  C577     1.0000 0.32041  0.48621  0.12446  Biso   1.000  C
  C578     1.0000 0.14342  0.27497  0.50357  Biso   1.000  C
  C579     1.0000 0.54211  0.08892  0.31061  Biso   1.000  C
  C580     1.0000 0.81777  0.46185  0.40973  Biso   1.000  C
  C581     1.0000 0.60895  0.26282  0.04711  Biso   1.000  C
  C582     1.0000 0.03009  0.07876  0.22707  Biso   1.000  C
  C583     1.0000 0.23449  0.01129  0.10426  Biso   1.000  C
  C584     1.0000 0.41374  0.77265  0.51367  Biso   1.000  C
  C585     1.0000 0.02399  0.57514  0.31499  Biso   1.000  C
  C586     1.0000 0.73901  0.96662  0.43882  Biso   1.000  C
  C587     1.0000 0.93520  0.76061  0.00941  Biso   1.000  C
  C588     1.0000 0.53104  0.59933  0.22367  Biso   1.000  C
  C589     1.0000 0.73724  0.45019  0.91403  Biso   1.000  C
  C590     1.0000 0.91064  0.68022  0.51485  Biso   1.000  C
  C591     1.0000 0.50460  0.86721  0.72244  Biso   1.000  C
  C592     1.0000 0.23031  0.50226  0.62697  Biso   1.000  C
  C593     1.0000 0.43878  0.69819  0.99245  Biso   1.000  C
  C594     1.0000 0.99965  0.87771  0.81403  Biso   1.000  C
  C595     1.0000 0.80813  0.97132  0.93186  Biso   1.000  C
  C596     1.0000 0.63782  0.18646  0.52941  Biso   1.000  C
  C597     1.0000 0.02044  0.37150  0.72779  Biso   1.000  C
  C598     1.0000 0.30517  0.98193  0.60710  Biso   1.000  C
  C599     1.0000 0.10697  0.19973  0.01952  Biso   1.000  C
  C600     1.0000 0.52611  0.36469  0.81819  Biso   1.000  C
  C601     1.0000 0.22662  0.97133  0.90504  Biso   1.000  C
  C602     1.0000 0.90531  0.17577  0.01416  Biso   1.000  C
  C603     1.0000 0.04140  0.87384  0.22719  Biso   1.000  C
  C604     1.0000 0.72622  0.97296  0.63693  Biso   1.000  C
  C605     1.0000 0.43036  0.19070  0.52451  Biso   1.000  C
  C606     1.0000 0.53334  0.88583  0.30432  Biso   1.000  C
  C607     1.0000 0.31948  0.50923  0.91802  Biso   1.000  C
  C608     1.0000 0.64090  0.67889  0.00576  Biso   1.000  C
  C609     1.0000 0.53674  0.39122  0.22916  Biso   1.000  C
  C610     1.0000 0.81529  0.46198  0.61402  Biso   1.000  C
  C611     1.0000 0.11321  0.69643  0.51197  Biso   1.000  C
  C612     1.0000 0.05233  0.37202  0.31666  Biso   1.000  C
  C613     1.0000 0.81973  0.94725  0.13739  Biso   1.000  C
  C614     1.0000 0.14097  0.78055  0.01386  Biso   1.000  C
  C615     1.0000 0.03133  0.07718  0.81478  Biso   1.000  C
  C616     1.0000 0.32221  0.99850  0.40350  Biso   1.000  C
  C617     1.0000 0.62001  0.77647  0.48876  Biso   1.000  C
  C618     1.0000 0.51909  0.07072  0.73219  Biso   1.000  C
  C619     1.0000 0.73468  0.46106  0.11785  Biso   1.000  C
  C620     1.0000 0.40867  0.27807  0.01612  Biso   1.000  C
  C621     1.0000 0.51921  0.56856  0.80709  Biso   1.000  C
  C622     1.0000 0.23592  0.48912  0.42397  Biso   1.000  C
  C623     1.0000 0.94232  0.26027  0.54342  Biso   1.000  C
  C624     1.0000 0.01624  0.57935  0.72623  Biso   1.000  C
  C625     1.0000 0.01727  0.18659  0.92022  Biso   1.000  C
  C626     1.0000 0.93551  0.97599  0.23648  Biso   1.000  C
  C627     1.0000 0.23590  0.89998  0.02143  Biso   1.000  C
  C628     1.0000 0.53848  0.18275  0.63113  Biso   1.000  C
  C629     1.0000 0.43635  0.98305  0.30347  Biso   1.000  C
  C630     1.0000 0.72467  0.86899  0.54901  Biso   1.000  C
  C631     1.0000 0.53473  0.68445  0.90726  Biso   1.000  C
  C632     1.0000 0.63526  0.49715  0.22433  Biso   1.000  C
  C633     1.0000 0.31002  0.39626  0.00223  Biso   1.000  C
  C634     1.0000 0.01258  0.68809  0.61845  Biso   1.000  C
  C635     1.0000 0.13009  0.49062  0.31586  Biso   1.000  C
  C636     1.0000 0.82571  0.36184  0.53037  Biso   1.000  C
  C637     1.0000 0.03309  0.76958  0.11718  Biso   1.000  C
  C638     1.0000 0.11363  0.97227  0.80305  Biso   1.000  C
  C639     1.0000 0.81215  0.06256  0.04392  Biso   1.000  C
  C640     1.0000 0.50281  0.77885  0.40870  Biso   1.000  C
  C641     1.0000 0.61506  0.95705  0.73828  Biso   1.000  C
  C642     1.0000 0.32018  0.08474  0.51920  Biso   1.000  C
  C643     1.0000 0.49861  0.28092  0.12853  Biso   1.000  C
  C644     1.0000 0.42315  0.47095  0.81447  Biso   1.000  C
  C645     1.0000 0.74305  0.56327  0.99693  Biso   1.000  C
  C646     1.0000 0.03109  0.26403  0.42068  Biso   1.000  C
  C647     1.0000 0.92005  0.46593  0.72349  Biso   1.000  C
  C648     1.0000 0.22896  0.59336  0.50666  Biso   1.000  C
  C649     1.0000 0.02938  0.68777  0.41609  Biso   1.000  C
  C650     1.0000 0.40860  0.96979  0.71911  Biso   1.000  C
  C651     1.0000 0.72820  0.35725  0.03134  Biso   1.000  C
  C652     1.0000 0.51091  0.69274  0.10513  Biso   1.000  C
  C653     1.0000 0.90734  0.97385  0.82094  Biso   1.000  C
  C654     1.0000 0.24211  0.38907  0.51606  Biso   1.000  C
  C655     1.0000 0.53625  0.19170  0.42385  Biso   1.000  C
  C656     1.0000 0.12498  0.49501  0.73258  Biso   1.000  C
  C657     1.0000 0.82211  0.86260  0.00430  Biso   1.000  C
  C658     1.0000 0.01039  0.18503  0.12112  Biso   1.000  C
  C659     1.0000 0.62723  0.46846  0.81058  Biso   1.000  C
  C660     1.0000 0.31005  0.88169  0.49067  Biso   1.000  C
  C661     1.0000 0.05690  0.27045  0.62170  Biso   1.000  C
  C662     1.0000 0.64412  0.97843  0.32151  Biso   1.000  C
  C663     1.0000 0.32264  0.60028  0.01530  Biso   1.000  C
  C664     1.0000 0.53389  0.26518  0.93002  Biso   1.000  C
  C665     1.0000 0.14060  0.97194  0.21759  Biso   1.000  C
  C666     1.0000 0.81106  0.56403  0.51496  Biso   1.000  C
  C667     1.0000 0.51660  0.76910  0.60856  Biso   1.000  C
  C668     1.0000 0.93154  0.46537  0.31275  Biso   1.000  C
  C669     1.0000 0.22472  0.10450  0.99675  Biso   1.000  C
  C670     1.0000 0.02567  0.76864  0.91801  Biso   1.000  C
  C671     1.0000 0.42997  0.49781  0.23231  Biso   1.000  C
  C672     1.0000 0.73858  0.07074  0.52855  Biso   1.000  C
  C673     1.0000 0.20891  0.97566  0.81246  Biso   1.000  C
  C674     1.0000 0.81476  0.15627  0.03472  Biso   1.000  C
  C675     1.0000 0.03731  0.77809  0.21281  Biso   1.000  C
  C676     1.0000 0.70910  0.96104  0.73169  Biso   1.000  C
  C677     1.0000 0.33677  0.17980  0.51849  Biso   1.000  C
  C678     1.0000 0.51409  0.79304  0.31636  Biso   1.000  C
  C679     1.0000 0.33175  0.49491  0.82495  Biso   1.000  C
  C680     1.0000 0.73132  0.66083  0.99231  Biso   1.000  C
  C681     1.0000 0.52083  0.29554  0.21966  Biso   1.000  C
  C682     1.0000 0.82609  0.46200  0.71000  Biso   1.000  C
  C683     1.0000 0.20981  0.68571  0.49642  Biso   1.000  C
  C684     1.0000 0.04269  0.27768  0.32727  Biso   1.000  C
  C685     1.0000 0.84065  0.96008  0.23074  Biso   1.000  C
  C686     1.0000 0.23346  0.80235  0.01859  Biso   1.000  C
  C687     1.0000 0.02960  0.17235  0.82539  Biso   1.000  C
  C688     1.0000 0.34029  0.98967  0.31051  Biso   1.000  C
  C689     1.0000 0.71382  0.77880  0.51739  Biso   1.000  C
  C690     1.0000 0.53370  0.16304  0.72600  Biso   1.000  C
  C691     1.0000 0.72632  0.48038  0.20711  Biso   1.000  C
  C692     1.0000 0.31694  0.29971  0.00599  Biso   1.000  C
  C693     1.0000 0.52181  0.66350  0.81256  Biso   1.000  C
  C694     1.0000 0.22460  0.49684  0.32894  Biso   1.000  C
  C695     1.0000 0.84601  0.26820  0.54157  Biso   1.000  C
  C696     1.0000 0.01182  0.67300  0.71505  Biso   1.000  C
  C697     1.0000 0.73682  0.97386  0.34312  Biso   1.000  C
  C698     1.0000 0.34262  0.69323  0.00367  Biso   1.000  C
  C699     1.0000 0.03695  0.27960  0.71504  Biso   1.000  C
  C700     1.0000 0.23072  0.99570  0.19871  Biso   1.000  C
  C701     1.0000 0.81835  0.66144  0.51378  Biso   1.000  C
  C702     1.0000 0.53759  0.27107  0.83429  Biso   1.000  C
  C703     1.0000 0.83886  0.46803  0.31518  Biso   1.000  C
  C704     1.0000 0.20274  0.19663  0.00551  Biso   1.000  C
  C705     1.0000 0.51294  0.77544  0.70358  Biso   1.000  C
  C706     1.0000 0.33351  0.49262  0.21861  Biso   1.000  C
  C707     1.0000 0.73280  0.16495  0.52681  Biso   1.000  C
  C708     1.0000 0.00802  0.78182  0.82565  Biso   1.000  C
  C709     1.0000 0.31784  0.98066  0.70349  Biso   1.000  C
  C710     1.0000 0.70257  0.26584  0.04620  Biso   1.000  C
  C711     1.0000 0.03960  0.66861  0.32378  Biso   1.000  C
  C712     1.0000 0.81480  0.96909  0.83799  Biso   1.000  C
  C713     1.0000 0.23751  0.29387  0.50938  Biso   1.000  C
  C714     1.0000 0.51353  0.69090  0.20177  Biso   1.000  C
  C715     1.0000 0.21803  0.49987  0.71863  Biso   1.000  C
  C716     1.0000 0.83754  0.76869  0.00024  Biso   1.000  C
  C717     1.0000 0.53455  0.18313  0.32799  Biso   1.000  C
  C718     1.0000 0.72083  0.45581  0.82056  Biso   1.000  C
  C719     1.0000 0.31927  0.78779  0.49174  Biso   1.000  C
  C720     1.0000 0.02034  0.17277  0.21500  Biso   1.000  C
  C721     1.0000 0.53672  0.79039  0.29348  Biso   1.000  C
  C722     1.0000 0.33549  0.50736  0.79599  Biso   1.000  C
  C723     1.0000 0.81721  0.27138  0.55578  Biso   1.000  C
  C724     1.0000 0.04789  0.74844  0.20719  Biso   1.000  C
  C725     1.0000 0.79605  0.47458  0.70551  Biso   1.000  C
  C726     1.0000 0.31820  0.27276  0.98974  Biso   1.000  C
  C727     1.0000 0.02481  0.28560  0.30180  Biso   1.000  C
  C728     1.0000 0.23519  0.99404  0.81703  Biso   1.000  C
  C729     1.0000 0.74450  0.78397  0.51082  Biso   1.000  C
  C730     1.0000 0.51145  0.29947  0.24989  Biso   1.000  C
  C731     1.0000 0.70713  0.94115  0.75761  Biso   1.000  C
  C732     1.0000 0.26087  0.80795  0.00510  Biso   1.000  C
  C733     1.0000 0.51362  0.16098  0.75083  Biso   1.000  C
  C734     1.0000 0.72920  0.50324  0.22864  Biso   1.000  C
  C735     1.0000 0.20298  0.71193  0.47853  Biso   1.000  C
  C736     1.0000 0.01706  0.16728  0.79616  Biso   1.000  C
  C737     1.0000 0.25054  0.47784  0.33102  Biso   1.000  C
  C738     1.0000 0.75961  0.65831  0.00617  Biso   1.000  C
  C739     1.0000 0.99293  0.69784  0.71301  Biso   1.000  C
  C740     1.0000 0.84622  0.94358  0.25906  Biso   1.000  C
  C741     1.0000 0.31115  0.17979  0.53709  Biso   1.000  C
  C742     1.0000 0.49707  0.66248  0.79100  Biso   1.000  C
  C743     1.0000 0.31267  0.97438  0.31213  Biso   1.000  C
  C744     1.0000 0.81999  0.18359  0.04908  Biso   1.000  C
  C745     1.0000 0.05715  0.69506  0.32794  Biso   1.000  C
  C746     1.0000 0.29214  0.96337  0.70089  Biso   1.000  C
  C747     1.0000 0.72742  0.26599  0.06460  Biso   1.000  C
  C748     1.0000 0.49967  0.68491  0.23017  Biso   1.000  C
  C749     1.0000 0.81851  0.94841  0.81474  Biso   1.000  C
  C750     1.0000 0.26271  0.29525  0.52967  Biso   1.000  C
  C751     1.0000 0.55063  0.18275  0.30113  Biso   1.000  C
  C752     1.0000 0.24334  0.48097  0.71549  Biso   1.000  C
  C753     1.0000 0.84527  0.74251  0.98308  Biso   1.000  C
  C754     1.0000 0.03283  0.20177  0.20954  Biso   1.000  C
  C755     1.0000 0.71359  0.44163  0.79396  Biso   1.000  C
  C756     1.0000 0.29090  0.79312  0.50292  Biso   1.000  C
  C757     1.0000 0.02599  0.25048  0.70733  Biso   1.000  C
  C758     1.0000 0.73717  0.99152  0.31685  Biso   1.000  C
  C759     1.0000 0.31244  0.69018  0.99080  Biso   1.000  C
  C760     1.0000 0.55147  0.27457  0.80649  Biso   1.000  C
  C761     1.0000 0.26029  0.98566  0.19306  Biso   1.000  C
  C762     1.0000 0.82253  0.68876  0.49737  Biso   1.000  C
  C763     1.0000 0.53308  0.77698  0.72915  Biso   1.000  C
  C764     1.0000 0.81195  0.48582  0.31796  Biso   1.000  C
  C765     1.0000 0.22585  0.19772  0.98366  Biso   1.000  C
  C766     1.0000 0.02392  0.78474  0.79944  Biso   1.000  C
  C767     1.0000 0.33816  0.47864  0.24614  Biso   1.000  C
  C768     1.0000 0.73249  0.19229  0.51040  Biso   1.000  C
  C769     1.0000 0.54293  0.68756  0.81044  Biso   1.000  C
  C770     1.0000 0.83187  0.44584  0.73687  Biso   1.000  C
  C771     1.0000 0.70718  0.74855  0.52430  Biso   1.000  C
  C772     1.0000 0.02641  0.67074  0.74301  Biso   1.000  C
  C773     1.0000 0.30296  0.48296  0.82995  Biso   1.000  C
  C774     1.0000 0.22975  0.77419  0.03134  Biso   1.000  C
  C775     1.0000 0.04609  0.19885  0.82892  Biso   1.000  C
  C776     1.0000 0.73498  0.98076  0.73019  Biso   1.000  C
  C777     1.0000 0.84998  0.24176  0.52428  Biso   1.000  C
  C778     1.0000 0.55473  0.18640  0.72575  Biso   1.000  C
  C779     1.0000 0.20648  0.95831  0.78619  Biso   1.000  C
  C780     1.0000 0.29085  0.30655  0.02183  Biso   1.000  C
  C781     1.0000 0.53385  0.26689  0.21342  Biso   1.000  C
  C782     1.0000 0.22263  0.51318  0.30242  Biso   1.000  C
  C783     1.0000 0.33978  0.20376  0.49806  Biso   1.000  C
  C784     1.0000 0.05392  0.24753  0.33003  Biso   1.000  C
  C785     1.0000 0.74426  0.45414  0.20942  Biso   1.000  C
  C786     1.0000 0.78488  0.15303  0.02263  Biso   1.000  C
  C787     1.0000 0.02522  0.78240  0.24139  Biso   1.000  C
  C788     1.0000 0.34741  0.00463  0.28466  Biso   1.000  C
  C789     1.0000 0.23871  0.68339  0.51027  Biso   1.000  C
  C790     1.0000 0.48935  0.77396  0.31269  Biso   1.000  C
  C791     1.0000 0.81414  0.97619  0.22788  Biso   1.000  C
  C792     1.0000 0.72523  0.68552  0.97390  Biso   1.000  C
  C793     1.0000 0.51542  0.20823  0.33313  Biso   1.000  C
  C794     1.0000 0.30525  0.50542  0.21283  Biso   1.000  C
  C795     1.0000 0.23596  0.26925  0.48908  Biso   1.000  C
  C796     1.0000 0.00818  0.16851  0.24402  Biso   1.000  C
  C797     1.0000 0.84223  0.45227  0.28683  Biso   1.000  C
  C798     1.0000 0.69951  0.24190  0.02609  Biso   1.000  C
  C799     1.0000 0.02491  0.66708  0.29500  Biso   1.000  C
  C800     1.0000 0.22460  0.00673  0.22754  Biso   1.000  C
  C801     1.0000 0.32440  0.76016  0.47651  Biso   1.000  C
  C802     1.0000 0.52394  0.72062  0.19806  Biso   1.000  C
  C803     1.0000 0.76072  0.95181  0.34765  Biso   1.000  C
  C804     1.0000 0.80749  0.77375  0.00853  Biso   1.000  C
  C805     1.0000 0.49539  0.74956  0.69920  Biso   1.000  C
  C806     1.0000 0.75014  0.46928  0.82322  Biso   1.000  C
  C807     1.0000 0.79192  0.65975  0.53009  Biso   1.000  C
  C808     1.0000 0.98904  0.75651  0.82806  Biso   1.000  C
  C809     1.0000 0.21841  0.51999  0.74265  Biso   1.000  C
  C810     1.0000 0.34908  0.72090  0.01616  Biso   1.000  C
  C811     1.0000 0.04871  0.28322  0.74317  Biso   1.000  C
  C812     1.0000 0.78679  0.98530  0.84183  Biso   1.000  C
  C813     1.0000 0.75896  0.15875  0.54684  Biso   1.000  C
  C814     1.0000 0.52230  0.24493  0.84017  Biso   1.000  C
  C815     1.0000 0.32145  0.99952  0.72878  Biso   1.000  C
  C816     1.0000 0.20146  0.22184  0.02505  Biso   1.000  C
  C817     1.0000 0.01956  0.18774  0.77456  Biso   1.000  C
  C818     1.0000 0.82811  0.94925  0.28287  Biso   1.000  C
  C819     1.0000 0.28350  0.78862  0.00758  Biso   1.000  C
  C820     1.0000 0.51373  0.18216  0.77226  Biso   1.000  C
  C821     1.0000 0.29311  0.97689  0.28885  Biso   1.000  C
  C822     1.0000 0.76459  0.76121  0.50932  Biso   1.000  C
  C823     1.0000 0.49534  0.68427  0.77007  Biso   1.000  C
  C824     1.0000 0.75229  0.50146  0.24764  Biso   1.000  C
  C825     1.0000 0.29625  0.25304  0.99083  Biso   1.000  C
  C826     1.0000 0.99076  0.71843  0.73528  Biso   1.000  C
  C827     1.0000 0.27301  0.47896  0.31038  Biso   1.000  C
  C828     1.0000 0.79615  0.25029  0.55386  Biso   1.000  C
  C829     1.0000 0.04993  0.72755  0.22811  Biso   1.000  C
  C830     1.0000 0.25467  0.99659  0.79463  Biso   1.000  C
  C831     1.0000 0.79802  0.20404  0.05172  Biso   1.000  C
  C832     1.0000 0.53471  0.77106  0.27214  Biso   1.000  C
  C833     1.0000 0.72917  0.94196  0.77861  Biso   1.000  C
  C834     1.0000 0.29173  0.20292  0.53467  Biso   1.000  C
  C835     1.0000 0.51751  0.27820  0.27091  Biso   1.000  C
  C836     1.0000 0.31284  0.51010  0.77545  Biso   1.000  C
  C837     1.0000 0.78160  0.67790  0.00124  Biso   1.000  C
  C838     1.0000 0.02109  0.26569  0.28099  Biso   1.000  C
  C839     1.0000 0.77567  0.46940  0.72734  Biso   1.000  C
  C840     1.0000 0.22402  0.73236  0.47401  Biso   1.000  C
  C841     1.0000 0.22778  0.95951  0.76487  Biso   1.000  C
  C842     1.0000 0.76277  0.17385  0.02640  Biso   1.000  C
  C843     1.0000 0.03052  0.76109  0.26380  Biso   1.000  C
  C844     1.0000 0.75440  0.98193  0.75245  Biso   1.000  C
  C845     1.0000 0.31905  0.22517  0.49568  Biso   1.000  C
  C846     1.0000 0.48722  0.75611  0.28921  Biso   1.000  C
  C847     1.0000 0.28071  0.48566  0.80883  Biso   1.000  C
  C848     1.0000 0.74730  0.70650  0.97063  Biso   1.000  C
  C849     1.0000 0.53785  0.24625  0.23470  Biso   1.000  C
  C850     1.0000 0.81082  0.44380  0.75842  Biso   1.000  C
  C851     1.0000 0.25900  0.70455  0.50445  Biso   1.000  C
  C852     1.0000 0.04667  0.22765  0.30817  Biso   1.000  C
  C853     1.0000 0.79437  0.97622  0.25116  Biso   1.000  C
  C854     1.0000 0.24975  0.75329  0.02556  Biso   1.000  C
  C855     1.0000 0.04963  0.21667  0.80567  Biso   1.000  C
  C856     1.0000 0.32603  0.00715  0.26277  Biso   1.000  C
  C857     1.0000 0.72844  0.72577  0.52554  Biso   1.000  C
  C858     1.0000 0.55529  0.20556  0.74908  Biso   1.000  C
  C859     1.0000 0.76594  0.45298  0.23002  Biso   1.000  C
  C860     1.0000 0.26669  0.28806  0.02021  Biso   1.000  C
  C861     1.0000 0.54018  0.70740  0.78849  Biso   1.000  C
  C862     1.0000 0.24341  0.51093  0.28071  Biso   1.000  C
  C863     1.0000 0.82817  0.22082  0.52277  Biso   1.000  C
  C864     1.0000 0.02582  0.69171  0.76440  Biso   1.000  C
  C865     1.0000 0.73387  0.44105  0.77207  Biso   1.000  C
  C866     1.0000 0.80379  0.71186  0.50035  Biso   1.000  C
  C867     1.0000 0.53287  0.75297  0.74858  Biso   1.000  C
  C868     1.0000 0.26616  0.48003  0.73558  Biso   1.000  C
  C869     1.0000 0.29142  0.71164  0.99406  Biso   1.000  C
  C870     1.0000 0.02302  0.76249  0.77750  Biso   1.000  C
  C871     1.0000 0.79639  0.94586  0.79453  Biso   1.000  C
  C872     1.0000 0.75441  0.21240  0.51566  Biso   1.000  C
  C873     1.0000 0.02698  0.22891  0.72785  Biso   1.000  C
  C874     1.0000 0.27259  0.96320  0.72275  Biso   1.000  C
  C875     1.0000 0.24724  0.21873  0.98332  Biso   1.000  C
  C876     1.0000 0.54886  0.25235  0.78716  Biso   1.000  C
  C877     1.0000 0.31932  0.48020  0.26913  Biso   1.000  C
  C878     1.0000 0.28157  0.27194  0.53122  Biso   1.000  C
  C879     1.0000 0.54926  0.20552  0.28060  Biso   1.000  C
  C880     1.0000 0.79194  0.49054  0.29525  Biso   1.000  C
  C881     1.0000 0.74920  0.24533  0.06350  Biso   1.000  C
  C882     1.0000 0.03293  0.22259  0.23144  Biso   1.000  C
  C883     1.0000 0.28132  0.98627  0.21521  Biso   1.000  C
  C884     1.0000 0.26822  0.77414  0.49923  Biso   1.000  C
  C885     1.0000 0.06151  0.71427  0.30461  Biso   1.000  C
  C886     1.0000 0.75957  0.98851  0.29694  Biso   1.000  C
  C887     1.0000 0.82280  0.72375  0.97447  Biso   1.000  C
  C888     1.0000 0.49830  0.70649  0.25026  Biso   1.000  C
  C889     1.0000 0.78185  0.94976  0.32576  Biso   1.000  C
  C890     1.0000 0.32701  0.74238  0.01926  Biso   1.000  C
  C891     1.0000 0.04827  0.25960  0.76292  Biso   1.000  C
  C892     1.0000 0.24693  0.00812  0.24916  Biso   1.000  C
  C893     1.0000 0.77338  0.68326  0.53161  Biso   1.000  C
  C894     1.0000 0.51751  0.22379  0.81896  Biso   1.000  C
  C895     1.0000 0.82122  0.45715  0.26527  Biso   1.000  C
  C896     1.0000 0.22391  0.24219  0.02478  Biso   1.000  C
  C897     1.0000 0.49774  0.72613  0.71835  Biso   1.000  C
  C898     1.0000 0.28512  0.50678  0.23542  Biso   1.000  C
  C899     1.0000 0.78029  0.17970  0.55039  Biso   1.000  C
  C900     1.0000 0.98777  0.73422  0.80633  Biso   1.000  C
  C901     1.0000 0.30026  0.99864  0.75060  Biso   1.000  C
  C902     1.0000 0.72075  0.21985  0.02614  Biso   1.000  C
  C903     1.0000 0.02774  0.68903  0.27416  Biso   1.000  C
  C904     1.0000 0.76606  0.98328  0.82075  Biso   1.000  C
  C905     1.0000 0.25524  0.24695  0.48984  Biso   1.000  C
  C906     1.0000 0.52138  0.74166  0.21923  Biso   1.000  C
  C907     1.0000 0.24123  0.51713  0.76371  Biso   1.000  C
  C908     1.0000 0.78733  0.75341  0.99891  Biso   1.000  C
  C909     1.0000 0.51282  0.22859  0.31029  Biso   1.000  C
  C910     1.0000 0.76930  0.46789  0.80086  Biso   1.000  C
  C911     1.0000 0.30233  0.74059  0.47280  Biso   1.000  C
  C912     1.0000 0.01143  0.18934  0.26578  Biso   1.000  C
  C913     1.0000 0.78259  0.45377  0.75237  Biso   1.000  C
  C914     1.0000 0.75740  0.73246  0.51797  Biso   1.000  C
  C915     1.0000 0.51691  0.70562  0.76684  Biso   1.000  C
  C916     1.0000 0.28693  0.49727  0.78200  Biso   1.000  C
  C917     1.0000 0.27747  0.76025  0.01669  Biso   1.000  C
  C918     1.0000 0.00757  0.71586  0.75995  Biso   1.000  C
  C919     1.0000 0.75097  0.96284  0.77558  Biso   1.000  C
  C920     1.0000 0.80156  0.22526  0.53818  Biso   1.000  C
  C921     1.0000 0.03669  0.21136  0.77925  Biso   1.000  C
  C922     1.0000 0.25260  0.97754  0.76953  Biso   1.000  C
  C923     1.0000 0.27025  0.25965  0.00585  Biso   1.000  C
  C924     1.0000 0.53441  0.20400  0.77078  Biso   1.000  C
  C925     1.0000 0.26915  0.49471  0.28545  Biso   1.000  C
  C926     1.0000 0.29642  0.22398  0.51459  Biso   1.000  C
  C927     1.0000 0.52909  0.25109  0.26222  Biso   1.000  C
  C928     1.0000 0.77106  0.47581  0.24838  Biso   1.000  C
  C929     1.0000 0.76903  0.19859  0.04226  Biso   1.000  C
  C930     1.0000 0.03080  0.23725  0.28301  Biso   1.000  C
  C931     1.0000 0.29961  0.99388  0.26491  Biso   1.000  C
  C932     1.0000 0.25230  0.72729  0.48521  Biso   1.000  C
  C933     1.0000 0.04595  0.73580  0.25789  Biso   1.000  C
  C934     1.0000 0.80126  0.96344  0.27732  Biso   1.000  C
  C935     1.0000 0.77488  0.70308  0.98465  Biso   1.000  C
  C936     1.0000 0.51029  0.75434  0.26936  Biso   1.000  C
  C937     1.0000 0.74667  0.22243  0.04268  Biso   1.000  C
  C938     1.0000 0.04633  0.71213  0.27954  Biso   1.000  C
  C939     1.0000 0.27539  0.98021  0.74599  Biso   1.000  C
  C940     1.0000 0.27623  0.24777  0.51304  Biso   1.000  C
  C941     1.0000 0.50830  0.73404  0.24513  Biso   1.000  C
  C942     1.0000 0.77233  0.96358  0.79900  Biso   1.000  C
  C943     1.0000 0.79463  0.72864  0.98366  Biso   1.000  C
  C944     1.0000 0.52822  0.22750  0.28485  Biso   1.000  C
  C945     1.0000 0.26327  0.49675  0.76058  Biso   1.000  C
  C946     1.0000 0.27513  0.74926  0.48393  Biso   1.000  C
  C947     1.0000 0.02442  0.21495  0.26006  Biso   1.000  C
  C948     1.0000 0.76191  0.45217  0.77606  Biso   1.000  C
  C949     1.0000 0.29887  0.73572  0.00997  Biso   1.000  C
  C950     1.0000 0.03727  0.23261  0.75563  Biso   1.000  C
  C951     1.0000 0.78158  0.96848  0.30127  Biso   1.000  C
  C952     1.0000 0.77875  0.70879  0.51577  Biso   1.000  C
  C953     1.0000 0.53304  0.22647  0.79348  Biso   1.000  C
  C954     1.0000 0.27580  0.99719  0.24297  Biso   1.000  C
  C955     1.0000 0.24643  0.24018  0.00464  Biso   1.000  C
  C956     1.0000 0.51651  0.72773  0.74307  Biso   1.000  C
  C957     1.0000 0.79597  0.47368  0.27062  Biso   1.000  C
  C958     1.0000 0.77682  0.20536  0.53521  Biso   1.000  C
  C959     1.0000 0.00636  0.73828  0.78213  Biso   1.000  C
  C960     1.0000 0.29291  0.49477  0.26272  Biso   1.000  C
  Cu1      1.0000 0.02539  0.47678  0.67435  Biso   1.000  Cu
  Cu2      1.0000 0.67901  0.97377  0.53424  Biso   1.000  Cu
  Cu3      1.0000 0.53325  0.63372  0.01019  Biso   1.000  Cu
  Cu4      1.0000 0.52848  0.47099  0.86771  Biso   1.000  Cu
  Cu5      1.0000 0.17412  0.99875  0.00664  Biso   1.000  Cu
  Cu6      1.0000 0.01791  0.63342  0.51861  Biso   1.000  Cu
  Cu7      1.0000 0.51502  0.96860  0.67431  Biso   1.000  Cu
  Cu8      1.0000 0.87438  0.46547  0.51743  Biso   1.000  Cu
  Cu9      1.0000 0.01255  0.13177  0.02127  Biso   1.000  Cu
  Cu10     1.0000 0.01688  0.97873  0.86763  Biso   1.000  Cu
  Cu11     1.0000 0.37544  0.49392  0.02053  Biso   1.000  Cu
  Cu12     1.0000 0.53295  0.13242  0.52511  Biso   1.000  Cu
  Cu13     1.0000 0.02982  0.47182  0.36926  Biso   1.000  Cu
  Cu14     1.0000 0.36601  0.98091  0.50906  Biso   1.000  Cu
  Cu15     1.0000 0.51366  0.32772  0.02639  Biso   1.000  Cu
  Cu16     1.0000 0.53225  0.49311  0.17229  Biso   1.000  Cu
  Cu17     1.0000 0.87185  0.96154  0.03359  Biso   1.000  Cu
  Cu18     1.0000 0.03951  0.32132  0.52089  Biso   1.000  Cu
  Cu19     1.0000 0.53529  0.98549  0.36417  Biso   1.000  Cu
  Cu20     1.0000 0.18053  0.49007  0.52065  Biso   1.000  Cu
  Cu21     1.0000 0.03436  0.82544  0.01712  Biso   1.000  Cu
  Cu22     1.0000 0.03111  0.97622  0.17178  Biso   1.000  Cu
  Cu23     1.0000 0.68027  0.46645  0.01485  Biso   1.000  Cu
  Cu24     1.0000 0.51858  0.82845  0.51045  Biso   1.000  Cu
  Cu25     1.0000 0.22966  0.00107  0.00528  Biso   1.000  Cu
  Cu26     1.0000 0.00722  0.18606  0.01979  Biso   1.000  Cu
  Cu27     1.0000 0.03707  0.97555  0.22547  Biso   1.000  Cu
  Cu28     1.0000 0.73103  0.96903  0.53750  Biso   1.000  Cu
  Cu29     1.0000 0.53391  0.18580  0.52685  Biso   1.000  Cu
  Cu30     1.0000 0.53924  0.98869  0.30972  Biso   1.000  Cu
  Cu31     1.0000 0.32226  0.49837  0.02376  Biso   1.000  Cu
  Cu32     1.0000 0.53977  0.68847  0.00988  Biso   1.000  Cu
  Cu33     1.0000 0.53324  0.49587  0.22831  Biso   1.000  Cu
  Cu34     1.0000 0.81950  0.46253  0.51233  Biso   1.000  Cu
  Cu35     1.0000 0.01339  0.68668  0.51878  Biso   1.000  Cu
  Cu36     1.0000 0.03123  0.47498  0.31372  Biso   1.000  Cu
  Cu37     1.0000 0.81903  0.96119  0.03543  Biso   1.000  Cu
  Cu38     1.0000 0.04002  0.76955  0.01722  Biso   1.000  Cu
  Cu39     1.0000 0.00924  0.97888  0.81312  Biso   1.000  Cu
  Cu40     1.0000 0.31271  0.98498  0.50404  Biso   1.000  Cu
  Cu41     1.0000 0.52072  0.77459  0.50889  Biso   1.000  Cu
  Cu42     1.0000 0.51218  0.96703  0.72793  Biso   1.000  Cu
  Cu43     1.0000 0.73644  0.46084  0.01594  Biso   1.000  Cu
  Cu44     1.0000 0.51247  0.27351  0.02509  Biso   1.000  Cu
  Cu45     1.0000 0.52585  0.46989  0.81261  Biso   1.000  Cu
  Cu46     1.0000 0.23609  0.49097  0.52597  Biso   1.000  Cu
  Cu47     1.0000 0.04471  0.26519  0.52321  Biso   1.000  Cu
  Cu48     1.0000 0.02289  0.47692  0.72796  Biso   1.000  Cu
  H1       1.0000 0.24627  0.78046  0.50526  Biso   1.000  H
  H2       1.0000 0.55576  0.25825  0.76445  Biso   1.000  H
  H3       1.0000 0.77329  0.50447  0.29281  Biso   1.000  H
  H4       1.0000 0.82715  0.70761  0.95920  Biso   1.000  H
  H5       1.0000 0.01834  0.20862  0.72354  Biso   1.000  H
  H6       1.0000 0.32736  0.46968  0.28909  Biso   1.000  H
  H7       1.0000 0.29700  0.27270  0.54949  Biso   1.000  H
  H8       1.0000 0.03371  0.76514  0.75662  Biso   1.000  H
  H9       1.0000 0.75978  0.00324  0.27922  Biso   1.000  H
  H10      1.0000 0.76846  0.24655  0.07736  Biso   1.000  H
  H11      1.0000 0.54736  0.75392  0.76764  Biso   1.000  H
  H12      1.0000 0.30138  0.97569  0.21255  Biso   1.000  H
  H13      1.0000 0.75450  0.23423  0.50391  Biso   1.000  H
  H14      1.0000 0.49012  0.70212  0.27051  Biso   1.000  H
  H15      1.0000 0.28425  0.46436  0.73294  Biso   1.000  H
  H16      1.0000 0.26256  0.21811  0.96576  Biso   1.000  H
  H17      1.0000 0.07718  0.73176  0.30766  Biso   1.000  H
  H18      1.0000 0.72881  0.43230  0.75109  Biso   1.000  H
  H19      1.0000 0.80770  0.73194  0.48792  Biso   1.000  H
  H20      1.0000 0.04335  0.24213  0.22575  Biso   1.000  H
  H21      1.0000 0.25547  0.94808  0.72249  Biso   1.000  H
  H22      1.0000 0.26845  0.70754  0.98661  Biso   1.000  H
  H23      1.0000 0.56449  0.20314  0.26297  Biso   1.000  H
  H24      1.0000 0.79559  0.93215  0.77650  Biso   1.000  H
  H25      1.0000 0.27266  0.01175  0.79680  Biso   1.000  H
  H26      1.0000 0.80647  0.22510  0.06124  Biso   1.000  H
  H27      1.0000 0.05630  0.70532  0.22022  Biso   1.000  H
  H28      1.0000 0.73143  0.92745  0.79627  Biso   1.000  H
  H29      1.0000 0.27302  0.20257  0.54971  Biso   1.000  H
  H30      1.0000 0.55218  0.77126  0.25734  Biso   1.000  H
  H31      1.0000 0.31871  0.52021  0.75461  Biso   1.000  H
  H32      1.0000 0.80346  0.67740  0.01234  Biso   1.000  H
  H33      1.0000 0.51360  0.28301  0.29264  Biso   1.000  H
  H34      1.0000 0.75313  0.47670  0.72540  Biso   1.000  H
  H35      1.0000 0.21786  0.75023  0.45970  Biso   1.000  H
  H36      1.0000 0.00604  0.27213  0.26324  Biso   1.000  H
  H37      1.0000 0.83384  0.93985  0.30319  Biso   1.000  H
  H38      1.0000 0.30494  0.79807  0.99928  Biso   1.000  H
  H39      1.0000 0.00912  0.17933  0.75428  Biso   1.000  H
  H40      1.0000 0.27275  0.96598  0.28756  Biso   1.000  H
  H41      1.0000 0.78831  0.76507  0.50596  Biso   1.000  H
  H42      1.0000 0.49802  0.18153  0.78880  Biso   1.000  H
  H43      1.0000 0.75779  0.52019  0.26017  Biso   1.000  H
  H44      1.0000 0.30065  0.23099  0.98029  Biso   1.000  H
  H45      1.0000 0.47607  0.68365  0.75509  Biso   1.000  H
  H46      1.0000 0.29121  0.46437  0.31386  Biso   1.000  H
  H47      1.0000 0.77544  0.25313  0.56594  Biso   1.000  H
  H48      1.0000 0.97754  0.73732  0.73038  Biso   1.000  H
  H49      1.0000 0.23848  0.52372  0.26240  Biso   1.000  H
  H50      1.0000 0.32171  0.24384  0.48158  Biso   1.000  H
  H51      1.0000 0.55060  0.22649  0.23167  Biso   1.000  H
  H52      1.0000 0.77859  0.43401  0.23385  Biso   1.000  H
  H53      1.0000 0.74088  0.17177  0.01824  Biso   1.000  H
  H54      1.0000 0.05399  0.20529  0.31129  Biso   1.000  H
  H55      1.0000 0.32987  0.02091  0.24426  Biso   1.000  H
  H56      1.0000 0.28136  0.70116  0.51199  Biso   1.000  H
  H57      1.0000 0.02577  0.76528  0.28554  Biso   1.000  H
  H58      1.0000 0.77421  0.98561  0.24541  Biso   1.000  H
  H59      1.0000 0.74589  0.72288  0.95419  Biso   1.000  H
  H60      1.0000 0.46534  0.74446  0.28697  Biso   1.000  H
  H61      1.0000 0.81612  0.43286  0.77873  Biso   1.000  H
  H62      1.0000 0.72241  0.70313  0.52878  Biso   1.000  H
  H63      1.0000 0.55346  0.72692  0.78844  Biso   1.000  H
  H64      1.0000 0.25936  0.47658  0.81352  Biso   1.000  H
  H65      1.0000 0.24405  0.73029  0.03196  Biso   1.000  H
  H66      1.0000 0.04088  0.68817  0.78409  Biso   1.000  H
  H67      1.0000 0.77336  0.99660  0.75119  Biso   1.000  H
  H68      1.0000 0.83385  0.20088  0.51001  Biso   1.000  H
  H69      1.0000 0.06387  0.23541  0.80790  Biso   1.000  H
  H70      1.0000 0.22333  0.94721  0.74612  Biso   1.000  H
  H71      1.0000 0.24683  0.29384  0.03185  Biso   1.000  H
  H72      1.0000 0.57280  0.22100  0.75120  Biso   1.000  H
  H73      1.0000 0.78988  0.47868  0.80223  Biso   1.000  H
  H74      1.0000 0.75596  0.68097  0.54760  Biso   1.000  H
  H75      1.0000 0.48462  0.70671  0.71739  Biso   1.000  H
  H76      1.0000 0.24141  0.53270  0.78166  Biso   1.000  H
  H77      1.0000 0.33037  0.76239  0.02900  Biso   1.000  H
  H78      1.0000 0.97221  0.71867  0.80430  Biso   1.000  H
  H79      1.0000 0.74550  0.99456  0.81961  Biso   1.000  H
  H80      1.0000 0.79854  0.17410  0.56475  Biso   1.000  H
  H81      1.0000 0.06029  0.26146  0.78145  Biso   1.000  H
  H82      1.0000 0.30433  0.01254  0.76890  Biso   1.000  H
  H83      1.0000 0.22051  0.26052  0.03813  Biso   1.000  H
  H84      1.0000 0.50393  0.20346  0.82305  Biso   1.000  H
  H85      1.0000 0.26413  0.51484  0.23017  Biso   1.000  H
  H86      1.0000 0.25306  0.22858  0.47459  Biso   1.000  H
  H87      1.0000 0.49710  0.24649  0.31297  Biso   1.000  H
  H88      1.0000 0.82355  0.44829  0.24421  Biso   1.000  H
  H89      1.0000 0.71615  0.20306  0.01175  Biso   1.000  H
  H90      1.0000 0.00212  0.18795  0.28632  Biso   1.000  H
  H91      1.0000 0.24425  0.01770  0.26974  Biso   1.000  H
  H92      1.0000 0.30675  0.71994  0.46059  Biso   1.000  H
  H93      1.0000 0.01678  0.68647  0.25272  Biso   1.000  H
  H94      1.0000 0.79928  0.93486  0.32853  Biso   1.000  H
  H95      1.0000 0.76545  0.75850  0.00512  Biso   1.000  H
  H96      1.0000 0.52925  0.76345  0.21643  Biso   1.000  H
  H97      1.0000 0.88460  0.98133  0.94010  Biso   1.000  H
  H98      1.0000 0.93625  0.83915  0.00878  Biso   1.000  H
  H99      1.0000 0.01144  0.88618  0.88967  Biso   1.000  H
  H100     1.0000 0.38031  0.96758  0.59849  Biso   1.000  H
  H101     1.0000 0.42548  0.84744  0.51692  Biso   1.000  H
  H102     1.0000 0.50574  0.88419  0.64747  Biso   1.000  H
  H103     1.0000 0.66293  0.45930  0.92628  Biso   1.000  H
  H104     1.0000 0.60507  0.33943  0.03485  Biso   1.000  H
  H105     1.0000 0.52661  0.37846  0.89259  Biso   1.000  H
  H106     1.0000 0.15637  0.48869  0.61198  Biso   1.000  H
  H107     1.0000 0.12592  0.34880  0.51663  Biso   1.000  H
  H108     1.0000 0.02822  0.38388  0.65265  Biso   1.000  H
  H109     1.0000 0.16099  0.98895  0.09973  Biso   1.000  H
  H110     1.0000 0.10729  0.12162  0.02405  Biso   1.000  H
  H111     1.0000 0.02273  0.06911  0.15257  Biso   1.000  H
  H112     1.0000 0.66345  0.97743  0.43829  Biso   1.000  H
  H113     1.0000 0.62136  0.11091  0.52878  Biso   1.000  H
  H114     1.0000 0.53750  0.07536  0.38527  Biso   1.000  H
  H115     1.0000 0.39487  0.49558  0.11093  Biso   1.000  H
  H116     1.0000 0.44417  0.62066  0.00154  Biso   1.000  H
  H117     1.0000 0.52279  0.58009  0.15141  Biso   1.000  H
  H118     1.0000 0.89215  0.45914  0.42558  Biso   1.000  H
  H119     1.0000 0.92537  0.60401  0.52190  Biso   1.000  H
  H120     1.0000 0.01372  0.56706  0.38811  Biso   1.000  H
  H121     1.0000 0.10998  0.97705  0.87992  Biso   1.000  H
  H122     1.0000 0.88529  0.05530  0.03071  Biso   1.000  H
  H123     1.0000 0.03520  0.84503  0.11180  Biso   1.000  H
  H124     1.0000 0.60554  0.96841  0.66504  Biso   1.000  H
  H125     1.0000 0.39794  0.07168  0.51758  Biso   1.000  H
  H126     1.0000 0.51737  0.85416  0.42243  Biso   1.000  H
  H127     1.0000 0.43374  0.47431  0.88842  Biso   1.000  H
  H128     1.0000 0.66702  0.55666  0.00988  Biso   1.000  H
  H129     1.0000 0.50503  0.35591  0.11495  Biso   1.000  H
  H130     1.0000 0.93046  0.46562  0.64849  Biso   1.000  H
  H131     1.0000 0.15727  0.57730  0.52600  Biso   1.000  H
  H132     1.0000 0.03834  0.34026  0.43113  Biso   1.000  H
  H133     1.0000 0.93981  0.96380  0.15991  Biso   1.000  H
  H134     1.0000 0.15963  0.90108  0.01929  Biso   1.000  H
  H135     1.0000 0.01705  0.11135  0.93271  Biso   1.000  H
  H136     1.0000 0.43760  0.99385  0.37819  Biso   1.000  H
  H137     1.0000 0.65358  0.88485  0.52780  Biso   1.000  H
  H138     1.0000 0.52465  0.10806  0.61660  Biso   1.000  H
  H139     1.0000 0.61931  0.48552  0.14933  Biso   1.000  H
  H140     1.0000 0.38495  0.39729  0.01502  Biso   1.000  H
  H141     1.0000 0.54024  0.60660  0.92220  Biso   1.000  H
  H142     1.0000 0.12016  0.47642  0.38962  Biso   1.000  H
  H143     1.0000 0.90105  0.37809  0.52668  Biso   1.000  H
  H144     1.0000 0.02007  0.61255  0.60943  Biso   1.000  H
  H145     1.0000 0.61912  0.46288  0.88524  Biso   1.000  H
  H146     1.0000 0.88852  0.55812  0.51782  Biso   1.000  H
  H147     1.0000 0.51214  0.84612  0.60240  Biso   1.000  H
  H148     1.0000 0.11123  0.48498  0.65632  Biso   1.000  H
  H149     1.0000 0.39695  0.58533  0.00930  Biso   1.000  H
  H150     1.0000 0.02239  0.84595  0.92399  Biso   1.000  H
  H151     1.0000 0.92474  0.98120  0.89460  Biso   1.000  H
  H152     1.0000 0.66273  0.06555  0.52574  Biso   1.000  H
  H153     1.0000 0.04490  0.34447  0.60993  Biso   1.000  H
  H154     1.0000 0.42198  0.96903  0.64432  Biso   1.000  H
  H155     1.0000 0.15260  0.08690  0.00854  Biso   1.000  H
  H156     1.0000 0.52536  0.33995  0.93418  Biso   1.000  H
  H157     1.0000 0.43850  0.49907  0.15510  Biso   1.000  H
  H158     1.0000 0.16516  0.39203  0.51867  Biso   1.000  H
  H159     1.0000 0.53746  0.11391  0.42966  Biso   1.000  H
  H160     1.0000 0.94038  0.45868  0.38583  Biso   1.000  H
  H161     1.0000 0.65181  0.37880  0.03371  Biso   1.000  H
  H162     1.0000 0.02082  0.10876  0.11028  Biso   1.000  H
  H163     1.0000 0.12157  0.97771  0.14579  Biso   1.000  H
  H164     1.0000 0.38511  0.88999  0.50655  Biso   1.000  H
  H165     1.0000 0.02018  0.61284  0.42982  Biso   1.000  H
  H166     1.0000 0.62662  0.97700  0.39550  Biso   1.000  H
  H167     1.0000 0.89801  0.87098  0.01255  Biso   1.000  H
  H168     1.0000 0.52358  0.61668  0.10564  Biso   1.000  H
  H169     1.0000 0.02352  0.06762  0.89002  Biso   1.000  H
  H170     1.0000 0.89600  0.95305  0.12162  Biso   1.000  H
  H171     1.0000 0.12052  0.85578  0.01940  Biso   1.000  H
  H172     1.0000 0.52342  0.06239  0.65550  Biso   1.000  H
  H173     1.0000 0.39719  0.99596  0.41882  Biso   1.000  H
  H174     1.0000 0.60969  0.84674  0.50964  Biso   1.000  H
  H175     1.0000 0.52793  0.56441  0.88395  Biso   1.000  H
  H176     1.0000 0.65843  0.46820  0.10654  Biso   1.000  H
  H177     1.0000 0.42366  0.35456  0.00934  Biso   1.000  H
  H178     1.0000 0.02322  0.57001  0.64831  Biso   1.000  H
  H179     1.0000 0.16124  0.48089  0.43115  Biso   1.000  H
  H180     1.0000 0.94732  0.33790  0.53217  Biso   1.000  H
  H181     1.0000 0.04420  0.88636  0.15484  Biso   1.000  H
  H182     1.0000 0.15281  0.97383  0.92334  Biso   1.000  H
  H183     1.0000 0.92548  0.10072  0.02930  Biso   1.000  H
  H184     1.0000 0.52979  0.89520  0.37868  Biso   1.000  H
  H185     1.0000 0.64946  0.96617  0.62303  Biso   1.000  H
  H186     1.0000 0.44259  0.11442  0.52451  Biso   1.000  H
  H187     1.0000 0.51580  0.40019  0.15556  Biso   1.000  H
  H188     1.0000 0.39413  0.49335  0.93229  Biso   1.000  H
  H189     1.0000 0.62455  0.60306  0.01563  Biso   1.000  H
  H190     1.0000 0.04567  0.38118  0.39182  Biso   1.000  H
  H191     1.0000 0.89169  0.46198  0.60538  Biso   1.000  H
  H192     1.0000 0.11182  0.61981  0.52201  Biso   1.000  H
  H193     1.0000 0.28666  0.83935  0.48766  Biso   1.000  H
  H194     1.0000 0.54411  0.24204  0.88883  Biso   1.000  H
  H195     1.0000 0.89005  0.47154  0.28754  Biso   1.000  H
  H196     1.0000 0.80038  0.82329  0.99643  Biso   1.000  H
  H197     1.0000 0.05579  0.24966  0.66599  Biso   1.000  H
  H198     1.0000 0.38876  0.49519  0.25441  Biso   1.000  H
  H199     1.0000 0.26577  0.34781  0.51608  Biso   1.000  H
  H200     1.0000 0.01604  0.74730  0.87454  Biso   1.000  H
  H201     1.0000 0.68745  0.97380  0.30381  Biso   1.000  H
  H202     1.0000 0.74601  0.31504  0.03870  Biso   1.000  H
  H203     1.0000 0.51753  0.74384  0.64766  Biso   1.000  H
  H204     1.0000 0.18414  0.97538  0.23511  Biso   1.000  H
  H205     1.0000 0.76334  0.11102  0.51882  Biso   1.000  H
  H206     1.0000 0.50404  0.71917  0.14512  Biso   1.000  H
  H207     1.0000 0.16860  0.50601  0.75338  Biso   1.000  H
  H208     1.0000 0.24236  0.15017  0.99850  Biso   1.000  H
  H209     1.0000 0.04054  0.70871  0.37507  Biso   1.000  H
  H210     1.0000 0.66683  0.46387  0.78668  Biso   1.000  H
  H211     1.0000 0.78565  0.60252  0.51511  Biso   1.000  H
  H212     1.0000 0.01353  0.20769  0.16197  Biso   1.000  H
  H213     1.0000 0.36567  0.97336  0.73899  Biso   1.000  H
  H214     1.0000 0.30743  0.64460  0.02025  Biso   1.000  H
  H215     1.0000 0.53770  0.21551  0.38274  Biso   1.000  H
  H216     1.0000 0.86316  0.96789  0.80204  Biso   1.000  H
  H217     1.0000 0.25737  0.49559  0.38251  Biso   1.000  H
  H218     1.0000 0.38845  0.21321  0.52441  Biso   1.000  H
  H219     1.0000 0.53089  0.34747  0.25301  Biso   1.000  H
  H220     1.0000 0.75547  0.46343  0.16061  Biso   1.000  H
  H221     1.0000 0.86055  0.19347  0.01835  Biso   1.000  H
  H222     1.0000 0.05371  0.32851  0.29413  Biso   1.000  H
  H223     1.0000 0.30362  0.99642  0.35801  Biso   1.000  H
  H224     1.0000 0.15666  0.71784  0.50688  Biso   1.000  H
  H225     1.0000 0.04433  0.83304  0.24979  Biso   1.000  H
  H226     1.0000 0.80121  0.94912  0.18155  Biso   1.000  H
  H227     1.0000 0.68761  0.69579  0.00202  Biso   1.000  H
  H228     1.0000 0.52443  0.84466  0.28282  Biso   1.000  H
  H229     1.0000 0.79047  0.46285  0.65489  Biso   1.000  H
  H230     1.0000 0.66306  0.75267  0.48403  Biso   1.000  H
  H231     1.0000 0.51471  0.60991  0.78329  Biso   1.000  H
  H232     1.0000 0.29798  0.50792  0.87532  Biso   1.000  H
  H233     1.0000 0.18440  0.76497  0.00543  Biso   1.000  H
  H234     1.0000 0.01074  0.62106  0.74674  Biso   1.000  H
  H235     1.0000 0.74596  0.96909  0.67878  Biso   1.000  H
  H236     1.0000 0.89937  0.23929  0.55220  Biso   1.000  H
  H237     1.0000 0.03995  0.11937  0.79406  Biso   1.000  H
  H238     1.0000 0.24517  0.96529  0.86132  Biso   1.000  H
  H239     1.0000 0.36491  0.26241  0.01556  Biso   1.000  H
  H240     1.0000 0.52979  0.11058  0.75434  Biso   1.000  H
  H241     1.0000 0.75704  0.44943  0.87001  Biso   1.000  H
  H242     1.0000 0.86459  0.69789  0.52002  Biso   1.000  H
  H243     1.0000 0.50785  0.82251  0.74070  Biso   1.000  H
  H244     1.0000 0.25101  0.50823  0.66949  Biso   1.000  H
  H245     1.0000 0.39726  0.72301  0.99218  Biso   1.000  H
  H246     1.0000 0.99781  0.83622  0.79124  Biso   1.000  H
  H247     1.0000 0.78216  0.96421  0.89178  Biso   1.000  H
  H248     1.0000 0.68334  0.20297  0.52802  Biso   1.000  H
  H249     1.0000 0.01854  0.32926  0.74860  Biso   1.000  H
  H250     1.0000 0.28336  0.98764  0.64860  Biso   1.000  H
  H251     1.0000 0.14397  0.22737  0.01375  Biso   1.000  H
  H252     1.0000 0.53021  0.32013  0.79873  Biso   1.000  H
  H253     1.0000 0.29867  0.48177  0.16708  Biso   1.000  H
  H254     1.0000 0.18358  0.25478  0.49767  Biso   1.000  H
  H255     1.0000 0.53821  0.13506  0.29389  Biso   1.000  H
  H256     1.0000 0.79876  0.46245  0.36415  Biso   1.000  H
  H257     1.0000 0.64963  0.23850  0.04427  Biso   1.000  H
  H258     1.0000 0.02668  0.11982  0.24871  Biso   1.000  H
  H259     1.0000 0.25869  0.01643  0.14833  Biso   1.000  H
  H260     1.0000 0.37019  0.75249  0.50994  Biso   1.000  H
  H261     1.0000 0.03625  0.61403  0.29141  Biso   1.000  H
  H262     1.0000 0.76537  0.96957  0.39944  Biso   1.000  H
  H263     1.0000 0.89544  0.73438  0.00575  Biso   1.000  H
  H264     1.0000 0.53318  0.64137  0.24063  Biso   1.000  H
  H265     1.0000 0.01918  0.20686  0.87594  Biso   1.000  H
  H266     1.0000 0.89423  0.97524  0.26082  Biso   1.000  H
  H267     1.0000 0.26164  0.85917  0.02395  Biso   1.000  H
  H268     1.0000 0.54176  0.20047  0.67502  Biso   1.000  H
  H269     1.0000 0.39601  0.97869  0.28019  Biso   1.000  H
  H270     1.0000 0.74328  0.82370  0.55028  Biso   1.000  H
  H271     1.0000 0.52623  0.70136  0.86307  Biso   1.000  H
  H272     1.0000 0.67759  0.49353  0.24312  Biso   1.000  H
  H273     1.0000 0.28311  0.35705  0.99912  Biso   1.000  H
  H274     1.0000 0.01028  0.70767  0.66107  Biso   1.000  H
  H275     1.0000 0.17196  0.49733  0.29401  Biso   1.000  H
  H276     1.0000 0.80766  0.31984  0.54041  Biso   1.000  H
  H277     1.0000 0.02449  0.74449  0.15671  Biso   1.000  H
  H278     1.0000 0.15437  0.97139  0.78106  Biso   1.000  H
  H279     1.0000 0.78511  0.10390  0.03918  Biso   1.000  H
  H280     1.0000 0.50186  0.75731  0.36822  Biso   1.000  H
  H281     1.0000 0.65581  0.95496  0.76106  Biso   1.000  H
  H282     1.0000 0.29829  0.12877  0.51812  Biso   1.000  H
  H283     1.0000 0.50628  0.26124  0.17004  Biso   1.000  H
  H284     1.0000 0.38106  0.47612  0.79196  Biso   1.000  H
  H285     1.0000 0.76359  0.60579  0.98672  Biso   1.000  H
  H286     1.0000 0.03214  0.24353  0.37728  Biso   1.000  H
  H287     1.0000 0.87819  0.46820  0.74394  Biso   1.000  H
  H288     1.0000 0.24630  0.63279  0.49228  Biso   1.000  H
  H289     1.0000 0.09223  0.21831  0.01956  Biso   1.000  H
  H290     1.0000 0.03012  0.06703  0.24833  Biso   1.000  H
  H291     1.0000 0.25151  0.01826  0.08997  Biso   1.000  H
  H292     1.0000 0.62829  0.20804  0.52809  Biso   1.000  H
  H293     1.0000 0.54375  0.07682  0.28946  Biso   1.000  H
  H294     1.0000 0.75904  0.96015  0.45280  Biso   1.000  H
  H295     1.0000 0.45283  0.71708  0.98776  Biso   1.000  H
  H296     1.0000 0.53633  0.58881  0.24350  Biso   1.000  H
  H297     1.0000 0.30236  0.47641  0.11326  Biso   1.000  H
  H298     1.0000 0.91976  0.70271  0.51206  Biso   1.000  H
  H299     1.0000 0.02440  0.56103  0.29556  Biso   1.000  H
  H300     1.0000 0.79660  0.45932  0.42094  Biso   1.000  H
  H301     1.0000 0.94782  0.74067  0.00741  Biso   1.000  H
  H302     1.0000 0.99645  0.88953  0.79400  Biso   1.000  H
  H303     1.0000 0.78919  0.97179  0.94461  Biso   1.000  H
  H304     1.0000 0.42596  0.75315  0.51492  Biso   1.000  H
  H305     1.0000 0.50399  0.87754  0.74465  Biso   1.000  H
  H306     1.0000 0.28335  0.98413  0.59458  Biso   1.000  H
  H307     1.0000 0.59474  0.24417  0.05236  Biso   1.000  H
  H308     1.0000 0.52139  0.37368  0.79598  Biso   1.000  H
  H309     1.0000 0.75850  0.44504  0.92360  Biso   1.000  H
  H310     1.0000 0.13358  0.25389  0.50029  Biso   1.000  H
  H311     1.0000 0.00911  0.37731  0.74703  Biso   1.000  H
  H312     1.0000 0.25186  0.50611  0.61706  Biso   1.000  H
  H313     1.0000 0.24666  0.96850  0.91570  Biso   1.000  H
  H314     1.0000 0.91393  0.19671  0.01063  Biso   1.000  H
  H315     1.0000 0.03933  0.88320  0.24703  Biso   1.000  H
  H316     1.0000 0.74703  0.97641  0.62611  Biso   1.000  H
  H317     1.0000 0.44437  0.20929  0.52564  Biso   1.000  H
  H318     1.0000 0.53291  0.89721  0.28370  Biso   1.000  H
  H319     1.0000 0.30005  0.51436  0.92904  Biso   1.000  H
  H320     1.0000 0.63214  0.70213  0.00579  Biso   1.000  H
  H321     1.0000 0.54550  0.40492  0.24620  Biso   1.000  H
  H322     1.0000 0.79505  0.46105  0.60118  Biso   1.000  H
  H323     1.0000 0.09969  0.71625  0.51326  Biso   1.000  H
  H324     1.0000 0.05804  0.38325  0.29582  Biso   1.000  H
  H325     1.0000 0.79766  0.94306  0.12991  Biso   1.000  H
  H326     1.0000 0.13253  0.75909  0.01247  Biso   1.000  H
  H327     1.0000 0.03651  0.06548  0.79628  Biso   1.000  H
  H328     1.0000 0.30111  0.00252  0.41452  Biso   1.000  H
  H329     1.0000 0.60687  0.75850  0.47837  Biso   1.000  H
  H330     1.0000 0.51604  0.06087  0.75384  Biso   1.000  H
  H331     1.0000 0.75564  0.45769  0.10519  Biso   1.000  H
  H332     1.0000 0.41739  0.25590  0.01877  Biso   1.000  H
  H333     1.0000 0.51468  0.55469  0.78846  Biso   1.000  H
  H334     1.0000 0.25549  0.48941  0.43547  Biso   1.000  H
  H335     1.0000 0.95616  0.24067  0.54512  Biso   1.000  H
  H336     1.0000 0.01352  0.56856  0.74629  Biso   1.000  H
  H337     1.0000 0.01231  0.20631  0.93284  Biso   1.000  H
  H338     1.0000 0.95005  0.98316  0.25381  Biso   1.000  H
  H339     1.0000 0.25417  0.91180  0.02897  Biso   1.000  H
  H340     1.0000 0.53999  0.20355  0.62032  Biso   1.000  H
  H341     1.0000 0.45116  0.97721  0.28681  Biso   1.000  H
  H342     1.0000 0.74280  0.87814  0.56088  Biso   1.000  H
  H343     1.0000 0.53730  0.70682  0.91683  Biso   1.000  H
  H344     1.0000 0.62567  0.50070  0.24554  Biso   1.000  H
  H345     1.0000 0.29086  0.41148  0.00102  Biso   1.000  H
  H346     1.0000 0.01741  0.70968  0.61048  Biso   1.000  H
  H347     1.0000 0.11875  0.49126  0.29574  Biso   1.000  H
  H348     1.0000 0.80512  0.37315  0.52896  Biso   1.000  H
  H349     1.0000 0.03146  0.74956  0.10471  Biso   1.000  H
  H350     1.0000 0.10042  0.97271  0.78332  Biso   1.000  H
  H351     1.0000 0.79228  0.04990  0.04904  Biso   1.000  H
  H352     1.0000 0.49973  0.75804  0.41930  Biso   1.000  H
  H353     1.0000 0.60120  0.95293  0.75736  Biso   1.000  H
  H354     1.0000 0.29869  0.07203  0.52078  Biso   1.000  H
  H355     1.0000 0.49301  0.26031  0.11764  Biso   1.000  H
  H356     1.0000 0.43212  0.46558  0.79249  Biso   1.000  H
  H357     1.0000 0.76277  0.54843  0.99262  Biso   1.000  H
  H358     1.0000 0.02978  0.24309  0.43157  Biso   1.000  H
  H359     1.0000 0.93163  0.46773  0.74494  Biso   1.000  H
  H360     1.0000 0.24988  0.58241  0.50435  Biso   1.000  H
  H361     1.0000 0.02639  0.70885  0.42446  Biso   1.000  H
  H362     1.0000 0.41927  0.96858  0.74036  Biso   1.000  H
  H363     1.0000 0.75189  0.36279  0.02966  Biso   1.000  H
  H364     1.0000 0.50648  0.71096  0.09099  Biso   1.000  H
  H365     1.0000 0.91636  0.97026  0.79889  Biso   1.000  H
  H366     1.0000 0.26098  0.40164  0.51340  Biso   1.000  H
  H367     1.0000 0.53098  0.21245  0.43434  Biso   1.000  H
  H368     1.0000 0.11247  0.49434  0.75203  Biso   1.000  H
  H369     1.0000 0.80079  0.87440  0.00379  Biso   1.000  H
  H370     1.0000 0.00537  0.20575  0.11114  Biso   1.000  H
  H371     1.0000 0.61825  0.47157  0.78930  Biso   1.000  H
  H372     1.0000 0.29142  0.89476  0.48513  Biso   1.000  H
  H373     1.0000 0.06071  0.24899  0.61298  Biso   1.000  H
  H374     1.0000 0.63610  0.97713  0.29960  Biso   1.000  H
  H375     1.0000 0.30000  0.59080  0.02077  Biso   1.000  H
  H376     1.0000 0.53710  0.24549  0.94281  Biso   1.000  H
  H377     1.0000 0.13109  0.96558  0.23702  Biso   1.000  H
  H378     1.0000 0.79041  0.55273  0.51101  Biso   1.000  H
  H379     1.0000 0.52038  0.74976  0.59648  Biso   1.000  H
  H380     1.0000 0.94374  0.47109  0.29305  Biso   1.000  H
  H381     1.0000 0.24598  0.09400  0.99183  Biso   1.000  H
  H382     1.0000 0.03319  0.74979  0.93019  Biso   1.000  H
  H383     1.0000 0.44339  0.50633  0.25162  Biso   1.000  H
  H384     1.0000 0.75832  0.05669  0.53044  Biso   1.000  H
  H385     1.0000 0.25459  0.46310  0.34924  Biso   1.000  H
  H386     1.0000 0.30882  0.16511  0.55541  Biso   1.000  H
  H387     1.0000 0.49886  0.31918  0.25383  Biso   1.000  H
  H388     1.0000 0.71677  0.52356  0.22878  Biso   1.000  H
  H389     1.0000 0.84095  0.18893  0.06012  Biso   1.000  H
  H390     1.0000 0.01461  0.30689  0.30114  Biso   1.000  H
  H391     1.0000 0.30903  0.96282  0.33187  Biso   1.000  H
  H392     1.0000 0.18266  0.71213  0.46634  Biso   1.000  H
  H393     1.0000 0.06032  0.74445  0.18736  Biso   1.000  H
  H394     1.0000 0.86495  0.92883  0.26015  Biso   1.000  H
  H395     1.0000 0.76476  0.63949  0.02097  Biso   1.000  H
  H396     1.0000 0.55770  0.80012  0.29594  Biso   1.000  H
  H397     1.0000 0.78825  0.48739  0.68683  Biso   1.000  H
  H398     1.0000 0.75214  0.80611  0.50781  Biso   1.000  H
  H399     1.0000 0.48107  0.64502  0.78823  Biso   1.000  H
  H400     1.0000 0.35632  0.51694  0.78969  Biso   1.000  H
  H401     1.0000 0.26080  0.82574  0.98894  Biso   1.000  H
  H402     1.0000 0.97958  0.70155  0.69332  Biso   1.000  H
  H403     1.0000 0.69233  0.92328  0.75833  Biso   1.000  H
  H404     1.0000 0.81320  0.28987  0.56923  Biso   1.000  H
  H405     1.0000 0.00539  0.14731  0.79240  Biso   1.000  H
  H406     1.0000 0.23696  0.00591  0.83770  Biso   1.000  H
  H407     1.0000 0.33774  0.26741  0.97600  Biso   1.000  H
  H408     1.0000 0.49594  0.14450  0.75160  Biso   1.000  H
  H409     1.0000 0.29706  0.51459  0.19253  Biso   1.000  H
  H410     1.0000 0.22027  0.26750  0.47091  Biso   1.000  H
  H411     1.0000 0.50135  0.21000  0.35095  Biso   1.000  H
  H412     1.0000 0.86071  0.43901  0.28385  Biso   1.000  H
  H413     1.0000 0.68212  0.24046  0.00988  Biso   1.000  H
  H414     1.0000 0.99885  0.14884  0.24708  Biso   1.000  H
  H415     1.0000 0.20405  0.01484  0.23380  Biso   1.000  H
  H416     1.0000 0.34483  0.75343  0.46500  Biso   1.000  H
  H417     1.0000 0.01005  0.64828  0.29136  Biso   1.000  H
  H418     1.0000 0.76163  0.93748  0.36685  Biso   1.000  H
  H419     1.0000 0.80121  0.79119  0.02251  Biso   1.000  H
  H420     1.0000 0.53335  0.72746  0.17838  Biso   1.000  H
  H421     1.0000 0.75649  0.48343  0.84016  Biso   1.000  H
  H422     1.0000 0.78855  0.64026  0.54058  Biso   1.000  H
  H423     1.0000 0.47935  0.74877  0.68054  Biso   1.000  H
  H424     1.0000 0.20215  0.53821  0.74639  Biso   1.000  H
  H425     1.0000 0.37038  0.72530  0.02464  Biso   1.000  H
  H426     1.0000 0.97557  0.75488  0.84620  Biso   1.000  H
  H427     1.0000 0.78473  0.99839  0.86051  Biso   1.000  H
  H428     1.0000 0.76257  0.13833  0.55859  Biso   1.000  H
  H429     1.0000 0.05892  0.30431  0.74847  Biso   1.000  H
  H430     1.0000 0.34037  0.01308  0.72949  Biso   1.000  H
  H431     1.0000 0.18259  0.22363  0.03795  Biso   1.000  H
  H432     1.0000 0.51026  0.24062  0.85989  Biso   1.000  H
  H433     1.0000 0.28728  0.94848  0.68347  Biso   1.000  H
  H434     1.0000 0.73050  0.28360  0.08206  Biso   1.000  H
  H435     1.0000 0.06992  0.69623  0.34796  Biso   1.000  H
  H436     1.0000 0.83851  0.93505  0.81198  Biso   1.000  H
  H437     1.0000 0.26700  0.31149  0.54526  Biso   1.000  H
  H438     1.0000 0.49290  0.66392  0.23706  Biso   1.000  H
  H439     1.0000 0.24568  0.46720  0.69677  Biso   1.000  H
  H440     1.0000 0.86582  0.73927  0.97298  Biso   1.000  H
  H441     1.0000 0.56684  0.16595  0.29733  Biso   1.000  H
  H442     1.0000 0.69450  0.42994  0.78914  Biso   1.000  H
  H443     1.0000 0.28468  0.81226  0.51505  Biso   1.000  H
  H444     1.0000 0.04295  0.20775  0.19020  Biso   1.000  H
  H445     1.0000 0.72207  0.01004  0.31196  Biso   1.000  H
  H446     1.0000 0.30588  0.67037  0.98014  Biso   1.000  H
  H447     1.0000 0.02020  0.24529  0.68395  Biso   1.000  H
  H448     1.0000 0.26325  0.97575  0.17032  Biso   1.000  H
  H449     1.0000 0.84042  0.68978  0.48104  Biso   1.000  H
  H450     1.0000 0.56721  0.29136  0.80058  Biso   1.000  H
  H451     1.0000 0.81016  0.49836  0.33785  Biso   1.000  H
  H452     1.0000 0.22661  0.18124  0.96795  Biso   1.000  H
  H453     1.0000 0.54731  0.79639  0.73326  Biso   1.000  H
  H454     1.0000 0.35853  0.46534  0.25127  Biso   1.000  H
  H455     1.0000 0.71353  0.19820  0.49638  Biso   1.000  H
  H456     1.0000 0.03486  0.80374  0.79703  Biso   1.000  H
  H457     1.0000 0.68443  0.74567  0.53021  Biso   1.000  H
  H458     1.0000 0.55951  0.69021  0.82792  Biso   1.000  H
  H459     1.0000 0.85277  0.43603  0.74080  Biso   1.000  H
  H460     1.0000 0.20915  0.76979  0.04356  Biso   1.000  H
  H461     1.0000 0.04304  0.65336  0.74610  Biso   1.000  H
  H462     1.0000 0.30007  0.47582  0.85237  Biso   1.000  H
  H463     1.0000 0.86994  0.23890  0.51289  Biso   1.000  H
  H464     1.0000 0.05557  0.20271  0.84880  Biso   1.000  H
  H465     1.0000 0.73810  0.99448  0.71252  Biso   1.000  H
  H466     1.0000 0.28965  0.32622  0.03423  Biso   1.000  H
  H467     1.0000 0.57151  0.18865  0.71072  Biso   1.000  H
  H468     1.0000 0.18762  0.94409  0.78104  Biso   1.000  H
  H469     1.0000 0.35739  0.20253  0.48213  Biso   1.000  H
  H470     1.0000 0.54201  0.26126  0.19282  Biso   1.000  H
  H471     1.0000 0.20409  0.52786  0.29977  Biso   1.000  H
  H472     1.0000 0.78099  0.13418  0.01003  Biso   1.000  H
  H473     1.0000 0.06866  0.23910  0.34703  Biso   1.000  H
  H474     1.0000 0.74591  0.43774  0.19149  Biso   1.000  H
  H475     1.0000 0.24541  0.66442  0.52522  Biso   1.000  H
  H476     1.0000 0.01524  0.80255  0.24597  Biso   1.000  H
  H477     1.0000 0.36802  0.01625  0.28043  Biso   1.000  H
  H478     1.0000 0.70743  0.68465  0.95783  Biso   1.000  H
  H479     1.0000 0.46940  0.77459  0.32591  Biso   1.000  H
  H480     1.0000 0.80841  0.98785  0.20760  Biso   1.000  H
  N1       1.0000 0.71210  0.14744  0.52612  Biso   1.000  N
  N2       1.0000 0.51724  0.67026  0.18382  Biso   1.000  N
  N3       1.0000 0.19792  0.50100  0.69980  Biso   1.000  N
  N4       1.0000 0.18480  0.17574  0.00515  Biso   1.000  N
  N5       1.0000 0.03656  0.64962  0.34441  Biso   1.000  N
  N6       1.0000 0.70247  0.45678  0.84135  Biso   1.000  N
  N7       1.0000 0.83780  0.64177  0.51532  Biso   1.000  N
  N8       1.0000 0.02138  0.15321  0.19549  Biso   1.000  N
  N9       1.0000 0.33493  0.97948  0.68290  Biso   1.000  N
  N10      1.0000 0.36117  0.67222  0.00388  Biso   1.000  N
  N11      1.0000 0.53706  0.16262  0.34643  Biso   1.000  N
  N12      1.0000 0.83471  0.97080  0.85763  Biso   1.000  N
  N13      1.0000 0.33912  0.80692  0.49711  Biso   1.000  N
  N14      1.0000 0.53760  0.29154  0.85308  Biso   1.000  N
  N15      1.0000 0.85496  0.46382  0.33749  Biso   1.000  N
  N16      1.0000 0.85817  0.78781  0.00444  Biso   1.000  N
  N17      1.0000 0.03727  0.29903  0.69592  Biso   1.000  N
  N18      1.0000 0.35309  0.49395  0.19942  Biso   1.000  N
  N19      1.0000 0.21621  0.31198  0.51047  Biso   1.000  N
  N20      1.0000 0.00616  0.80182  0.84468  Biso   1.000  N
  N21      1.0000 0.71509  0.97485  0.36061  Biso   1.000  N
  N22      1.0000 0.68674  0.28846  0.04267  Biso   1.000  N
  N23      1.0000 0.51058  0.79580  0.68431  Biso   1.000  N
  N24      1.0000 0.21032  0.99372  0.17960  Biso   1.000  N
  N25      1.0000 0.84469  0.46245  0.69042  Biso   1.000  N
  N26      1.0000 0.69485  0.79917  0.52031  Biso   1.000  N
  N27      1.0000 0.52607  0.64602  0.83408  Biso   1.000  N
  N28      1.0000 0.35107  0.49369  0.84399  Biso   1.000  N
  N29      1.0000 0.21220  0.82006  0.01724  Biso   1.000  N
  N30      1.0000 0.01312  0.65492  0.69396  Biso   1.000  N
  N31      1.0000 0.69212  0.96007  0.70995  Biso   1.000  N
  N32      1.0000 0.86376  0.28957  0.54160  Biso   1.000  N
  N33      1.0000 0.02770  0.15289  0.84538  Biso   1.000  N
  N34      1.0000 0.19013  0.97332  0.83240  Biso   1.000  N
  N35      1.0000 0.33723  0.31794  0.00642  Biso   1.000  N
  N36      1.0000 0.53216  0.14568  0.70471  Biso   1.000  N
  N37      1.0000 0.20553  0.49268  0.34781  Biso   1.000  N
  N38      1.0000 0.35509  0.15863  0.51959  Biso   1.000  N
  N39      1.0000 0.51824  0.31538  0.20128  Biso   1.000  N
  N40      1.0000 0.70572  0.48026  0.18954  Biso   1.000  N
  N41      1.0000 0.83516  0.13886  0.03062  Biso   1.000  N
  N42      1.0000 0.04430  0.29557  0.34772  Biso   1.000  N
  N43      1.0000 0.35922  0.98967  0.33156  Biso   1.000  N
  N44      1.0000 0.19137  0.66587  0.50029  Biso   1.000  N
  N45      1.0000 0.03695  0.79862  0.19407  Biso   1.000  N
  N46      1.0000 0.85897  0.95773  0.20987  Biso   1.000  N
  N47      1.0000 0.71248  0.64113  0.99574  Biso   1.000  N
  N48      1.0000 0.51700  0.81278  0.33630  Biso   1.000  N
  O1       1.0000 0.37389  0.53721  0.02188  Biso   1.000  O
  O2       1.0000 0.04624  0.32127  0.56323  Biso   1.000  O
  O3       1.0000 0.57827  0.98257  0.36556  Biso   1.000  O
  O4       1.0000 0.86730  0.50725  0.52048  Biso   1.000  O
  O5       1.0000 0.51709  0.32082  0.98335  Biso   1.000  O
  O6       1.0000 0.07411  0.97312  0.17092  Biso   1.000  O
  O7       1.0000 0.17286  0.04069  0.99683  Biso   1.000  O
  O8       1.0000 0.52332  0.82662  0.55337  Biso   1.000  O
  O9       1.0000 0.98895  0.46491  0.36748  Biso   1.000  O
  O10      1.0000 0.68456  0.01426  0.53310  Biso   1.000  O
  O11      1.0000 0.03253  0.82064  0.97539  Biso   1.000  O
  O12      1.0000 0.48957  0.49520  0.17618  Biso   1.000  O
  O13      1.0000 0.68588  0.42418  0.01960  Biso   1.000  O
  O14      1.0000 0.02275  0.63737  0.47808  Biso   1.000  O
  O15      1.0000 0.47191  0.96928  0.67380  Biso   1.000  O
  O16      1.0000 0.18607  0.44828  0.52565  Biso   1.000  O
  O17      1.0000 0.52840  0.63748  0.05122  Biso   1.000  O
  O18      1.0000 0.97368  0.98247  0.86716  Biso   1.000  O
  O19      1.0000 0.87318  0.92071  0.02497  Biso   1.000  O
  O20      1.0000 0.53370  0.13729  0.48238  Biso   1.000  O
  O21      1.0000 0.06579  0.47558  0.68051  Biso   1.000  O
  O22      1.0000 0.36250  0.94082  0.50024  Biso   1.000  O
  O23      1.0000 0.01098  0.13316  0.06136  Biso   1.000  O
  O24      1.0000 0.56902  0.47153  0.86336  Biso   1.000  O
  O25      1.0000 0.99153  0.97545  0.17811  Biso   1.000  O
  O26      1.0000 0.17717  0.95536  0.01656  Biso   1.000  O
  O27      1.0000 0.01692  0.13391  0.98049  Biso   1.000  O
  O28      1.0000 0.49349  0.99039  0.35763  Biso   1.000  O
  O29      1.0000 0.67621  0.93265  0.53673  Biso   1.000  O
  O30      1.0000 0.53197  0.13555  0.56830  Biso   1.000  O
  O31      1.0000 0.57300  0.49656  0.17387  Biso   1.000  O
  O32      1.0000 0.36995  0.44852  0.01632  Biso   1.000  O
  O33      1.0000 0.54042  0.63392  0.96825  Biso   1.000  O
  O34      1.0000 0.07160  0.47550  0.36759  Biso   1.000  O
  O35      1.0000 0.87505  0.42190  0.51598  Biso   1.000  O
  O36      1.0000 0.01933  0.63242  0.56075  Biso   1.000  O
  O37      1.0000 0.05946  0.97480  0.86154  Biso   1.000  O
  O38      1.0000 0.86871  0.00337  0.03905  Biso   1.000  O
  O39      1.0000 0.03892  0.82181  0.05911  Biso   1.000  O
  O40      1.0000 0.55728  0.96551  0.68145  Biso   1.000  O
  O41      1.0000 0.37047  0.02123  0.51795  Biso   1.000  O
  O42      1.0000 0.50982  0.82918  0.47110  Biso   1.000  O
  O43      1.0000 0.48389  0.47107  0.86562  Biso   1.000  O
  O44      1.0000 0.68710  0.50799  0.01177  Biso   1.000  O
  O45      1.0000 0.50705  0.32950  0.06705  Biso   1.000  O
  O46      1.0000 0.98206  0.47831  0.67461  Biso   1.000  O
  O47      1.0000 0.18163  0.52936  0.51649  Biso   1.000  O
  O48      1.0000 0.03204  0.31426  0.47999  Biso   1.000  O
  O49      1.0000 0.03302  0.93389  0.17727  Biso   1.000  O
  O50      1.0000 0.17849  0.99088  0.96603  Biso   1.000  O
  O51      1.0000 0.97166  0.13098  0.01845  Biso   1.000  O
  O52      1.0000 0.52986  0.94465  0.35547  Biso   1.000  O
  O53      1.0000 0.67495  0.97494  0.57640  Biso   1.000  O
  O54      1.0000 0.49078  0.13806  0.52618  Biso   1.000  O
  O55      1.0000 0.53540  0.44987  0.17659  Biso   1.000  O
  O56      1.0000 0.36991  0.49586  0.97797  Biso   1.000  O
  O57      1.0000 0.57548  0.63379  0.01265  Biso   1.000  O
  O58      1.0000 0.03904  0.43021  0.36845  Biso   1.000  O
  O59      1.0000 0.86816  0.46305  0.55703  Biso   1.000  O
  O60      1.0000 0.05995  0.63765  0.52102  Biso   1.000  O
  O61      1.0000 0.02206  0.01925  0.86514  Biso   1.000  O
  O62      1.0000 0.86989  0.95448  0.07560  Biso   1.000  O
  O63      1.0000 0.07545  0.82887  0.01412  Biso   1.000  O
  O64      1.0000 0.51745  0.01226  0.68023  Biso   1.000  O
  O65      1.0000 0.36931  0.99123  0.46909  Biso   1.000  O
  O66      1.0000 0.55966  0.82705  0.50438  Biso   1.000  O
  O67      1.0000 0.52406  0.51405  0.86431  Biso   1.000  O
  O68      1.0000 0.68329  0.46818  0.05530  Biso   1.000  O
  O69      1.0000 0.47206  0.32644  0.02103  Biso   1.000  O
  O70      1.0000 0.02877  0.51896  0.67530  Biso   1.000  O
  O71      1.0000 0.18227  0.48638  0.48093  Biso   1.000  O
  O72      1.0000 0.99793  0.31400  0.52814  Biso   1.000  O
  O73      1.0000 0.02315  0.43582  0.67846  Biso   1.000  O
  O74      1.0000 0.67910  0.96980  0.49129  Biso   1.000  O
  O75      1.0000 0.49205  0.63998  0.00279  Biso   1.000  O
  O76      1.0000 0.53022  0.42975  0.86460  Biso   1.000  O
  O77      1.0000 0.18032  0.00535  0.04637  Biso   1.000  O
  O78      1.0000 0.97350  0.63134  0.51545  Biso   1.000  O
  O79      1.0000 0.51351  0.92729  0.67281  Biso   1.000  O
  O80      1.0000 0.86907  0.46789  0.47367  Biso   1.000  O
  O81      1.0000 0.05427  0.13972  0.02411  Biso   1.000  O
  O82      1.0000 0.01087  0.93729  0.86361  Biso   1.000  O
  O83      1.0000 0.37396  0.49017  0.06453  Biso   1.000  O
  O84      1.0000 0.57527  0.13619  0.52364  Biso   1.000  O
  O85      1.0000 0.02168  0.51383  0.36567  Biso   1.000  O
  O86      1.0000 0.35824  0.97090  0.54979  Biso   1.000  O
  O87      1.0000 0.55486  0.32225  0.03355  Biso   1.000  O
  O88      1.0000 0.52880  0.53516  0.17719  Biso   1.000  O
  O89      1.0000 0.86328  0.97044  0.99085  Biso   1.000  O
  O90      1.0000 0.08020  0.32313  0.51536  Biso   1.000  O
  O91      1.0000 0.53643  0.02742  0.36138  Biso   1.000  O
  O92      1.0000 0.18254  0.49383  0.56327  Biso   1.000  O
  O93      1.0000 0.99154  0.81734  0.01857  Biso   1.000  O
  O94      1.0000 0.02968  0.01879  0.17340  Biso   1.000  O
  O95      1.0000 0.68840  0.46009  0.97347  Biso   1.000  O
  O96      1.0000 0.47598  0.82428  0.51492  Biso   1.000  O
  O97      1.0000 0.49138  0.18647  0.52385  Biso   1.000  O
  O98      1.0000 0.53897  0.45231  0.22553  Biso   1.000  O
  O99      1.0000 0.23251  0.49155  0.48396  Biso   1.000  O
  O100     1.0000 0.96439  0.18021  0.01778  Biso   1.000  O
  O101     1.0000 0.04270  0.43295  0.32028  Biso   1.000  O
  O102     1.0000 0.73158  0.46205  0.05808  Biso   1.000  O
  O103     1.0000 0.05595  0.68683  0.52099  Biso   1.000  O
  O104     1.0000 0.03923  0.93419  0.22665  Biso   1.000  O
  O105     1.0000 0.31994  0.99618  0.46372  Biso   1.000  O
  O106     1.0000 0.58054  0.68280  0.01137  Biso   1.000  O
  O107     1.0000 0.53491  0.94729  0.30747  Biso   1.000  O
  O108     1.0000 0.81976  0.95052  0.07590  Biso   1.000  O
  O109     1.0000 0.56050  0.77762  0.50138  Biso   1.000  O
  O110     1.0000 0.52215  0.51051  0.81540  Biso   1.000  O
  O111     1.0000 0.81883  0.46024  0.55388  Biso   1.000  O
  O112     1.0000 0.08032  0.77828  0.01441  Biso   1.000  O
  O113     1.0000 0.02057  0.51947  0.72291  Biso   1.000  O
  O114     1.0000 0.32111  0.50067  0.97860  Biso   1.000  O
  O115     1.0000 0.00273  0.26490  0.53247  Biso   1.000  O
  O116     1.0000 0.01489  0.01888  0.81784  Biso   1.000  O
  O117     1.0000 0.72460  0.97234  0.57945  Biso   1.000  O
  O118     1.0000 0.47027  0.27825  0.01858  Biso   1.000  O
  O119     1.0000 0.50875  0.01027  0.72812  Biso   1.000  O
  O120     1.0000 0.22744  0.99416  0.96306  Biso   1.000  O
  O121     1.0000 0.06498  0.47730  0.72790  Biso   1.000  O
  O122     1.0000 0.73249  0.01144  0.53476  Biso   1.000  O
  O123     1.0000 0.53179  0.68644  0.04946  Biso   1.000  O
  O124     1.0000 0.56627  0.47083  0.81483  Biso   1.000  O
  O125     1.0000 0.22175  0.04306  0.99943  Biso   1.000  O
  O126     1.0000 0.01345  0.68521  0.47701  Biso   1.000  O
  O127     1.0000 0.46965  0.96480  0.72102  Biso   1.000  O
  O128     1.0000 0.81910  0.50429  0.51670  Biso   1.000  O
  O129     1.0000 0.00326  0.18087  0.06110  Biso   1.000  O
  O130     1.0000 0.96572  0.98284  0.81885  Biso   1.000  O
  O131     1.0000 0.32421  0.54024  0.02517  Biso   1.000  O
  O132     1.0000 0.53470  0.18495  0.48621  Biso   1.000  O
  O133     1.0000 0.99107  0.46319  0.31871  Biso   1.000  O
  O134     1.0000 0.31556  0.94427  0.49119  Biso   1.000  O
  O135     1.0000 0.52086  0.27272  0.98621  Biso   1.000  O
  O136     1.0000 0.49229  0.49550  0.22453  Biso   1.000  O
  O137     1.0000 0.82377  0.92063  0.02473  Biso   1.000  O
  O138     1.0000 0.05143  0.27415  0.56194  Biso   1.000  O
  O139     1.0000 0.58220  0.98400  0.31727  Biso   1.000  O
  O140     1.0000 0.23441  0.44922  0.52506  Biso   1.000  O
  O141     1.0000 0.03440  0.77043  0.97572  Biso   1.000  O
  O142     1.0000 0.07783  0.97713  0.21734  Biso   1.000  O
  O143     1.0000 0.73367  0.41694  0.01855  Biso   1.000  O
  O144     1.0000 0.52546  0.77795  0.54954  Biso   1.000  O
  O145     1.0000 0.57638  0.49972  0.22159  Biso   1.000  O
  O146     1.0000 0.22931  0.53196  0.52471  Biso   1.000  O
  O147     1.0000 0.52927  0.18448  0.57089  Biso   1.000  O
  O148     1.0000 0.07217  0.47958  0.31804  Biso   1.000  O
  O149     1.0000 0.73664  0.50368  0.01473  Biso   1.000  O
  O150     1.0000 0.00682  0.18144  0.97972  Biso   1.000  O
  O151     1.0000 0.99413  0.97004  0.22670  Biso   1.000  O
  O152     1.0000 0.32298  0.02513  0.51167  Biso   1.000  O
  O153     1.0000 0.01469  0.68157  0.55944  Biso   1.000  O
  O154     1.0000 0.49570  0.99540  0.30989  Biso   1.000  O
  O155     1.0000 0.81936  0.00167  0.04390  Biso   1.000  O
  O156     1.0000 0.53988  0.68281  0.96729  Biso   1.000  O
  O157     1.0000 0.48208  0.46724  0.81662  Biso   1.000  O
  O158     1.0000 0.82511  0.41890  0.51306  Biso   1.000  O
  O159     1.0000 0.51272  0.78029  0.46682  Biso   1.000  O
  O160     1.0000 0.98035  0.47207  0.72446  Biso   1.000  O
  O161     1.0000 0.32120  0.45572  0.02165  Biso   1.000  O
  O162     1.0000 0.04286  0.77260  0.05886  Biso   1.000  O
  O163     1.0000 0.05295  0.97173  0.81286  Biso   1.000  O
  O164     1.0000 0.72504  0.92917  0.54211  Biso   1.000  O
  O165     1.0000 0.03265  0.26498  0.48070  Biso   1.000  O
  O166     1.0000 0.55608  0.96626  0.72983  Biso   1.000  O
  O167     1.0000 0.22732  0.95755  0.01509  Biso   1.000  O
  O168     1.0000 0.50265  0.28084  0.06789  Biso   1.000  O
  O169     1.0000 0.03527  0.01570  0.22167  Biso   1.000  O
  O170     1.0000 0.22812  0.01051  0.04637  Biso   1.000  O
  O171     1.0000 0.04813  0.18843  0.02166  Biso   1.000  O
  O172     1.0000 0.54384  0.02923  0.31262  Biso   1.000  O
  O173     1.0000 0.72727  0.96347  0.49600  Biso   1.000  O
  O174     1.0000 0.57410  0.18446  0.53062  Biso   1.000  O
  O175     1.0000 0.53125  0.53707  0.22617  Biso   1.000  O
  O176     1.0000 0.32451  0.49625  0.06376  Biso   1.000  O
  O177     1.0000 0.49701  0.69056  0.00388  Biso   1.000  O
  O178     1.0000 0.02113  0.51536  0.31649  Biso   1.000  O
  O179     1.0000 0.82075  0.46112  0.47223  Biso   1.000  O
  O180     1.0000 0.97123  0.67861  0.51363  Biso   1.000  O
  O181     1.0000 0.00216  0.93586  0.81538  Biso   1.000  O
  O182     1.0000 0.81557  0.96911  0.99347  Biso   1.000  O
  O183     1.0000 0.99433  0.76826  0.01630  Biso   1.000  O
  O184     1.0000 0.51400  0.92607  0.72241  Biso   1.000  O
  O185     1.0000 0.31050  0.97696  0.54530  Biso   1.000  O
  O186     1.0000 0.47607  0.77551  0.51138  Biso   1.000  O
  O187     1.0000 0.52707  0.42842  0.81662  Biso   1.000  O
  O188     1.0000 0.73795  0.45644  0.97387  Biso   1.000  O
  O189     1.0000 0.55243  0.27330  0.03446  Biso   1.000  O
  O190     1.0000 0.02675  0.43439  0.72733  Biso   1.000  O
  O191     1.0000 0.23096  0.48960  0.56699  Biso   1.000  O
  O192     1.0000 0.08262  0.27408  0.50912  Biso   1.000  O
