data_image0
_cell_length_a       46.8937
_cell_length_b       47.0511
_cell_length_c       46.4544
_cell_angle_alpha    90
_cell_angle_beta     90
_cell_angle_gamma    90

_symmetry_space_group_name_H-M    "P 1"
_symmetry_int_tables_number       1

loop_
  _symmetry_equiv_pos_as_xyz
  'x, y, z'

loop_
  _atom_site_label
  _atom_site_occupancy
  _atom_site_fract_x
  _atom_site_fract_y
  _atom_site_fract_z
  _atom_site_thermal_displace_type
  _atom_site_B_iso_or_equiv
  _atom_site_type_symbol
  C1       1.0000 0.55206  0.96398  0.35231  Biso   1.000  C
  C2       1.0000 0.31166  0.53148  0.02894  Biso   1.000  C
  C3       1.0000 0.97555  0.29687  0.59323  Biso   1.000  C
  C4       1.0000 0.05569  0.96655  0.20747  Biso   1.000  C
  C5       1.0000 0.82187  0.53263  0.53588  Biso   1.000  C
  C6       1.0000 0.49319  0.28801  0.99536  Biso   1.000  C
  C7       1.0000 0.94474  0.47789  0.34555  Biso   1.000  C
  C8       1.0000 0.17325  0.03218  0.02359  Biso   1.000  C
  C9       1.0000 0.50071  0.78387  0.56950  Biso   1.000  C
  C10      1.0000 0.44805  0.47014  0.20866  Biso   1.000  C
  C11      1.0000 0.67239  0.02811  0.53067  Biso   1.000  C
  C12      1.0000 0.01532  0.78744  0.98195  Biso   1.000  C
  C13      1.0000 0.42616  0.96546  0.70968  Biso   1.000  C
  C14      1.0000 0.67293  0.40736  0.02887  Biso   1.000  C
  C15      1.0000 0.00068  0.65630  0.47381  Biso   1.000  C
  C16      1.0000 0.92621  0.96647  0.85465  Biso   1.000  C
  C17      1.0000 0.17183  0.40681  0.52569  Biso   1.000  C
  C18      1.0000 0.50752  0.65202  0.07379  Biso   1.000  C
  C19      1.0000 0.04887  0.46932  0.71827  Biso   1.000  C
  C20      1.0000 0.81695  0.90705  0.04316  Biso   1.000  C
  C21      1.0000 0.48640  0.14577  0.49075  Biso   1.000  C
  C22      1.0000 0.54485  0.47137  0.85245  Biso   1.000  C
  C23      1.0000 0.30719  0.91256  0.52475  Biso   1.000  C
  C24      1.0000 0.98340  0.15420  0.09300  Biso   1.000  C
  C25      1.0000 0.30965  0.02180  0.52431  Biso   1.000  C
  C26      1.0000 0.47751  0.29188  0.10446  Biso   1.000  C
  C27      1.0000 0.05242  0.46725  0.34455  Biso   1.000  C
  C28      1.0000 0.80778  0.01479  0.03375  Biso   1.000  C
  C29      1.0000 0.98647  0.29470  0.48596  Biso   1.000  C
  C30      1.0000 0.55502  0.48730  0.21114  Biso   1.000  C
  C31      1.0000 0.17441  0.51337  0.53767  Biso   1.000  C
  C32      1.0000 0.98924  0.78648  0.08614  Biso   1.000  C
  C33      1.0000 0.44693  0.98802  0.34687  Biso   1.000  C
  C34      1.0000 0.67505  0.51530  0.03083  Biso   1.000  C
  C35      1.0000 0.49692  0.78694  0.46482  Biso   1.000  C
  C36      1.0000 0.94586  0.96911  0.21507  Biso   1.000  C
  C37      1.0000 0.67373  0.91705  0.53701  Biso   1.000  C
  C38      1.0000 0.48974  0.65206  0.96385  Biso   1.000  C
  C39      1.0000 0.94345  0.47946  0.71717  Biso   1.000  C
  C40      1.0000 0.17767  0.92395  0.02239  Biso   1.000  C
  C41      1.0000 0.01252  0.65902  0.58229  Biso   1.000  C
  C42      1.0000 0.43718  0.45520  0.85305  Biso   1.000  C
  C43      1.0000 0.81051  0.42438  0.53418  Biso   1.000  C
  C44      1.0000 0.98281  0.14749  0.98503  Biso   1.000  C
  C45      1.0000 0.53667  0.96124  0.70943  Biso   1.000  C
  C46      1.0000 0.31170  0.42291  0.02922  Biso   1.000  C
  C47      1.0000 0.49418  0.15106  0.60111  Biso   1.000  C
  C48      1.0000 0.03418  0.97577  0.84828  Biso   1.000  C
  C49      1.0000 0.97606  0.02902  0.85197  Biso   1.000  C
  C50      1.0000 0.81558  0.96291  0.09362  Biso   1.000  C
  C51      1.0000 0.05689  0.78969  0.04716  Biso   1.000  C
  C52      1.0000 0.48330  0.01729  0.71978  Biso   1.000  C
  C53      1.0000 0.31135  0.97045  0.46763  Biso   1.000  C
  C54      1.0000 0.55187  0.78844  0.51202  Biso   1.000  C
  C55      1.0000 0.48255  0.52001  0.84647  Biso   1.000  C
  C56      1.0000 0.67733  0.45865  0.08460  Biso   1.000  C
  C57      1.0000 0.43142  0.29520  0.04032  Biso   1.000  C
  C58      1.0000 0.99894  0.53122  0.71298  Biso   1.000  C
  C59      1.0000 0.17562  0.46781  0.47460  Biso   1.000  C
  C60      1.0000 0.92669  0.29528  0.53693  Biso   1.000  C
  C61      1.0000 0.00239  0.91731  0.20491  Biso   1.000  C
  C62      1.0000 0.17374  0.98330  0.96453  Biso   1.000  C
  C63      1.0000 0.92767  0.14855  0.03625  Biso   1.000  C
  C64      1.0000 0.48459  0.92388  0.34993  Biso   1.000  C
  C65      1.0000 0.66763  0.97842  0.59051  Biso   1.000  C
  C66      1.0000 0.43316  0.14760  0.54916  Biso   1.000  C
  C67      1.0000 0.51151  0.42770  0.21450  Biso   1.000  C
  C68      1.0000 0.30893  0.47220  0.97425  Biso   1.000  C
  C69      1.0000 0.55436  0.64848  0.01351  Biso   1.000  C
  C70      1.0000 0.99631  0.41754  0.35043  Biso   1.000  C
  C71      1.0000 0.82357  0.47373  0.58604  Biso   1.000  C
  C72      1.0000 0.05849  0.65052  0.52171  Biso   1.000  C
  C73      1.0000 0.00480  0.52499  0.34703  Biso   1.000  C
  C74      1.0000 0.30513  0.96441  0.57822  Biso   1.000  C
  C75      1.0000 0.53646  0.29091  0.05682  Biso   1.000  C
  C76      1.0000 0.49372  0.53388  0.20869  Biso   1.000  C
  C77      1.0000 0.80827  0.95561  0.98516  Biso   1.000  C
  C78      1.0000 0.03768  0.28893  0.54117  Biso   1.000  C
  C79      1.0000 0.51014  0.03098  0.35467  Biso   1.000  C
  C80      1.0000 0.17055  0.45369  0.58450  Biso   1.000  C
  C81      1.0000 0.94957  0.78360  0.02286  Biso   1.000  C
  C82      1.0000 0.00594  0.02386  0.21510  Biso   1.000  C
  C83      1.0000 0.67575  0.46558  0.97442  Biso   1.000  C
  C84      1.0000 0.44278  0.79168  0.51890  Biso   1.000  C
  C85      1.0000 0.99134  0.42176  0.71752  Biso   1.000  C
  C86      1.0000 0.67527  0.96693  0.48297  Biso   1.000  C
  C87      1.0000 0.44413  0.65177  0.02780  Biso   1.000  C
  C88      1.0000 0.49296  0.40936  0.85806  Biso   1.000  C
  C89      1.0000 0.17666  0.97801  0.07602  Biso   1.000  C
  C90      1.0000 0.95253  0.65946  0.53354  Biso   1.000  C
  C91      1.0000 0.48195  0.90897  0.70247  Biso   1.000  C
  C92      1.0000 0.82052  0.47619  0.47767  Biso   1.000  C
  C93      1.0000 0.03779  0.15046  0.03823  Biso   1.000  C
  C94      1.0000 0.98699  0.91849  0.85415  Biso   1.000  C
  C95      1.0000 0.31632  0.47763  0.08342  Biso   1.000  C
  C96      1.0000 0.54160  0.15024  0.53844  Biso   1.000  C
  C97      1.0000 0.67171  0.06058  0.52667  Biso   1.000  C
  C98      1.0000 0.50865  0.65183  0.10624  Biso   1.000  C
  C99      1.0000 0.08056  0.46735  0.71881  Biso   1.000  C
  C100     1.0000 0.17367  0.06359  0.02828  Biso   1.000  C
  C101     1.0000 0.00603  0.65509  0.44183  Biso   1.000  C
  C102     1.0000 0.57666  0.47818  0.85148  Biso   1.000  C
  C103     1.0000 0.82358  0.56388  0.53641  Biso   1.000  C
  C104     1.0000 0.98397  0.15533  0.12579  Biso   1.000  C
  C105     1.0000 0.39345  0.96542  0.70848  Biso   1.000  C
  C106     1.0000 0.31265  0.56248  0.02790  Biso   1.000  C
  C107     1.0000 0.49212  0.14631  0.45894  Biso   1.000  C
  C108     1.0000 0.89394  0.96325  0.85631  Biso   1.000  C
  C109     1.0000 0.30794  0.87910  0.52701  Biso   1.000  C
  C110     1.0000 0.49719  0.28770  0.96294  Biso   1.000  C
  C111     1.0000 0.91404  0.48049  0.34546  Biso   1.000  C
  C112     1.0000 0.81911  0.87384  0.04134  Biso   1.000  C
  C113     1.0000 0.96947  0.29671  0.62615  Biso   1.000  C
  C114     1.0000 0.41641  0.46883  0.20720  Biso   1.000  C
  C115     1.0000 0.17153  0.37522  0.53214  Biso   1.000  C
  C116     1.0000 0.01154  0.78896  0.95044  Biso   1.000  C
  C117     1.0000 0.58303  0.95958  0.35521  Biso   1.000  C
  C118     1.0000 0.67222  0.37459  0.03219  Biso   1.000  C
  C119     1.0000 0.50290  0.78596  0.60140  Biso   1.000  C
  C120     1.0000 0.08748  0.96734  0.20637  Biso   1.000  C
  C121     1.0000 0.81588  0.95915  0.12693  Biso   1.000  C
  C122     1.0000 0.08851  0.79276  0.04957  Biso   1.000  C
  C123     1.0000 0.97661  0.06103  0.85275  Biso   1.000  C
  C124     1.0000 0.31200  0.97124  0.43519  Biso   1.000  C
  C125     1.0000 0.58510  0.78790  0.51096  Biso   1.000  C
  C126     1.0000 0.48339  0.04981  0.72372  Biso   1.000  C
  C127     1.0000 0.67876  0.45675  0.11718  Biso   1.000  C
  C128     1.0000 0.39990  0.29592  0.04145  Biso   1.000  C
  C129     1.0000 0.47814  0.55175  0.84143  Biso   1.000  C
  C130     1.0000 0.17761  0.46863  0.44284  Biso   1.000  C
  C131     1.0000 0.89522  0.29389  0.53782  Biso   1.000  C
  C132     1.0000 0.99690  0.56369  0.71054  Biso   1.000  C
  C133     1.0000 0.16987  0.99015  0.93244  Biso   1.000  C
  C134     1.0000 0.89444  0.14701  0.03439  Biso   1.000  C
  C135     1.0000 0.01425  0.88843  0.20347  Biso   1.000  C
  C136     1.0000 0.66380  0.97793  0.62279  Biso   1.000  C
  C137     1.0000 0.40105  0.14750  0.54593  Biso   1.000  C
  C138     1.0000 0.48547  0.89162  0.34754  Biso   1.000  C
  C139     1.0000 0.30944  0.46516  0.94334  Biso   1.000  C
  C140     1.0000 0.58593  0.64763  0.01818  Biso   1.000  C
  C141     1.0000 0.51264  0.39506  0.21667  Biso   1.000  C
  C142     1.0000 0.82207  0.47010  0.61821  Biso   1.000  C
  C143     1.0000 0.09061  0.64862  0.52109  Biso   1.000  C
  C144     1.0000 0.99496  0.38470  0.35104  Biso   1.000  C
  C145     1.0000 0.31832  0.48143  0.11520  Biso   1.000  C
  C146     1.0000 0.06875  0.28626  0.54354  Biso   1.000  C
  C147     1.0000 0.51603  0.06280  0.35706  Biso   1.000  C
  C148     1.0000 0.82144  0.47331  0.44426  Biso   1.000  C
  C149     1.0000 0.56916  0.28746  0.05753  Biso   1.000  C
  C150     1.0000 0.99946  0.05551  0.21721  Biso   1.000  C
  C151     1.0000 0.17856  0.97488  0.10803  Biso   1.000  C
  C152     1.0000 0.41124  0.79100  0.52089  Biso   1.000  C
  C153     1.0000 0.00776  0.55794  0.34844  Biso   1.000  C
  C154     1.0000 0.67779  0.96027  0.45206  Biso   1.000  C
  C155     1.0000 0.91833  0.78193  0.02058  Biso   1.000  C
  C156     1.0000 0.48829  0.56488  0.20511  Biso   1.000  C
  C157     1.0000 0.67410  0.46614  0.94201  Biso   1.000  C
  C158     1.0000 0.91964  0.65936  0.53128  Biso   1.000  C
  C159     1.0000 0.48942  0.87685  0.70045  Biso   1.000  C
  C160     1.0000 0.16957  0.45107  0.61657  Biso   1.000  C
  C161     1.0000 0.41232  0.65375  0.03188  Biso   1.000  C
  C162     1.0000 0.98907  0.88577  0.85579  Biso   1.000  C
  C163     1.0000 0.80465  0.95658  0.95374  Biso   1.000  C
  C164     1.0000 0.57390  0.15176  0.53726  Biso   1.000  C
  C165     1.0000 0.99160  0.38926  0.71972  Biso   1.000  C
  C166     1.0000 0.30360  0.97249  0.60928  Biso   1.000  C
  C167     1.0000 0.07047  0.15060  0.03963  Biso   1.000  C
  C168     1.0000 0.49519  0.37766  0.86287  Biso   1.000  C
  C169     1.0000 0.98594  0.78780  0.11837  Biso   1.000  C
  C170     1.0000 0.06612  0.97553  0.84759  Biso   1.000  C
  C171     1.0000 0.80480  0.04629  0.03337  Biso   1.000  C
  C172     1.0000 0.49836  0.78937  0.43313  Biso   1.000  C
  C173     1.0000 0.56883  0.95764  0.71131  Biso   1.000  C
  C174     1.0000 0.31005  0.05468  0.52291  Biso   1.000  C
  C175     1.0000 0.48226  0.29411  0.13560  Biso   1.000  C
  C176     1.0000 0.40728  0.44470  0.85357  Biso   1.000  C
  C177     1.0000 0.67733  0.54748  0.02915  Biso   1.000  C
  C178     1.0000 0.98889  0.29352  0.45389  Biso   1.000  C
  C179     1.0000 0.91103  0.47950  0.71550  Biso   1.000  C
  C180     1.0000 0.17763  0.54591  0.53845  Biso   1.000  C
  C181     1.0000 0.97804  0.14935  0.95299  Biso   1.000  C
  C182     1.0000 0.91419  0.96154  0.21635  Biso   1.000  C
  C183     1.0000 0.17955  0.89287  0.02604  Biso   1.000  C
  C184     1.0000 0.49160  0.14934  0.63343  Biso   1.000  C
  C185     1.0000 0.41448  0.98894  0.34615  Biso   1.000  C
  C186     1.0000 0.67557  0.88593  0.52494  Biso   1.000  C
  C187     1.0000 0.48636  0.65222  0.93189  Biso   1.000  C
  C188     1.0000 0.58576  0.48016  0.21287  Biso   1.000  C
  C189     1.0000 0.30814  0.38997  0.03166  Biso   1.000  C
  C190     1.0000 0.01733  0.65983  0.61470  Biso   1.000  C
  C191     1.0000 0.08436  0.46425  0.34557  Biso   1.000  C
  C192     1.0000 0.80609  0.39334  0.54182  Biso   1.000  C
  C193     1.0000 0.83045  0.95861  0.93582  Biso   1.000  C
  C194     1.0000 0.90159  0.80857  0.02660  Biso   1.000  C
  C195     1.0000 0.99506  0.86910  0.88279  Biso   1.000  C
  C196     1.0000 0.33070  0.97286  0.62668  Biso   1.000  C
  C197     1.0000 0.39365  0.81707  0.52670  Biso   1.000  C
  C198     1.0000 0.49372  0.86215  0.67144  Biso   1.000  C
  C199     1.0000 0.64583  0.46718  0.92567  Biso   1.000  C
  C200     1.0000 0.58698  0.31401  0.05265  Biso   1.000  C
  C201     1.0000 0.49567  0.36535  0.89102  Biso   1.000  C
  C202     1.0000 0.14210  0.45628  0.63403  Biso   1.000  C
  C203     1.0000 0.08675  0.31208  0.53953  Biso   1.000  C
  C204     1.0000 0.98824  0.37367  0.69208  Biso   1.000  C
  C205     1.0000 0.15214  0.97351  0.12419  Biso   1.000  C
  C206     1.0000 0.08904  0.12508  0.03708  Biso   1.000  C
  C207     1.0000 0.99621  0.07365  0.19071  Biso   1.000  C
  C208     1.0000 0.65083  0.95987  0.43623  Biso   1.000  C
  C209     1.0000 0.59076  0.12455  0.53633  Biso   1.000  C
  C210     1.0000 0.50877  0.07508  0.38372  Biso   1.000  C
  C211     1.0000 0.34632  0.47833  0.12970  Biso   1.000  C
  C212     1.0000 0.39482  0.62748  0.03282  Biso   1.000  C
  C213     1.0000 0.48983  0.57954  0.17816  Biso   1.000  C
  C214     1.0000 0.84873  0.47218  0.42720  Biso   1.000  C
  C215     1.0000 0.90233  0.63319  0.52820  Biso   1.000  C
  C216     1.0000 0.00644  0.57394  0.37555  Biso   1.000  C
  C217     1.0000 0.08616  0.97842  0.87313  Biso   1.000  C
  C218     1.0000 0.83111  0.06390  0.03582  Biso   1.000  C
  C219     1.0000 0.98872  0.81503  0.13362  Biso   1.000  C
  C220     1.0000 0.58458  0.96032  0.68485  Biso   1.000  C
  C221     1.0000 0.33654  0.07145  0.52146  Biso   1.000  C
  C222     1.0000 0.49869  0.81762  0.41886  Biso   1.000  C
  C223     1.0000 0.38988  0.44795  0.87976  Biso   1.000  C
  C224     1.0000 0.65085  0.56561  0.02930  Biso   1.000  C
  C225     1.0000 0.48706  0.32183  0.14873  Biso   1.000  C
  C226     1.0000 0.89786  0.47813  0.68657  Biso   1.000  C
  C227     1.0000 0.15224  0.56480  0.53581  Biso   1.000  C
  C228     1.0000 0.98808  0.31977  0.43519  Biso   1.000  C
  C229     1.0000 0.89751  0.96080  0.18980  Biso   1.000  C
  C230     1.0000 0.15167  0.87608  0.02631  Biso   1.000  C
  C231     1.0000 0.97737  0.12300  0.93607  Biso   1.000  C
  C232     1.0000 0.39880  0.98442  0.37305  Biso   1.000  C
  C233     1.0000 0.64950  0.86785  0.52181  Biso   1.000  C
  C234     1.0000 0.49134  0.12113  0.64895  Biso   1.000  C
  C235     1.0000 0.60113  0.47429  0.18589  Biso   1.000  C
  C236     1.0000 0.33487  0.37434  0.03336  Biso   1.000  C
  C237     1.0000 0.48054  0.62470  0.91721  Biso   1.000  C
  C238     1.0000 0.09923  0.46787  0.37268  Biso   1.000  C
  C239     1.0000 0.83016  0.37530  0.54705  Biso   1.000  C
  C240     1.0000 0.01119  0.63351  0.63022  Biso   1.000  C
  C241     1.0000 0.59396  0.47641  0.87770  Biso   1.000  C
  C242     1.0000 0.85182  0.57886  0.53575  Biso   1.000  C
  C243     1.0000 0.49965  0.81264  0.61906  Biso   1.000  C
  C244     1.0000 0.09429  0.46291  0.69049  Biso   1.000  C
  C245     1.0000 0.34018  0.57653  0.02833  Biso   1.000  C
  C246     1.0000 0.00451  0.81671  0.93433  Biso   1.000  C
  C247     1.0000 0.87815  0.96409  0.88479  Biso   1.000  C
  C248     1.0000 0.64398  0.07427  0.53030  Biso   1.000  C
  C249     1.0000 0.97627  0.32346  0.64149  Biso   1.000  C
  C250     1.0000 0.37785  0.96718  0.68046  Biso   1.000  C
  C251     1.0000 0.14530  0.07847  0.03247  Biso   1.000  C
  C252     1.0000 0.49868  0.31435  0.94608  Biso   1.000  C
  C253     1.0000 0.39998  0.47249  0.18100  Biso   1.000  C
  C254     1.0000 0.14350  0.36067  0.53165  Biso   1.000  C
  C255     1.0000 0.49633  0.12095  0.44085  Biso   1.000  C
  C256     1.0000 0.89833  0.48044  0.37250  Biso   1.000  C
  C257     1.0000 0.64373  0.36145  0.03361  Biso   1.000  C
  C258     1.0000 0.98825  0.12865  0.14217  Biso   1.000  C
  C259     1.0000 0.10160  0.96837  0.17797  Biso   1.000  C
  C260     1.0000 0.33673  0.86568  0.52663  Biso   1.000  C
  C261     1.0000 0.00458  0.62711  0.42677  Biso   1.000  C
  C262     1.0000 0.59626  0.95847  0.38423  Biso   1.000  C
  C263     1.0000 0.84757  0.85826  0.03721  Biso   1.000  C
  C264     1.0000 0.50207  0.62541  0.12359  Biso   1.000  C
  C265     1.0000 0.97529  0.07519  0.88041  Biso   1.000  C
  C266     1.0000 0.84347  0.95967  0.14064  Biso   1.000  C
  C267     1.0000 0.10237  0.81977  0.04319  Biso   1.000  C
  C268     1.0000 0.48297  0.06798  0.69711  Biso   1.000  C
  C269     1.0000 0.33970  0.97450  0.42247  Biso   1.000  C
  C270     1.0000 0.60019  0.81536  0.51194  Biso   1.000  C
  C271     1.0000 0.47968  0.57017  0.86720  Biso   1.000  C
  C272     1.0000 0.65221  0.46410  0.13302  Biso   1.000  C
  C273     1.0000 0.38417  0.32331  0.03806  Biso   1.000  C
  C274     1.0000 0.99722  0.57907  0.68336  Biso   1.000  C
  C275     1.0000 0.15070  0.46954  0.42647  Biso   1.000  C
  C276     1.0000 0.87944  0.32073  0.53982  Biso   1.000  C
  C277     1.0000 0.00673  0.87095  0.17887  Biso   1.000  C
  C278     1.0000 0.14103  0.98825  0.92024  Biso   1.000  C
  C279     1.0000 0.87916  0.11862  0.03587  Biso   1.000  C
  C280     1.0000 0.48931  0.87304  0.37381  Biso   1.000  C
  C281     1.0000 0.63567  0.97304  0.63666  Biso   1.000  C
  C282     1.0000 0.38643  0.12067  0.53934  Biso   1.000  C
  C283     1.0000 0.50270  0.37730  0.19204  Biso   1.000  C
  C284     1.0000 0.33599  0.45776  0.92841  Biso   1.000  C
  C285     1.0000 0.60303  0.62107  0.02198  Biso   1.000  C
  C286     1.0000 0.99559  0.36975  0.37937  Biso   1.000  C
  C287     1.0000 0.84875  0.47334  0.63442  Biso   1.000  C
  C288     1.0000 0.10350  0.61948  0.52323  Biso   1.000  C
  C289     1.0000 0.33927  0.83475  0.52499  Biso   1.000  C
  C290     1.0000 0.49814  0.31237  0.91438  Biso   1.000  C
  C291     1.0000 0.86737  0.47702  0.37105  Biso   1.000  C
  C292     1.0000 0.84690  0.82773  0.03114  Biso   1.000  C
  C293     1.0000 0.97750  0.32075  0.67327  Biso   1.000  C
  C294     1.0000 0.36807  0.47390  0.18390  Biso   1.000  C
  C295     1.0000 0.14178  0.32866  0.53827  Biso   1.000  C
  C296     1.0000 0.00332  0.81652  0.90245  Biso   1.000  C
  C297     1.0000 0.62862  0.95705  0.38350  Biso   1.000  C
  C298     1.0000 0.64288  0.33023  0.03916  Biso   1.000  C
  C299     1.0000 0.50080  0.81058  0.64999  Biso   1.000  C
  C300     1.0000 0.13319  0.96561  0.17731  Biso   1.000  C
  C301     1.0000 0.64416  0.10633  0.53111  Biso   1.000  C
  C302     1.0000 0.49938  0.62892  0.15541  Biso   1.000  C
  C303     1.0000 0.12441  0.45785  0.69004  Biso   1.000  C
  C304     1.0000 0.14435  0.10936  0.03564  Biso   1.000  C
  C305     1.0000 0.00947  0.62703  0.39554  Biso   1.000  C
  C306     1.0000 0.62601  0.47573  0.87537  Biso   1.000  C
  C307     1.0000 0.85000  0.61113  0.53439  Biso   1.000  C
  C308     1.0000 0.98832  0.12694  0.17380  Biso   1.000  C
  C309     1.0000 0.34619  0.96737  0.68008  Biso   1.000  C
  C310     1.0000 0.34049  0.60768  0.03373  Biso   1.000  C
  C311     1.0000 0.50150  0.12573  0.40978  Biso   1.000  C
  C312     1.0000 0.84754  0.96074  0.88338  Biso   1.000  C
  C313     1.0000 0.15284  0.46701  0.39469  Biso   1.000  C
  C314     1.0000 0.35570  0.12267  0.53555  Biso   1.000  C
  C315     1.0000 0.49885  0.34699  0.19723  Biso   1.000  C
  C316     1.0000 0.65379  0.46767  0.16489  Biso   1.000  C
  C317     1.0000 0.84791  0.11705  0.03452  Biso   1.000  C
  C318     1.0000 0.99079  0.33866  0.38130  Biso   1.000  C
  C319     1.0000 0.34395  0.97746  0.39052  Biso   1.000  C
  C320     1.0000 0.13553  0.61789  0.52683  Biso   1.000  C
  C321     1.0000 0.00483  0.83986  0.18075  Biso   1.000  C
  C322     1.0000 0.84357  0.96001  0.17301  Biso   1.000  C
  C323     1.0000 0.63324  0.61852  0.02031  Biso   1.000  C
  C324     1.0000 0.49110  0.84263  0.36787  Biso   1.000  C
  C325     1.0000 0.84664  0.47143  0.66539  Biso   1.000  C
  C326     1.0000 0.63175  0.81486  0.51217  Biso   1.000  C
  C327     1.0000 0.47778  0.60160  0.86433  Biso   1.000  C
  C328     1.0000 0.33704  0.45602  0.89830  Biso   1.000  C
  C329     1.0000 0.13396  0.82198  0.04036  Biso   1.000  C
  C330     1.0000 0.00004  0.61168  0.68277  Biso   1.000  C
  C331     1.0000 0.63806  0.96980  0.66746  Biso   1.000  C
  C332     1.0000 0.84866  0.32137  0.53899  Biso   1.000  C
  C333     1.0000 0.97669  0.10758  0.88141  Biso   1.000  C
  C334     1.0000 0.14012  0.98352  0.88901  Biso   1.000  C
  C335     1.0000 0.35455  0.32312  0.04265  Biso   1.000  C
  C336     1.0000 0.48155  0.09872  0.69872  Biso   1.000  C
  C337     1.0000 0.64761  0.47054  0.89526  Biso   1.000  C
  C338     1.0000 0.87170  0.63315  0.53219  Biso   1.000  C
  C339     1.0000 0.49863  0.83098  0.67275  Biso   1.000  C
  C340     1.0000 0.14365  0.45492  0.66595  Biso   1.000  C
  C341     1.0000 0.36367  0.62835  0.03459  Biso   1.000  C
  C342     1.0000 0.99961  0.83846  0.88080  Biso   1.000  C
  C343     1.0000 0.82652  0.95995  0.90508  Biso   1.000  C
  C344     1.0000 0.62161  0.12617  0.53532  Biso   1.000  C
  C345     1.0000 0.98289  0.34208  0.69337  Biso   1.000  C
  C346     1.0000 0.32665  0.96934  0.65753  Biso   1.000  C
  C347     1.0000 0.12052  0.12890  0.03816  Biso   1.000  C
  C348     1.0000 0.49767  0.33251  0.89179  Biso   1.000  C
  C349     1.0000 0.34620  0.47595  0.16191  Biso   1.000  C
  C350     1.0000 0.11801  0.30898  0.54022  Biso   1.000  C
  C351     1.0000 0.50612  0.10626  0.38663  Biso   1.000  C
  C352     1.0000 0.84700  0.47358  0.39461  Biso   1.000  C
  C353     1.0000 0.61854  0.31153  0.04702  Biso   1.000  C
  C354     1.0000 0.99178  0.10460  0.19413  Biso   1.000  C
  C355     1.0000 0.15326  0.96892  0.15538  Biso   1.000  C
  C356     1.0000 0.36205  0.81438  0.52393  Biso   1.000  C
  C357     1.0000 0.01026  0.60545  0.37379  Biso   1.000  C
  C358     1.0000 0.65045  0.96024  0.40537  Biso   1.000  C
  C359     1.0000 0.86887  0.80729  0.02743  Biso   1.000  C
  C360     1.0000 0.49402  0.61027  0.17846  Biso   1.000  C
  C361     1.0000 0.97611  0.12695  0.90558  Biso   1.000  C
  C362     1.0000 0.86603  0.96169  0.19276  Biso   1.000  C
  C363     1.0000 0.15466  0.84505  0.03414  Biso   1.000  C
  C364     1.0000 0.48384  0.12143  0.67873  Biso   1.000  C
  C365     1.0000 0.36732  0.98154  0.37109  Biso   1.000  C
  C366     1.0000 0.65150  0.83699  0.51602  Biso   1.000  C
  C367     1.0000 0.47988  0.62361  0.88487  Biso   1.000  C
  C368     1.0000 0.63196  0.47367  0.18647  Biso   1.000  C
  C369     1.0000 0.33233  0.34342  0.04001  Biso   1.000  C
  C370     1.0000 0.00676  0.63321  0.66091  Biso   1.000  C
  C371     1.0000 0.13068  0.46686  0.37393  Biso   1.000  C
  C372     1.0000 0.82801  0.34363  0.54123  Biso   1.000  C
  C373     1.0000 0.99837  0.81566  0.16239  Biso   1.000  C
  C374     1.0000 0.11686  0.97943  0.86974  Biso   1.000  C
  C375     1.0000 0.82763  0.09406  0.03438  Biso   1.000  C
  C376     1.0000 0.49544  0.81918  0.38733  Biso   1.000  C
  C377     1.0000 0.61657  0.96386  0.68837  Biso   1.000  C
  C378     1.0000 0.33517  0.10235  0.52842  Biso   1.000  C
  C379     1.0000 0.49098  0.32314  0.17959  Biso   1.000  C
  C380     1.0000 0.35922  0.44931  0.87829  Biso   1.000  C
  C381     1.0000 0.65354  0.59683  0.02283  Biso   1.000  C
  C382     1.0000 0.98831  0.31759  0.40373  Biso   1.000  C
  C383     1.0000 0.86642  0.47528  0.68792  Biso   1.000  C
  C384     1.0000 0.15592  0.59528  0.53079  Biso   1.000  C
  C385     1.0000 0.16992  0.12633  0.03765  Biso   1.000  C
  C386     1.0000 0.98585  0.15301  0.19053  Biso   1.000  C
  C387     1.0000 0.15052  0.96280  0.20435  Biso   1.000  C
  C388     1.0000 0.67055  0.12254  0.52906  Biso   1.000  C
  C389     1.0000 0.49981  0.15379  0.39561  Biso   1.000  C
  C390     1.0000 0.64507  0.95531  0.35667  Biso   1.000  C
  C391     1.0000 0.31489  0.62509  0.03239  Biso   1.000  C
  C392     1.0000 0.50227  0.65734  0.16915  Biso   1.000  C
  C393     1.0000 0.35245  0.47183  0.21187  Biso   1.000  C
  C394     1.0000 0.82317  0.62749  0.53687  Biso   1.000  C
  C395     1.0000 0.01371  0.65373  0.38052  Biso   1.000  C
  C396     1.0000 0.85197  0.47700  0.34457  Biso   1.000  C
  C397     1.0000 0.82022  0.81129  0.02758  Biso   1.000  C
  C398     1.0000 0.00651  0.79047  0.88658  Biso   1.000  C
  C399     1.0000 0.83151  0.96021  0.85643  Biso   1.000  C
  C400     1.0000 0.31388  0.81547  0.52320  Biso   1.000  C
  C401     1.0000 0.50249  0.78394  0.66546  Biso   1.000  C
  C402     1.0000 0.32997  0.96570  0.70690  Biso   1.000  C
  C403     1.0000 0.66652  0.31111  0.03944  Biso   1.000  C
  C404     1.0000 0.49769  0.28554  0.89981  Biso   1.000  C
  C405     1.0000 0.64144  0.47773  0.84804  Biso   1.000  C
  C406     1.0000 0.16716  0.31209  0.54009  Biso   1.000  C
  C407     1.0000 0.97024  0.29485  0.68998  Biso   1.000  C
  C408     1.0000 0.14143  0.45143  0.71549  Biso   1.000  C
  C409     1.0000 0.12965  0.97866  0.84227  Biso   1.000  C
  C410     1.0000 0.79939  0.10829  0.03309  Biso   1.000  C
  C411     1.0000 0.00168  0.79037  0.17981  Biso   1.000  C
  C412     1.0000 0.63153  0.96244  0.71663  Biso   1.000  C
  C413     1.0000 0.30840  0.11763  0.53209  Biso   1.000  C
  C414     1.0000 0.49561  0.79402  0.36931  Biso   1.000  C
  C415     1.0000 0.34490  0.44620  0.85034  Biso   1.000  C
  C416     1.0000 0.68098  0.61081  0.01760  Biso   1.000  C
  C417     1.0000 0.49191  0.29863  0.19798  Biso   1.000  C
  C418     1.0000 0.84977  0.47359  0.71442  Biso   1.000  C
  C419     1.0000 0.18429  0.60793  0.53080  Biso   1.000  C
  C420     1.0000 0.98699  0.28967  0.39050  Biso   1.000  C
  C421     1.0000 0.85090  0.96035  0.22039  Biso   1.000  C
  C422     1.0000 0.18227  0.83142  0.03726  Biso   1.000  C
  C423     1.0000 0.97484  0.15662  0.89224  Biso   1.000  C
  C424     1.0000 0.35368  0.98198  0.34236  Biso   1.000  C
  C425     1.0000 0.67944  0.82399  0.51529  Biso   1.000  C
  C426     1.0000 0.47991  0.14692  0.69523  Biso   1.000  C
  C427     1.0000 0.64872  0.47771  0.21244  Biso   1.000  C
  C428     1.0000 0.30530  0.32901  0.04571  Biso   1.000  C
  C429     1.0000 0.48173  0.65004  0.86689  Biso   1.000  C
  C430     1.0000 0.14829  0.46348  0.34673  Biso   1.000  C
  C431     1.0000 0.80038  0.33043  0.53509  Biso   1.000  C
  C432     1.0000 0.01250  0.65849  0.67877  Biso   1.000  C
  C433     1.0000 0.97614  0.12581  0.85516  Biso   1.000  C
  C434     1.0000 0.81631  0.96327  0.18941  Biso   1.000  C
  C435     1.0000 0.15138  0.79639  0.04560  Biso   1.000  C
  C436     1.0000 0.47841  0.11238  0.72711  Biso   1.000  C
  C437     1.0000 0.31876  0.97595  0.37163  Biso   1.000  C
  C438     1.0000 0.64812  0.78884  0.51225  Biso   1.000  C
  C439     1.0000 0.47928  0.61582  0.83550  Biso   1.000  C
  C440     1.0000 0.68036  0.46761  0.17953  Biso   1.000  C
  C441     1.0000 0.33875  0.29668  0.05020  Biso   1.000  C
  C442     1.0000 0.00404  0.62646  0.71025  Biso   1.000  C
  C443     1.0000 0.18032  0.46448  0.37861  Biso   1.000  C
  C444     1.0000 0.83252  0.29550  0.53213  Biso   1.000  C
  C445     1.0000 0.01193  0.82621  0.20807  Biso   1.000  C
  C446     1.0000 0.16526  0.98480  0.87063  Biso   1.000  C
  C447     1.0000 0.82995  0.14357  0.03416  Biso   1.000  C
  C448     1.0000 0.49071  0.83009  0.34021  Biso   1.000  C
  C449     1.0000 0.66483  0.97196  0.68492  Biso   1.000  C
  C450     1.0000 0.34013  0.15032  0.54117  Biso   1.000  C
  C451     1.0000 0.50436  0.33268  0.22494  Biso   1.000  C
  C452     1.0000 0.31102  0.45618  0.88135  Biso   1.000  C
  C453     1.0000 0.64949  0.64487  0.01375  Biso   1.000  C
  C454     1.0000 0.98979  0.32153  0.35490  Biso   1.000  C
  C455     1.0000 0.81808  0.46801  0.68092  Biso   1.000  C
  C456     1.0000 0.15493  0.64318  0.52181  Biso   1.000  C
  C457     1.0000 0.01647  0.62147  0.34731  Biso   1.000  C
  C458     1.0000 0.29964  0.96783  0.67110  Biso   1.000  C
  C459     1.0000 0.63023  0.28241  0.04603  Biso   1.000  C
  C460     1.0000 0.49365  0.62666  0.20532  Biso   1.000  C
  C461     1.0000 0.79862  0.95825  0.89010  Biso   1.000  C
  C462     1.0000 0.13150  0.28002  0.54416  Biso   1.000  C
  C463     1.0000 0.50684  0.12495  0.36099  Biso   1.000  C
  C464     1.0000 0.17219  0.44840  0.67924  Biso   1.000  C
  C465     1.0000 0.85434  0.78021  0.02295  Biso   1.000  C
  C466     1.0000 0.99057  0.11795  0.22307  Biso   1.000  C
  C467     1.0000 0.67400  0.47104  0.87891  Biso   1.000  C
  C468     1.0000 0.34987  0.78544  0.52139  Biso   1.000  C
  C469     1.0000 0.97804  0.32684  0.72223  Biso   1.000  C
  C470     1.0000 0.67681  0.95881  0.38905  Biso   1.000  C
  C471     1.0000 0.34998  0.65589  0.03471  Biso   1.000  C
  C472     1.0000 0.49611  0.31532  0.86578  Biso   1.000  C
  C473     1.0000 0.18083  0.96445  0.16967  Biso   1.000  C
  C474     1.0000 0.85568  0.66046  0.53351  Biso   1.000  C
  C475     1.0000 0.49721  0.81526  0.69916  Biso   1.000  C
  C476     1.0000 0.82043  0.47469  0.38021  Biso   1.000  C
  C477     1.0000 0.13596  0.15754  0.04042  Biso   1.000  C
  C478     1.0000 0.99921  0.82201  0.85233  Biso   1.000  C
  C479     1.0000 0.31890  0.47741  0.17829  Biso   1.000  C
  C480     1.0000 0.63564  0.15375  0.53555  Biso   1.000  C
  C481     1.0000 0.36781  0.76092  0.51652  Biso   1.000  C
  C482     1.0000 0.49432  0.32963  0.83760  Biso   1.000  C
  C483     1.0000 0.79438  0.47137  0.39684  Biso   1.000  C
  C484     1.0000 0.87014  0.75280  0.01772  Biso   1.000  C
  C485     1.0000 0.98124  0.34282  0.74918  Biso   1.000  C
  C486     1.0000 0.29304  0.48348  0.16279  Biso   1.000  C
  C487     1.0000 0.11344  0.25361  0.54500  Biso   1.000  C
  C488     1.0000 0.99284  0.83848  0.82622  Biso   1.000  C
  C489     1.0000 0.70430  0.95878  0.40542  Biso   1.000  C
  C490     1.0000 0.61358  0.25595  0.05372  Biso   1.000  C
  C491     1.0000 0.49253  0.82859  0.72709  Biso   1.000  C
  C492     1.0000 0.20804  0.96440  0.15351  Biso   1.000  C
  C493     1.0000 0.61997  0.17938  0.54099  Biso   1.000  C
  C494     1.0000 0.48595  0.61298  0.23204  Biso   1.000  C
  C495     1.0000 0.19865  0.44236  0.66240  Biso   1.000  C
  C496     1.0000 0.11589  0.18217  0.04236  Biso   1.000  C
  C497     1.0000 0.01875  0.60448  0.31921  Biso   1.000  C
  C498     1.0000 0.70201  0.46830  0.89343  Biso   1.000  C
  C499     1.0000 0.87185  0.68772  0.53487  Biso   1.000  C
  C500     1.0000 0.99311  0.09990  0.24871  Biso   1.000  C
  C501     1.0000 0.27351  0.97383  0.65585  Biso   1.000  C
  C502     1.0000 0.36750  0.68165  0.03738  Biso   1.000  C
  C503     1.0000 0.51558  0.11113  0.33412  Biso   1.000  C
  C504     1.0000 0.77331  0.95760  0.90797  Biso   1.000  C
  C505     1.0000 0.62319  0.47830  0.82099  Biso   1.000  C
  C506     1.0000 0.79578  0.61094  0.53991  Biso   1.000  C
  C507     1.0000 0.50816  0.75896  0.64894  Biso   1.000  C
  C508     1.0000 0.12579  0.45491  0.74423  Biso   1.000  C
  C509     1.0000 0.28780  0.61080  0.02510  Biso   1.000  C
  C510     1.0000 0.01042  0.76194  0.90238  Biso   1.000  C
  C511     1.0000 0.84754  0.96225  0.82837  Biso   1.000  C
  C512     1.0000 0.69710  0.10739  0.52232  Biso   1.000  C
  C513     1.0000 0.96303  0.26886  0.67432  Biso   1.000  C
  C514     1.0000 0.34411  0.96015  0.73468  Biso   1.000  C
  C515     1.0000 0.19946  0.11163  0.03471  Biso   1.000  C
  C516     1.0000 0.50018  0.25859  0.91635  Biso   1.000  C
  C517     1.0000 0.37079  0.46640  0.23664  Biso   1.000  C
  C518     1.0000 0.19502  0.32607  0.53655  Biso   1.000  C
  C519     1.0000 0.49387  0.17940  0.41370  Biso   1.000  C
  C520     1.0000 0.86794  0.47729  0.31672  Biso   1.000  C
  C521     1.0000 0.69456  0.32422  0.03596  Biso   1.000  C
  C522     1.0000 0.98216  0.18066  0.17482  Biso   1.000  C
  C523     1.0000 0.13517  0.96456  0.23296  Biso   1.000  C
  C524     1.0000 0.28398  0.82960  0.52587  Biso   1.000  C
  C525     1.0000 0.01918  0.68077  0.39642  Biso   1.000  C
  C526     1.0000 0.63032  0.95435  0.32885  Biso   1.000  C
  C527     1.0000 0.79280  0.82588  0.03205  Biso   1.000  C
  C528     1.0000 0.51077  0.68165  0.15163  Biso   1.000  C
  C529     1.0000 0.77358  0.09135  0.02966  Biso   1.000  C
  C530     1.0000 0.99691  0.76173  0.16726  Biso   1.000  C
  C531     1.0000 0.11117  0.97523  0.81547  Biso   1.000  C
  C532     1.0000 0.28048  0.10193  0.52816  Biso   1.000  C
  C533     1.0000 0.49373  0.76570  0.38380  Biso   1.000  C
  C534     1.0000 0.61382  0.95413  0.74221  Biso   1.000  C
  C535     1.0000 0.70765  0.59223  0.01726  Biso   1.000  C
  C536     1.0000 0.48667  0.27017  0.18592  Biso   1.000  C
  C537     1.0000 0.36118  0.43866  0.82487  Biso   1.000  C
  C538     1.0000 0.20935  0.59070  0.53284  Biso   1.000  C
  C539     1.0000 0.98591  0.26470  0.40749  Biso   1.000  C
  C540     1.0000 0.86209  0.47780  0.74250  Biso   1.000  C
  C541     1.0000 0.20992  0.84917  0.03579  Biso   1.000  C
  C542     1.0000 0.97019  0.18211  0.90857  Biso   1.000  C
  C543     1.0000 0.86982  0.95968  0.24647  Biso   1.000  C
  C544     1.0000 0.70623  0.84095  0.51604  Biso   1.000  C
  C545     1.0000 0.48033  0.17498  0.68035  Biso   1.000  C
  C546     1.0000 0.37156  0.98813  0.31673  Biso   1.000  C
  C547     1.0000 0.27855  0.34489  0.04245  Biso   1.000  C
  C548     1.0000 0.48924  0.67610  0.88290  Biso   1.000  C
  C549     1.0000 0.63357  0.48607  0.23894  Biso   1.000  C
  C550     1.0000 0.77530  0.34851  0.53514  Biso   1.000  C
  C551     1.0000 0.02184  0.68526  0.66237  Biso   1.000  C
  C552     1.0000 0.13288  0.45630  0.31933  Biso   1.000  C
  C553     1.0000 0.97564  0.11183  0.82651  Biso   1.000  C
  C554     1.0000 0.78945  0.96678  0.17418  Biso   1.000  C
  C555     1.0000 0.13697  0.76911  0.05233  Biso   1.000  C
  C556     1.0000 0.48118  0.09500  0.75301  Biso   1.000  C
  C557     1.0000 0.29081  0.97178  0.38411  Biso   1.000  C
  C558     1.0000 0.63315  0.76091  0.50905  Biso   1.000  C
  C559     1.0000 0.48139  0.59671  0.81008  Biso   1.000  C
  C560     1.0000 0.70774  0.46010  0.16378  Biso   1.000  C
  C561     1.0000 0.35427  0.27038  0.05753  Biso   1.000  C
  C562     1.0000 0.99828  0.61156  0.73839  Biso   1.000  C
  C563     1.0000 0.20636  0.46655  0.39484  Biso   1.000  C
  C564     1.0000 0.84738  0.26782  0.53043  Biso   1.000  C
  C565     1.0000 0.02150  0.84439  0.23068  Biso   1.000  C
  C566     1.0000 0.19400  0.99207  0.88331  Biso   1.000  C
  C567     1.0000 0.84470  0.17190  0.03644  Biso   1.000  C
  C568     1.0000 0.48774  0.84948  0.31442  Biso   1.000  C
  C569     1.0000 0.69068  0.98074  0.67072  Biso   1.000  C
  C570     1.0000 0.35509  0.17649  0.54489  Biso   1.000  C
  C571     1.0000 0.51905  0.34901  0.24781  Biso   1.000  C
  C572     1.0000 0.28375  0.46391  0.89596  Biso   1.000  C
  C573     1.0000 0.63388  0.67306  0.00962  Biso   1.000  C
  C574     1.0000 0.98739  0.33640  0.32593  Biso   1.000  C
  C575     1.0000 0.79329  0.46544  0.66284  Biso   1.000  C
  C576     1.0000 0.14005  0.67061  0.51896  Biso   1.000  C
  C577     1.0000 0.29178  0.48622  0.13184  Biso   1.000  C
  C578     1.0000 0.08171  0.25694  0.54636  Biso   1.000  C
  C579     1.0000 0.52109  0.08041  0.33169  Biso   1.000  C
  C580     1.0000 0.79451  0.46937  0.42903  Biso   1.000  C
  C581     1.0000 0.58193  0.25908  0.05979  Biso   1.000  C
  C582     1.0000 0.99825  0.06908  0.24632  Biso   1.000  C
  C583     1.0000 0.20706  0.97265  0.12216  Biso   1.000  C
  C584     1.0000 0.39909  0.76259  0.51770  Biso   1.000  C
  C585     1.0000 0.01412  0.57328  0.32127  Biso   1.000  C
  C586     1.0000 0.70539  0.95883  0.43757  Biso   1.000  C
  C587     1.0000 0.90289  0.75512  0.01377  Biso   1.000  C
  C588     1.0000 0.48506  0.58191  0.23307  Biso   1.000  C
  C589     1.0000 0.70149  0.46772  0.92625  Biso   1.000  C
  C590     1.0000 0.90336  0.68783  0.53353  Biso   1.000  C
  C591     1.0000 0.48882  0.86046  0.72818  Biso   1.000  C
  C592     1.0000 0.19722  0.44573  0.63110  Biso   1.000  C
  C593     1.0000 0.39877  0.68098  0.03330  Biso   1.000  C
  C594     1.0000 0.98813  0.86998  0.82790  Biso   1.000  C
  C595     1.0000 0.77601  0.95759  0.93955  Biso   1.000  C
  C596     1.0000 0.58890  0.17911  0.54248  Biso   1.000  C
  C597     1.0000 0.98886  0.37438  0.74696  Biso   1.000  C
  C598     1.0000 0.27429  0.97620  0.62306  Biso   1.000  C
  C599     1.0000 0.08384  0.17940  0.04106  Biso   1.000  C
  C600     1.0000 0.49403  0.36169  0.83535  Biso   1.000  C
  C601     1.0000 0.19627  0.99371  0.91478  Biso   1.000  C
  C602     1.0000 0.87647  0.17484  0.03385  Biso   1.000  C
  C603     1.0000 0.02210  0.87556  0.23069  Biso   1.000  C
  C604     1.0000 0.69125  0.98196  0.63975  Biso   1.000  C
  C605     1.0000 0.38692  0.17531  0.54905  Biso   1.000  C
  C606     1.0000 0.48649  0.88052  0.31885  Biso   1.000  C
  C607     1.0000 0.28310  0.46746  0.92720  Biso   1.000  C
  C608     1.0000 0.60200  0.67286  0.00920  Biso   1.000  C
  C609     1.0000 0.52442  0.38033  0.24329  Biso   1.000  C
  C610     1.0000 0.79413  0.46429  0.63135  Biso   1.000  C
  C611     1.0000 0.10928  0.67500  0.51778  Biso   1.000  C
  C612     1.0000 0.99093  0.36775  0.32435  Biso   1.000  C
  C613     1.0000 0.78838  0.96226  0.14358  Biso   1.000  C
  C614     1.0000 0.10545  0.76678  0.05308  Biso   1.000  C
  C615     1.0000 0.97629  0.07935  0.82588  Biso   1.000  C
  C616     1.0000 0.28786  0.96688  0.41476  Biso   1.000  C
  C617     1.0000 0.60169  0.76178  0.50880  Biso   1.000  C
  C618     1.0000 0.48183  0.06353  0.75208  Biso   1.000  C
  C619     1.0000 0.70621  0.45289  0.13285  Biso   1.000  C
  C620     1.0000 0.38548  0.26985  0.05120  Biso   1.000  C
  C621     1.0000 0.47880  0.56527  0.81260  Biso   1.000  C
  C622     1.0000 0.20537  0.46853  0.42595  Biso   1.000  C
  C623     1.0000 0.87929  0.26680  0.53485  Biso   1.000  C
  C624     1.0000 0.99562  0.57970  0.73862  Biso   1.000  C
  C625     1.0000 0.97234  0.17761  0.93931  Biso   1.000  C
  C626     1.0000 0.90078  0.95976  0.24512  Biso   1.000  C
  C627     1.0000 0.20811  0.87991  0.03022  Biso   1.000  C
  C628     1.0000 0.48693  0.17651  0.64854  Biso   1.000  C
  C629     1.0000 0.40195  0.99098  0.31744  Biso   1.000  C
  C630     1.0000 0.70395  0.87264  0.52163  Biso   1.000  C
  C631     1.0000 0.49159  0.67733  0.91421  Biso   1.000  C
  C632     1.0000 0.60149  0.48581  0.24021  Biso   1.000  C
  C633     1.0000 0.28011  0.37549  0.03536  Biso   1.000  C
  C634     1.0000 0.02330  0.68674  0.63041  Biso   1.000  C
  C635     1.0000 0.10061  0.45739  0.31944  Biso   1.000  C
  C636     1.0000 0.77811  0.37883  0.53794  Biso   1.000  C
  C637     1.0000 0.99058  0.76189  0.13563  Biso   1.000  C
  C638     1.0000 0.07983  0.97511  0.81832  Biso   1.000  C
  C639     1.0000 0.77582  0.06040  0.03191  Biso   1.000  C
  C640     1.0000 0.49649  0.76314  0.41660  Biso   1.000  C
  C641     1.0000 0.58172  0.95286  0.74026  Biso   1.000  C
  C642     1.0000 0.28228  0.07042  0.52426  Biso   1.000  C
  C643     1.0000 0.48450  0.26732  0.15398  Biso   1.000  C
  C644     1.0000 0.39353  0.43868  0.82703  Biso   1.000  C
  C645     1.0000 0.70535  0.56137  0.02366  Biso   1.000  C
  C646     1.0000 0.98817  0.26607  0.43829  Biso   1.000  C
  C647     1.0000 0.89436  0.47941  0.74098  Biso   1.000  C
  C648     1.0000 0.20654  0.55987  0.53679  Biso   1.000  C
  C649     1.0000 0.01283  0.68217  0.42762  Biso   1.000  C
  C650     1.0000 0.37773  0.96038  0.73485  Biso   1.000  C
  C651     1.0000 0.69693  0.35563  0.03117  Biso   1.000  C
  C652     1.0000 0.51371  0.67942  0.12037  Biso   1.000  C
  C653     1.0000 0.87845  0.96254  0.82894  Biso   1.000  C
  C654     1.0000 0.19757  0.35821  0.53544  Biso   1.000  C
  C655     1.0000 0.49135  0.17513  0.44502  Biso   1.000  C
  C656     1.0000 0.09606  0.46399  0.74669  Biso   1.000  C
  C657     1.0000 0.79207  0.85719  0.04048  Biso   1.000  C
  C658     1.0000 0.97900  0.18119  0.14277  Biso   1.000  C
  C659     1.0000 0.59199  0.48046  0.82282  Biso   1.000  C
  C660     1.0000 0.28109  0.86179  0.52625  Biso   1.000  C
  C661     1.0000 0.96260  0.26989  0.64353  Biso   1.000  C
  C662     1.0000 0.59957  0.95673  0.32936  Biso   1.000  C
  C663     1.0000 0.28613  0.57961  0.02422  Biso   1.000  C
  C664     1.0000 0.50020  0.26027  0.94844  Biso   1.000  C
  C665     1.0000 0.10323  0.96784  0.23180  Biso   1.000  C
  C666     1.0000 0.79679  0.57943  0.53704  Biso   1.000  C
  C667     1.0000 0.50972  0.75929  0.61670  Biso   1.000  C
  C668     1.0000 0.89930  0.47782  0.31799  Biso   1.000  C
  C669     1.0000 0.19997  0.08114  0.02865  Biso   1.000  C
  C670     1.0000 0.01365  0.76256  0.93397  Biso   1.000  C
  C671     1.0000 0.40180  0.46552  0.23449  Biso   1.000  C
  C672     1.0000 0.69774  0.07694  0.52171  Biso   1.000  C
  C673     1.0000 0.17564  0.97869  0.82344  Biso   1.000  C
  C674     1.0000 0.78283  0.15430  0.03088  Biso   1.000  C
  C675     1.0000 0.01210  0.77954  0.22511  Biso   1.000  C
  C676     1.0000 0.67884  0.96463  0.73055  Biso   1.000  C
  C677     1.0000 0.29180  0.16234  0.53893  Biso   1.000  C
  C678     1.0000 0.49355  0.78362  0.32304  Biso   1.000  C
  C679     1.0000 0.29864  0.44901  0.83450  Biso   1.000  C
  C680     1.0000 0.69586  0.65783  0.01245  Biso   1.000  C
  C681     1.0000 0.50345  0.28502  0.24356  Biso   1.000  C
  C682     1.0000 0.80092  0.47024  0.72605  Biso   1.000  C
  C683     1.0000 0.20176  0.65491  0.52281  Biso   1.000  C
  C684     1.0000 0.98922  0.27430  0.34456  Biso   1.000  C
  C685     1.0000 0.80427  0.96202  0.23588  Biso   1.000  C
  C686     1.0000 0.19851  0.78523  0.04237  Biso   1.000  C
  C687     1.0000 0.96561  0.17276  0.84728  Biso   1.000  C
  C688     1.0000 0.30729  0.97501  0.32410  Biso   1.000  C
  C689     1.0000 0.69480  0.77717  0.51477  Biso   1.000  C
  C690     1.0000 0.48125  0.15964  0.74243  Biso   1.000  C
  C691     1.0000 0.69479  0.47337  0.22662  Biso   1.000  C
  C692     1.0000 0.29186  0.28213  0.05323  Biso   1.000  C
  C693     1.0000 0.48287  0.66433  0.82071  Biso   1.000  C
  C694     1.0000 0.19475  0.46267  0.33148  Biso   1.000  C
  C695     1.0000 0.78597  0.28253  0.52782  Biso   1.000  C
  C696     1.0000 0.01349  0.67209  0.72679  Biso   1.000  C
  C697     1.0000 0.69050  0.95457  0.34184  Biso   1.000  C
  C698     1.0000 0.30439  0.67380  0.03449  Biso   1.000  C
  C699     1.0000 0.96627  0.28033  0.73689  Biso   1.000  C
  C700     1.0000 0.19850  0.96322  0.21608  Biso   1.000  C
  C701     1.0000 0.80839  0.67367  0.53540  Biso   1.000  C
  C702     1.0000 0.49319  0.26883  0.85387  Biso   1.000  C
  C703     1.0000 0.80440  0.47968  0.33180  Biso   1.000  C
  C704     1.0000 0.18232  0.17332  0.04581  Biso   1.000  C
  C705     1.0000 0.50075  0.76979  0.71301  Biso   1.000  C
  C706     1.0000 0.30482  0.47259  0.22440  Biso   1.000  C
  C707     1.0000 0.68168  0.16947  0.53004  Biso   1.000  C
  C708     1.0000 0.00435  0.77497  0.84100  Biso   1.000  C
  C709     1.0000 0.28237  0.96200  0.71851  Biso   1.000  C
  C710     1.0000 0.67683  0.26399  0.04064  Biso   1.000  C
  C711     1.0000 0.01955  0.66941  0.33595  Biso   1.000  C
  C712     1.0000 0.78293  0.96323  0.84466  Biso   1.000  C
  C713     1.0000 0.17534  0.26347  0.54697  Biso   1.000  C
  C714     1.0000 0.50079  0.67480  0.21451  Biso   1.000  C
  C715     1.0000 0.18687  0.44550  0.72623  Biso   1.000  C
  C716     1.0000 0.80654  0.76599  0.02127  Biso   1.000  C
  C717     1.0000 0.50283  0.17299  0.34960  Biso   1.000  C
  C718     1.0000 0.68785  0.47513  0.83129  Biso   1.000  C
  C719     1.0000 0.30463  0.76801  0.51776  Biso   1.000  C
  C720     1.0000 0.98795  0.16334  0.23847  Biso   1.000  C
  C721     1.0000 0.47647  0.78524  0.29703  Biso   1.000  C
  C722     1.0000 0.26935  0.43905  0.83967  Biso   1.000  C
  C723     1.0000 0.75849  0.28556  0.54451  Biso   1.000  C
  C724     1.0000 0.02218  0.74905  0.21965  Biso   1.000  C
  C725     1.0000 0.77435  0.48667  0.72045  Biso   1.000  C
  C726     1.0000 0.26330  0.28697  0.06792  Biso   1.000  C
  C727     1.0000 0.97366  0.24533  0.34866  Biso   1.000  C
  C728     1.0000 0.20064  0.96024  0.82918  Biso   1.000  C
  C729     1.0000 0.69086  0.74993  0.53136  Biso   1.000  C
  C730     1.0000 0.49723  0.29085  0.27320  Biso   1.000  C
  C731     1.0000 0.70921  0.95669  0.72681  Biso   1.000  C
  C732     1.0000 0.22225  0.78600  0.02270  Biso   1.000  C
  C733     1.0000 0.46261  0.15941  0.76797  Biso   1.000  C
  C734     1.0000 0.69050  0.46319  0.25645  Biso   1.000  C
  C735     1.0000 0.20030  0.67893  0.50240  Biso   1.000  C
  C736     1.0000 0.97964  0.20103  0.84753  Biso   1.000  C
  C737     1.0000 0.22177  0.44632  0.33472  Biso   1.000  C
  C738     1.0000 0.72233  0.65432  0.02864  Biso   1.000  C
  C739     1.0000 0.02748  0.66616  0.75499  Biso   1.000  C
  C740     1.0000 0.77722  0.94477  0.23138  Biso   1.000  C
  C741     1.0000 0.26715  0.16358  0.52019  Biso   1.000  C
  C742     1.0000 0.50164  0.65849  0.79464  Biso   1.000  C
  C743     1.0000 0.31424  0.96013  0.29726  Biso   1.000  C
  C744     1.0000 0.78413  0.18015  0.01187  Biso   1.000  C
  C745     1.0000 0.00334  0.69510  0.33899  Biso   1.000  C
  C746     1.0000 0.25492  0.94737  0.71096  Biso   1.000  C
  C747     1.0000 0.70548  0.26514  0.05350  Biso   1.000  C
  C748     1.0000 0.51125  0.66871  0.24348  Biso   1.000  C
  C749     1.0000 0.75338  0.95146  0.85046  Biso   1.000  C
  C750     1.0000 0.19911  0.26751  0.56641  Biso   1.000  C
  C751     1.0000 0.51371  0.20187  0.35746  Biso   1.000  C
  C752     1.0000 0.21385  0.46170  0.72146  Biso   1.000  C
  C753     1.0000 0.78132  0.77185  0.00210  Biso   1.000  C
  C754     1.0000 0.00547  0.18978  0.23412  Biso   1.000  C
  C755     1.0000 0.71086  0.45351  0.83395  Biso   1.000  C
  C756     1.0000 0.31079  0.74083  0.53185  Biso   1.000  C
  C757     1.0000 0.97565  0.25113  0.73423  Biso   1.000  C
  C758     1.0000 0.71173  0.97918  0.33941  Biso   1.000  C
  C759     1.0000 0.27584  0.66944  0.04964  Biso   1.000  C
  C760     1.0000 0.50933  0.26957  0.82682  Biso   1.000  C
  C761     1.0000 0.22610  0.97746  0.20887  Biso   1.000  C
  C762     1.0000 0.81027  0.69583  0.51234  Biso   1.000  C
  C763     1.0000 0.48677  0.74172  0.70717  Biso   1.000  C
  C764     1.0000 0.77754  0.49589  0.33837  Biso   1.000  C
  C765     1.0000 0.20948  0.16818  0.06206  Biso   1.000  C
  C766     1.0000 0.98289  0.77385  0.81850  Biso   1.000  C
  C767     1.0000 0.31050  0.48118  0.25527  Biso   1.000  C
  C768     1.0000 0.67501  0.19650  0.51571  Biso   1.000  C
  C769     1.0000 0.47017  0.69293  0.82489  Biso   1.000  C
  C770     1.0000 0.80429  0.45549  0.75415  Biso   1.000  C
  C771     1.0000 0.72221  0.78051  0.50023  Biso   1.000  C
  C772     1.0000 0.00394  0.70198  0.72172  Biso   1.000  C
  C773     1.0000 0.30376  0.45687  0.80551  Biso   1.000  C
  C774     1.0000 0.19905  0.76195  0.06436  Biso   1.000  C
  C775     1.0000 0.94556  0.16829  0.82331  Biso   1.000  C
  C776     1.0000 0.67069  0.97538  0.75875  Biso   1.000  C
  C777     1.0000 0.79100  0.25631  0.51011  Biso   1.000  C
  C778     1.0000 0.50157  0.18494  0.74057  Biso   1.000  C
  C779     1.0000 0.16983  0.99194  0.79482  Biso   1.000  C
  C780     1.0000 0.29807  0.25340  0.03821  Biso   1.000  C
  C781     1.0000 0.51419  0.25631  0.23670  Biso   1.000  C
  C782     1.0000 0.19191  0.47945  0.30280  Biso   1.000  C
  C783     1.0000 0.29465  0.18489  0.56086  Biso   1.000  C
  C784     1.0000 0.00638  0.27866  0.31729  Biso   1.000  C
  C785     1.0000 0.72383  0.48802  0.22071  Biso   1.000  C
  C786     1.0000 0.75633  0.15107  0.04943  Biso   1.000  C
  C787     1.0000 0.00539  0.78574  0.25538  Biso   1.000  C
  C788     1.0000 0.27761  0.98584  0.32634  Biso   1.000  C
  C789     1.0000 0.22605  0.65402  0.54204  Biso   1.000  C
  C790     1.0000 0.51205  0.75816  0.32495  Biso   1.000  C
  C791     1.0000 0.80633  0.97895  0.26234  Biso   1.000  C
  C792     1.0000 0.69508  0.68522  0.99521  Biso   1.000  C
  C793     1.0000 0.49048  0.16961  0.32011  Biso   1.000  C
  C794     1.0000 0.27687  0.45950  0.21828  Biso   1.000  C
  C795     1.0000 0.17529  0.23696  0.53134  Biso   1.000  C
  C796     1.0000 0.97386  0.15789  0.26613  Biso   1.000  C
  C797     1.0000 0.80588  0.46125  0.30622  Biso   1.000  C
  C798     1.0000 0.67021  0.23710  0.02543  Biso   1.000  C
  C799     1.0000 0.03891  0.66988  0.31089  Biso   1.000  C
  C800     1.0000 0.19600  0.94933  0.24494  Biso   1.000  C
  C801     1.0000 0.27733  0.77090  0.50308  Biso   1.000  C
  C802     1.0000 0.48992  0.70321  0.20799  Biso   1.000  C
  C803     1.0000 0.69074  0.93389  0.31867  Biso   1.000  C
  C804     1.0000 0.80883  0.73743  0.03664  Biso   1.000  C
  C805     1.0000 0.51621  0.77384  0.73962  Biso   1.000  C
  C806     1.0000 0.68523  0.49351  0.80510  Biso   1.000  C
  C807     1.0000 0.78158  0.67361  0.55480  Biso   1.000  C
  C808     1.0000 0.02825  0.75327  0.83993  Biso   1.000  C
  C809     1.0000 0.18310  0.42976  0.75388  Biso   1.000  C
  C810     1.0000 0.30957  0.70283  0.02321  Biso   1.000  C
  C811     1.0000 0.94940  0.28595  0.76275  Biso   1.000  C
  C812     1.0000 0.78916  0.97660  0.81663  Biso   1.000  C
  C813     1.0000 0.71024  0.16809  0.54295  Biso   1.000  C
  C814     1.0000 0.47614  0.24340  0.85865  Biso   1.000  C
  C815     1.0000 0.28581  0.97729  0.74598  Biso   1.000  C
  C816     1.0000 0.17886  0.20141  0.03181  Biso   1.000  C
  C817     1.0000 0.97073  0.22304  0.82868  Biso   1.000  C
  C818     1.0000 0.75423  0.94586  0.25092  Biso   1.000  C
  C819     1.0000 0.24230  0.76362  0.01994  Biso   1.000  C
  C820     1.0000 0.46614  0.17957  0.79046  Biso   1.000  C
  C821     1.0000 0.29503  0.95731  0.27495  Biso   1.000  C
  C822     1.0000 0.71212  0.72959  0.53193  Biso   1.000  C
  C823     1.0000 0.50860  0.68162  0.77699  Biso   1.000  C
  C824     1.0000 0.71027  0.46632  0.27883  Biso   1.000  C
  C825     1.0000 0.24263  0.26434  0.06664  Biso   1.000  C
  C826     1.0000 0.02852  0.68814  0.77728  Biso   1.000  C
  C827     1.0000 0.24514  0.45022  0.31550  Biso   1.000  C
  C828     1.0000 0.73832  0.26327  0.54136  Biso   1.000  C
  C829     1.0000 0.02531  0.72839  0.24121  Biso   1.000  C
  C830     1.0000 0.21914  0.95462  0.80482  Biso   1.000  C
  C831     1.0000 0.76327  0.20101  0.01600  Biso   1.000  C
  C832     1.0000 0.47745  0.76422  0.27685  Biso   1.000  C
  C833     1.0000 0.72891  0.95731  0.74930  Biso   1.000  C
  C834     1.0000 0.24580  0.18350  0.52240  Biso   1.000  C
  C835     1.0000 0.49623  0.26947  0.29474  Biso   1.000  C
  C836     1.0000 0.24903  0.43543  0.81764  Biso   1.000  C
  C837     1.0000 0.74455  0.67605  0.03035  Biso   1.000  C
  C838     1.0000 0.97443  0.22563  0.32649  Biso   1.000  C
  C839     1.0000 0.75174  0.48578  0.73997  Biso   1.000  C
  C840     1.0000 0.21963  0.70084  0.50223  Biso   1.000  C
  C841     1.0000 0.18933  0.98558  0.77239  Biso   1.000  C
  C842     1.0000 0.73430  0.17142  0.05088  Biso   1.000  C
  C843     1.0000 0.00970  0.76462  0.27685  Biso   1.000  C
  C844     1.0000 0.69083  0.97581  0.78172  Biso   1.000  C
  C845     1.0000 0.27240  0.20706  0.56192  Biso   1.000  C
  C846     1.0000 0.51074  0.73644  0.30598  Biso   1.000  C
  C847     1.0000 0.28372  0.45283  0.78309  Biso   1.000  C
  C848     1.0000 0.71821  0.70500  0.99540  Biso   1.000  C
  C849     1.0000 0.51297  0.23557  0.25820  Biso   1.000  C
  C850     1.0000 0.77914  0.45492  0.77196  Biso   1.000  C
  C851     1.0000 0.24472  0.67690  0.54170  Biso   1.000  C
  C852     1.0000 0.00777  0.25556  0.29762  Biso   1.000  C
  C853     1.0000 0.78380  0.97659  0.28277  Biso   1.000  C
  C854     1.0000 0.21647  0.73784  0.06049  Biso   1.000  C
  C855     1.0000 0.93949  0.19023  0.80267  Biso   1.000  C
  C856     1.0000 0.25857  0.98166  0.30424  Biso   1.000  C
  C857     1.0000 0.74344  0.75948  0.50276  Biso   1.000  C
  C858     1.0000 0.50434  0.20467  0.76260  Biso   1.000  C
  C859     1.0000 0.74290  0.49241  0.24433  Biso   1.000  C
  C860     1.0000 0.27630  0.23265  0.03840  Biso   1.000  C
  C861     1.0000 0.47541  0.71370  0.80298  Biso   1.000  C
  C862     1.0000 0.21519  0.48091  0.28321  Biso   1.000  C
  C863     1.0000 0.77062  0.23399  0.51009  Biso   1.000  C
  C864     1.0000 0.00257  0.72129  0.74436  Biso   1.000  C
  C865     1.0000 0.73058  0.45103  0.81109  Biso   1.000  C
  C866     1.0000 0.78874  0.71527  0.50818  Biso   1.000  C
  C867     1.0000 0.48781  0.72018  0.72899  Biso   1.000  C
  C868     1.0000 0.23636  0.45798  0.74095  Biso   1.000  C
  C869     1.0000 0.25616  0.69174  0.04910  Biso   1.000  C
  C870     1.0000 0.98667  0.75410  0.79576  Biso   1.000  C
  C871     1.0000 0.73211  0.95490  0.82867  Biso   1.000  C
  C872     1.0000 0.69599  0.21858  0.51359  Biso   1.000  C
  C873     1.0000 0.96655  0.23001  0.75543  Biso   1.000  C
  C874     1.0000 0.23330  0.94771  0.73020  Biso   1.000  C
  C875     1.0000 0.23009  0.18996  0.06358  Biso   1.000  C
  C876     1.0000 0.50539  0.24899  0.80518  Biso   1.000  C
  C877     1.0000 0.28915  0.47823  0.27707  Biso   1.000  C
  C878     1.0000 0.22171  0.24843  0.56722  Biso   1.000  C
  C879     1.0000 0.51131  0.22389  0.33672  Biso   1.000  C
  C880     1.0000 0.75550  0.49680  0.31941  Biso   1.000  C
  C881     1.0000 0.72484  0.24355  0.04983  Biso   1.000  C
  C882     1.0000 0.00695  0.21071  0.25468  Biso   1.000  C
  C883     1.0000 0.24875  0.97824  0.22957  Biso   1.000  C
  C884     1.0000 0.29251  0.71694  0.53369  Biso   1.000  C
  C885     1.0000 0.00352  0.71685  0.31750  Biso   1.000  C
  C886     1.0000 0.73298  0.97970  0.31793  Biso   1.000  C
  C887     1.0000 0.76133  0.74949  0.99893  Biso   1.000  C
  C888     1.0000 0.51186  0.69137  0.26394  Biso   1.000  C
  C889     1.0000 0.71283  0.93588  0.29805  Biso   1.000  C
  C890     1.0000 0.28945  0.72444  0.02528  Biso   1.000  C
  C891     1.0000 0.94363  0.26563  0.78523  Biso   1.000  C
  C892     1.0000 0.21897  0.95046  0.26450  Biso   1.000  C
  C893     1.0000 0.75975  0.69181  0.54687  Biso   1.000  C
  C894     1.0000 0.47341  0.22037  0.83691  Biso   1.000  C
  C895     1.0000 0.78456  0.46502  0.28587  Biso   1.000  C
  C896     1.0000 0.20131  0.22243  0.03564  Biso   1.000  C
  C897     1.0000 0.51513  0.75237  0.76071  Biso   1.000  C
  C898     1.0000 0.25566  0.45891  0.24000  Biso   1.000  C
  C899     1.0000 0.72924  0.19083  0.54079  Biso   1.000  C
  C900     1.0000 0.03057  0.73313  0.81745  Biso   1.000  C
  C901     1.0000 0.26197  0.97677  0.76449  Biso   1.000  C
  C902     1.0000 0.69064  0.21446  0.02397  Biso   1.000  C
  C903     1.0000 0.03935  0.69183  0.28996  Biso   1.000  C
  C904     1.0000 0.76780  0.97684  0.79537  Biso   1.000  C
  C905     1.0000 0.19771  0.21602  0.53420  Biso   1.000  C
  C906     1.0000 0.48712  0.72418  0.22905  Biso   1.000  C
  C907     1.0000 0.20480  0.43052  0.77449  Biso   1.000  C
  C908     1.0000 0.78754  0.71744  0.03334  Biso   1.000  C
  C909     1.0000 0.49036  0.19227  0.30053  Biso   1.000  C
  C910     1.0000 0.70696  0.49065  0.78313  Biso   1.000  C
  C911     1.0000 0.25715  0.74947  0.50842  Biso   1.000  C
  C912     1.0000 0.97577  0.17900  0.28624  Biso   1.000  C
  C913     1.0000 0.75524  0.47174  0.76618  Biso   1.000  C
  C914     1.0000 0.73916  0.73450  0.51911  Biso   1.000  C
  C915     1.0000 0.49416  0.70707  0.78013  Biso   1.000  C
  C916     1.0000 0.25524  0.44271  0.78858  Biso   1.000  C
  C917     1.0000 0.24005  0.74070  0.03919  Biso   1.000  C
  C918     1.0000 0.01289  0.71436  0.77167  Biso   1.000  C
  C919     1.0000 0.71865  0.96644  0.77634  Biso   1.000  C
  C920     1.0000 0.74452  0.23852  0.52574  Biso   1.000  C
  C921     1.0000 0.94995  0.21835  0.80668  Biso   1.000  C
  C922     1.0000 0.21204  0.96651  0.77707  Biso   1.000  C
  C923     1.0000 0.24907  0.23856  0.05121  Biso   1.000  C
  C924     1.0000 0.48642  0.20219  0.78700  Biso   1.000  C
  C925     1.0000 0.24172  0.46607  0.29026  Biso   1.000  C
  C926     1.0000 0.24754  0.20482  0.54396  Biso   1.000  C
  C927     1.0000 0.50438  0.24181  0.28629  Biso   1.000  C
  C928     1.0000 0.73611  0.48106  0.27243  Biso   1.000  C
  C929     1.0000 0.73879  0.19562  0.03261  Biso   1.000  C
  C930     1.0000 0.99166  0.23029  0.30134  Biso   1.000  C
  C931     1.0000 0.26672  0.96682  0.27964  Biso   1.000  C
  C932     1.0000 0.24263  0.70047  0.52224  Biso   1.000  C
  C933     1.0000 0.01828  0.73614  0.26980  Biso   1.000  C
  C934     1.0000 0.75689  0.96225  0.27596  Biso   1.000  C
  C935     1.0000 0.74309  0.70001  0.01147  Biso   1.000  C
  C936     1.0000 0.49495  0.74007  0.28108  Biso   1.000  C
  C937     1.0000 0.71743  0.21912  0.03479  Biso   1.000  C
  C938     1.0000 0.02114  0.71444  0.29325  Biso   1.000  C
  C939     1.0000 0.23647  0.96077  0.75692  Biso   1.000  C
  C940     1.0000 0.22245  0.22358  0.54982  Biso   1.000  C
  C941     1.0000 0.49907  0.71822  0.25761  Biso   1.000  C
  C942     1.0000 0.74055  0.96581  0.80069  Biso   1.000  C
  C943     1.0000 0.76294  0.72524  0.01675  Biso   1.000  C
  C944     1.0000 0.50140  0.21927  0.30871  Biso   1.000  C
  C945     1.0000 0.23206  0.44316  0.76715  Biso   1.000  C
  C946     1.0000 0.26471  0.72234  0.52165  Biso   1.000  C
  C947     1.0000 0.99076  0.20631  0.27932  Biso   1.000  C
  C948     1.0000 0.72982  0.46953  0.78604  Biso   1.000  C
  C949     1.0000 0.26295  0.71904  0.03830  Biso   1.000  C
  C950     1.0000 0.95102  0.23749  0.78052  Biso   1.000  C
  C951     1.0000 0.73334  0.95937  0.29714  Biso   1.000  C
  C952     1.0000 0.76291  0.71268  0.52441  Biso   1.000  C
  C953     1.0000 0.48838  0.22461  0.80983  Biso   1.000  C
  C954     1.0000 0.24533  0.96392  0.25663  Biso   1.000  C
  C955     1.0000 0.22597  0.21628  0.04961  Biso   1.000  C
  C956     1.0000 0.50039  0.72656  0.75641  Biso   1.000  C
  C957     1.0000 0.76051  0.48324  0.29298  Biso   1.000  C
  C958     1.0000 0.72203  0.21596  0.52696  Biso   1.000  C
  C959     1.0000 0.01011  0.73507  0.79410  Biso   1.000  C
  C960     1.0000 0.26278  0.46701  0.26822  Biso   1.000  C
  Cu1      1.0000 0.99577  0.47565  0.68859  Biso   1.000  Cu
  Cu2      1.0000 0.64648  0.97434  0.53614  Biso   1.000  Cu
  Cu3      1.0000 0.49909  0.62295  0.01920  Biso   1.000  Cu
  Cu4      1.0000 0.49040  0.46823  0.88112  Biso   1.000  Cu
  Cu5      1.0000 0.14926  0.97638  0.02070  Biso   1.000  Cu
  Cu6      1.0000 0.00435  0.63130  0.52865  Biso   1.000  Cu
  Cu7      1.0000 0.48327  0.96961  0.68356  Biso   1.000  Cu
  Cu8      1.0000 0.84642  0.47729  0.53199  Biso   1.000  Cu
  Cu9      1.0000 0.98295  0.12356  0.04193  Biso   1.000  Cu
  Cu10     1.0000 0.98329  0.97387  0.87890  Biso   1.000  Cu
  Cu11     1.0000 0.34009  0.47773  0.02606  Biso   1.000  Cu
  Cu12     1.0000 0.48750  0.12184  0.54516  Biso   1.000  Cu
  Cu13     1.0000 0.99719  0.47282  0.37453  Biso   1.000  Cu
  Cu14     1.0000 0.33660  0.96631  0.52353  Biso   1.000  Cu
  Cu15     1.0000 0.48678  0.31874  0.04674  Biso   1.000  Cu
  Cu16     1.0000 0.50369  0.47832  0.18351  Biso   1.000  Cu
  Cu17     1.0000 0.84052  0.96304  0.03556  Biso   1.000  Cu
  Cu18     1.0000 0.98400  0.32320  0.53958  Biso   1.000  Cu
  Cu19     1.0000 0.49644  0.97530  0.37825  Biso   1.000  Cu
  Cu20     1.0000 0.14526  0.46161  0.52767  Biso   1.000  Cu
  Cu21     1.0000 0.00337  0.81505  0.03356  Biso   1.000  Cu
  Cu22     1.0000 0.00018  0.97194  0.18350  Biso   1.000  Cu
  Cu23     1.0000 0.64833  0.46199  0.03178  Biso   1.000  Cu
  Cu24     1.0000 0.49806  0.81440  0.51703  Biso   1.000  Cu
  Cu25     1.0000 0.20320  0.97831  0.02003  Biso   1.000  Cu
  Cu26     1.0000 0.98169  0.17759  0.03646  Biso   1.000  Cu
  Cu27     1.0000 0.00286  0.96718  0.23908  Biso   1.000  Cu
  Cu28     1.0000 0.70055  0.97480  0.53936  Biso   1.000  Cu
  Cu29     1.0000 0.48844  0.17525  0.54506  Biso   1.000  Cu
  Cu30     1.0000 0.50001  0.97668  0.32370  Biso   1.000  Cu
  Cu31     1.0000 0.28417  0.47731  0.02991  Biso   1.000  Cu
  Cu32     1.0000 0.50025  0.67711  0.01828  Biso   1.000  Cu
  Cu33     1.0000 0.50105  0.48308  0.23844  Biso   1.000  Cu
  Cu34     1.0000 0.79317  0.48071  0.53042  Biso   1.000  Cu
  Cu35     1.0000 0.00910  0.68467  0.52821  Biso   1.000  Cu
  Cu36     1.0000 0.99956  0.47110  0.31990  Biso   1.000  Cu
  Cu37     1.0000 0.78551  0.95857  0.04143  Biso   1.000  Cu
  Cu38     1.0000 0.00269  0.75998  0.03452  Biso   1.000  Cu
  Cu39     1.0000 0.97884  0.97252  0.82538  Biso   1.000  Cu
  Cu40     1.0000 0.28180  0.96796  0.52248  Biso   1.000  Cu
  Cu41     1.0000 0.49822  0.76020  0.51667  Biso   1.000  Cu
  Cu42     1.0000 0.48125  0.95987  0.73672  Biso   1.000  Cu
  Cu43     1.0000 0.70087  0.45933  0.02767  Biso   1.000  Cu
  Cu44     1.0000 0.48224  0.26476  0.04967  Biso   1.000  Cu
  Cu45     1.0000 0.49044  0.46293  0.82513  Biso   1.000  Cu
  Cu46     1.0000 0.19845  0.46084  0.52979  Biso   1.000  Cu
  Cu47     1.0000 0.98007  0.26919  0.54127  Biso   1.000  Cu
  Cu48     1.0000 0.99424  0.47715  0.74440  Biso   1.000  Cu
  H1       1.0000 0.29848  0.69708  0.54468  Biso   1.000  H
  H2       1.0000 0.51791  0.25293  0.78528  Biso   1.000  H
  H3       1.0000 0.73534  0.50825  0.32512  Biso   1.000  H
  H4       1.0000 0.74494  0.75121  0.98329  Biso   1.000  H
  H5       1.0000 0.97443  0.20798  0.75325  Biso   1.000  H
  H6       1.0000 0.29403  0.48564  0.29823  Biso   1.000  H
  H7       1.0000 0.24130  0.25399  0.57896  Biso   1.000  H
  H8       1.0000 0.97103  0.75401  0.77882  Biso   1.000  H
  H9       1.0000 0.74800  0.99716  0.31413  Biso   1.000  H
  H10      1.0000 0.74788  0.24711  0.05677  Biso   1.000  H
  H11      1.0000 0.47801  0.69818  0.72724  Biso   1.000  H
  H12      1.0000 0.26945  0.98924  0.22357  Biso   1.000  H
  H13      1.0000 0.69003  0.23836  0.50304  Biso   1.000  H
  H14      1.0000 0.52344  0.68734  0.28443  Biso   1.000  H
  H15      1.0000 0.25802  0.46834  0.73436  Biso   1.000  H
  H16      1.0000 0.25111  0.18295  0.07393  Biso   1.000  H
  H17      1.0000 0.98440  0.73207  0.31942  Biso   1.000  H
  H18      1.0000 0.74588  0.43446  0.81763  Biso   1.000  H
  H19      1.0000 0.79173  0.73298  0.49235  Biso   1.000  H
  H20      1.0000 0.01818  0.23009  0.24809  Biso   1.000  H
  H21      1.0000 0.21199  0.93937  0.72170  Biso   1.000  H
  H22      1.0000 0.23462  0.68819  0.05833  Biso   1.000  H
  H23      1.0000 0.52010  0.24391  0.34572  Biso   1.000  H
  H24      1.0000 0.70963  0.94715  0.83121  Biso   1.000  H
  H25      1.0000 0.23536  0.93866  0.80940  Biso   1.000  H
  H26      1.0000 0.76835  0.22179  0.00671  Biso   1.000  H
  H27      1.0000 0.03167  0.70585  0.23525  Biso   1.000  H
  H28      1.0000 0.75138  0.95133  0.74532  Biso   1.000  H
  H29      1.0000 0.22970  0.18041  0.50566  Biso   1.000  H
  H30      1.0000 0.46217  0.76707  0.25959  Biso   1.000  H
  H31      1.0000 0.22519  0.42712  0.82509  Biso   1.000  H
  H32      1.0000 0.76270  0.67328  0.04396  Biso   1.000  H
  H33      1.0000 0.48981  0.27503  0.31722  Biso   1.000  H
  H34      1.0000 0.73243  0.49770  0.73403  Biso   1.000  H
  H35      1.0000 0.21953  0.71810  0.48631  Biso   1.000  H
  H36      1.0000 0.95937  0.20836  0.33089  Biso   1.000  H
  H37      1.0000 0.73587  0.93168  0.24593  Biso   1.000  H
  H38      1.0000 0.25675  0.76587  0.00208  Biso   1.000  H
  H39      1.0000 0.97973  0.24383  0.83219  Biso   1.000  H
  H40      1.0000 0.30093  0.94479  0.25481  Biso   1.000  H
  H41      1.0000 0.70682  0.70867  0.54484  Biso   1.000  H
  H42      1.0000 0.44993  0.17831  0.80871  Biso   1.000  H
  H43      1.0000 0.70862  0.45473  0.29830  Biso   1.000  H
  H44      1.0000 0.22205  0.26769  0.07689  Biso   1.000  H
  H45      1.0000 0.52308  0.67715  0.75776  Biso   1.000  H
  H46      1.0000 0.26553  0.43999  0.31932  Biso   1.000  H
  H47      1.0000 0.71643  0.26520  0.54948  Biso   1.000  H
  H48      1.0000 0.03773  0.68190  0.79692  Biso   1.000  H
  H49      1.0000 0.21515  0.49248  0.26313  Biso   1.000  H
  H50      1.0000 0.27354  0.22474  0.57613  Biso   1.000  H
  H51      1.0000 0.51801  0.21389  0.25279  Biso   1.000  H
  H52      1.0000 0.76246  0.50534  0.23762  Biso   1.000  H
  H53      1.0000 0.71512  0.16855  0.06430  Biso   1.000  H
  H54      1.0000 0.02066  0.25732  0.27864  Biso   1.000  H
  H55      1.0000 0.23687  0.99082  0.30401  Biso   1.000  H
  H56      1.0000 0.25875  0.67764  0.56115  Biso   1.000  H
  H57      1.0000 0.00586  0.77088  0.29933  Biso   1.000  H
  H58      1.0000 0.78777  0.98612  0.30330  Biso   1.000  H
  H59      1.0000 0.71567  0.72142  0.97962  Biso   1.000  H
  H60      1.0000 0.52337  0.71775  0.31085  Biso   1.000  H
  H61      1.0000 0.78111  0.43882  0.78826  Biso   1.000  H
  H62      1.0000 0.76427  0.76375  0.49154  Biso   1.000  H
  H63      1.0000 0.46653  0.73511  0.80463  Biso   1.000  H
  H64      1.0000 0.29079  0.45790  0.76158  Biso   1.000  H
  H65      1.0000 0.21416  0.72129  0.07684  Biso   1.000  H
  H66      1.0000 0.99354  0.74278  0.74295  Biso   1.000  H
  H67      1.0000 0.68445  0.98467  0.80254  Biso   1.000  H
  H68      1.0000 0.77525  0.21439  0.49791  Biso   1.000  H
  H69      1.0000 0.92924  0.18481  0.78277  Biso   1.000  H
  H70      1.0000 0.18560  0.99702  0.75127  Biso   1.000  H
  H71      1.0000 0.28178  0.21219  0.02654  Biso   1.000  H
  H72      1.0000 0.52020  0.22160  0.76167  Biso   1.000  H
  H73      1.0000 0.70655  0.50706  0.76599  Biso   1.000  H
  H74      1.0000 0.73972  0.69209  0.56061  Biso   1.000  H
  H75      1.0000 0.52628  0.75486  0.78131  Biso   1.000  H
  H76      1.0000 0.19950  0.41908  0.79549  Biso   1.000  H
  H77      1.0000 0.29262  0.74550  0.01492  Biso   1.000  H
  H78      1.0000 0.05249  0.72401  0.81553  Biso   1.000  H
  H79      1.0000 0.76934  0.98899  0.77626  Biso   1.000  H
  H80      1.0000 0.75235  0.18839  0.54700  Biso   1.000  H
  H81      1.0000 0.93322  0.27358  0.80606  Biso   1.000  H
  H82      1.0000 0.26314  0.98750  0.78474  Biso   1.000  H
  H83      1.0000 0.19986  0.24430  0.02853  Biso   1.000  H
  H84      1.0000 0.45627  0.20414  0.84166  Biso   1.000  H
  H85      1.0000 0.23483  0.44713  0.23678  Biso   1.000  H
  H86      1.0000 0.19379  0.19346  0.52702  Biso   1.000  H
  H87      1.0000 0.47970  0.18882  0.27850  Biso   1.000  H
  H88      1.0000 0.78520  0.45396  0.26527  Biso   1.000  H
  H89      1.0000 0.68561  0.19442  0.01305  Biso   1.000  H
  H90      1.0000 0.96608  0.17430  0.30679  Biso   1.000  H
  H91      1.0000 0.21583  0.94069  0.28741  Biso   1.000  H
  H92      1.0000 0.23486  0.75178  0.50022  Biso   1.000  H
  H93      1.0000 0.05304  0.68980  0.27164  Biso   1.000  H
  H94      1.0000 0.71144  0.91829  0.28029  Biso   1.000  H
  H95      1.0000 0.79337  0.69788  0.04555  Biso   1.000  H
  H96      1.0000 0.47687  0.74553  0.22393  Biso   1.000  H
  H97      1.0000 0.85096  0.95545  0.94556  Biso   1.000  H
  H98      1.0000 0.91305  0.82952  0.03060  Biso   1.000  H
  H99      1.0000 0.99810  0.88180  0.90413  Biso   1.000  H
  H100     1.0000 0.35260  0.97438  0.61754  Biso   1.000  H
  H101     1.0000 0.40346  0.83850  0.52788  Biso   1.000  H
  H102     1.0000 0.49356  0.87359  0.65102  Biso   1.000  H
  H103     1.0000 0.62587  0.46785  0.93743  Biso   1.000  H
  H104     1.0000 0.57604  0.33470  0.05224  Biso   1.000  H
  H105     1.0000 0.49903  0.37649  0.91098  Biso   1.000  H
  H106     1.0000 0.12269  0.46209  0.62126  Biso   1.000  H
  H107     1.0000 0.07918  0.33342  0.53679  Biso   1.000  H
  H108     1.0000 0.99097  0.38261  0.66964  Biso   1.000  H
  H109     1.0000 0.13102  0.97547  0.11502  Biso   1.000  H
  H110     1.0000 0.07890  0.10432  0.03588  Biso   1.000  H
  H111     1.0000 0.99746  0.06453  0.16968  Biso   1.000  H
  H112     1.0000 0.62892  0.95890  0.44690  Biso   1.000  H
  H113     1.0000 0.57952  0.10490  0.53430  Biso   1.000  H
  H114     1.0000 0.50459  0.06181  0.40329  Biso   1.000  H
  H115     1.0000 0.36865  0.47535  0.11934  Biso   1.000  H
  H116     1.0000 0.40421  0.60597  0.03500  Biso   1.000  H
  H117     1.0000 0.49376  0.56697  0.15894  Biso   1.000  H
  H118     1.0000 0.87084  0.47334  0.43759  Biso   1.000  H
  H119     1.0000 0.91341  0.61310  0.52805  Biso   1.000  H
  H120     1.0000 0.00132  0.56349  0.39658  Biso   1.000  H
  H121     1.0000 0.07634  0.97834  0.89618  Biso   1.000  H
  H122     1.0000 0.85323  0.05377  0.03608  Biso   1.000  H
  H123     1.0000 0.98328  0.83309  0.12203  Biso   1.000  H
  H124     1.0000 0.57635  0.96317  0.66432  Biso   1.000  H
  H125     1.0000 0.35751  0.05996  0.52058  Biso   1.000  H
  H126     1.0000 0.49833  0.83479  0.43346  Biso   1.000  H
  H127     1.0000 0.40160  0.45108  0.90019  Biso   1.000  H
  H128     1.0000 0.62965  0.55629  0.03389  Biso   1.000  H
  H129     1.0000 0.48539  0.34167  0.13359  Biso   1.000  H
  H130     1.0000 0.90947  0.47920  0.66667  Biso   1.000  H
  H131     1.0000 0.12993  0.55749  0.53451  Biso   1.000  H
  H132     1.0000 0.98469  0.34130  0.44553  Biso   1.000  H
  H133     1.0000 0.90603  0.96413  0.16777  Biso   1.000  H
  H134     1.0000 0.13106  0.88728  0.02161  Biso   1.000  H
  H135     1.0000 0.98412  0.10181  0.94529  Biso   1.000  H
  H136     1.0000 0.40722  0.98177  0.39424  Biso   1.000  H
  H137     1.0000 0.62800  0.87693  0.52051  Biso   1.000  H
  H138     1.0000 0.49494  0.10079  0.63912  Biso   1.000  H
  H139     1.0000 0.58834  0.47100  0.16653  Biso   1.000  H
  H140     1.0000 0.35600  0.38491  0.02767  Biso   1.000  H
  H141     1.0000 0.47679  0.60386  0.92966  Biso   1.000  H
  H142     1.0000 0.08850  0.47345  0.39472  Biso   1.000  H
  H143     1.0000 0.85226  0.38586  0.55375  Biso   1.000  H
  H144     1.0000 0.00954  0.61406  0.61824  Biso   1.000  H
  H145     1.0000 0.58461  0.47472  0.89983  Biso   1.000  H
  H146     1.0000 0.87251  0.56711  0.53154  Biso   1.000  H
  H147     1.0000 0.49370  0.83325  0.60941  Biso   1.000  H
  H148     1.0000 0.07949  0.46512  0.67213  Biso   1.000  H
  H149     1.0000 0.35966  0.56444  0.02932  Biso   1.000  H
  H150     1.0000 0.00393  0.83804  0.94394  Biso   1.000  H
  H151     1.0000 0.89014  0.96630  0.90609  Biso   1.000  H
  H152     1.0000 0.62469  0.05987  0.53360  Biso   1.000  H
  H153     1.0000 0.97911  0.34495  0.63331  Biso   1.000  H
  H154     1.0000 0.38913  0.96632  0.65846  Biso   1.000  H
  H155     1.0000 0.12430  0.06678  0.03608  Biso   1.000  H
  H156     1.0000 0.49879  0.33357  0.95862  Biso   1.000  H
  H157     1.0000 0.40984  0.47356  0.15970  Biso   1.000  H
  H158     1.0000 0.12315  0.37229  0.53060  Biso   1.000  H
  H159     1.0000 0.49667  0.09944  0.44975  Biso   1.000  H
  H160     1.0000 0.91001  0.48409  0.39218  Biso   1.000  H
  H161     1.0000 0.62331  0.37525  0.03477  Biso   1.000  H
  H162     1.0000 0.99134  0.10800  0.13109  Biso   1.000  H
  H163     1.0000 0.08979  0.96737  0.15789  Biso   1.000  H
  H164     1.0000 0.35723  0.87975  0.52619  Biso   1.000  H
  H165     1.0000 1.00000  0.60656  0.43612  Biso   1.000  H
  H166     1.0000 0.58328  0.96287  0.40341  Biso   1.000  H
  H167     1.0000 0.86960  0.86761  0.03855  Biso   1.000  H
  H168     1.0000 0.50199  0.60519  0.11267  Biso   1.000  H
  H169     1.0000 0.97743  0.06141  0.89886  Biso   1.000  H
  H170     1.0000 0.86330  0.95829  0.12651  Biso   1.000  H
  H171     1.0000 0.08801  0.83836  0.04213  Biso   1.000  H
  H172     1.0000 0.48120  0.05964  0.67600  Biso   1.000  H
  H173     1.0000 0.35833  0.97514  0.43645  Biso   1.000  H
  H174     1.0000 0.59127  0.83725  0.51174  Biso   1.000  H
  H175     1.0000 0.48131  0.55982  0.88857  Biso   1.000  H
  H176     1.0000 0.63214  0.46848  0.12058  Biso   1.000  H
  H177     1.0000 0.39495  0.34218  0.03036  Biso   1.000  H
  H178     1.0000 0.99620  0.56611  0.66360  Biso   1.000  H
  H179     1.0000 0.12880  0.46885  0.43626  Biso   1.000  H
  H180     1.0000 0.89505  0.34068  0.54461  Biso   1.000  H
  H181     1.0000 0.00108  0.88150  0.15870  Biso   1.000  H
  H182     1.0000 0.12192  0.99028  0.93293  Biso   1.000  H
  H183     1.0000 0.89082  0.09792  0.03462  Biso   1.000  H
  H184     1.0000 0.49247  0.88317  0.39514  Biso   1.000  H
  H185     1.0000 0.61576  0.96913  0.62584  Biso   1.000  H
  H186     1.0000 0.39847  0.10046  0.53860  Biso   1.000  H
  H187     1.0000 0.49748  0.38760  0.17056  Biso   1.000  H
  H188     1.0000 0.35603  0.45300  0.94003  Biso   1.000  H
  H189     1.0000 0.59104  0.60041  0.02733  Biso   1.000  H
  H190     1.0000 0.99985  0.38150  0.40068  Biso   1.000  H
  H191     1.0000 0.86821  0.47842  0.62222  Biso   1.000  H
  H192     1.0000 0.08969  0.59861  0.52492  Biso   1.000  H
  H193     1.0000 0.26443  0.81723  0.52797  Biso   1.000  H
  H194     1.0000 0.50123  0.23818  0.90441  Biso   1.000  H
  H195     1.0000 0.85828  0.47659  0.29521  Biso   1.000  H
  H196     1.0000 0.77145  0.81682  0.02976  Biso   1.000  H
  H197     1.0000 0.95718  0.24805  0.68409  Biso   1.000  H
  H198     1.0000 0.36077  0.46272  0.25702  Biso   1.000  H
  H199     1.0000 0.21295  0.31109  0.53712  Biso   1.000  H
  H200     1.0000 0.01356  0.74198  0.89030  Biso   1.000  H
  H201     1.0000 0.64052  0.95425  0.30731  Biso   1.000  H
  H202     1.0000 0.71196  0.31044  0.03607  Biso   1.000  H
  H203     1.0000 0.51066  0.73706  0.65963  Biso   1.000  H
  H204     1.0000 0.14621  0.96454  0.25398  Biso   1.000  H
  H205     1.0000 0.71647  0.11923  0.51546  Biso   1.000  H
  H206     1.0000 0.51315  0.70410  0.16169  Biso   1.000  H
  H207     1.0000 0.13567  0.45420  0.76537  Biso   1.000  H
  H208     1.0000 0.22010  0.12363  0.03555  Biso   1.000  H
  H209     1.0000 0.02429  0.70175  0.38663  Biso   1.000  H
  H210     1.0000 0.63428  0.47985  0.80126  Biso   1.000  H
  H211     1.0000 0.77543  0.62135  0.54399  Biso   1.000  H
  H212     1.0000 0.98014  0.19961  0.18781  Biso   1.000  H
  H213     1.0000 0.33406  0.95306  0.75708  Biso   1.000  H
  H214     1.0000 0.26594  0.62006  0.02487  Biso   1.000  H
  H215     1.0000 0.48955  0.20106  0.40517  Biso   1.000  H
  H216     1.0000 0.83499  0.96089  0.80800  Biso   1.000  H
  H217     1.0000 0.22758  0.46766  0.38415  Biso   1.000  H
  H218     1.0000 0.34275  0.19728  0.54454  Biso   1.000  H
  H219     1.0000 0.52550  0.33692  0.26872  Biso   1.000  H
  H220     1.0000 0.72982  0.45873  0.17002  Biso   1.000  H
  H221     1.0000 0.83080  0.19016  0.03865  Biso   1.000  H
  H222     1.0000 0.98328  0.32461  0.30612  Biso   1.000  H
  H223     1.0000 0.27132  0.97186  0.37188  Biso   1.000  H
  H224     1.0000 0.15451  0.68918  0.51973  Biso   1.000  H
  H225     1.0000 0.02867  0.83413  0.25113  Biso   1.000  H
  H226     1.0000 0.76928  0.96866  0.18597  Biso   1.000  H
  H227     1.0000 0.64498  0.69350  0.00786  Biso   1.000  H
  H228     1.0000 0.48598  0.84151  0.29256  Biso   1.000  H
  H229     1.0000 0.77173  0.46414  0.67295  Biso   1.000  H
  H230     1.0000 0.64067  0.73851  0.50975  Biso   1.000  H
  H231     1.0000 0.48236  0.60590  0.78791  Biso   1.000  H
  H232     1.0000 0.26346  0.46573  0.88626  Biso   1.000  H
  H233     1.0000 0.14959  0.75035  0.05510  Biso   1.000  H
  H234     1.0000 0.99681  0.62281  0.76044  Biso   1.000  H
  H235     1.0000 0.70973  0.98794  0.68254  Biso   1.000  H
  H236     1.0000 0.83510  0.24705  0.52953  Biso   1.000  H
  H237     1.0000 0.97481  0.12384  0.80636  Biso   1.000  H
  H238     1.0000 0.21529  0.99867  0.87163  Biso   1.000  H
  H239     1.0000 0.34146  0.25285  0.06578  Biso   1.000  H
  H240     1.0000 0.47997  0.10577  0.77503  Biso   1.000  H
  H241     1.0000 0.72153  0.46849  0.87997  Biso   1.000  H
  H242     1.0000 0.86079  0.70830  0.53853  Biso   1.000  H
  H243     1.0000 0.49191  0.81837  0.74778  Biso   1.000  H
  H244     1.0000 0.21932  0.44093  0.67255  Biso   1.000  H
  H245     1.0000 0.35710  0.70315  0.03899  Biso   1.000  H
  H246     1.0000 0.99064  0.82787  0.80429  Biso   1.000  H
  H247     1.0000 0.75140  0.96071  0.89993  Biso   1.000  H
  H248     1.0000 0.63128  0.19865  0.54815  Biso   1.000  H
  H249     1.0000 0.97980  0.33170  0.76943  Biso   1.000  H
  H250     1.0000 0.25302  0.97847  0.66721  Biso   1.000  H
  H251     1.0000 0.12554  0.20282  0.04602  Biso   1.000  H
  H252     1.0000 0.49200  0.31779  0.81804  Biso   1.000  H
  H253     1.0000 0.27187  0.48779  0.17306  Biso   1.000  H
  H254     1.0000 0.12244  0.23059  0.54712  Biso   1.000  H
  H255     1.0000 0.51983  0.12441  0.31349  Biso   1.000  H
  H256     1.0000 0.77392  0.46450  0.38712  Biso   1.000  H
  H257     1.0000 0.62291  0.23355  0.05391  Biso   1.000  H
  H258     1.0000 0.99227  0.10878  0.27047  Biso   1.000  H
  H259     1.0000 0.22909  0.95992  0.16447  Biso   1.000  H
  H260     1.0000 0.35952  0.73942  0.51267  Biso   1.000  H
  H261     1.0000 0.02139  0.61737  0.29964  Biso   1.000  H
  H262     1.0000 0.72393  0.95582  0.39335  Biso   1.000  H
  H263     1.0000 0.86138  0.73135  0.01211  Biso   1.000  H
  H264     1.0000 0.47843  0.62659  0.25092  Biso   1.000  H
  H265     1.0000 0.96397  0.20301  0.89827  Biso   1.000  H
  H266     1.0000 0.85917  0.96371  0.26829  Biso   1.000  H
  H267     1.0000 0.23038  0.83785  0.03880  Biso   1.000  H
  H268     1.0000 0.47812  0.19604  0.69334  Biso   1.000  H
  H269     1.0000 0.35977  0.99096  0.29554  Biso   1.000  H
  H270     1.0000 0.72695  0.83023  0.51431  Biso   1.000  H
  H271     1.0000 0.49549  0.69450  0.86994  Biso   1.000  H
  H272     1.0000 0.64549  0.49162  0.25800  Biso   1.000  H
  H273     1.0000 0.25830  0.33091  0.04619  Biso   1.000  H
  H274     1.0000 0.02611  0.70577  0.67235  Biso   1.000  H
  H275     1.0000 0.14234  0.44879  0.29792  Biso   1.000  H
  H276     1.0000 0.75300  0.34080  0.53041  Biso   1.000  H
  H277     1.0000 0.99629  0.74214  0.17928  Biso   1.000  H
  H278     1.0000 0.12059  0.97344  0.79336  Biso   1.000  H
  H279     1.0000 0.75163  0.09954  0.02503  Biso   1.000  H
  H280     1.0000 0.48793  0.74606  0.37195  Biso   1.000  H
  H281     1.0000 0.62467  0.94620  0.76160  Biso   1.000  H
  H282     1.0000 0.25868  0.11145  0.53252  Biso   1.000  H
  H283     1.0000 0.48562  0.25177  0.19927  Biso   1.000  H
  H284     1.0000 0.35209  0.43363  0.80427  Biso   1.000  H
  H285     1.0000 0.72931  0.60071  0.01402  Biso   1.000  H
  H286     1.0000 0.98842  0.24413  0.39862  Biso   1.000  H
  H287     1.0000 0.85279  0.47831  0.76419  Biso   1.000  H
  H288     1.0000 0.23115  0.60044  0.52784  Biso   1.000  H
  H289     1.0000 0.07086  0.19872  0.03979  Biso   1.000  H
  H290     1.0000 0.00156  0.05514  0.26493  Biso   1.000  H
  H291     1.0000 0.22722  0.97770  0.11051  Biso   1.000  H
  H292     1.0000 0.57617  0.19966  0.54728  Biso   1.000  H
  H293     1.0000 0.52944  0.07091  0.31116  Biso   1.000  H
  H294     1.0000 0.72643  0.96047  0.44814  Biso   1.000  H
  H295     1.0000 0.41298  0.70186  0.03091  Biso   1.000  H
  H296     1.0000 0.47698  0.56860  0.25329  Biso   1.000  H
  H297     1.0000 0.27193  0.49216  0.12210  Biso   1.000  H
  H298     1.0000 0.91416  0.70885  0.53154  Biso   1.000  H
  H299     1.0000 0.01375  0.56212  0.30066  Biso   1.000  H
  H300     1.0000 0.77202  0.46694  0.43913  Biso   1.000  H
  H301     1.0000 0.91451  0.73473  0.00612  Biso   1.000  H
  H302     1.0000 0.98073  0.87960  0.80606  Biso   1.000  H
  H303     1.0000 0.75603  0.96049  0.95184  Biso   1.000  H
  H304     1.0000 0.41430  0.74407  0.51514  Biso   1.000  H
  H305     1.0000 0.48410  0.86983  0.74958  Biso   1.000  H
  H306     1.0000 0.25436  0.97899  0.61118  Biso   1.000  H
  H307     1.0000 0.56860  0.24116  0.06275  Biso   1.000  H
  H308     1.0000 0.49152  0.37118  0.81409  Biso   1.000  H
  H309     1.0000 0.72165  0.46689  0.93795  Biso   1.000  H
  H310     1.0000 0.06780  0.23790  0.54716  Biso   1.000  H
  H311     1.0000 0.99456  0.38722  0.76667  Biso   1.000  H
  H312     1.0000 0.21839  0.44658  0.61857  Biso   1.000  H
  H313     1.0000 0.21722  0.99883  0.92371  Biso   1.000  H
  H314     1.0000 0.88691  0.19614  0.03279  Biso   1.000  H
  H315     1.0000 0.02849  0.88829  0.24980  Biso   1.000  H
  H316     1.0000 0.71196  0.98640  0.62854  Biso   1.000  H
  H317     1.0000 0.39999  0.19540  0.54865  Biso   1.000  H
  H318     1.0000 0.48341  0.89462  0.30017  Biso   1.000  H
  H319     1.0000 0.26185  0.47356  0.93814  Biso   1.000  H
  H320     1.0000 0.59082  0.69252  0.00352  Biso   1.000  H
  H321     1.0000 0.53447  0.39268  0.26073  Biso   1.000  H
  H322     1.0000 0.77420  0.46148  0.61841  Biso   1.000  H
  H323     1.0000 0.10229  0.69773  0.51465  Biso   1.000  H
  H324     1.0000 0.99124  0.37652  0.30256  Biso   1.000  H
  H325     1.0000 0.76728  0.96081  0.13156  Biso   1.000  H
  H326     1.0000 0.09364  0.74560  0.05648  Biso   1.000  H
  H327     1.0000 0.97542  0.07017  0.80398  Biso   1.000  H
  H328     1.0000 0.26511  0.96119  0.42101  Biso   1.000  H
  H329     1.0000 0.58964  0.74113  0.50948  Biso   1.000  H
  H330     1.0000 0.47856  0.04910  0.77099  Biso   1.000  H
  H331     1.0000 0.72556  0.44305  0.12291  Biso   1.000  H
  H332     1.0000 0.39837  0.25150  0.05737  Biso   1.000  H
  H333     1.0000 0.47845  0.55129  0.79428  Biso   1.000  H
  H334     1.0000 0.22475  0.46952  0.43802  Biso   1.000  H
  H335     1.0000 0.89129  0.24712  0.53747  Biso   1.000  H
  H336     1.0000 0.99452  0.56941  0.75909  Biso   1.000  H
  H337     1.0000 0.96904  0.19765  0.95231  Biso   1.000  H
  H338     1.0000 0.91580  0.96117  0.26243  Biso   1.000  H
  H339     1.0000 0.22727  0.89384  0.03018  Biso   1.000  H
  H340     1.0000 0.48656  0.19833  0.63689  Biso   1.000  H
  H341     1.0000 0.41489  0.99435  0.29778  Biso   1.000  H
  H342     1.0000 0.72467  0.88526  0.52103  Biso   1.000  H
  H343     1.0000 0.49795  0.69746  0.92679  Biso   1.000  H
  H344     1.0000 0.58901  0.49107  0.25948  Biso   1.000  H
  H345     1.0000 0.26074  0.38728  0.03606  Biso   1.000  H
  H346     1.0000 0.02874  0.70645  0.61875  Biso   1.000  H
  H347     1.0000 0.08936  0.45032  0.30003  Biso   1.000  H
  H348     1.0000 0.75821  0.39321  0.53859  Biso   1.000  H
  H349     1.0000 0.98479  0.74214  0.12520  Biso   1.000  H
  H350     1.0000 0.06635  0.97401  0.79935  Biso   1.000  H
  H351     1.0000 0.75653  0.04752  0.03178  Biso   1.000  H
  H352     1.0000 0.49977  0.74120  0.42511  Biso   1.000  H
  H353     1.0000 0.56705  0.94514  0.75773  Biso   1.000  H
  H354     1.0000 0.26312  0.05840  0.52241  Biso   1.000  H
  H355     1.0000 0.48219  0.24667  0.14509  Biso   1.000  H
  H356     1.0000 0.40492  0.43539  0.80806  Biso   1.000  H
  H357     1.0000 0.72584  0.55041  0.02675  Biso   1.000  H
  H358     1.0000 0.99078  0.24701  0.45064  Biso   1.000  H
  H359     1.0000 0.90599  0.47980  0.76045  Biso   1.000  H
  H360     1.0000 0.22595  0.54820  0.53801  Biso   1.000  H
  H361     1.0000 0.01153  0.70307  0.44068  Biso   1.000  H
  H362     1.0000 0.38848  0.95423  0.75512  Biso   1.000  H
  H363     1.0000 0.71902  0.36528  0.03106  Biso   1.000  H
  H364     1.0000 0.51879  0.69923  0.10745  Biso   1.000  H
  H365     1.0000 0.89040  0.96177  0.80826  Biso   1.000  H
  H366     1.0000 0.21963  0.36768  0.53108  Biso   1.000  H
  H367     1.0000 0.48279  0.19309  0.45776  Biso   1.000  H
  H368     1.0000 0.08544  0.46803  0.76787  Biso   1.000  H
  H369     1.0000 0.77037  0.86536  0.04490  Biso   1.000  H
  H370     1.0000 0.97302  0.20157  0.13168  Biso   1.000  H
  H371     1.0000 0.58072  0.48323  0.80351  Biso   1.000  H
  H372     1.0000 0.25897  0.87248  0.52773  Biso   1.000  H
  H373     1.0000 0.95661  0.25062  0.63306  Biso   1.000  H
  H374     1.0000 0.58952  0.95663  0.30663  Biso   1.000  H
  H375     1.0000 0.26412  0.57159  0.02175  Biso   1.000  H
  H376     1.0000 0.50177  0.24105  0.96189  Biso   1.000  H
  H377     1.0000 0.09119  0.97138  0.25193  Biso   1.000  H
  H378     1.0000 0.77674  0.56703  0.53741  Biso   1.000  H
  H379     1.0000 0.51363  0.73829  0.60747  Biso   1.000  H
  H380     1.0000 0.91002  0.47525  0.29556  Biso   1.000  H
  H381     1.0000 0.22105  0.07112  0.02528  Biso   1.000  H
  H382     1.0000 0.01900  0.74289  0.94559  Biso   1.000  H
  H383     1.0000 0.41376  0.46405  0.25521  Biso   1.000  H
  H384     1.0000 0.71746  0.06499  0.51545  Biso   1.000  H
  H385     1.0000 0.22624  0.43286  0.35333  Biso   1.000  H
  H386     1.0000 0.26354  0.14570  0.50204  Biso   1.000  H
  H387     1.0000 0.48954  0.31264  0.28111  Biso   1.000  H
  H388     1.0000 0.67295  0.44599  0.26334  Biso   1.000  H
  H389     1.0000 0.80265  0.18449  0.99763  Biso   1.000  H
  H390     1.0000 0.96169  0.23827  0.36751  Biso   1.000  H
  H391     1.0000 0.33452  0.94946  0.29447  Biso   1.000  H
  H392     1.0000 0.18429  0.67808  0.48563  Biso   1.000  H
  H393     1.0000 0.03076  0.74226  0.20019  Biso   1.000  H
  H394     1.0000 0.77514  0.92841  0.21338  Biso   1.000  H
  H395     1.0000 0.72397  0.63613  0.04258  Biso   1.000  H
  H396     1.0000 0.46126  0.80309  0.29452  Biso   1.000  H
  H397     1.0000 0.77187  0.49967  0.70010  Biso   1.000  H
  H398     1.0000 0.67256  0.74613  0.54475  Biso   1.000  H
  H399     1.0000 0.51359  0.63770  0.79140  Biso   1.000  H
  H400     1.0000 0.26140  0.43441  0.86137  Biso   1.000  H
  H401     1.0000 0.22441  0.80258  0.00712  Biso   1.000  H
  H402     1.0000 0.03733  0.64527  0.75831  Biso   1.000  H
  H403     1.0000 0.71830  0.94924  0.70746  Biso   1.000  H
  H404     1.0000 0.75218  0.30423  0.55635  Biso   1.000  H
  H405     1.0000 0.99653  0.20884  0.86210  Biso   1.000  H
  H406     1.0000 0.20831  0.95210  0.85142  Biso   1.000  H
  H407     1.0000 0.25696  0.30600  0.07979  Biso   1.000  H
  H408     1.0000 0.44609  0.14231  0.76947  Biso   1.000  H
  H409     1.0000 0.27149  0.45147  0.19588  Biso   1.000  H
  H410     1.0000 0.15723  0.22978  0.51860  Biso   1.000  H
  H411     1.0000 0.47960  0.14954  0.31315  Biso   1.000  H
  H412     1.0000 0.82444  0.44749  0.30300  Biso   1.000  H
  H413     1.0000 0.65094  0.23493  0.01363  Biso   1.000  H
  H414     1.0000 0.95938  0.14021  0.27105  Biso   1.000  H
  H415     1.0000 0.17721  0.93439  0.25073  Biso   1.000  H
  H416     1.0000 0.27222  0.79000  0.48964  Biso   1.000  H
  H417     1.0000 0.05410  0.65120  0.30939  Biso   1.000  H
  H418     1.0000 0.67392  0.91734  0.31928  Biso   1.000  H
  H419     1.0000 0.82684  0.73287  0.04995  Biso   1.000  H
  H420     1.0000 0.48037  0.71018  0.18615  Biso   1.000  H
  H421     1.0000 0.66803  0.50841  0.80304  Biso   1.000  H
  H422     1.0000 0.77806  0.65945  0.57361  Biso   1.000  H
  H423     1.0000 0.52870  0.79342  0.74299  Biso   1.000  H
  H424     1.0000 0.16344  0.41708  0.75846  Biso   1.000  H
  H425     1.0000 0.33010  0.70410  0.01119  Biso   1.000  H
  H426     1.0000 0.04759  0.75652  0.85468  Biso   1.000  H
  H427     1.0000 0.80838  0.99029  0.81144  Biso   1.000  H
  H428     1.0000 0.71439  0.14841  0.55610  Biso   1.000  H
  H429     1.0000 0.94237  0.30936  0.76761  Biso   1.000  H
  H430     1.0000 0.30518  0.98651  0.75519  Biso   1.000  H
  H431     1.0000 0.15920  0.20774  0.01945  Biso   1.000  H
  H432     1.0000 0.46566  0.24225  0.87865  Biso   1.000  H
  H433     1.0000 0.25300  0.93505  0.69077  Biso   1.000  H
  H434     1.0000 0.71071  0.28458  0.06684  Biso   1.000  H
  H435     1.0000 0.98745  0.69686  0.35750  Biso   1.000  H
  H436     1.0000 0.74723  0.93898  0.87011  Biso   1.000  H
  H437     1.0000 0.19933  0.28802  0.58145  Biso   1.000  H
  H438     1.0000 0.52211  0.64925  0.24985  Biso   1.000  H
  H439     1.0000 0.21564  0.47432  0.70255  Biso   1.000  H
  H440     1.0000 0.77903  0.79327  0.99016  Biso   1.000  H
  H441     1.0000 0.52348  0.20601  0.37760  Biso   1.000  H
  H442     1.0000 0.71272  0.43620  0.85065  Biso   1.000  H
  H443     1.0000 0.33126  0.74106  0.54380  Biso   1.000  H
  H444     1.0000 0.01604  0.19387  0.21314  Biso   1.000  H
  H445     1.0000 0.70949  0.99545  0.35658  Biso   1.000  H
  H446     1.0000 0.26988  0.64757  0.05845  Biso   1.000  H
  H447     1.0000 0.98855  0.24251  0.71702  Biso   1.000  H
  H448     1.0000 0.22916  0.98889  0.18848  Biso   1.000  H
  H449     1.0000 0.83004  0.69724  0.49822  Biso   1.000  H
  H450     1.0000 0.52441  0.28681  0.82080  Biso   1.000  H
  H451     1.0000 0.77355  0.50566  0.35874  Biso   1.000  H
  H452     1.0000 0.21382  0.14689  0.07081  Biso   1.000  H
  H453     1.0000 0.47301  0.73677  0.68881  Biso   1.000  H
  H454     1.0000 0.33081  0.49110  0.26229  Biso   1.000  H
  H455     1.0000 0.65368  0.19867  0.50672  Biso   1.000  H
  H456     1.0000 0.96392  0.78795  0.81690  Biso   1.000  H
  H457     1.0000 0.72663  0.79940  0.48626  Biso   1.000  H
  H458     1.0000 0.45356  0.70029  0.83963  Biso   1.000  H
  H459     1.0000 0.82258  0.44350  0.76309  Biso   1.000  H
  H460     1.0000 0.18212  0.76153  0.08095  Biso   1.000  H
  H461     1.0000 0.99237  0.70725  0.70112  Biso   1.000  H
  H462     1.0000 0.32414  0.46984  0.79997  Biso   1.000  H
  H463     1.0000 0.81182  0.25155  0.49818  Biso   1.000  H
  H464     1.0000 0.93596  0.14705  0.82088  Biso   1.000  H
  H465     1.0000 0.64864  0.98266  0.76137  Biso   1.000  H
  H466     1.0000 0.31788  0.24868  0.02577  Biso   1.000  H
  H467     1.0000 0.51754  0.18552  0.72222  Biso   1.000  H
  H468     1.0000 0.15371  0.00836  0.79231  Biso   1.000  H
  H469     1.0000 0.31027  0.18552  0.57966  Biso   1.000  H
  H470     1.0000 0.52252  0.24885  0.21395  Biso   1.000  H
  H471     1.0000 0.17506  0.49596  0.29910  Biso   1.000  H
  H472     1.0000 0.75669  0.13307  0.06533  Biso   1.000  H
  H473     1.0000 0.01980  0.29755  0.31217  Biso   1.000  H
  H474     1.0000 0.73074  0.49686  0.19951  Biso   1.000  H
  H475     1.0000 0.23007  0.63726  0.55829  Biso   1.000  H
  H476     1.0000 0.99696  0.80783  0.25978  Biso   1.000  H
  H477     1.0000 0.27120  0.00149  0.34284  Biso   1.000  H
  H478     1.0000 0.67837  0.69036  0.97900  Biso   1.000  H
  H479     1.0000 0.52620  0.75573  0.34312  Biso   1.000  H
  H480     1.0000 0.82533  0.99300  0.26658  Biso   1.000  H
  N1       1.0000 0.66291  0.14929  0.53230  Biso   1.000  N
  N2       1.0000 0.49827  0.65361  0.19751  Biso   1.000  N
  N3       1.0000 0.16715  0.44712  0.70722  Biso   1.000  N
  N4       1.0000 0.16330  0.15281  0.04060  Biso   1.000  N
  N5       1.0000 0.01729  0.64867  0.35341  Biso   1.000  N
  N6       1.0000 0.66922  0.47552  0.85175  Biso   1.000  N
  N7       1.0000 0.82811  0.65422  0.53655  Biso   1.000  N
  N8       1.0000 0.98667  0.14524  0.21772  Biso   1.000  N
  N9       1.0000 0.30313  0.96386  0.69918  Biso   1.000  N
  N10      1.0000 0.32249  0.65253  0.03324  Biso   1.000  N
  N11      1.0000 0.50226  0.15147  0.36753  Biso   1.000  N
  N12      1.0000 0.80386  0.95959  0.86244  Biso   1.000  N
  N13      1.0000 0.32223  0.78924  0.52044  Biso   1.000  N
  N14      1.0000 0.49627  0.28791  0.87255  Biso   1.000  N
  N15      1.0000 0.82426  0.47706  0.35150  Biso   1.000  N
  N16      1.0000 0.82640  0.78492  0.02343  Biso   1.000  N
  N17      1.0000 0.97190  0.29965  0.71739  Biso   1.000  N
  N18      1.0000 0.32561  0.47343  0.20479  Biso   1.000  N
  N19      1.0000 0.15885  0.28538  0.54378  Biso   1.000  N
  N20      1.0000 0.00359  0.79514  0.85943  Biso   1.000  N
  N21      1.0000 0.67168  0.95592  0.36241  Biso   1.000  N
  N22      1.0000 0.65733  0.28419  0.04143  Biso   1.000  N
  N23      1.0000 0.50011  0.78803  0.69325  Biso   1.000  N
  N24      1.0000 0.17795  0.96269  0.19715  Biso   1.000  N
  N25      1.0000 0.82231  0.47052  0.70786  Biso   1.000  N
  N26      1.0000 0.67522  0.79572  0.51472  Biso   1.000  N
  N27      1.0000 0.48001  0.64347  0.83955  Biso   1.000  N
  N28      1.0000 0.31758  0.45040  0.85465  Biso   1.000  N
  N29      1.0000 0.17918  0.80448  0.04268  Biso   1.000  N
  N30      1.0000 0.00998  0.65385  0.70631  Biso   1.000  N
  N31      1.0000 0.65844  0.96542  0.71174  Biso   1.000  N
  N32      1.0000 0.80540  0.30209  0.53245  Biso   1.000  N
  N33      1.0000 0.97300  0.15228  0.86495  Biso   1.000  N
  N34      1.0000 0.15754  0.98198  0.84381  Biso   1.000  N
  N35      1.0000 0.31123  0.30153  0.05003  Biso   1.000  N
  N36      1.0000 0.47963  0.14009  0.72281  Biso   1.000  N
  N37      1.0000 0.17577  0.46344  0.35108  Biso   1.000  N
  N38      1.0000 0.31308  0.14427  0.53823  Biso   1.000  N
  N39      1.0000 0.50020  0.30493  0.22380  Biso   1.000  N
  N40      1.0000 0.67550  0.47229  0.20675  Biso   1.000  N
  N41      1.0000 0.80281  0.13567  0.03280  Biso   1.000  N
  N42      1.0000 0.98981  0.29461  0.36312  Biso   1.000  N
  N43      1.0000 0.32631  0.97749  0.34444  Biso   1.000  N
  N44      1.0000 0.18222  0.63552  0.52501  Biso   1.000  N
  N45      1.0000 0.00951  0.79824  0.20527  Biso   1.000  N
  N46      1.0000 0.82358  0.96251  0.21568  Biso   1.000  N
  N47      1.0000 0.67642  0.63809  0.01371  Biso   1.000  N
  N48      1.0000 0.49275  0.80254  0.34324  Biso   1.000  N
  O1       1.0000 0.33588  0.51962  0.02315  Biso   1.000  O
  O2       1.0000 0.97827  0.32071  0.58029  Biso   1.000  O
  O3       1.0000 0.53836  0.96625  0.37625  Biso   1.000  O
  O4       1.0000 0.84722  0.52007  0.53432  Biso   1.000  O
  O5       1.0000 0.49462  0.31276  0.00690  Biso   1.000  O
  O6       1.0000 0.04123  0.96773  0.18423  Biso   1.000  O
  O7       1.0000 0.14927  0.01861  0.02159  Biso   1.000  O
  O8       1.0000 0.49798  0.80829  0.55878  Biso   1.000  O
  O9       1.0000 0.95613  0.47742  0.37035  Biso   1.000  O
  O10      1.0000 0.64860  0.01374  0.53177  Biso   1.000  O
  O11      1.0000 0.01733  0.81095  0.99504  Biso   1.000  O
  O12      1.0000 0.46200  0.46830  0.18547  Biso   1.000  O
  O13      1.0000 0.64847  0.42014  0.02881  Biso   1.000  O
  O14      1.0000 0.99734  0.63128  0.48621  Biso   1.000  O
  O15      1.0000 0.43934  0.97002  0.68592  Biso   1.000  O
  O16      1.0000 0.14826  0.41851  0.51930  Biso   1.000  O
  O17      1.0000 0.50411  0.62827  0.06158  Biso   1.000  O
  O18      1.0000 0.93986  0.96880  0.87958  Biso   1.000  O
  O19      1.0000 0.84122  0.92086  0.04144  Biso   1.000  O
  O20      1.0000 0.48303  0.12075  0.50256  Biso   1.000  O
  O21      1.0000 0.03617  0.47003  0.69260  Biso   1.000  O
  O22      1.0000 0.33155  0.92430  0.52228  Biso   1.000  O
  O23      1.0000 0.98798  0.12826  0.08336  Biso   1.000  O
  O24      1.0000 0.53348  0.47207  0.87746  Biso   1.000  O
  O25      1.0000 0.95631  0.97608  0.19045  Biso   1.000  O
  O26      1.0000 0.15231  0.93549  0.02068  Biso   1.000  O
  O27      1.0000 0.97835  0.12413  0.99925  Biso   1.000  O
  O28      1.0000 0.45852  0.98325  0.37066  Biso   1.000  O
  O29      1.0000 0.64882  0.92976  0.53853  Biso   1.000  O
  O30      1.0000 0.49289  0.12806  0.58745  Biso   1.000  O
  O31      1.0000 0.54272  0.48647  0.18774  Biso   1.000  O
  O32      1.0000 0.33571  0.43511  0.02985  Biso   1.000  O
  O33      1.0000 0.49150  0.62712  0.97712  Biso   1.000  O
  O34      1.0000 0.03906  0.46975  0.36829  Biso   1.000  O
  O35      1.0000 0.83617  0.43357  0.53123  Biso   1.000  O
  O36      1.0000 0.01037  0.63458  0.56956  Biso   1.000  O
  O37      1.0000 0.02300  0.97476  0.87376  Biso   1.000  O
  O38      1.0000 0.83293  0.00454  0.03300  Biso   1.000  O
  O39      1.0000 0.99134  0.81123  0.07350  Biso   1.000  O
  O40      1.0000 0.52520  0.96446  0.68457  Biso   1.000  O
  O41      1.0000 0.33410  0.00788  0.52662  Biso   1.000  O
  O42      1.0000 0.49853  0.81139  0.47763  Biso   1.000  O
  O43      1.0000 0.44925  0.46130  0.87755  Biso   1.000  O
  O44      1.0000 0.64947  0.50456  0.03376  Biso   1.000  O
  O45      1.0000 0.47928  0.31522  0.08999  Biso   1.000  O
  O46      1.0000 0.95571  0.48066  0.69285  Biso   1.000  O
  O47      1.0000 0.14896  0.50222  0.53597  Biso   1.000  O
  O48      1.0000 0.98858  0.32060  0.49752  Biso   1.000  O
  O49      1.0000 0.99637  0.92846  0.18086  Biso   1.000  O
  O50      1.0000 0.15122  0.97871  0.97919  Biso   1.000  O
  O51      1.0000 0.94025  0.12487  0.04134  Biso   1.000  O
  O52      1.0000 0.48513  0.93526  0.37421  Biso   1.000  O
  O53      1.0000 0.64445  0.97818  0.57624  Biso   1.000  O
  O54      1.0000 0.44663  0.12355  0.54822  Biso   1.000  O
  O55      1.0000 0.51241  0.43872  0.18907  Biso   1.000  O
  O56      1.0000 0.33359  0.47252  0.98572  Biso   1.000  O
  O57      1.0000 0.54223  0.62369  0.01400  Biso   1.000  O
  O58      1.0000 0.99280  0.43054  0.37540  Biso   1.000  O
  O59      1.0000 0.84749  0.47241  0.57370  Biso   1.000  O
  O60      1.0000 0.04343  0.62724  0.52286  Biso   1.000  O
  O61      1.0000 0.97968  0.01541  0.87571  Biso   1.000  O
  O62      1.0000 0.83857  0.96678  0.07754  Biso   1.000  O
  O63      1.0000 0.04328  0.81469  0.04731  Biso   1.000  O
  O64      1.0000 0.48271  0.00959  0.69315  Biso   1.000  O
  O65      1.0000 0.33522  0.96723  0.48152  Biso   1.000  O
  O66      1.0000 0.53977  0.81332  0.51455  Biso   1.000  O
  O67      1.0000 0.48217  0.51095  0.87338  Biso   1.000  O
  O68      1.0000 0.65221  0.45864  0.07367  Biso   1.000  O
  O69      1.0000 0.44600  0.31870  0.03820  Biso   1.000  O
  O70      1.0000 0.00383  0.51922  0.68864  Biso   1.000  O
  O71      1.0000 0.15115  0.46696  0.48646  Biso   1.000  O
  O72      1.0000 0.94081  0.31914  0.53780  Biso   1.000  O
  O73      1.0000 0.98987  0.43240  0.69231  Biso   1.000  O
  O74      1.0000 0.64968  0.97183  0.49204  Biso   1.000  O
  O75      1.0000 0.45555  0.62652  0.02938  Biso   1.000  O
  O76      1.0000 0.49146  0.42392  0.88100  Biso   1.000  O
  O77      1.0000 0.15181  0.97684  0.06462  Biso   1.000  O
  O78      1.0000 0.96348  0.63395  0.53380  Biso   1.000  O
  O79      1.0000 0.47845  0.92554  0.67983  Biso   1.000  O
  O80      1.0000 0.84566  0.47905  0.49022  Biso   1.000  O
  O81      1.0000 0.02551  0.12602  0.03842  Biso   1.000  O
  O82      1.0000 0.98743  0.93249  0.87703  Biso   1.000  O
  O83      1.0000 0.33875  0.47874  0.06788  Biso   1.000  O
  O84      1.0000 0.52894  0.12438  0.53997  Biso   1.000  O
  O85      1.0000 0.00297  0.51382  0.37263  Biso   1.000  O
  O86      1.0000 0.33044  0.96247  0.56718  Biso   1.000  O
  O87      1.0000 0.52557  0.31584  0.05270  Biso   1.000  O
  O88      1.0000 0.49637  0.52049  0.18460  Biso   1.000  O
  O89      1.0000 0.83309  0.95764  0.99600  Biso   1.000  O
  O90      1.0000 0.02680  0.31320  0.54332  Biso   1.000  O
  O91      1.0000 0.50710  0.01498  0.37787  Biso   1.000  O
  O92      1.0000 0.14699  0.45293  0.57100  Biso   1.000  O
  O93      1.0000 0.96193  0.80831  0.02501  Biso   1.000  O
  O94      1.0000 0.00523  0.01314  0.19036  Biso   1.000  O
  O95      1.0000 0.65265  0.46534  0.99035  Biso   1.000  O
  O96      1.0000 0.45648  0.81472  0.51738  Biso   1.000  O
  O97      1.0000 0.44572  0.17101  0.55150  Biso   1.000  O
  O98      1.0000 0.50795  0.44180  0.23763  Biso   1.000  O
  O99      1.0000 0.19867  0.46649  0.48805  Biso   1.000  O
  O100     1.0000 0.94055  0.17290  0.03320  Biso   1.000  O
  O101     1.0000 0.99661  0.42999  0.32584  Biso   1.000  O
  O102     1.0000 0.70103  0.45878  0.07074  Biso   1.000  O
  O103     1.0000 0.04910  0.67617  0.52194  Biso   1.000  O
  O104     1.0000 0.00125  0.92857  0.22940  Biso   1.000  O
  O105     1.0000 0.28685  0.97136  0.48015  Biso   1.000  O
  O106     1.0000 0.54243  0.67283  0.01051  Biso   1.000  O
  O107     1.0000 0.48736  0.93632  0.32550  Biso   1.000  O
  O108     1.0000 0.79073  0.96030  0.08302  Biso   1.000  O
  O109     1.0000 0.53921  0.76362  0.51189  Biso   1.000  O
  O110     1.0000 0.48963  0.50449  0.82515  Biso   1.000  O
  O111     1.0000 0.79977  0.47975  0.57308  Biso   1.000  O
  O112     1.0000 0.04495  0.76545  0.04164  Biso   1.000  O
  O113     1.0000 0.99671  0.52001  0.73805  Biso   1.000  O
  O114     1.0000 0.28501  0.47800  0.98604  Biso   1.000  O
  O115     1.0000 0.93821  0.27098  0.53906  Biso   1.000  O
  O116     1.0000 0.97413  0.01640  0.82697  Biso   1.000  O
  O117     1.0000 0.69337  0.97856  0.58050  Biso   1.000  O
  O118     1.0000 0.44242  0.27001  0.04222  Biso   1.000  O
  O119     1.0000 0.48418  0.00067  0.74223  Biso   1.000  O
  O120     1.0000 0.19942  0.98349  0.97425  Biso   1.000  O
  O121     1.0000 0.03525  0.47053  0.74244  Biso   1.000  O
  O122     1.0000 0.69729  0.01760  0.53496  Biso   1.000  O
  O123     1.0000 0.50857  0.67496  0.05893  Biso   1.000  O
  O124     1.0000 0.53231  0.46791  0.82779  Biso   1.000  O
  O125     1.0000 0.19885  0.02145  0.02175  Biso   1.000  O
  O126     1.0000 0.00512  0.68023  0.48658  Biso   1.000  O
  O127     1.0000 0.43843  0.96023  0.73368  Biso   1.000  O
  O128     1.0000 0.79663  0.52177  0.53373  Biso   1.000  O
  O129     1.0000 0.97924  0.17671  0.07761  Biso   1.000  O
  O130     1.0000 0.93799  0.96731  0.82980  Biso   1.000  O
  O131     1.0000 0.28710  0.51907  0.02826  Biso   1.000  O
  O132     1.0000 0.48506  0.16975  0.50419  Biso   1.000  O
  O133     1.0000 0.95688  0.47580  0.32004  Biso   1.000  O
  O134     1.0000 0.28312  0.92534  0.52275  Biso   1.000  O
  O135     1.0000 0.49056  0.26446  0.00954  Biso   1.000  O
  O136     1.0000 0.45956  0.47604  0.23289  Biso   1.000  O
  O137     1.0000 0.79241  0.91906  0.04460  Biso   1.000  O
  O138     1.0000 0.97812  0.27187  0.58244  Biso   1.000  O
  O139     1.0000 0.53955  0.96512  0.32884  Biso   1.000  O
  O140     1.0000 0.19686  0.41882  0.52642  Biso   1.000  O
  O141     1.0000 0.01239  0.76297  0.99413  Biso   1.000  O
  O142     1.0000 0.04359  0.96488  0.23322  Biso   1.000  O
  O143     1.0000 0.69721  0.41926  0.02980  Biso   1.000  O
  O144     1.0000 0.50288  0.75953  0.55827  Biso   1.000  O
  O145     1.0000 0.54171  0.49067  0.23572  Biso   1.000  O
  O146     1.0000 0.19732  0.50133  0.53521  Biso   1.000  O
  O147     1.0000 0.49585  0.17650  0.58763  Biso   1.000  O
  O148     1.0000 0.04091  0.46653  0.31920  Biso   1.000  O
  O149     1.0000 0.69849  0.50150  0.02841  Biso   1.000  O
  O150     1.0000 0.98704  0.17278  0.99517  Biso   1.000  O
  O151     1.0000 0.96039  0.96863  0.23839  Biso   1.000  O
  O152     1.0000 0.28527  0.00971  0.52215  Biso   1.000  O
  O153     1.0000 0.01439  0.68395  0.56868  Biso   1.000  O
  O154     1.0000 0.45923  0.99037  0.32294  Biso   1.000  O
  O155     1.0000 0.78370  0.00167  0.03554  Biso   1.000  O
  O156     1.0000 0.49340  0.67616  0.97747  Biso   1.000  O
  O157     1.0000 0.44855  0.45822  0.82810  Biso   1.000  O
  O158     1.0000 0.78820  0.44082  0.53242  Biso   1.000  O
  O159     1.0000 0.49486  0.76218  0.47645  Biso   1.000  O
  O160     1.0000 0.95373  0.47827  0.74152  Biso   1.000  O
  O161     1.0000 0.28730  0.43461  0.02807  Biso   1.000  O
  O162     1.0000 0.99188  0.76137  0.07526  Biso   1.000  O
  O163     1.0000 0.01959  0.97703  0.82455  Biso   1.000  O
  O164     1.0000 0.69653  0.93194  0.53923  Biso   1.000  O
  O165     1.0000 0.98092  0.27145  0.49930  Biso   1.000  O
  O166     1.0000 0.52308  0.95920  0.73227  Biso   1.000  O
  O167     1.0000 0.20181  0.93710  0.02020  Biso   1.000  O
  O168     1.0000 0.47431  0.26796  0.09212  Biso   1.000  O
  O169     1.0000 0.00962  0.00942  0.23913  Biso   1.000  O
  O170     1.0000 0.20069  0.97868  0.06225  Biso   1.000  O
  O171     1.0000 0.02467  0.17532  0.03714  Biso   1.000  O
  O172     1.0000 0.50938  0.01940  0.32953  Biso   1.000  O
  O173     1.0000 0.69800  0.97118  0.49814  Biso   1.000  O
  O174     1.0000 0.52929  0.17450  0.53804  Biso   1.000  O
  O175     1.0000 0.49556  0.52482  0.23460  Biso   1.000  O
  O176     1.0000 0.29032  0.47692  0.07280  Biso   1.000  O
  O177     1.0000 0.45846  0.67560  0.02361  Biso   1.000  O
  O178     1.0000 0.00696  0.51224  0.32341  Biso   1.000  O
  O179     1.0000 0.79531  0.47554  0.48864  Biso   1.000  O
  O180     1.0000 0.96598  0.68395  0.53406  Biso   1.000  O
  O181     1.0000 0.98547  0.93033  0.82879  Biso   1.000  O
  O182     1.0000 0.78456  0.95620  0.99852  Biso   1.000  O
  O183     1.0000 0.96153  0.75884  0.02305  Biso   1.000  O
  O184     1.0000 0.47937  0.91835  0.72823  Biso   1.000  O
  O185     1.0000 0.28206  0.96345  0.56413  Biso   1.000  O
  O186     1.0000 0.45567  0.76771  0.52011  Biso   1.000  O
  O187     1.0000 0.49382  0.42041  0.83167  Biso   1.000  O
  O188     1.0000 0.70081  0.46447  0.98500  Biso   1.000  O
  O189     1.0000 0.52172  0.26714  0.05855  Biso   1.000  O
  O190     1.0000 0.99257  0.43617  0.74031  Biso   1.000  O
  O191     1.0000 0.19684  0.45244  0.57309  Biso   1.000  O
  O192     1.0000 0.02337  0.26610  0.53978  Biso   1.000  O
