data_image0
_cell_length_a       47.1159
_cell_length_b       46.8017
_cell_length_c       46.5824
_cell_angle_alpha    90
_cell_angle_beta     90
_cell_angle_gamma    90

_symmetry_space_group_name_H-M    "P 1"
_symmetry_int_tables_number       1

loop_
  _symmetry_equiv_pos_as_xyz
  'x, y, z'

loop_
  _atom_site_label
  _atom_site_occupancy
  _atom_site_fract_x
  _atom_site_fract_y
  _atom_site_fract_z
  _atom_site_thermal_displace_type
  _atom_site_B_iso_or_equiv
  _atom_site_type_symbol
  C1       1.0000 0.57347  0.98198  0.33926  Biso   1.000  C
  C2       1.0000 0.33281  0.53853  0.00782  Biso   1.000  C
  C3       1.0000 0.01068  0.30752  0.57298  Biso   1.000  C
  C4       1.0000 0.06975  0.99523  0.20634  Biso   1.000  C
  C5       1.0000 0.83138  0.53743  0.51454  Biso   1.000  C
  C6       1.0000 0.51361  0.30740  0.95687  Biso   1.000  C
  C7       1.0000 0.96504  0.49473  0.34022  Biso   1.000  C
  C8       1.0000 0.19625  0.04204  0.03113  Biso   1.000  C
  C9       1.0000 0.51091  0.81511  0.58374  Biso   1.000  C
  C10      1.0000 0.46392  0.47382  0.19471  Biso   1.000  C
  C11      1.0000 0.69916  0.04013  0.52097  Biso   1.000  C
  C12      1.0000 0.00956  0.81246  0.96639  Biso   1.000  C
  C13      1.0000 0.45637  0.00350  0.70200  Biso   1.000  C
  C14      1.0000 0.69602  0.43749  0.02335  Biso   1.000  C
  C15      1.0000 0.01119  0.67148  0.46514  Biso   1.000  C
  C16      1.0000 0.95906  0.99441  0.83668  Biso   1.000  C
  C17      1.0000 0.19644  0.44332  0.51376  Biso   1.000  C
  C18      1.0000 0.50296  0.66183  0.08177  Biso   1.000  C
  C19      1.0000 0.06208  0.48280  0.69427  Biso   1.000  C
  C20      1.0000 0.82782  0.94057  0.01015  Biso   1.000  C
  C21      1.0000 0.53674  0.17117  0.45882  Biso   1.000  C
  C22      1.0000 0.56748  0.49599  0.83618  Biso   1.000  C
  C23      1.0000 0.33287  0.94484  0.51972  Biso   1.000  C
  C24      1.0000 0.01305  0.17564  0.07665  Biso   1.000  C
  C25      1.0000 0.33903  0.05444  0.52672  Biso   1.000  C
  C26      1.0000 0.51402  0.29886  0.06393  Biso   1.000  C
  C27      1.0000 0.07398  0.48982  0.33613  Biso   1.000  C
  C28      1.0000 0.83521  0.04692  0.02500  Biso   1.000  C
  C29      1.0000 0.01695  0.31421  0.46559  Biso   1.000  C
  C30      1.0000 0.57246  0.48204  0.20052  Biso   1.000  C
  C31      1.0000 0.19560  0.55318  0.50666  Biso   1.000  C
  C32      1.0000 0.00336  0.81114  0.07537  Biso   1.000  C
  C33      1.0000 0.46475  0.97842  0.33753  Biso   1.000  C
  C34      1.0000 0.69443  0.54641  0.01509  Biso   1.000  C
  C35      1.0000 0.51390  0.80963  0.47692  Biso   1.000  C
  C36      1.0000 0.96067  0.99227  0.20284  Biso   1.000  C
  C37      1.0000 0.69680  0.93160  0.51428  Biso   1.000  C
  C38      1.0000 0.50924  0.67267  0.97206  Biso   1.000  C
  C39      1.0000 0.95309  0.49246  0.69212  Biso   1.000  C
  C40      1.0000 0.19367  0.93526  0.01813  Biso   1.000  C
  C41      1.0000 0.01047  0.66822  0.57551  Biso   1.000  C
  C42      1.0000 0.46051  0.49505  0.82980  Biso   1.000  C
  C43      1.0000 0.83139  0.43219  0.51153  Biso   1.000  C
  C44      1.0000 0.01576  0.17108  0.96729  Biso   1.000  C
  C45      1.0000 0.56277  0.99269  0.69954  Biso   1.000  C
  C46      1.0000 0.33546  0.43191  0.01200  Biso   1.000  C
  C47      1.0000 0.50611  0.17072  0.56378  Biso   1.000  C
  C48      1.0000 0.06974  0.99077  0.84201  Biso   1.000  C
  C49      1.0000 0.01300  0.04322  0.84049  Biso   1.000  C
  C50      1.0000 0.83476  0.98527  0.07116  Biso   1.000  C
  C51      1.0000 0.06120  0.81578  0.02115  Biso   1.000  C
  C52      1.0000 0.51469  0.05603  0.69902  Biso   1.000  C
  C53      1.0000 0.34129  0.00189  0.46623  Biso   1.000  C
  C54      1.0000 0.56549  0.81181  0.53066  Biso   1.000  C
  C55      1.0000 0.50790  0.55330  0.84089  Biso   1.000  C
  C56      1.0000 0.69892  0.49614  0.07238  Biso   1.000  C
  C57      1.0000 0.46049  0.30201  0.00955  Biso   1.000  C
  C58      1.0000 0.01251  0.54127  0.70065  Biso   1.000  C
  C59      1.0000 0.19865  0.49398  0.46035  Biso   1.000  C
  C60      1.0000 0.95875  0.30612  0.51728  Biso   1.000  C
  C61      1.0000 0.01633  0.94049  0.20075  Biso   1.000  C
  C62      1.0000 0.19744  0.99355  0.96931  Biso   1.000  C
  C63      1.0000 0.96051  0.17225  0.01692  Biso   1.000  C
  C64      1.0000 0.51761  0.92669  0.34177  Biso   1.000  C
  C65      1.0000 0.69805  0.98338  0.57512  Biso   1.000  C
  C66      1.0000 0.46545  0.17327  0.50126  Biso   1.000  C
  C67      1.0000 0.52290  0.42191  0.19508  Biso   1.000  C
  C68      1.0000 0.33568  0.48265  0.95657  Biso   1.000  C
  C69      1.0000 0.56321  0.66986  0.03435  Biso   1.000  C
  C70      1.0000 0.01687  0.43876  0.33560  Biso   1.000  C
  C71      1.0000 0.82307  0.48024  0.56759  Biso   1.000  C
  C72      1.0000 0.06696  0.67644  0.52510  Biso   1.000  C
  C73      1.0000 0.01962  0.54774  0.33761  Biso   1.000  C
  C74      1.0000 0.33029  0.99556  0.57766  Biso   1.000  C
  C75      1.0000 0.57143  0.30199  0.01235  Biso   1.000  C
  C76      1.0000 0.50932  0.52998  0.20374  Biso   1.000  C
  C77      1.0000 0.83344  0.00174  0.96444  Biso   1.000  C
  C78      1.0000 0.07090  0.31449  0.52442  Biso   1.000  C
  C79      1.0000 0.51949  0.03466  0.33686  Biso   1.000  C
  C80      1.0000 0.19241  0.50194  0.56910  Biso   1.000  C
  C81      1.0000 0.94997  0.81280  0.01573  Biso   1.000  C
  C82      1.0000 0.01167  0.04925  0.20469  Biso   1.000  C
  C83      1.0000 0.69716  0.48635  0.96205  Biso   1.000  C
  C84      1.0000 0.45827  0.81095  0.52516  Biso   1.000  C
  C85      1.0000 0.00497  0.43301  0.69600  Biso   1.000  C
  C86      1.0000 0.70206  0.99043  0.46467  Biso   1.000  C
  C87      1.0000 0.45452  0.66784  0.02247  Biso   1.000  C
  C88      1.0000 0.51138  0.44105  0.83519  Biso   1.000  C
  C89      1.0000 0.19469  0.98260  0.07839  Biso   1.000  C
  C90      1.0000 0.95860  0.66663  0.52011  Biso   1.000  C
  C91      1.0000 0.50504  0.94624  0.70529  Biso   1.000  C
  C92      1.0000 0.83622  0.48853  0.46039  Biso   1.000  C
  C93      1.0000 0.07078  0.17057  0.02135  Biso   1.000  C
  C94      1.0000 0.01405  0.93811  0.83627  Biso   1.000  C
  C95      1.0000 0.33345  0.49214  0.06554  Biso   1.000  C
  C96      1.0000 0.57132  0.17297  0.52633  Biso   1.000  C
  C97      1.0000 0.69810  0.07334  0.52172  Biso   1.000  C
  C98      1.0000 0.49874  0.66104  0.11336  Biso   1.000  C
  C99      1.0000 0.09299  0.48244  0.69406  Biso   1.000  C
  C100     1.0000 0.19716  0.07329  0.02838  Biso   1.000  C
  C101     1.0000 0.00871  0.67259  0.43265  Biso   1.000  C
  C102     1.0000 0.59883  0.49251  0.83449  Biso   1.000  C
  C103     1.0000 0.83147  0.56991  0.51125  Biso   1.000  C
  C104     1.0000 0.01603  0.17609  0.10792  Biso   1.000  C
  C105     1.0000 0.42434  0.00205  0.70310  Biso   1.000  C
  C106     1.0000 0.33296  0.57013  0.00812  Biso   1.000  C
  C107     1.0000 0.54366  0.16589  0.42762  Biso   1.000  C
  C108     1.0000 0.92755  0.99650  0.83798  Biso   1.000  C
  C109     1.0000 0.33253  0.91285  0.51578  Biso   1.000  C
  C110     1.0000 0.51208  0.30877  0.92352  Biso   1.000  C
  C111     1.0000 0.93245  0.49657  0.33774  Biso   1.000  C
  C112     1.0000 0.82455  0.90760  0.00702  Biso   1.000  C
  C113     1.0000 0.01122  0.30680  0.60543  Biso   1.000  C
  C114     1.0000 0.43115  0.47345  0.19284  Biso   1.000  C
  C115     1.0000 0.19697  0.41190  0.50945  Biso   1.000  C
  C116     1.0000 0.01478  0.81109  0.93299  Biso   1.000  C
  C117     1.0000 0.60558  0.98209  0.33804  Biso   1.000  C
  C118     1.0000 0.69398  0.40545  0.03149  Biso   1.000  C
  C119     1.0000 0.51556  0.81539  0.61691  Biso   1.000  C
  C120     1.0000 0.10105  0.99269  0.20578  Biso   1.000  C
  C121     1.0000 0.83426  0.98166  0.10341  Biso   1.000  C
  C122     1.0000 0.09209  0.81436  0.01640  Biso   1.000  C
  C123     1.0000 0.01616  0.07517  0.84050  Biso   1.000  C
  C124     1.0000 0.34068  0.00126  0.43426  Biso   1.000  C
  C125     1.0000 0.59736  0.81008  0.52934  Biso   1.000  C
  C126     1.0000 0.51321  0.08800  0.69728  Biso   1.000  C
  C127     1.0000 0.69862  0.49445  0.10529  Biso   1.000  C
  C128     1.0000 0.42840  0.30391  0.01179  Biso   1.000  C
  C129     1.0000 0.50112  0.58478  0.84176  Biso   1.000  C
  C130     1.0000 0.19870  0.49693  0.42781  Biso   1.000  C
  C131     1.0000 0.92725  0.30719  0.52376  Biso   1.000  C
  C132     1.0000 0.00938  0.57310  0.70205  Biso   1.000  C
  C133     1.0000 0.19902  0.99906  0.93743  Biso   1.000  C
  C134     1.0000 0.92889  0.17234  0.01644  Biso   1.000  C
  C135     1.0000 0.01468  0.90888  0.19971  Biso   1.000  C
  C136     1.0000 0.69368  0.98248  0.60718  Biso   1.000  C
  C137     1.0000 0.43305  0.17573  0.50468  Biso   1.000  C
  C138     1.0000 0.51214  0.89551  0.34184  Biso   1.000  C
  C139     1.0000 0.33460  0.48425  0.92382  Biso   1.000  C
  C140     1.0000 0.59488  0.67034  0.03710  Biso   1.000  C
  C141     1.0000 0.52681  0.39069  0.19399  Biso   1.000  C
  C142     1.0000 0.82246  0.48110  0.60033  Biso   1.000  C
  C143     1.0000 0.09976  0.67911  0.52266  Biso   1.000  C
  C144     1.0000 0.01575  0.40653  0.33613  Biso   1.000  C
  C145     1.0000 0.33411  0.49325  0.09860  Biso   1.000  C
  C146     1.0000 0.10214  0.31637  0.52356  Biso   1.000  C
  C147     1.0000 0.52752  0.06590  0.33707  Biso   1.000  C
  C148     1.0000 0.83794  0.48820  0.42981  Biso   1.000  C
  C149     1.0000 0.60249  0.30413  0.01394  Biso   1.000  C
  C150     1.0000 0.00827  0.08125  0.20510  Biso   1.000  C
  C151     1.0000 0.19654  0.98263  0.11111  Biso   1.000  C
  C152     1.0000 0.42579  0.81256  0.51916  Biso   1.000  C
  C153     1.0000 0.02217  0.58102  0.33661  Biso   1.000  C
  C154     1.0000 0.70182  0.99419  0.43096  Biso   1.000  C
  C155     1.0000 0.91745  0.81060  0.01254  Biso   1.000  C
  C156     1.0000 0.50640  0.56305  0.20625  Biso   1.000  C
  C157     1.0000 0.69453  0.48551  0.93017  Biso   1.000  C
  C158     1.0000 0.92650  0.66583  0.51993  Biso   1.000  C
  C159     1.0000 0.50592  0.91485  0.70769  Biso   1.000  C
  C160     1.0000 0.18978  0.49551  0.60171  Biso   1.000  C
  C161     1.0000 0.42139  0.66766  0.01796  Biso   1.000  C
  C162     1.0000 0.01224  0.90616  0.83457  Biso   1.000  C
  C163     1.0000 0.83405  0.00811  0.93247  Biso   1.000  C
  C164     1.0000 0.60294  0.17066  0.52671  Biso   1.000  C
  C165     1.0000 0.01073  0.40122  0.69794  Biso   1.000  C
  C166     1.0000 0.32873  0.99404  0.60935  Biso   1.000  C
  C167     1.0000 0.10239  0.17010  0.01828  Biso   1.000  C
  C168     1.0000 0.50511  0.40934  0.83346  Biso   1.000  C
  C169     1.0000 0.00771  0.81086  0.10849  Biso   1.000  C
  C170     1.0000 0.10246  0.98983  0.84394  Biso   1.000  C
  C171     1.0000 0.83430  0.07847  0.03078  Biso   1.000  C
  C172     1.0000 0.51307  0.80650  0.44613  Biso   1.000  C
  C173     1.0000 0.59467  0.98816  0.69996  Biso   1.000  C
  C174     1.0000 0.33881  0.08672  0.52565  Biso   1.000  C
  C175     1.0000 0.51516  0.29534  0.09568  Biso   1.000  C
  C176     1.0000 0.42754  0.49338  0.82967  Biso   1.000  C
  C177     1.0000 0.69344  0.57860  0.01853  Biso   1.000  C
  C178     1.0000 0.02120  0.31499  0.43408  Biso   1.000  C
  C179     1.0000 0.92022  0.49580  0.69189  Biso   1.000  C
  C180     1.0000 0.19653  0.58578  0.50590  Biso   1.000  C
  C181     1.0000 0.01771  0.17115  0.93515  Biso   1.000  C
  C182     1.0000 0.92971  0.98703  0.20082  Biso   1.000  C
  C183     1.0000 0.19367  0.90355  0.01825  Biso   1.000  C
  C184     1.0000 0.50449  0.17320  0.59489  Biso   1.000  C
  C185     1.0000 0.43294  0.97985  0.33868  Biso   1.000  C
  C186     1.0000 0.69787  0.89937  0.51565  Biso   1.000  C
  C187     1.0000 0.50858  0.67358  0.93937  Biso   1.000  C
  C188     1.0000 0.60455  0.48511  0.20069  Biso   1.000  C
  C189     1.0000 0.33592  0.40001  0.01472  Biso   1.000  C
  C190     1.0000 0.01026  0.66786  0.60781  Biso   1.000  C
  C191     1.0000 0.10533  0.49090  0.33362  Biso   1.000  C
  C192     1.0000 0.83128  0.39983  0.51077  Biso   1.000  C
  C193     1.0000 0.86208  0.00345  0.91775  Biso   1.000  C
  C194     1.0000 0.90295  0.83732  0.00985  Biso   1.000  C
  C195     1.0000 0.01401  0.88963  0.86202  Biso   1.000  C
  C196     1.0000 0.35459  0.00248  0.62602  Biso   1.000  C
  C197     1.0000 0.41027  0.84096  0.52023  Biso   1.000  C
  C198     1.0000 0.50866  0.89779  0.68097  Biso   1.000  C
  C199     1.0000 0.66680  0.49081  0.91413  Biso   1.000  C
  C200     1.0000 0.61781  0.33317  0.01723  Biso   1.000  C
  C201     1.0000 0.50866  0.39124  0.85963  Biso   1.000  C
  C202     1.0000 0.16237  0.49438  0.61664  Biso   1.000  C
  C203     1.0000 0.11796  0.34350  0.52156  Biso   1.000  C
  C204     1.0000 0.01380  0.38320  0.67172  Biso   1.000  C
  C205     1.0000 0.17032  0.98818  0.12723  Biso   1.000  C
  C206     1.0000 0.11736  0.14231  0.02332  Biso   1.000  C
  C207     1.0000 0.00797  0.09638  0.17746  Biso   1.000  C
  C208     1.0000 0.67476  0.99091  0.41564  Biso   1.000  C
  C209     1.0000 0.62018  0.14357  0.52996  Biso   1.000  C
  C210     1.0000 0.53241  0.08242  0.36357  Biso   1.000  C
  C211     1.0000 0.36183  0.49251  0.11362  Biso   1.000  C
  C212     1.0000 0.40619  0.63892  0.01664  Biso   1.000  C
  C213     1.0000 0.50062  0.58159  0.18182  Biso   1.000  C
  C214     1.0000 0.86517  0.49105  0.41528  Biso   1.000  C
  C215     1.0000 0.91072  0.63774  0.52163  Biso   1.000  C
  C216     1.0000 0.01755  0.59566  0.36402  Biso   1.000  C
  C217     1.0000 0.11783  0.99216  0.87259  Biso   1.000  C
  C218     1.0000 0.86131  0.09354  0.03045  Biso   1.000  C
  C219     1.0000 0.00741  0.83913  0.12292  Biso   1.000  C
  C220     1.0000 0.61140  0.98761  0.67355  Biso   1.000  C
  C221     1.0000 0.36552  0.10129  0.51928  Biso   1.000  C
  C222     1.0000 0.51379  0.83272  0.42655  Biso   1.000  C
  C223     1.0000 0.40975  0.49418  0.85680  Biso   1.000  C
  C224     1.0000 0.66558  0.59400  0.02322  Biso   1.000  C
  C225     1.0000 0.51707  0.32290  0.11133  Biso   1.000  C
  C226     1.0000 0.90434  0.49243  0.66637  Biso   1.000  C
  C227     1.0000 0.16921  0.60105  0.50829  Biso   1.000  C
  C228     1.0000 0.01983  0.34183  0.41591  Biso   1.000  C
  C229     1.0000 0.91511  0.98359  0.17281  Biso   1.000  C
  C230     1.0000 0.16582  0.89008  0.01720  Biso   1.000  C
  C231     1.0000 0.01475  0.14517  0.91790  Biso   1.000  C
  C232     1.0000 0.41803  0.98279  0.36680  Biso   1.000  C
  C233     1.0000 0.66998  0.88349  0.52082  Biso   1.000  C
  C234     1.0000 0.50471  0.14747  0.61257  Biso   1.000  C
  C235     1.0000 0.61993  0.48611  0.17281  Biso   1.000  C
  C236     1.0000 0.36360  0.38337  0.01410  Biso   1.000  C
  C237     1.0000 0.50752  0.64835  0.92296  Biso   1.000  C
  C238     1.0000 0.12329  0.49139  0.36035  Biso   1.000  C
  C239     1.0000 0.85963  0.38494  0.51348  Biso   1.000  C
  C240     1.0000 0.01289  0.64143  0.62366  Biso   1.000  C
  C241     1.0000 0.61497  0.49493  0.86067  Biso   1.000  C
  C242     1.0000 0.85931  0.58474  0.51646  Biso   1.000  C
  C243     1.0000 0.51445  0.84314  0.63172  Biso   1.000  C
  C244     1.0000 0.10942  0.48433  0.66802  Biso   1.000  C
  C245     1.0000 0.35902  0.58603  0.01108  Biso   1.000  C
  C246     1.0000 0.01597  0.83870  0.91627  Biso   1.000  C
  C247     1.0000 0.91119  0.99762  0.86501  Biso   1.000  C
  C248     1.0000 0.67050  0.09112  0.52490  Biso   1.000  C
  C249     1.0000 0.01266  0.33325  0.62220  Biso   1.000  C
  C250     1.0000 0.40725  0.00385  0.67665  Biso   1.000  C
  C251     1.0000 0.16948  0.09032  0.02508  Biso   1.000  C
  C252     1.0000 0.51093  0.33730  0.91025  Biso   1.000  C
  C253     1.0000 0.41522  0.48029  0.16650  Biso   1.000  C
  C254     1.0000 0.16985  0.39603  0.51049  Biso   1.000  C
  C255     1.0000 0.53901  0.13730  0.41372  Biso   1.000  C
  C256     1.0000 0.91560  0.49645  0.36489  Biso   1.000  C
  C257     1.0000 0.66798  0.38907  0.02669  Biso   1.000  C
  C258     1.0000 0.01098  0.14935  0.12281  Biso   1.000  C
  C259     1.0000 0.11737  0.98986  0.17861  Biso   1.000  C
  C260     1.0000 0.35872  0.89552  0.51726  Biso   1.000  C
  C261     1.0000 0.01050  0.64640  0.41543  Biso   1.000  C
  C262     1.0000 0.62334  0.98253  0.36505  Biso   1.000  C
  C263     1.0000 0.85091  0.89060  0.00497  Biso   1.000  C
  C264     1.0000 0.50168  0.63367  0.13110  Biso   1.000  C
  C265     1.0000 0.01387  0.09183  0.86775  Biso   1.000  C
  C266     1.0000 0.86169  0.98130  0.11916  Biso   1.000  C
  C267     1.0000 0.10972  0.84085  0.01828  Biso   1.000  C
  C268     1.0000 0.51164  0.10185  0.66873  Biso   1.000  C
  C269     1.0000 0.36600  0.99278  0.41938  Biso   1.000  C
  C270     1.0000 0.61587  0.83636  0.52691  Biso   1.000  C
  C271     1.0000 0.50356  0.59917  0.87074  Biso   1.000  C
  C272     1.0000 0.67122  0.49525  0.12060  Biso   1.000  C
  C273     1.0000 0.41329  0.33068  0.01406  Biso   1.000  C
  C274     1.0000 0.01016  0.58964  0.67567  Biso   1.000  C
  C275     1.0000 0.17254  0.49475  0.41003  Biso   1.000  C
  C276     1.0000 0.91142  0.33446  0.51966  Biso   1.000  C
  C277     1.0000 0.01018  0.89313  0.17320  Biso   1.000  C
  C278     1.0000 0.17089  0.00034  0.92199  Biso   1.000  C
  C279     1.0000 0.91463  0.14356  0.01860  Biso   1.000  C
  C280     1.0000 0.50906  0.88118  0.37067  Biso   1.000  C
  C281     1.0000 0.66636  0.98423  0.62282  Biso   1.000  C
  C282     1.0000 0.41702  0.14859  0.50798  Biso   1.000  C
  C283     1.0000 0.52138  0.37659  0.16694  Biso   1.000  C
  C284     1.0000 0.36075  0.48993  0.90704  Biso   1.000  C
  C285     1.0000 0.61155  0.64422  0.03085  Biso   1.000  C
  C286     1.0000 0.01473  0.39133  0.36325  Biso   1.000  C
  C287     1.0000 0.85010  0.48224  0.61589  Biso   1.000  C
  C288     1.0000 0.11515  0.65275  0.52074  Biso   1.000  C
  C289     1.0000 0.35661  0.86375  0.52038  Biso   1.000  C
  C290     1.0000 0.50910  0.33717  0.87821  Biso   1.000  C
  C291     1.0000 0.88412  0.49554  0.36279  Biso   1.000  C
  C292     1.0000 0.85038  0.85959  0.00502  Biso   1.000  C
  C293     1.0000 0.01363  0.33085  0.65417  Biso   1.000  C
  C294     1.0000 0.38322  0.48371  0.16616  Biso   1.000  C
  C295     1.0000 0.17003  0.36418  0.51238  Biso   1.000  C
  C296     1.0000 0.01610  0.83768  0.88378  Biso   1.000  C
  C297     1.0000 0.65454  0.98775  0.36171  Biso   1.000  C
  C298     1.0000 0.66790  0.35771  0.02636  Biso   1.000  C
  C299     1.0000 0.51144  0.84382  0.66247  Biso   1.000  C
  C300     1.0000 0.14864  0.98834  0.17961  Biso   1.000  C
  C301     1.0000 0.67240  0.12254  0.52804  Biso   1.000  C
  C302     1.0000 0.50210  0.63396  0.16195  Biso   1.000  C
  C303     1.0000 0.14060  0.48726  0.66956  Biso   1.000  C
  C304     1.0000 0.17074  0.12161  0.02614  Biso   1.000  C
  C305     1.0000 0.01632  0.64785  0.38501  Biso   1.000  C
  C306     1.0000 0.64639  0.49425  0.86053  Biso   1.000  C
  C307     1.0000 0.85860  0.61615  0.51531  Biso   1.000  C
  C308     1.0000 0.01051  0.15068  0.15461  Biso   1.000  C
  C309     1.0000 0.37584  0.99848  0.67923  Biso   1.000  C
  C310     1.0000 0.35456  0.61751  0.01452  Biso   1.000  C
  C311     1.0000 0.53835  0.13702  0.38131  Biso   1.000  C
  C312     1.0000 0.88120  0.99787  0.86435  Biso   1.000  C
  C313     1.0000 0.17392  0.49702  0.37853  Biso   1.000  C
  C314     1.0000 0.38704  0.15264  0.51338  Biso   1.000  C
  C315     1.0000 0.52425  0.34605  0.16606  Biso   1.000  C
  C316     1.0000 0.67265  0.49135  0.15208  Biso   1.000  C
  C317     1.0000 0.88202  0.14420  0.02185  Biso   1.000  C
  C318     1.0000 0.01702  0.36074  0.36223  Biso   1.000  C
  C319     1.0000 0.36592  0.99472  0.38789  Biso   1.000  C
  C320     1.0000 0.14757  0.65249  0.51563  Biso   1.000  C
  C321     1.0000 0.00922  0.86207  0.17488  Biso   1.000  C
  C322     1.0000 0.86258  0.98508  0.15017  Biso   1.000  C
  C323     1.0000 0.64209  0.64655  0.02621  Biso   1.000  C
  C324     1.0000 0.51203  0.85103  0.37199  Biso   1.000  C
  C325     1.0000 0.85106  0.48961  0.64603  Biso   1.000  C
  C326     1.0000 0.64734  0.83295  0.52624  Biso   1.000  C
  C327     1.0000 0.50605  0.63043  0.86993  Biso   1.000  C
  C328     1.0000 0.35782  0.48983  0.87548  Biso   1.000  C
  C329     1.0000 0.14167  0.83779  0.01656  Biso   1.000  C
  C330     1.0000 0.00938  0.62123  0.67641  Biso   1.000  C
  C331     1.0000 0.66501  0.98437  0.65389  Biso   1.000  C
  C332     1.0000 0.87974  0.33314  0.52128  Biso   1.000  C
  C333     1.0000 0.01858  0.12294  0.86641  Biso   1.000  C
  C334     1.0000 0.17214  0.99434  0.89190  Biso   1.000  C
  C335     1.0000 0.38225  0.32981  0.01424  Biso   1.000  C
  C336     1.0000 0.50862  0.13298  0.66699  Biso   1.000  C
  C337     1.0000 0.66723  0.49192  0.88303  Biso   1.000  C
  C338     1.0000 0.87900  0.63898  0.51707  Biso   1.000  C
  C339     1.0000 0.50802  0.86659  0.68257  Biso   1.000  C
  C340     1.0000 0.16264  0.49022  0.64871  Biso   1.000  C
  C341     1.0000 0.37489  0.63955  0.01593  Biso   1.000  C
  C342     1.0000 0.01343  0.85776  0.86145  Biso   1.000  C
  C343     1.0000 0.85982  0.00134  0.88560  Biso   1.000  C
  C344     1.0000 0.65104  0.14418  0.52883  Biso   1.000  C
  C345     1.0000 0.01343  0.35171  0.67553  Biso   1.000  C
  C346     1.0000 0.35491  0.99752  0.65702  Biso   1.000  C
  C347     1.0000 0.14946  0.14350  0.02328  Biso   1.000  C
  C348     1.0000 0.50729  0.36039  0.85855  Biso   1.000  C
  C349     1.0000 0.36127  0.48852  0.14523  Biso   1.000  C
  C350     1.0000 0.14965  0.34250  0.51753  Biso   1.000  C
  C351     1.0000 0.53510  0.11448  0.36037  Biso   1.000  C
  C352     1.0000 0.86274  0.49339  0.38451  Biso   1.000  C
  C353     1.0000 0.64823  0.33478  0.02202  Biso   1.000  C
  C354     1.0000 0.00855  0.12829  0.17682  Biso   1.000  C
  C355     1.0000 0.17022  0.98634  0.15810  Biso   1.000  C
  C356     1.0000 0.37824  0.84230  0.52178  Biso   1.000  C
  C357     1.0000 0.01963  0.62667  0.36325  Biso   1.000  C
  C358     1.0000 0.67577  0.99103  0.38374  Biso   1.000  C
  C359     1.0000 0.87213  0.83647  0.00747  Biso   1.000  C
  C360     1.0000 0.50137  0.61270  0.18369  Biso   1.000  C
  C361     1.0000 0.01795  0.14515  0.88732  Biso   1.000  C
  C362     1.0000 0.88390  0.98632  0.17251  Biso   1.000  C
  C363     1.0000 0.16407  0.85802  0.01534  Biso   1.000  C
  C364     1.0000 0.50758  0.15300  0.64444  Biso   1.000  C
  C365     1.0000 0.38696  0.98951  0.36581  Biso   1.000  C
  C366     1.0000 0.67041  0.85300  0.52500  Biso   1.000  C
  C367     1.0000 0.50887  0.65092  0.89201  Biso   1.000  C
  C368     1.0000 0.65094  0.48886  0.17360  Biso   1.000  C
  C369     1.0000 0.36151  0.35219  0.01287  Biso   1.000  C
  C370     1.0000 0.01117  0.64198  0.65423  Biso   1.000  C
  C371     1.0000 0.15308  0.49604  0.35770  Biso   1.000  C
  C372     1.0000 0.85847  0.35400  0.51827  Biso   1.000  C
  C373     1.0000 0.00920  0.84032  0.15333  Biso   1.000  C
  C374     1.0000 0.14974  0.99129  0.86995  Biso   1.000  C
  C375     1.0000 0.85898  0.12403  0.02491  Biso   1.000  C
  C376     1.0000 0.51177  0.83020  0.39556  Biso   1.000  C
  C377     1.0000 0.64307  0.98516  0.67487  Biso   1.000  C
  C378     1.0000 0.36506  0.13250  0.51732  Biso   1.000  C
  C379     1.0000 0.52164  0.32469  0.14361  Biso   1.000  C
  C380     1.0000 0.37862  0.48973  0.85406  Biso   1.000  C
  C381     1.0000 0.66411  0.62556  0.02175  Biso   1.000  C
  C382     1.0000 0.01762  0.33935  0.38463  Biso   1.000  C
  C383     1.0000 0.87234  0.49191  0.66779  Biso   1.000  C
  C384     1.0000 0.16917  0.63112  0.51144  Biso   1.000  C
  C385     1.0000 0.19880  0.13666  0.02275  Biso   1.000  C
  C386     1.0000 0.01387  0.17690  0.17060  Biso   1.000  C
  C387     1.0000 0.16430  0.98675  0.20679  Biso   1.000  C
  C388     1.0000 0.69852  0.13796  0.52682  Biso   1.000  C
  C389     1.0000 0.54305  0.16279  0.36323  Biso   1.000  C
  C390     1.0000 0.66899  0.99141  0.33478  Biso   1.000  C
  C391     1.0000 0.32698  0.63188  0.01669  Biso   1.000  C
  C392     1.0000 0.50017  0.66122  0.17839  Biso   1.000  C
  C393     1.0000 0.36914  0.47941  0.19291  Biso   1.000  C
  C394     1.0000 0.83210  0.63172  0.50934  Biso   1.000  C
  C395     1.0000 0.01935  0.67503  0.37106  Biso   1.000  C
  C396     1.0000 0.86907  0.49445  0.33545  Biso   1.000  C
  C397     1.0000 0.82298  0.84440  0.00488  Biso   1.000  C
  C398     1.0000 0.01604  0.81100  0.86889  Biso   1.000  C
  C399     1.0000 0.86485  0.99694  0.83732  Biso   1.000  C
  C400     1.0000 0.32958  0.84836  0.52240  Biso   1.000  C
  C401     1.0000 0.50921  0.81806  0.67973  Biso   1.000  C
  C402     1.0000 0.36109  0.99240  0.70659  Biso   1.000  C
  C403     1.0000 0.69505  0.34291  0.03199  Biso   1.000  C
  C404     1.0000 0.50564  0.31263  0.86135  Biso   1.000  C
  C405     1.0000 0.66108  0.49303  0.83312  Biso   1.000  C
  C406     1.0000 0.19766  0.34885  0.51086  Biso   1.000  C
  C407     1.0000 0.01454  0.30490  0.66950  Biso   1.000  C
  C408     1.0000 0.15651  0.48711  0.69638  Biso   1.000  C
  C409     1.0000 0.16552  0.98691  0.84426  Biso   1.000  C
  C410     1.0000 0.83265  0.14050  0.02399  Biso   1.000  C
  C411     1.0000 0.00969  0.81318  0.17110  Biso   1.000  C
  C412     1.0000 0.65784  0.98652  0.70270  Biso   1.000  C
  C413     1.0000 0.33905  0.14746  0.52057  Biso   1.000  C
  C414     1.0000 0.51235  0.80241  0.38240  Biso   1.000  C
  C415     1.0000 0.36526  0.48700  0.82715  Biso   1.000  C
  C416     1.0000 0.69001  0.64242  0.01785  Biso   1.000  C
  C417     1.0000 0.52617  0.29701  0.15786  Biso   1.000  C
  C418     1.0000 0.85719  0.49783  0.69461  Biso   1.000  C
  C419     1.0000 0.19469  0.64772  0.51050  Biso   1.000  C
  C420     1.0000 0.02114  0.31315  0.36981  Biso   1.000  C
  C421     1.0000 0.86789  0.98695  0.19903  Biso   1.000  C
  C422     1.0000 0.19076  0.84151  0.01533  Biso   1.000  C
  C423     1.0000 0.02110  0.17155  0.87234  Biso   1.000  C
  C424     1.0000 0.37050  0.98940  0.33985  Biso   1.000  C
  C425     1.0000 0.69634  0.83665  0.52498  Biso   1.000  C
  C426     1.0000 0.50622  0.18121  0.65686  Biso   1.000  C
  C427     1.0000 0.66728  0.49051  0.20148  Biso   1.000  C
  C428     1.0000 0.33444  0.33713  0.01208  Biso   1.000  C
  C429     1.0000 0.50893  0.67862  0.87802  Biso   1.000  C
  C430     1.0000 0.16913  0.49785  0.33051  Biso   1.000  C
  C431     1.0000 0.83110  0.33826  0.52063  Biso   1.000  C
  C432     1.0000 0.00782  0.66809  0.67014  Biso   1.000  C
  C433     1.0000 0.02329  0.13876  0.84061  Biso   1.000  C
  C434     1.0000 0.83496  0.98797  0.16642  Biso   1.000  C
  C435     1.0000 0.15656  0.80975  0.01399  Biso   1.000  C
  C436     1.0000 0.50745  0.15091  0.69300  Biso   1.000  C
  C437     1.0000 0.33941  0.99993  0.37250  Biso   1.000  C
  C438     1.0000 0.66306  0.80551  0.52604  Biso   1.000  C
  C439     1.0000 0.50504  0.64740  0.84307  Biso   1.000  C
  C440     1.0000 0.70004  0.49260  0.16728  Biso   1.000  C
  C441     1.0000 0.36621  0.30250  0.01117  Biso   1.000  C
  C442     1.0000 0.00709  0.63661  0.70363  Biso   1.000  C
  C443     1.0000 0.20195  0.49928  0.36320  Biso   1.000  C
  C444     1.0000 0.86461  0.30610  0.52585  Biso   1.000  C
  C445     1.0000 0.01334  0.84709  0.20183  Biso   1.000  C
  C446     1.0000 0.19943  0.99285  0.87591  Biso   1.000  C
  C447     1.0000 0.86722  0.17173  0.01885  Biso   1.000  C
  C448     1.0000 0.51435  0.83263  0.34674  Biso   1.000  C
  C449     1.0000 0.69081  0.98467  0.67071  Biso   1.000  C
  C450     1.0000 0.37226  0.17940  0.51506  Biso   1.000  C
  C451     1.0000 0.53202  0.32848  0.19120  Biso   1.000  C
  C452     1.0000 0.33125  0.48734  0.86036  Biso   1.000  C
  C453     1.0000 0.65653  0.67410  0.02573  Biso   1.000  C
  C454     1.0000 0.02048  0.34541  0.33554  Biso   1.000  C
  C455     1.0000 0.82439  0.49609  0.66192  Biso   1.000  C
  C456     1.0000 0.16289  0.67934  0.51441  Biso   1.000  C
  C457     1.0000 0.02597  0.64368  0.33812  Biso   1.000  C
  C458     1.0000 0.32860  0.98904  0.67212  Biso   1.000  C
  C459     1.0000 0.66515  0.30856  0.02386  Biso   1.000  C
  C460     1.0000 0.50278  0.62683  0.21101  Biso   1.000  C
  C461     1.0000 0.83172  0.00360  0.86998  Biso   1.000  C
  C462     1.0000 0.16582  0.31582  0.51643  Biso   1.000  C
  C463     1.0000 0.53822  0.12886  0.33210  Biso   1.000  C
  C464     1.0000 0.18946  0.48948  0.66491  Biso   1.000  C
  C465     1.0000 0.85491  0.81064  0.01146  Biso   1.000  C
  C466     1.0000 0.00937  0.14543  0.20271  Biso   1.000  C
  C467     1.0000 0.69331  0.49139  0.86669  Biso   1.000  C
  C468     1.0000 0.36328  0.81529  0.52467  Biso   1.000  C
  C469     1.0000 0.01191  0.33683  0.70256  Biso   1.000  C
  C470     1.0000 0.70106  0.99592  0.36877  Biso   1.000  C
  C471     1.0000 0.35690  0.66600  0.02001  Biso   1.000  C
  C472     1.0000 0.50037  0.34763  0.83173  Biso   1.000  C
  C473     1.0000 0.19814  0.98244  0.17429  Biso   1.000  C
  C474     1.0000 0.86335  0.66542  0.51389  Biso   1.000  C
  C475     1.0000 0.50248  0.85296  0.70973  Biso   1.000  C
  C476     1.0000 0.83668  0.49415  0.36854  Biso   1.000  C
  C477     1.0000 0.16557  0.16902  0.01759  Biso   1.000  C
  C478     1.0000 0.01268  0.84267  0.83450  Biso   1.000  C
  C479     1.0000 0.33581  0.48844  0.16295  Biso   1.000  C
  C480     1.0000 0.66582  0.17062  0.52653  Biso   1.000  C
  C481     1.0000 0.37888  0.78783  0.52508  Biso   1.000  C
  C482     1.0000 0.49481  0.36468  0.80567  Biso   1.000  C
  C483     1.0000 0.80932  0.49016  0.38489  Biso   1.000  C
  C484     1.0000 0.86874  0.78350  0.01500  Biso   1.000  C
  C485     1.0000 0.00851  0.35533  0.72797  Biso   1.000  C
  C486     1.0000 0.30903  0.49451  0.14793  Biso   1.000  C
  C487     1.0000 0.15112  0.28918  0.52225  Biso   1.000  C
  C488     1.0000 0.01111  0.85947  0.80775  Biso   1.000  C
  C489     1.0000 0.72811  0.00012  0.38479  Biso   1.000  C
  C490     1.0000 0.64993  0.28019  0.02380  Biso   1.000  C
  C491     1.0000 0.50018  0.86965  0.73741  Biso   1.000  C
  C492     1.0000 0.22455  0.97826  0.15921  Biso   1.000  C
  C493     1.0000 0.64932  0.19831  0.52688  Biso   1.000  C
  C494     1.0000 0.50501  0.60721  0.23705  Biso   1.000  C
  C495     1.0000 0.21694  0.48739  0.64851  Biso   1.000  C
  C496     1.0000 0.15052  0.19635  0.01327  Biso   1.000  C
  C497     1.0000 0.02900  0.62923  0.31062  Biso   1.000  C
  C498     1.0000 0.72071  0.48776  0.88287  Biso   1.000  C
  C499     1.0000 0.87930  0.69266  0.51566  Biso   1.000  C
  C500     1.0000 0.00386  0.13032  0.22974  Biso   1.000  C
  C501     1.0000 0.30196  0.98371  0.65731  Biso   1.000  C
  C502     1.0000 0.37343  0.69201  0.02512  Biso   1.000  C
  C503     1.0000 0.53563  0.11208  0.30550  Biso   1.000  C
  C504     1.0000 0.80499  0.00722  0.88540  Biso   1.000  C
  C505     1.0000 0.64486  0.48966  0.80620  Biso   1.000  C
  C506     1.0000 0.80490  0.61652  0.50398  Biso   1.000  C
  C507     1.0000 0.51167  0.78974  0.66616  Biso   1.000  C
  C508     1.0000 0.14040  0.48689  0.72366  Biso   1.000  C
  C509     1.0000 0.30134  0.61449  0.01277  Biso   1.000  C
  C510     1.0000 0.01793  0.78255  0.88593  Biso   1.000  C
  C511     1.0000 0.88103  0.99673  0.80983  Biso   1.000  C
  C512     1.0000 0.72565  0.12274  0.52326  Biso   1.000  C
  C513     1.0000 0.01622  0.27799  0.65407  Biso   1.000  C
  C514     1.0000 0.37828  0.99244  0.73326  Biso   1.000  C
  C515     1.0000 0.22530  0.12076  0.02393  Biso   1.000  C
  C516     1.0000 0.51039  0.28452  0.87490  Biso   1.000  C
  C517     1.0000 0.38625  0.46816  0.21951  Biso   1.000  C
  C518     1.0000 0.22476  0.36415  0.50816  Biso   1.000  C
  C519     1.0000 0.55040  0.18907  0.37813  Biso   1.000  C
  C520     1.0000 0.88531  0.49689  0.30934  Biso   1.000  C
  C521     1.0000 0.72066  0.35912  0.03779  Biso   1.000  C
  C522     1.0000 0.01954  0.20283  0.15423  Biso   1.000  C
  C523     1.0000 0.14946  0.99041  0.23435  Biso   1.000  C
  C524     1.0000 0.30364  0.86687  0.51788  Biso   1.000  C
  C525     1.0000 0.01481  0.70150  0.38679  Biso   1.000  C
  C526     1.0000 0.65180  0.98772  0.30880  Biso   1.000  C
  C527     1.0000 0.79686  0.86167  0.00435  Biso   1.000  C
  C528     1.0000 0.49818  0.68831  0.16305  Biso   1.000  C
  C529     1.0000 0.80485  0.12417  0.02891  Biso   1.000  C
  C530     1.0000 0.00946  0.78581  0.15614  Biso   1.000  C
  C531     1.0000 0.15109  0.98234  0.81526  Biso   1.000  C
  C532     1.0000 0.31211  0.13303  0.53065  Biso   1.000  C
  C533     1.0000 0.51466  0.77619  0.40108  Biso   1.000  C
  C534     1.0000 0.64206  0.98510  0.72938  Biso   1.000  C
  C535     1.0000 0.71869  0.62691  0.01313  Biso   1.000  C
  C536     1.0000 0.52111  0.26913  0.14150  Biso   1.000  C
  C537     1.0000 0.38221  0.48930  0.80064  Biso   1.000  C
  C538     1.0000 0.22224  0.63305  0.50696  Biso   1.000  C
  C539     1.0000 0.02989  0.28757  0.38675  Biso   1.000  C
  C540     1.0000 0.87315  0.50597  0.71978  Biso   1.000  C
  C541     1.0000 0.21788  0.85479  0.01941  Biso   1.000  C
  C542     1.0000 0.02522  0.19858  0.88863  Biso   1.000  C
  C543     1.0000 0.88253  0.98423  0.22686  Biso   1.000  C
  C544     1.0000 0.72383  0.85000  0.51819  Biso   1.000  C
  C545     1.0000 0.50519  0.20583  0.63795  Biso   1.000  C
  C546     1.0000 0.38384  0.98211  0.31224  Biso   1.000  C
  C547     1.0000 0.30716  0.35204  0.01627  Biso   1.000  C
  C548     1.0000 0.50922  0.70474  0.89475  Biso   1.000  C
  C549     1.0000 0.65134  0.48968  0.22880  Biso   1.000  C
  C550     1.0000 0.80333  0.35359  0.51838  Biso   1.000  C
  C551     1.0000 0.00638  0.69554  0.65373  Biso   1.000  C
  C552     1.0000 0.15190  0.49888  0.30409  Biso   1.000  C
  C553     1.0000 0.02334  0.12218  0.81380  Biso   1.000  C
  C554     1.0000 0.80771  0.98762  0.15107  Biso   1.000  C
  C555     1.0000 0.13925  0.78433  0.01030  Biso   1.000  C
  C556     1.0000 0.51030  0.13734  0.72145  Biso   1.000  C
  C557     1.0000 0.31341  0.00930  0.38732  Biso   1.000  C
  C558     1.0000 0.64558  0.77927  0.52572  Biso   1.000  C
  C559     1.0000 0.49804  0.63302  0.81658  Biso   1.000  C
  C560     1.0000 0.72772  0.49135  0.15262  Biso   1.000  C
  C561     1.0000 0.38162  0.27582  0.00875  Biso   1.000  C
  C562     1.0000 0.00492  0.61835  0.73139  Biso   1.000  C
  C563     1.0000 0.22757  0.50172  0.38069  Biso   1.000  C
  C564     1.0000 0.87998  0.27904  0.53117  Biso   1.000  C
  C565     1.0000 0.01801  0.86247  0.22793  Biso   1.000  C
  C566     1.0000 0.22753  0.99621  0.89125  Biso   1.000  C
  C567     1.0000 0.88176  0.19852  0.01370  Biso   1.000  C
  C568     1.0000 0.51328  0.84547  0.31748  Biso   1.000  C
  C569     1.0000 0.71862  0.98541  0.65562  Biso   1.000  C
  C570     1.0000 0.38786  0.20650  0.51136  Biso   1.000  C
  C571     1.0000 0.54073  0.34383  0.21725  Biso   1.000  C
  C572     1.0000 0.30522  0.48237  0.87777  Biso   1.000  C
  C573     1.0000 0.64030  0.70075  0.03192  Biso   1.000  C
  C574     1.0000 0.01884  0.35957  0.30861  Biso   1.000  C
  C575     1.0000 0.79580  0.49555  0.64855  Biso   1.000  C
  C576     1.0000 0.14770  0.70681  0.52041  Biso   1.000  C
  C577     1.0000 0.30787  0.49539  0.11612  Biso   1.000  C
  C578     1.0000 0.11977  0.28898  0.52629  Biso   1.000  C
  C579     1.0000 0.53032  0.08067  0.30785  Biso   1.000  C
  C580     1.0000 0.80975  0.48551  0.41466  Biso   1.000  C
  C581     1.0000 0.61982  0.27733  0.01833  Biso   1.000  C
  C582     1.0000 0.00474  0.09831  0.23010  Biso   1.000  C
  C583     1.0000 0.22496  0.98045  0.12821  Biso   1.000  C
  C584     1.0000 0.40923  0.78577  0.52004  Biso   1.000  C
  C585     1.0000 0.02885  0.59741  0.31052  Biso   1.000  C
  C586     1.0000 0.72812  0.99834  0.41552  Biso   1.000  C
  C587     1.0000 0.90120  0.78345  0.01435  Biso   1.000  C
  C588     1.0000 0.50856  0.57559  0.23488  Biso   1.000  C
  C589     1.0000 0.72180  0.48453  0.91407  Biso   1.000  C
  C590     1.0000 0.91049  0.69286  0.51959  Biso   1.000  C
  C591     1.0000 0.50069  0.90032  0.73479  Biso   1.000  C
  C592     1.0000 0.21687  0.49209  0.61813  Biso   1.000  C
  C593     1.0000 0.40504  0.69396  0.02349  Biso   1.000  C
  C594     1.0000 0.00900  0.89086  0.80712  Biso   1.000  C
  C595     1.0000 0.80639  0.00904  0.91761  Biso   1.000  C
  C596     1.0000 0.61759  0.19789  0.52805  Biso   1.000  C
  C597     1.0000 0.00708  0.38660  0.72590  Biso   1.000  C
  C598     1.0000 0.30260  0.98656  0.62543  Biso   1.000  C
  C599     1.0000 0.11953  0.19562  0.01232  Biso   1.000  C
  C600     1.0000 0.49744  0.39518  0.80647  Biso   1.000  C
  C601     1.0000 0.22634  0.99791  0.92270  Biso   1.000  C
  C602     1.0000 0.91333  0.19881  0.01367  Biso   1.000  C
  C603     1.0000 0.01801  0.89416  0.22635  Biso   1.000  C
  C604     1.0000 0.72024  0.98286  0.62440  Biso   1.000  C
  C605     1.0000 0.41962  0.20482  0.50807  Biso   1.000  C
  C606     1.0000 0.51437  0.87756  0.31602  Biso   1.000  C
  C607     1.0000 0.30691  0.47989  0.90846  Biso   1.000  C
  C608     1.0000 0.61022  0.69918  0.03715  Biso   1.000  C
  C609     1.0000 0.53939  0.37499  0.21811  Biso   1.000  C
  C610     1.0000 0.79602  0.48883  0.61692  Biso   1.000  C
  C611     1.0000 0.11508  0.70516  0.52384  Biso   1.000  C
  C612     1.0000 0.01648  0.39092  0.30784  Biso   1.000  C
  C613     1.0000 0.80839  0.98528  0.11955  Biso   1.000  C
  C614     1.0000 0.10759  0.78655  0.01114  Biso   1.000  C
  C615     1.0000 0.01912  0.08954  0.81250  Biso   1.000  C
  C616     1.0000 0.31528  0.01138  0.41779  Biso   1.000  C
  C617     1.0000 0.61190  0.78063  0.52802  Biso   1.000  C
  C618     1.0000 0.51255  0.10615  0.72325  Biso   1.000  C
  C619     1.0000 0.72541  0.49244  0.12155  Biso   1.000  C
  C620     1.0000 0.41268  0.27665  0.00916  Biso   1.000  C
  C621     1.0000 0.49880  0.60163  0.81470  Biso   1.000  C
  C622     1.0000 0.22633  0.50135  0.41269  Biso   1.000  C
  C623     1.0000 0.91249  0.28010  0.53080  Biso   1.000  C
  C624     1.0000 0.00642  0.58709  0.72968  Biso   1.000  C
  C625     1.0000 0.02493  0.19897  0.92016  Biso   1.000  C
  C626     1.0000 0.91322  0.98540  0.22823  Biso   1.000  C
  C627     1.0000 0.21961  0.88646  0.02023  Biso   1.000  C
  C628     1.0000 0.50421  0.20125  0.60728  Biso   1.000  C
  C629     1.0000 0.41573  0.97996  0.31154  Biso   1.000  C
  C630     1.0000 0.72478  0.88198  0.51324  Biso   1.000  C
  C631     1.0000 0.51230  0.70144  0.92556  Biso   1.000  C
  C632     1.0000 0.62050  0.48498  0.22830  Biso   1.000  C
  C633     1.0000 0.30753  0.38349  0.01823  Biso   1.000  C
  C634     1.0000 0.00840  0.69538  0.62293  Biso   1.000  C
  C635     1.0000 0.12050  0.49439  0.30606  Biso   1.000  C
  C636     1.0000 0.80314  0.38501  0.51188  Biso   1.000  C
  C637     1.0000 0.01159  0.78417  0.12524  Biso   1.000  C
  C638     1.0000 0.11830  0.98290  0.81650  Biso   1.000  C
  C639     1.0000 0.80633  0.09291  0.03229  Biso   1.000  C
  C640     1.0000 0.51597  0.77730  0.43336  Biso   1.000  C
  C641     1.0000 0.60980  0.98649  0.72810  Biso   1.000  C
  C642     1.0000 0.31303  0.10190  0.53111  Biso   1.000  C
  C643     1.0000 0.51715  0.26742  0.11088  Biso   1.000  C
  C644     1.0000 0.41363  0.49067  0.80189  Biso   1.000  C
  C645     1.0000 0.72006  0.59490  0.01308  Biso   1.000  C
  C646     1.0000 0.02939  0.28873  0.41838  Biso   1.000  C
  C647     1.0000 0.90479  0.50343  0.71743  Biso   1.000  C
  C648     1.0000 0.22318  0.60275  0.50624  Biso   1.000  C
  C649     1.0000 0.01157  0.69972  0.41821  Biso   1.000  C
  C650     1.0000 0.41019  0.99702  0.73091  Biso   1.000  C
  C651     1.0000 0.72097  0.39022  0.03742  Biso   1.000  C
  C652     1.0000 0.49620  0.68882  0.12959  Biso   1.000  C
  C653     1.0000 0.91266  0.99731  0.80992  Biso   1.000  C
  C654     1.0000 0.22440  0.39594  0.50835  Biso   1.000  C
  C655     1.0000 0.54895  0.19073  0.40932  Biso   1.000  C
  C656     1.0000 0.10783  0.48326  0.72229  Biso   1.000  C
  C657     1.0000 0.79666  0.89391  0.00431  Biso   1.000  C
  C658     1.0000 0.02137  0.20281  0.12340  Biso   1.000  C
  C659     1.0000 0.61405  0.49250  0.80696  Biso   1.000  C
  C660     1.0000 0.30493  0.89843  0.51535  Biso   1.000  C
  C661     1.0000 0.01317  0.27866  0.62192  Biso   1.000  C
  C662     1.0000 0.62136  0.98213  0.31056  Biso   1.000  C
  C663     1.0000 0.30423  0.58294  0.00973  Biso   1.000  C
  C664     1.0000 0.51181  0.28209  0.90587  Biso   1.000  C
  C665     1.0000 0.11777  0.99102  0.23332  Biso   1.000  C
  C666     1.0000 0.80412  0.58502  0.50366  Biso   1.000  C
  C667     1.0000 0.51546  0.78760  0.63479  Biso   1.000  C
  C668     1.0000 0.91786  0.49774  0.31003  Biso   1.000  C
  C669     1.0000 0.22600  0.08948  0.02802  Biso   1.000  C
  C670     1.0000 0.01530  0.78456  0.91739  Biso   1.000  C
  C671     1.0000 0.41690  0.46411  0.21870  Biso   1.000  C
  C672     1.0000 0.72484  0.09040  0.52121  Biso   1.000  C
  C673     1.0000 0.20955  0.98874  0.82871  Biso   1.000  C
  C674     1.0000 0.81996  0.18665  0.01743  Biso   1.000  C
  C675     1.0000 0.01407  0.79906  0.21650  Biso   1.000  C
  C676     1.0000 0.70596  0.98471  0.71697  Biso   1.000  C
  C677     1.0000 0.32526  0.19299  0.51802  Biso   1.000  C
  C678     1.0000 0.51244  0.78521  0.33523  Biso   1.000  C
  C679     1.0000 0.31596  0.48535  0.81465  Biso   1.000  C
  C680     1.0000 0.70240  0.68947  0.01921  Biso   1.000  C
  C681     1.0000 0.53543  0.28265  0.20331  Biso   1.000  C
  C682     1.0000 0.81018  0.50288  0.70683  Biso   1.000  C
  C683     1.0000 0.20734  0.69573  0.51167  Biso   1.000  C
  C684     1.0000 0.02581  0.29830  0.32460  Biso   1.000  C
  C685     1.0000 0.82051  0.98989  0.21268  Biso   1.000  C
  C686     1.0000 0.20282  0.79235  0.01531  Biso   1.000  C
  C687     1.0000 0.02505  0.18671  0.82575  Biso   1.000  C
  C688     1.0000 0.32378  0.99637  0.32636  Biso   1.000  C
  C689     1.0000 0.70961  0.79025  0.52349  Biso   1.000  C
  C690     1.0000 0.50186  0.19839  0.70192  Biso   1.000  C
  C691     1.0000 0.71517  0.49464  0.21318  Biso   1.000  C
  C692     1.0000 0.32111  0.29038  0.01050  Biso   1.000  C
  C693     1.0000 0.50552  0.69545  0.83207  Biso   1.000  C
  C694     1.0000 0.21692  0.49996  0.31859  Biso   1.000  C
  C695     1.0000 0.81722  0.29198  0.52904  Biso   1.000  C
  C696     1.0000 0.00450  0.68301  0.71719  Biso   1.000  C
  C697     1.0000 0.71478  0.99435  0.32144  Biso   1.000  C
  C698     1.0000 0.30795  0.67591  0.02350  Biso   1.000  C
  C699     1.0000 0.01537  0.29235  0.71873  Biso   1.000  C
  C700     1.0000 0.21101  0.98799  0.22178  Biso   1.000  C
  C701     1.0000 0.81719  0.67894  0.51141  Biso   1.000  C
  C702     1.0000 0.49817  0.30266  0.81258  Biso   1.000  C
  C703     1.0000 0.82443  0.49532  0.31916  Biso   1.000  C
  C704     1.0000 0.21104  0.18265  0.01463  Biso   1.000  C
  C705     1.0000 0.50503  0.80685  0.72570  Biso   1.000  C
  C706     1.0000 0.32486  0.48415  0.21112  Biso   1.000  C
  C707     1.0000 0.71142  0.18524  0.52741  Biso   1.000  C
  C708     1.0000 0.01424  0.79633  0.82187  Biso   1.000  C
  C709     1.0000 0.31472  0.98451  0.71883  Biso   1.000  C
  C710     1.0000 0.71151  0.29673  0.02788  Biso   1.000  C
  C711     1.0000 0.02503  0.69001  0.32475  Biso   1.000  C
  C712     1.0000 0.81922  0.99504  0.82447  Biso   1.000  C
  C713     1.0000 0.21230  0.30262  0.51165  Biso   1.000  C
  C714     1.0000 0.50349  0.67367  0.22616  Biso   1.000  C
  C715     1.0000 0.20333  0.48574  0.71038  Biso   1.000  C
  C716     1.0000 0.80766  0.79912  0.01104  Biso   1.000  C
  C717     1.0000 0.54413  0.17511  0.31549  Biso   1.000  C
  C718     1.0000 0.70699  0.49339  0.81829  Biso   1.000  C
  C719     1.0000 0.31539  0.80215  0.52247  Biso   1.000  C
  C720     1.0000 0.01411  0.19113  0.21721  Biso   1.000  C
  C721     1.0000 0.53250  0.78498  0.31121  Biso   1.000  C
  C722     1.0000 0.28866  0.49747  0.82240  Biso   1.000  C
  C723     1.0000 0.78934  0.29795  0.54206  Biso   1.000  C
  C724     1.0000 0.99388  0.77467  0.21602  Biso   1.000  C
  C725     1.0000 0.78262  0.51966  0.70233  Biso   1.000  C
  C726     1.0000 0.29378  0.29540  0.99513  Biso   1.000  C
  C727     1.0000 0.00873  0.27123  0.32956  Biso   1.000  C
  C728     1.0000 0.23289  0.00891  0.82675  Biso   1.000  C
  C729     1.0000 0.73697  0.79129  0.53876  Biso   1.000  C
  C730     1.0000 0.52461  0.28798  0.23165  Biso   1.000  C
  C731     1.0000 0.73469  0.96967  0.71223  Biso   1.000  C
  C732     1.0000 0.23010  0.79360  0.00012  Biso   1.000  C
  C733     1.0000 0.48099  0.19481  0.72709  Biso   1.000  C
  C734     1.0000 0.71347  0.47703  0.23945  Biso   1.000  C
  C735     1.0000 0.20211  0.72208  0.49678  Biso   1.000  C
  C736     1.0000 0.00698  0.21294  0.82945  Biso   1.000  C
  C737     1.0000 0.24468  0.48484  0.32600  Biso   1.000  C
  C738     1.0000 0.73119  0.68600  0.03274  Biso   1.000  C
  C739     1.0000 0.02027  0.67977  0.74430  Biso   1.000  C
  C740     1.0000 0.79440  0.97189  0.21264  Biso   1.000  C
  C741     1.0000 0.29757  0.18856  0.50384  Biso   1.000  C
  C742     1.0000 0.51886  0.69169  0.80357  Biso   1.000  C
  C743     1.0000 0.29762  0.98200  0.33315  Biso   1.000  C
  C744     1.0000 0.82459  0.21329  0.03286  Biso   1.000  C
  C745     1.0000 0.03783  0.71932  0.32898  Biso   1.000  C
  C746     1.0000 0.28849  0.00121  0.71491  Biso   1.000  C
  C747     1.0000 0.73799  0.29648  0.04675  Biso   1.000  C
  C748     1.0000 0.51994  0.70056  0.22198  Biso   1.000  C
  C749     1.0000 0.81807  0.97169  0.80507  Biso   1.000  C
  C750     1.0000 0.23904  0.30669  0.52917  Biso   1.000  C
  C751     1.0000 0.56399  0.17337  0.29101  Biso   1.000  C
  C752     1.0000 0.22981  0.46764  0.70850  Biso   1.000  C
  C753     1.0000 0.78209  0.80165  0.99466  Biso   1.000  C
  C754     1.0000 0.02699  0.18535  0.24540  Biso   1.000  C
  C755     1.0000 0.70559  0.47444  0.79388  Biso   1.000  C
  C756     1.0000 0.28621  0.80703  0.53379  Biso   1.000  C
  C757     1.0000 0.00118  0.26501  0.71741  Biso   1.000  C
  C758     1.0000 0.71016  0.00866  0.29330  Biso   1.000  C
  C759     1.0000 0.27708  0.67136  0.03272  Biso   1.000  C
  C760     1.0000 0.50743  0.31023  0.78266  Biso   1.000  C
  C761     1.0000 0.23479  0.00781  0.21651  Biso   1.000  C
  C762     1.0000 0.82010  0.70766  0.49865  Biso   1.000  C
  C763     1.0000 0.48676  0.80769  0.74979  Biso   1.000  C
  C764     1.0000 0.79737  0.51193  0.32321  Biso   1.000  C
  C765     1.0000 0.23600  0.18171  0.03451  Biso   1.000  C
  C766     1.0000 0.99391  0.79639  0.79837  Biso   1.000  C
  C767     1.0000 0.33346  0.49841  0.23746  Biso   1.000  C
  C768     1.0000 0.70808  0.21247  0.51325  Biso   1.000  C
  C769     1.0000 0.49453  0.72366  0.83826  Biso   1.000  C
  C770     1.0000 0.81301  0.48474  0.73311  Biso   1.000  C
  C771     1.0000 0.70589  0.76333  0.50739  Biso   1.000  C
  C772     1.0000 0.98859  0.71072  0.71258  Biso   1.000  C
  C773     1.0000 0.31772  0.46776  0.78803  Biso   1.000  C
  C774     1.0000 0.19600  0.76433  0.02880  Biso   1.000  C
  C775     1.0000 0.04378  0.18496  0.80079  Biso   1.000  C
  C776     1.0000 0.70429  0.99991  0.74562  Biso   1.000  C
  C777     1.0000 0.82139  0.26252  0.51865  Biso   1.000  C
  C778     1.0000 0.51540  0.22580  0.69762  Biso   1.000  C
  C779     1.0000 0.20916  0.96578  0.80642  Biso   1.000  C
  C780     1.0000 0.32503  0.26449  0.02732  Biso   1.000  C
  C781     1.0000 0.54793  0.25440  0.19765  Biso   1.000  C
  C782     1.0000 0.21516  0.51571  0.29063  Biso   1.000  C
  C783     1.0000 0.33017  0.22238  0.52939  Biso   1.000  C
  C784     1.0000 0.03984  0.30025  0.29650  Biso   1.000  C
  C785     1.0000 0.73961  0.51251  0.21004  Biso   1.000  C
  C786     1.0000 0.79161  0.18106  0.00496  Biso   1.000  C
  C787     1.0000 0.03654  0.79997  0.23816  Biso   1.000  C
  C788     1.0000 0.32798  0.00869  0.29648  Biso   1.000  C
  C789     1.0000 0.23498  0.69250  0.52602  Biso   1.000  C
  C790     1.0000 0.49310  0.76009  0.33839  Biso   1.000  C
  C791     1.0000 0.82213  0.01269  0.23378  Biso   1.000  C
  C792     1.0000 0.69556  0.71750  0.00704  Biso   1.000  C
  C793     1.0000 0.52628  0.20121  0.31804  Biso   1.000  C
  C794     1.0000 0.29534  0.47537  0.20784  Biso   1.000  C
  C795     1.0000 0.20882  0.27536  0.49552  Biso   1.000  C
  C796     1.0000 0.00030  0.21894  0.21260  Biso   1.000  C
  C797     1.0000 0.82685  0.47933  0.29288  Biso   1.000  C
  C798     1.0000 0.70800  0.27356  0.00655  Biso   1.000  C
  C799     1.0000 0.01141  0.68358  0.29709  Biso   1.000  C
  C800     1.0000 0.20850  0.97166  0.24980  Biso   1.000  C
  C801     1.0000 0.31949  0.77566  0.50520  Biso   1.000  C
  C802     1.0000 0.48822  0.67120  0.25339  Biso   1.000  C
  C803     1.0000 0.74018  0.97810  0.32573  Biso   1.000  C
  C804     1.0000 0.80922  0.77594  0.03230  Biso   1.000  C
  C805     1.0000 0.52852  0.78347  0.72507  Biso   1.000  C
  C806     1.0000 0.73071  0.51427  0.82033  Biso   1.000  C
  C807     1.0000 0.78981  0.67294  0.52664  Biso   1.000  C
  C808     1.0000 0.03386  0.76999  0.82294  Biso   1.000  C
  C809     1.0000 0.19904  0.50260  0.73580  Biso   1.000  C
  C810     1.0000 0.31228  0.70463  0.01192  Biso   1.000  C
  C811     1.0000 0.03110  0.29940  0.74475  Biso   1.000  C
  C812     1.0000 0.79389  0.01376  0.82232  Biso   1.000  C
  C813     1.0000 0.73636  0.18158  0.54633  Biso   1.000  C
  C814     1.0000 0.48367  0.27536  0.81551  Biso   1.000  C
  C815     1.0000 0.31788  0.96643  0.74463  Biso   1.000  C
  C816     1.0000 0.20820  0.20745  0.99599  Biso   1.000  C
  C817     1.0000 0.00394  0.23280  0.80875  Biso   1.000  C
  C818     1.0000 0.77285  0.97588  0.23324  Biso   1.000  C
  C819     1.0000 0.24937  0.76938  0.99942  Biso   1.000  C
  C820     1.0000 0.47588  0.21971  0.74319  Biso   1.000  C
  C821     1.0000 0.27700  0.98107  0.31285  Biso   1.000  C
  C822     1.0000 0.75732  0.76812  0.53736  Biso   1.000  C
  C823     1.0000 0.51873  0.71380  0.78341  Biso   1.000  C
  C824     1.0000 0.73624  0.47734  0.25893  Biso   1.000  C
  C825     1.0000 0.27133  0.27455  0.99697  Biso   1.000  C
  C826     1.0000 0.02316  0.70156  0.76396  Biso   1.000  C
  C827     1.0000 0.26662  0.48450  0.30509  Biso   1.000  C
  C828     1.0000 0.76677  0.27895  0.54250  Biso   1.000  C
  C829     1.0000 0.99730  0.75339  0.23662  Biso   1.000  C
  C830     1.0000 0.25224  0.00781  0.80313  Biso   1.000  C
  C831     1.0000 0.80415  0.23512  0.03195  Biso   1.000  C
  C832     1.0000 0.53054  0.76321  0.29102  Biso   1.000  C
  C833     1.0000 0.75714  0.97188  0.73311  Biso   1.000  C
  C834     1.0000 0.27695  0.21032  0.50202  Biso   1.000  C
  C835     1.0000 0.52837  0.26748  0.25289  Biso   1.000  C
  C836     1.0000 0.26519  0.49795  0.80285  Biso   1.000  C
  C837     1.0000 0.75056  0.70795  0.03104  Biso   1.000  C
  C838     1.0000 0.00660  0.24887  0.30943  Biso   1.000  C
  C839     1.0000 0.76267  0.51887  0.72508  Biso   1.000  C
  C840     1.0000 0.22184  0.74535  0.49430  Biso   1.000  C
  C841     1.0000 0.22785  0.96451  0.78380  Biso   1.000  C
  C842     1.0000 0.76999  0.20237  0.01016  Biso   1.000  C
  C843     1.0000 0.03621  0.77929  0.25925  Biso   1.000  C
  C844     1.0000 0.72575  0.99890  0.76628  Biso   1.000  C
  C845     1.0000 0.30978  0.24385  0.52341  Biso   1.000  C
  C846     1.0000 0.49146  0.73974  0.31679  Biso   1.000  C
  C847     1.0000 0.29395  0.46735  0.76954  Biso   1.000  C
  C848     1.0000 0.71519  0.74007  0.00876  Biso   1.000  C
  C849     1.0000 0.55172  0.23428  0.22014  Biso   1.000  C
  C850     1.0000 0.79253  0.48496  0.75367  Biso   1.000  C
  C851     1.0000 0.25502  0.71429  0.52333  Biso   1.000  C
  C852     1.0000 0.03494  0.27905  0.27594  Biso   1.000  C
  C853     1.0000 0.80036  0.01450  0.25619  Biso   1.000  C
  C854     1.0000 0.21648  0.74216  0.02960  Biso   1.000  C
  C855     1.0000 0.04191  0.20686  0.78094  Biso   1.000  C
  C856     1.0000 0.30582  0.00609  0.27638  Biso   1.000  C
  C857     1.0000 0.72708  0.74094  0.50725  Biso   1.000  C
  C858     1.0000 0.51260  0.24717  0.71755  Biso   1.000  C
  C859     1.0000 0.76020  0.51348  0.23035  Biso   1.000  C
  C860     1.0000 0.30390  0.24334  0.02564  Biso   1.000  C
  C861     1.0000 0.49787  0.74744  0.81783  Biso   1.000  C
  C862     1.0000 0.23785  0.51487  0.27156  Biso   1.000  C
  C863     1.0000 0.80025  0.24185  0.52288  Biso   1.000  C
  C864     1.0000 0.99081  0.73210  0.73327  Biso   1.000  C
  C865     1.0000 0.72408  0.47789  0.77001  Biso   1.000  C
  C866     1.0000 0.79965  0.72930  0.50190  Biso   1.000  C
  C867     1.0000 0.48884  0.78572  0.77107  Biso   1.000  C
  C868     1.0000 0.24889  0.46481  0.73034  Biso   1.000  C
  C869     1.0000 0.25618  0.69364  0.03035  Biso   1.000  C
  C870     1.0000 0.99167  0.77352  0.77787  Biso   1.000  C
  C871     1.0000 0.79631  0.96685  0.78451  Biso   1.000  C
  C872     1.0000 0.72879  0.23378  0.51459  Biso   1.000  C
  C873     1.0000 0.00461  0.24479  0.73846  Biso   1.000  C
  C874     1.0000 0.26781  0.00241  0.73691  Biso   1.000  C
  C875     1.0000 0.25632  0.20310  0.03379  Biso   1.000  C
  C876     1.0000 0.50195  0.29226  0.75935  Biso   1.000  C
  C877     1.0000 0.31362  0.50240  0.26035  Biso   1.000  C
  C878     1.0000 0.26095  0.28530  0.52925  Biso   1.000  C
  C879     1.0000 0.56280  0.19332  0.26940  Biso   1.000  C
  C880     1.0000 0.77690  0.51330  0.30203  Biso   1.000  C
  C881     1.0000 0.75798  0.27500  0.04371  Biso   1.000  C
  C882     1.0000 0.02863  0.20661  0.26625  Biso   1.000  C
  C883     1.0000 0.25671  0.00794  0.23831  Biso   1.000  C
  C884     1.0000 0.26466  0.78759  0.52760  Biso   1.000  C
  C885     1.0000 0.03449  0.74047  0.30666  Biso   1.000  C
  C886     1.0000 0.73029  0.00601  0.27137  Biso   1.000  C
  C887     1.0000 0.76105  0.78056  0.99740  Biso   1.000  C
  C888     1.0000 0.52180  0.72210  0.24406  Biso   1.000  C
  C889     1.0000 0.76153  0.97875  0.30418  Biso   1.000  C
  C890     1.0000 0.29155  0.72625  0.01015  Biso   1.000  C
  C891     1.0000 0.03354  0.27977  0.76738  Biso   1.000  C
  C892     1.0000 0.23022  0.97468  0.27070  Biso   1.000  C
  C893     1.0000 0.76948  0.69466  0.52903  Biso   1.000  C
  C894     1.0000 0.47924  0.25686  0.79145  Biso   1.000  C
  C895     1.0000 0.80505  0.48030  0.27233  Biso   1.000  C
  C896     1.0000 0.23133  0.22626  0.99416  Biso   1.000  C
  C897     1.0000 0.52958  0.76265  0.74627  Biso   1.000  C
  C898     1.0000 0.27567  0.48226  0.22976  Biso   1.000  C
  C899     1.0000 0.75639  0.20247  0.54839  Biso   1.000  C
  C900     1.0000 0.03413  0.74975  0.80140  Biso   1.000  C
  C901     1.0000 0.29470  0.96540  0.76410  Biso   1.000  C
  C902     1.0000 0.72970  0.25203  0.00452  Biso   1.000  C
  C903     1.0000 0.01051  0.70462  0.27599  Biso   1.000  C
  C904     1.0000 0.77289  0.01062  0.80193  Biso   1.000  C
  C905     1.0000 0.23270  0.25489  0.49692  Biso   1.000  C
  C906     1.0000 0.49083  0.69375  0.27384  Biso   1.000  C
  C907     1.0000 0.22126  0.50268  0.75550  Biso   1.000  C
  C908     1.0000 0.78817  0.75655  0.03563  Biso   1.000  C
  C909     1.0000 0.52694  0.22029  0.29557  Biso   1.000  C
  C910     1.0000 0.74813  0.51747  0.79637  Biso   1.000  C
  C911     1.0000 0.29761  0.75684  0.49909  Biso   1.000  C
  C912     1.0000 0.00362  0.24076  0.23349  Biso   1.000  C
  C913     1.0000 0.76747  0.50151  0.74933  Biso   1.000  C
  C914     1.0000 0.75123  0.74286  0.52348  Biso   1.000  C
  C915     1.0000 0.51036  0.74220  0.79112  Biso   1.000  C
  C916     1.0000 0.26796  0.48289  0.77628  Biso   1.000  C
  C917     1.0000 0.24305  0.74529  0.01583  Biso   1.000  C
  C918     1.0000 0.00847  0.72741  0.75730  Biso   1.000  C
  C919     1.0000 0.75162  0.98501  0.75961  Biso   1.000  C
  C920     1.0000 0.77297  0.25098  0.53397  Biso   1.000  C
  C921     1.0000 0.02188  0.22971  0.78466  Biso   1.000  C
  C922     1.0000 0.24930  0.98518  0.78278  Biso   1.000  C
  C923     1.0000 0.27720  0.24811  0.01063  Biso   1.000  C
  C924     1.0000 0.49295  0.24391  0.74029  Biso   1.000  C
  C925     1.0000 0.26333  0.49898  0.27822  Biso   1.000  C
  C926     1.0000 0.28208  0.23706  0.51353  Biso   1.000  C
  C927     1.0000 0.54082  0.24028  0.24697  Biso   1.000  C
  C928     1.0000 0.75916  0.49645  0.25511  Biso   1.000  C
  C929     1.0000 0.77676  0.22992  0.02179  Biso   1.000  C
  C930     1.0000 0.01941  0.25493  0.28355  Biso   1.000  C
  C931     1.0000 0.28068  0.99127  0.28504  Biso   1.000  C
  C932     1.0000 0.24875  0.74009  0.50762  Biso   1.000  C
  C933     1.0000 0.01816  0.75529  0.25820  Biso   1.000  C
  C934     1.0000 0.77704  0.99551  0.25573  Biso   1.000  C
  C935     1.0000 0.74354  0.73585  0.01900  Biso   1.000  C
  C936     1.0000 0.51069  0.74104  0.29392  Biso   1.000  C
  C937     1.0000 0.75373  0.25272  0.02283  Biso   1.000  C
  C938     1.0000 0.02179  0.73290  0.28053  Biso   1.000  C
  C939     1.0000 0.27076  0.98332  0.76075  Biso   1.000  C
  C940     1.0000 0.25876  0.25935  0.51345  Biso   1.000  C
  C941     1.0000 0.50749  0.71830  0.26993  Biso   1.000  C
  C942     1.0000 0.77413  0.98717  0.78341  Biso   1.000  C
  C943     1.0000 0.76518  0.75848  0.01777  Biso   1.000  C
  C944     1.0000 0.54469  0.21904  0.27146  Biso   1.000  C
  C945     1.0000 0.24497  0.48309  0.75309  Biso   1.000  C
  C946     1.0000 0.27032  0.76398  0.50991  Biso   1.000  C
  C947     1.0000 0.01629  0.23352  0.25961  Biso   1.000  C
  C948     1.0000 0.74461  0.49951  0.77224  Biso   1.000  C
  C949     1.0000 0.26358  0.72090  0.01778  Biso   1.000  C
  C950     1.0000 0.02042  0.25243  0.76272  Biso   1.000  C
  C951     1.0000 0.75591  0.99347  0.27832  Biso   1.000  C
  C952     1.0000 0.77459  0.72154  0.51723  Biso   1.000  C
  C953     1.0000 0.48870  0.26605  0.76468  Biso   1.000  C
  C954     1.0000 0.25447  0.99187  0.26383  Biso   1.000  C
  C955     1.0000 0.25479  0.22652  0.01359  Biso   1.000  C
  C956     1.0000 0.51023  0.76427  0.76890  Biso   1.000  C
  C957     1.0000 0.78090  0.49640  0.27810  Biso   1.000  C
  C958     1.0000 0.75094  0.22808  0.53357  Biso   1.000  C
  C959     1.0000 0.01278  0.75084  0.77802  Biso   1.000  C
  C960     1.0000 0.28448  0.49421  0.25533  Biso   1.000  C
  Cu1      1.0000 0.00833  0.48831  0.66740  Biso   1.000  Cu
  Cu2      1.0000 0.67376  0.98618  0.51680  Biso   1.000  Cu
  Cu3      1.0000 0.51011  0.64261  0.02589  Biso   1.000  Cu
  Cu4      1.0000 0.51235  0.49439  0.86168  Biso   1.000  Cu
  Cu5      1.0000 0.16620  0.99009  0.02301  Biso   1.000  Cu
  Cu6      1.0000 0.01419  0.64417  0.52164  Biso   1.000  Cu
  Cu7      1.0000 0.50891  0.99950  0.67396  Biso   1.000  Cu
  Cu8      1.0000 0.85740  0.48381  0.51531  Biso   1.000  Cu
  Cu9      1.0000 0.01573  0.14773  0.02336  Biso   1.000  Cu
  Cu10     1.0000 0.01349  0.99111  0.86723  Biso   1.000  Cu
  Cu11     1.0000 0.36281  0.48713  0.01088  Biso   1.000  Cu
  Cu12     1.0000 0.51852  0.14610  0.51452  Biso   1.000  Cu
  Cu13     1.0000 0.01938  0.49368  0.36333  Biso   1.000  Cu
  Cu14     1.0000 0.36384  0.99945  0.52393  Biso   1.000  Cu
  Cu15     1.0000 0.51435  0.32806  0.01291  Biso   1.000  Cu
  Cu16     1.0000 0.51905  0.47935  0.17261  Biso   1.000  Cu
  Cu17     1.0000 0.85855  0.99269  0.01711  Biso   1.000  Cu
  Cu18     1.0000 0.01274  0.33733  0.51940  Biso   1.000  Cu
  Cu19     1.0000 0.52008  0.98109  0.36784  Biso   1.000  Cu
  Cu20     1.0000 0.16770  0.49761  0.51314  Biso   1.000  Cu
  Cu21     1.0000 0.00472  0.84048  0.02030  Biso   1.000  Cu
  Cu22     1.0000 0.01555  0.99667  0.17756  Biso   1.000  Cu
  Cu23     1.0000 0.66937  0.49148  0.01549  Biso   1.000  Cu
  Cu24     1.0000 0.51197  0.84022  0.53122  Biso   1.000  Cu
  Cu25     1.0000 0.22007  0.98669  0.02312  Biso   1.000  Cu
  Cu26     1.0000 0.01551  0.20006  0.01966  Biso   1.000  Cu
  Cu27     1.0000 0.01408  0.99504  0.23240  Biso   1.000  Cu
  Cu28     1.0000 0.72747  0.98602  0.52071  Biso   1.000  Cu
  Cu29     1.0000 0.51960  0.19876  0.51182  Biso   1.000  Cu
  Cu30     1.0000 0.51908  0.97961  0.31292  Biso   1.000  Cu
  Cu31     1.0000 0.30672  0.48482  0.00989  Biso   1.000  Cu
  Cu32     1.0000 0.50767  0.69560  0.03047  Biso   1.000  Cu
  Cu33     1.0000 0.51581  0.47444  0.22504  Biso   1.000  Cu
  Cu34     1.0000 0.80234  0.48432  0.51189  Biso   1.000  Cu
  Cu35     1.0000 0.01009  0.69700  0.51992  Biso   1.000  Cu
  Cu36     1.0000 0.01925  0.49432  0.30905  Biso   1.000  Cu
  Cu37     1.0000 0.80526  0.99524  0.01716  Biso   1.000  Cu
  Cu38     1.0000 0.00721  0.78670  0.02109  Biso   1.000  Cu
  Cu39     1.0000 0.01501  0.99214  0.81211  Biso   1.000  Cu
  Cu40     1.0000 0.30993  0.00013  0.52124  Biso   1.000  Cu
  Cu41     1.0000 0.51282  0.78468  0.53028  Biso   1.000  Cu
  Cu42     1.0000 0.51215  0.00137  0.72764  Biso   1.000  Cu
  Cu43     1.0000 0.72235  0.49108  0.01772  Biso   1.000  Cu
  Cu44     1.0000 0.51644  0.27253  0.00851  Biso   1.000  Cu
  Cu45     1.0000 0.51377  0.50029  0.80865  Biso   1.000  Cu
  Cu46     1.0000 0.22148  0.49911  0.51587  Biso   1.000  Cu
  Cu47     1.0000 0.01612  0.28295  0.51762  Biso   1.000  Cu
  Cu48     1.0000 0.00476  0.48752  0.72232  Biso   1.000  Cu
  H1       1.0000 0.24415  0.79007  0.53755  Biso   1.000  H
  H2       1.0000 0.51018  0.29738  0.73766  Biso   1.000  H
  H3       1.0000 0.75756  0.52790  0.30422  Biso   1.000  H
  H4       1.0000 0.74313  0.78162  0.98239  Biso   1.000  H
  H5       1.0000 0.99519  0.22419  0.73164  Biso   1.000  H
  H6       1.0000 0.32076  0.51527  0.27977  Biso   1.000  H
  H7       1.0000 0.27846  0.28647  0.54498  Biso   1.000  H
  H8       1.0000 0.97249  0.77148  0.76587  Biso   1.000  H
  H9       1.0000 0.72927  0.01770  0.25042  Biso   1.000  H
  H10      1.0000 0.77681  0.27544  0.05767  Biso   1.000  H
  H11      1.0000 0.47076  0.78586  0.78754  Biso   1.000  H
  H12      1.0000 0.27632  0.02150  0.23414  Biso   1.000  H
  H13      1.0000 0.72528  0.25675  0.50775  Biso   1.000  H
  H14      1.0000 0.53532  0.73993  0.23933  Biso   1.000  H
  H15      1.0000 0.26710  0.45030  0.72769  Biso   1.000  H
  H16      1.0000 0.27546  0.20353  0.04876  Biso   1.000  H
  H17      1.0000 0.04128  0.76217  0.31151  Biso   1.000  H
  H18      1.0000 0.72422  0.46439  0.75204  Biso   1.000  H
  H19      1.0000 0.80278  0.75128  0.49322  Biso   1.000  H
  H20      1.0000 0.03963  0.20384  0.28601  Biso   1.000  H
  H21      1.0000 0.24977  0.01798  0.73456  Biso   1.000  H
  H22      1.0000 0.23401  0.68985  0.03771  Biso   1.000  H
  H23      1.0000 0.57595  0.19039  0.24941  Biso   1.000  H
  H24      1.0000 0.79567  0.94819  0.76954  Biso   1.000  H
  H25      1.0000 0.27012  0.02076  0.80026  Biso   1.000  H
  H26      1.0000 0.80959  0.25677  0.03965  Biso   1.000  H
  H27      1.0000 0.98139  0.73597  0.23379  Biso   1.000  H
  H28      1.0000 0.77694  0.96098  0.72876  Biso   1.000  H
  H29      1.0000 0.25784  0.20602  0.49005  Biso   1.000  H
  H30      1.0000 0.54461  0.76492  0.27203  Biso   1.000  H
  H31      1.0000 0.24374  0.50503  0.81029  Biso   1.000  H
  H32      1.0000 0.77259  0.70256  0.04013  Biso   1.000  H
  H33      1.0000 0.52234  0.27280  0.27557  Biso   1.000  H
  H34      1.0000 0.74375  0.53317  0.72133  Biso   1.000  H
  H35      1.0000 0.21717  0.76553  0.48360  Biso   1.000  H
  H36      1.0000 0.99611  0.22812  0.31505  Biso   1.000  H
  H37      1.0000 0.75524  0.96134  0.23393  Biso   1.000  H
  H38      1.0000 0.26763  0.77281  0.98370  Biso   1.000  H
  H39      1.0000 0.98680  0.24932  0.81406  Biso   1.000  H
  H40      1.0000 0.25732  0.97047  0.31995  Biso   1.000  H
  H41      1.0000 0.77705  0.76816  0.54948  Biso   1.000  H
  H42      1.0000 0.45850  0.21982  0.75868  Biso   1.000  H
  H43      1.0000 0.73673  0.46414  0.27752  Biso   1.000  H
  H44      1.0000 0.25151  0.28086  0.98665  Biso   1.000  H
  H45      1.0000 0.52752  0.70971  0.76208  Biso   1.000  H
  H46      1.0000 0.28782  0.47322  0.30851  Biso   1.000  H
  H47      1.0000 0.74483  0.28225  0.55005  Biso   1.000  H
  H48      1.0000 0.03677  0.69791  0.78380  Biso   1.000  H
  H49      1.0000 0.23416  0.52504  0.25106  Biso   1.000  H
  H50      1.0000 0.31570  0.26590  0.52214  Biso   1.000  H
  H51      1.0000 0.56207  0.21475  0.21292  Biso   1.000  H
  H52      1.0000 0.77815  0.53023  0.22855  Biso   1.000  H
  H53      1.0000 0.74847  0.19970  0.00140  Biso   1.000  H
  H54      1.0000 0.04550  0.27991  0.25429  Biso   1.000  H
  H55      1.0000 0.31069  0.01348  0.25444  Biso   1.000  H
  H56      1.0000 0.27504  0.71132  0.53669  Biso   1.000  H
  H57      1.0000 0.05362  0.78103  0.27532  Biso   1.000  H
  H58      1.0000 0.79885  0.03343  0.27119  Biso   1.000  H
  H59      1.0000 0.70649  0.76225  0.00244  Biso   1.000  H
  H60      1.0000 0.47689  0.72192  0.31763  Biso   1.000  H
  H61      1.0000 0.79628  0.47194  0.77316  Biso   1.000  H
  H62      1.0000 0.72601  0.72243  0.49336  Biso   1.000  H
  H63      1.0000 0.48639  0.76772  0.82393  Biso   1.000  H
  H64      1.0000 0.29904  0.45592  0.74881  Biso   1.000  H
  H65      1.0000 0.21305  0.72312  0.04221  Biso   1.000  H
  H66      1.0000 0.97704  0.75099  0.73022  Biso   1.000  H
  H67      1.0000 0.72272  0.00916  0.78729  Biso   1.000  H
  H68      1.0000 0.80427  0.21865  0.51503  Biso   1.000  H
  H69      1.0000 0.06087  0.20882  0.76665  Biso   1.000  H
  H70      1.0000 0.22628  0.94699  0.76779  Biso   1.000  H
  H71      1.0000 0.30808  0.22408  0.03893  Biso   1.000  H
  H72      1.0000 0.53064  0.26400  0.71514  Biso   1.000  H
  H73      1.0000 0.76603  0.53119  0.79608  Biso   1.000  H
  H74      1.0000 0.75050  0.68852  0.54191  Biso   1.000  H
  H75      1.0000 0.54785  0.74610  0.74601  Biso   1.000  H
  H76      1.0000 0.21773  0.51765  0.77518  Biso   1.000  H
  H77      1.0000 0.29924  0.74654  0.99889  Biso   1.000  H
  H78      1.0000 0.04937  0.73319  0.80249  Biso   1.000  H
  H79      1.0000 0.75710  0.02849  0.80133  Biso   1.000  H
  H80      1.0000 0.77693  0.19614  0.56079  Biso   1.000  H
  H81      1.0000 0.04774  0.28536  0.78586  Biso   1.000  H
  H82      1.0000 0.29643  0.95581  0.78426  Biso   1.000  H
  H83      1.0000 0.22648  0.24327  0.97846  Biso   1.000  H
  H84      1.0000 0.46881  0.23724  0.79378  Biso   1.000  H
  H85      1.0000 0.25387  0.47567  0.22527  Biso   1.000  H
  H86      1.0000 0.23142  0.23461  0.48510  Biso   1.000  H
  H87      1.0000 0.51204  0.23785  0.29637  Biso   1.000  H
  H88      1.0000 0.80824  0.47241  0.25046  Biso   1.000  H
  H89      1.0000 0.72710  0.23629  0.98869  Biso   1.000  H
  H90      1.0000 0.99763  0.26244  0.22870  Biso   1.000  H
  H91      1.0000 0.22859  0.96605  0.29282  Biso   1.000  H
  H92      1.0000 0.30236  0.73590  0.48719  Biso   1.000  H
  H93      1.0000 0.99599  0.69832  0.25750  Biso   1.000  H
  H94      1.0000 0.78279  0.97185  0.30560  Biso   1.000  H
  H95      1.0000 0.79199  0.73970  0.05182  Biso   1.000  H
  H96      1.0000 0.48068  0.68884  0.29451  Biso   1.000  H
  H97      1.0000 0.88218  0.99698  0.93003  Biso   1.000  H
  H98      1.0000 0.91396  0.85702  0.00485  Biso   1.000  H
  H99      1.0000 0.01684  0.90104  0.88154  Biso   1.000  H
  H100     1.0000 0.37444  0.01165  0.61625  Biso   1.000  H
  H101     1.0000 0.42098  0.86073  0.51628  Biso   1.000  H
  H102     1.0000 0.51218  0.90811  0.65928  Biso   1.000  H
  H103     1.0000 0.64573  0.49009  0.92459  Biso   1.000  H
  H104     1.0000 0.60702  0.35450  0.01295  Biso   1.000  H
  H105     1.0000 0.51175  0.40183  0.88000  Biso   1.000  H
  H106     1.0000 0.14206  0.49551  0.60573  Biso   1.000  H
  H107     1.0000 0.10723  0.36484  0.52198  Biso   1.000  H
  H108     1.0000 0.01715  0.39297  0.65049  Biso   1.000  H
  H109     1.0000 0.14986  0.99081  0.11445  Biso   1.000  H
  H110     1.0000 0.10894  0.11891  0.02584  Biso   1.000  H
  H111     1.0000 0.00897  0.08479  0.15710  Biso   1.000  H
  H112     1.0000 0.65509  0.98648  0.42745  Biso   1.000  H
  H113     1.0000 0.60908  0.12450  0.53470  Biso   1.000  H
  H114     1.0000 0.53266  0.07011  0.38451  Biso   1.000  H
  H115     1.0000 0.38362  0.49389  0.10395  Biso   1.000  H
  H116     1.0000 0.41711  0.61878  0.01287  Biso   1.000  H
  H117     1.0000 0.49855  0.57177  0.16070  Biso   1.000  H
  H118     1.0000 0.88529  0.49266  0.42636  Biso   1.000  H
  H119     1.0000 0.92340  0.61894  0.52561  Biso   1.000  H
  H120     1.0000 0.01339  0.58526  0.38605  Biso   1.000  H
  H121     1.0000 0.10851  0.99678  0.89452  Biso   1.000  H
  H122     1.0000 0.88236  0.08175  0.03212  Biso   1.000  H
  H123     1.0000 0.00350  0.86041  0.10996  Biso   1.000  H
  H124     1.0000 0.60062  0.98866  0.65148  Biso   1.000  H
  H125     1.0000 0.38760  0.09103  0.51784  Biso   1.000  H
  H126     1.0000 0.51352  0.85433  0.43727  Biso   1.000  H
  H127     1.0000 0.41952  0.49807  0.87735  Biso   1.000  H
  H128     1.0000 0.64684  0.57973  0.02305  Biso   1.000  H
  H129     1.0000 0.51662  0.34359  0.10000  Biso   1.000  H
  H130     1.0000 0.91347  0.48889  0.64481  Biso   1.000  H
  H131     1.0000 0.14861  0.59047  0.51004  Biso   1.000  H
  H132     1.0000 0.01653  0.36424  0.42517  Biso   1.000  H
  H133     1.0000 0.92691  0.97740  0.15219  Biso   1.000  H
  H134     1.0000 0.14434  0.90248  0.01699  Biso   1.000  H
  H135     1.0000 0.01394  0.12345  0.92753  Biso   1.000  H
  H136     1.0000 0.42934  0.97993  0.38700  Biso   1.000  H
  H137     1.0000 0.64875  0.89404  0.51911  Biso   1.000  H
  H138     1.0000 0.50749  0.12546  0.60471  Biso   1.000  H
  H139     1.0000 0.60712  0.48591  0.15202  Biso   1.000  H
  H140     1.0000 0.38434  0.39481  0.01404  Biso   1.000  H
  H141     1.0000 0.50962  0.62674  0.93298  Biso   1.000  H
  H142     1.0000 0.11462  0.48682  0.38128  Biso   1.000  H
  H143     1.0000 0.87998  0.39654  0.51279  Biso   1.000  H
  H144     1.0000 0.01375  0.62131  0.61257  Biso   1.000  H
  H145     1.0000 0.60396  0.49910  0.88105  Biso   1.000  H
  H146     1.0000 0.87938  0.57416  0.52327  Biso   1.000  H
  H147     1.0000 0.51649  0.86364  0.61875  Biso   1.000  H
  H148     1.0000 0.10048  0.47953  0.64707  Biso   1.000  H
  H149     1.0000 0.38063  0.57656  0.00966  Biso   1.000  H
  H150     1.0000 0.01533  0.85948  0.92772  Biso   1.000  H
  H151     1.0000 0.92189  0.00219  0.88618  Biso   1.000  H
  H152     1.0000 0.65022  0.07985  0.52343  Biso   1.000  H
  H153     1.0000 0.01051  0.35221  0.60991  Biso   1.000  H
  H154     1.0000 0.41350  0.01328  0.65609  Biso   1.000  H
  H155     1.0000 0.14796  0.07940  0.02341  Biso   1.000  H
  H156     1.0000 0.51069  0.35599  0.92501  Biso   1.000  H
  H157     1.0000 0.42707  0.48442  0.14620  Biso   1.000  H
  H158     1.0000 0.14873  0.40819  0.51072  Biso   1.000  H
  H159     1.0000 0.53583  0.11824  0.42771  Biso   1.000  H
  H160     1.0000 0.92517  0.49871  0.38603  Biso   1.000  H
  H161     1.0000 0.64814  0.40137  0.02354  Biso   1.000  H
  H162     1.0000 0.00902  0.12894  0.11116  Biso   1.000  H
  H163     1.0000 0.10574  0.98579  0.15832  Biso   1.000  H
  H164     1.0000 0.37989  0.90609  0.51707  Biso   1.000  H
  H165     1.0000 0.00908  0.62488  0.42538  Biso   1.000  H
  H166     1.0000 0.61335  0.98011  0.38600  Biso   1.000  H
  H167     1.0000 0.87203  0.90103  0.00430  Biso   1.000  H
  H168     1.0000 0.50384  0.61188  0.12058  Biso   1.000  H
  H169     1.0000 0.00940  0.08142  0.88727  Biso   1.000  H
  H170     1.0000 0.88033  0.97579  0.10702  Biso   1.000  H
  H171     1.0000 0.10120  0.86279  0.02415  Biso   1.000  H
  H172     1.0000 0.50979  0.08852  0.64967  Biso   1.000  H
  H173     1.0000 0.38527  0.98506  0.42931  Biso   1.000  H
  H174     1.0000 0.60481  0.85819  0.52616  Biso   1.000  H
  H175     1.0000 0.50782  0.58549  0.88871  Biso   1.000  H
  H176     1.0000 0.65141  0.49684  0.10713  Biso   1.000  H
  H177     1.0000 0.42349  0.35144  0.01835  Biso   1.000  H
  H178     1.0000 0.01137  0.57895  0.65491  Biso   1.000  H
  H179     1.0000 0.15135  0.49340  0.41998  Biso   1.000  H
  H180     1.0000 0.92204  0.35346  0.51327  Biso   1.000  H
  H181     1.0000 0.01127  0.90353  0.15312  Biso   1.000  H
  H182     1.0000 0.15040  0.00056  0.93384  Biso   1.000  H
  H183     1.0000 0.92425  0.12209  0.01949  Biso   1.000  H
  H184     1.0000 0.50616  0.89241  0.39134  Biso   1.000  H
  H185     1.0000 0.64585  0.98505  0.61184  Biso   1.000  H
  H186     1.0000 0.42688  0.12861  0.50089  Biso   1.000  H
  H187     1.0000 0.51629  0.38840  0.14735  Biso   1.000  H
  H188     1.0000 0.38203  0.49168  0.91769  Biso   1.000  H
  H189     1.0000 0.60272  0.62279  0.03090  Biso   1.000  H
  H190     1.0000 0.00948  0.40319  0.38370  Biso   1.000  H
  H191     1.0000 0.87017  0.47644  0.60708  Biso   1.000  H
  H192     1.0000 0.10471  0.63219  0.52417  Biso   1.000  H
  H193     1.0000 0.28201  0.85641  0.51541  Biso   1.000  H
  H194     1.0000 0.51539  0.26656  0.86074  Biso   1.000  H
  H195     1.0000 0.87339  0.49915  0.28851  Biso   1.000  H
  H196     1.0000 0.77693  0.85033  0.00426  Biso   1.000  H
  H197     1.0000 0.01627  0.25772  0.66710  Biso   1.000  H
  H198     1.0000 0.37238  0.46227  0.23840  Biso   1.000  H
  H199     1.0000 0.24525  0.35411  0.50796  Biso   1.000  H
  H200     1.0000 0.01843  0.76160  0.87540  Biso   1.000  H
  H201     1.0000 0.66174  0.98696  0.28869  Biso   1.000  H
  H202     1.0000 0.74213  0.35101  0.04099  Biso   1.000  H
  H203     1.0000 0.50903  0.76851  0.67804  Biso   1.000  H
  H204     1.0000 0.16102  0.99107  0.25429  Biso   1.000  H
  H205     1.0000 0.74558  0.13449  0.52143  Biso   1.000  H
  H206     1.0000 0.49376  0.70921  0.17502  Biso   1.000  H
  H207     1.0000 0.14908  0.48766  0.74488  Biso   1.000  H
  H208     1.0000 0.24448  0.13326  0.02049  Biso   1.000  H
  H209     1.0000 0.01369  0.72295  0.37801  Biso   1.000  H
  H210     1.0000 0.65528  0.49090  0.78381  Biso   1.000  H
  H211     1.0000 0.78473  0.62748  0.50260  Biso   1.000  H
  H212     1.0000 0.02353  0.22423  0.16432  Biso   1.000  H
  H213     1.0000 0.36885  0.98812  0.75565  Biso   1.000  H
  H214     1.0000 0.28006  0.62439  0.01205  Biso   1.000  H
  H215     1.0000 0.55627  0.20777  0.36467  Biso   1.000  H
  H216     1.0000 0.86744  0.99382  0.79090  Biso   1.000  H
  H217     1.0000 0.24934  0.50417  0.37092  Biso   1.000  H
  H218     1.0000 0.37872  0.22800  0.50910  Biso   1.000  H
  H219     1.0000 0.55116  0.33183  0.23593  Biso   1.000  H
  H220     1.0000 0.74755  0.49120  0.16385  Biso   1.000  H
  H221     1.0000 0.87130  0.21792  0.00703  Biso   1.000  H
  H222     1.0000 0.01709  0.34849  0.28723  Biso   1.000  H
  H223     1.0000 0.29413  0.01434  0.37721  Biso   1.000  H
  H224     1.0000 0.16015  0.72684  0.52415  Biso   1.000  H
  H225     1.0000 0.02384  0.85096  0.24646  Biso   1.000  H
  H226     1.0000 0.78763  0.99115  0.16300  Biso   1.000  H
  H227     1.0000 0.65261  0.72053  0.03611  Biso   1.000  H
  H228     1.0000 0.51243  0.83386  0.29810  Biso   1.000  H
  H229     1.0000 0.77521  0.49801  0.65836  Biso   1.000  H
  H230     1.0000 0.65392  0.75807  0.52790  Biso   1.000  H
  H231     1.0000 0.49705  0.64635  0.79693  Biso   1.000  H
  H232     1.0000 0.28434  0.47738  0.86843  Biso   1.000  H
  H233     1.0000 0.14694  0.76237  0.00639  Biso   1.000  H
  H234     1.0000 0.00093  0.62801  0.75178  Biso   1.000  H
  H235     1.0000 0.73930  0.98432  0.66576  Biso   1.000  H
  H236     1.0000 0.86802  0.25929  0.53602  Biso   1.000  H
  H237     1.0000 0.02778  0.13437  0.79315  Biso   1.000  H
  H238     1.0000 0.24741  0.99398  0.88082  Biso   1.000  H
  H239     1.0000 0.37066  0.25533  0.00668  Biso   1.000  H
  H240     1.0000 0.51397  0.15006  0.74041  Biso   1.000  H
  H241     1.0000 0.74236  0.48652  0.87302  Biso   1.000  H
  H242     1.0000 0.86797  0.71376  0.51533  Biso   1.000  H
  H243     1.0000 0.50185  0.86087  0.75938  Biso   1.000  H
  H244     1.0000 0.23817  0.48332  0.65835  Biso   1.000  H
  H245     1.0000 0.36206  0.71104  0.03098  Biso   1.000  H
  H246     1.0000 0.00949  0.84857  0.78622  Biso   1.000  H
  H247     1.0000 0.78260  0.00725  0.87548  Biso   1.000  H
  H248     1.0000 0.65860  0.22022  0.52650  Biso   1.000  H
  H249     1.0000 0.00622  0.34718  0.74993  Biso   1.000  H
  H250     1.0000 0.28164  0.97858  0.66666  Biso   1.000  H
  H251     1.0000 0.16262  0.21688  0.01185  Biso   1.000  H
  H252     1.0000 0.49135  0.35320  0.78513  Biso   1.000  H
  H253     1.0000 0.28887  0.49592  0.15883  Biso   1.000  H
  H254     1.0000 0.16316  0.26810  0.52390  Biso   1.000  H
  H255     1.0000 0.53917  0.12161  0.28397  Biso   1.000  H
  H256     1.0000 0.78902  0.48844  0.37227  Biso   1.000  H
  H257     1.0000 0.66389  0.26037  0.02437  Biso   1.000  H
  H258     1.0000 0.99751  0.14156  0.25020  Biso   1.000  H
  H259     1.0000 0.24396  0.97570  0.17352  Biso   1.000  H
  H260     1.0000 0.36685  0.76883  0.52900  Biso   1.000  H
  H261     1.0000 0.03599  0.64037  0.29066  Biso   1.000  H
  H262     1.0000 0.74964  0.00337  0.37431  Biso   1.000  H
  H263     1.0000 0.85768  0.76346  0.01759  Biso   1.000  H
  H264     1.0000 0.50541  0.61527  0.25925  Biso   1.000  H
  H265     1.0000 0.02795  0.21821  0.87512  Biso   1.000  H
  H266     1.0000 0.86983  0.98083  0.24621  Biso   1.000  H
  H267     1.0000 0.23604  0.84077  0.02165  Biso   1.000  H
  H268     1.0000 0.50570  0.22758  0.64696  Biso   1.000  H
  H269     1.0000 0.37268  0.97832  0.29182  Biso   1.000  H
  H270     1.0000 0.74378  0.83811  0.51849  Biso   1.000  H
  H271     1.0000 0.51089  0.72569  0.88444  Biso   1.000  H
  H272     1.0000 0.65892  0.49572  0.25152  Biso   1.000  H
  H273     1.0000 0.28598  0.34110  0.02061  Biso   1.000  H
  H274     1.0000 0.00768  0.71633  0.66383  Biso   1.000  H
  H275     1.0000 0.16326  0.50190  0.28230  Biso   1.000  H
  H276     1.0000 0.78108  0.34433  0.52006  Biso   1.000  H
  H277     1.0000 0.01202  0.76611  0.16908  Biso   1.000  H
  H278     1.0000 0.16107  0.97919  0.79461  Biso   1.000  H
  H279     1.0000 0.78460  0.13647  0.02968  Biso   1.000  H
  H280     1.0000 0.51648  0.75563  0.38880  Biso   1.000  H
  H281     1.0000 0.65185  0.98203  0.75094  Biso   1.000  H
  H282     1.0000 0.29225  0.14507  0.53576  Biso   1.000  H
  H283     1.0000 0.51985  0.24845  0.15335  Biso   1.000  H
  H284     1.0000 0.37316  0.48792  0.77801  Biso   1.000  H
  H285     1.0000 0.73702  0.63844  0.00566  Biso   1.000  H
  H286     1.0000 0.03771  0.26775  0.37736  Biso   1.000  H
  H287     1.0000 0.86372  0.50941  0.74113  Biso   1.000  H
  H288     1.0000 0.24161  0.64473  0.50567  Biso   1.000  H
  H289     1.0000 0.10901  0.21570  0.00626  Biso   1.000  H
  H290     1.0000 0.00348  0.08786  0.25117  Biso   1.000  H
  H291     1.0000 0.24706  0.98109  0.11725  Biso   1.000  H
  H292     1.0000 0.60546  0.21760  0.52671  Biso   1.000  H
  H293     1.0000 0.52750  0.06857  0.28730  Biso   1.000  H
  H294     1.0000 0.74753  0.99880  0.42781  Biso   1.000  H
  H295     1.0000 0.41447  0.71555  0.02577  Biso   1.000  H
  H296     1.0000 0.51485  0.56223  0.25377  Biso   1.000  H
  H297     1.0000 0.28770  0.49982  0.10399  Biso   1.000  H
  H298     1.0000 0.92181  0.71340  0.52103  Biso   1.000  H
  H299     1.0000 0.03553  0.58619  0.29168  Biso   1.000  H
  H300     1.0000 0.78862  0.48238  0.42595  Biso   1.000  H
  H301     1.0000 0.91443  0.76373  0.01441  Biso   1.000  H
  H302     1.0000 0.00939  0.90334  0.78670  Biso   1.000  H
  H303     1.0000 0.78691  0.01792  0.92827  Biso   1.000  H
  H304     1.0000 0.41777  0.76413  0.51982  Biso   1.000  H
  H305     1.0000 0.49850  0.91150  0.75474  Biso   1.000  H
  H306     1.0000 0.28195  0.98259  0.61320  Biso   1.000  H
  H307     1.0000 0.61289  0.25518  0.01353  Biso   1.000  H
  H308     1.0000 0.49466  0.40856  0.78675  Biso   1.000  H
  H309     1.0000 0.74448  0.47736  0.92580  Biso   1.000  H
  H310     1.0000 0.10800  0.27002  0.53206  Biso   1.000  H
  H311     1.0000 0.00407  0.39913  0.74714  Biso   1.000  H
  H312     1.0000 0.23806  0.49251  0.60644  Biso   1.000  H
  H313     1.0000 0.24707  0.00094  0.93305  Biso   1.000  H
  H314     1.0000 0.92451  0.21873  0.01089  Biso   1.000  H
  H315     1.0000 0.02274  0.90595  0.24647  Biso   1.000  H
  H316     1.0000 0.74179  0.98086  0.61566  Biso   1.000  H
  H317     1.0000 0.43247  0.22316  0.50153  Biso   1.000  H
  H318     1.0000 0.51316  0.88684  0.29373  Biso   1.000  H
  H319     1.0000 0.28805  0.47769  0.92226  Biso   1.000  H
  H320     1.0000 0.59804  0.71855  0.04085  Biso   1.000  H
  H321     1.0000 0.54617  0.38748  0.23781  Biso   1.000  H
  H322     1.0000 0.77644  0.48700  0.60461  Biso   1.000  H
  H323     1.0000 0.10285  0.72345  0.52962  Biso   1.000  H
  H324     1.0000 0.01323  0.40155  0.28713  Biso   1.000  H
  H325     1.0000 0.78841  0.98583  0.10716  Biso   1.000  H
  H326     1.0000 0.09591  0.76709  0.00678  Biso   1.000  H
  H327     1.0000 0.02116  0.07486  0.79483  Biso   1.000  H
  H328     1.0000 0.29526  0.01690  0.42868  Biso   1.000  H
  H329     1.0000 0.59920  0.76076  0.52848  Biso   1.000  H
  H330     1.0000 0.51659  0.09493  0.74409  Biso   1.000  H
  H331     1.0000 0.74491  0.49166  0.10950  Biso   1.000  H
  H332     1.0000 0.42475  0.25677  0.00953  Biso   1.000  H
  H333     1.0000 0.49696  0.59142  0.79329  Biso   1.000  H
  H334     1.0000 0.24561  0.50428  0.42637  Biso   1.000  H
  H335     1.0000 0.92585  0.25983  0.53475  Biso   1.000  H
  H336     1.0000 0.00225  0.57628  0.75057  Biso   1.000  H
  H337     1.0000 0.02813  0.21838  0.93168  Biso   1.000  H
  H338     1.0000 0.92205  0.98370  0.24910  Biso   1.000  H
  H339     1.0000 0.24268  0.89560  0.02285  Biso   1.000  H
  H340     1.0000 0.50615  0.22060  0.59347  Biso   1.000  H
  H341     1.0000 0.42635  0.97426  0.28999  Biso   1.000  H
  H342     1.0000 0.74451  0.89305  0.50740  Biso   1.000  H
  H343     1.0000 0.51314  0.71979  0.93917  Biso   1.000  H
  H344     1.0000 0.60961  0.48099  0.24919  Biso   1.000  H
  H345     1.0000 0.28726  0.39469  0.02593  Biso   1.000  H
  H346     1.0000 0.00507  0.71426  0.61009  Biso   1.000  H
  H347     1.0000 0.10768  0.49468  0.28618  Biso   1.000  H
  H348     1.0000 0.78302  0.39712  0.50654  Biso   1.000  H
  H349     1.0000 0.01663  0.76244  0.11521  Biso   1.000  H
  H350     1.0000 0.10657  0.97776  0.79652  Biso   1.000  H
  H351     1.0000 0.78644  0.08252  0.03648  Biso   1.000  H
  H352     1.0000 0.51673  0.75652  0.44546  Biso   1.000  H
  H353     1.0000 0.59591  0.98913  0.74683  Biso   1.000  H
  H354     1.0000 0.29438  0.09072  0.53520  Biso   1.000  H
  H355     1.0000 0.51070  0.24799  0.09899  Biso   1.000  H
  H356     1.0000 0.42503  0.49286  0.78307  Biso   1.000  H
  H357     1.0000 0.74113  0.58682  0.00828  Biso   1.000  H
  H358     1.0000 0.03069  0.26761  0.43001  Biso   1.000  H
  H359     1.0000 0.91733  0.50783  0.73643  Biso   1.000  H
  H360     1.0000 0.24384  0.59034  0.50404  Biso   1.000  H
  H361     1.0000 0.01010  0.71815  0.43123  Biso   1.000  H
  H362     1.0000 0.42457  0.99712  0.75040  Biso   1.000  H
  H363     1.0000 0.74160  0.40048  0.04192  Biso   1.000  H
  H364     1.0000 0.49044  0.70802  0.11747  Biso   1.000  H
  H365     1.0000 0.92642  0.99455  0.79055  Biso   1.000  H
  H366     1.0000 0.24543  0.40876  0.50855  Biso   1.000  H
  H367     1.0000 0.55146  0.21055  0.42024  Biso   1.000  H
  H368     1.0000 0.09434  0.48117  0.74202  Biso   1.000  H
  H369     1.0000 0.77811  0.90736  0.00074  Biso   1.000  H
  H370     1.0000 0.02645  0.22353  0.11278  Biso   1.000  H
  H371     1.0000 0.60129  0.49095  0.78592  Biso   1.000  H
  H372     1.0000 0.28377  0.90936  0.51299  Biso   1.000  H
  H373     1.0000 0.01662  0.25949  0.60866  Biso   1.000  H
  H374     1.0000 0.60887  0.97887  0.29159  Biso   1.000  H
  H375     1.0000 0.28360  0.57076  0.00604  Biso   1.000  H
  H376     1.0000 0.51589  0.26115  0.91470  Biso   1.000  H
  H377     1.0000 0.10603  0.99260  0.25332  Biso   1.000  H
  H378     1.0000 0.78329  0.57383  0.49982  Biso   1.000  H
  H379     1.0000 0.51579  0.76814  0.62397  Biso   1.000  H
  H380     1.0000 0.92858  0.49820  0.28940  Biso   1.000  H
  H381     1.0000 0.24520  0.07604  0.02942  Biso   1.000  H
  H382     1.0000 0.01350  0.76426  0.92967  Biso   1.000  H
  H383     1.0000 0.42801  0.45548  0.23728  Biso   1.000  H
  H384     1.0000 0.74607  0.08170  0.51748  Biso   1.000  H
  H385     1.0000 0.24608  0.47245  0.34486  Biso   1.000  H
  H386     1.0000 0.29183  0.16794  0.49412  Biso   1.000  H
  H387     1.0000 0.51590  0.30926  0.23685  Biso   1.000  H
  H388     1.0000 0.69602  0.46243  0.24721  Biso   1.000  H
  H389     1.0000 0.84369  0.21941  0.04522  Biso   1.000  H
  H390     1.0000 0.99889  0.26874  0.35087  Biso   1.000  H
  H391     1.0000 0.29421  0.96895  0.35209  Biso   1.000  H
  H392     1.0000 0.18131  0.72628  0.48664  Biso   1.000  H
  H393     1.0000 0.97593  0.77012  0.20037  Biso   1.000  H
  H394     1.0000 0.79204  0.95449  0.19728  Biso   1.000  H
  H395     1.0000 0.73833  0.66697  0.04489  Biso   1.000  H
  H396     1.0000 0.54584  0.80484  0.31221  Biso   1.000  H
  H397     1.0000 0.77850  0.53468  0.68529  Biso   1.000  H
  H398     1.0000 0.74067  0.80881  0.55398  Biso   1.000  H
  H399     1.0000 0.53106  0.67202  0.79679  Biso   1.000  H
  H400     1.0000 0.28739  0.51023  0.84054  Biso   1.000  H
  H401     1.0000 0.23323  0.81257  0.98670  Biso   1.000  H
  H402     1.0000 0.03476  0.65967  0.74861  Biso   1.000  H
  H403     1.0000 0.73841  0.95504  0.69276  Biso   1.000  H
  H404     1.0000 0.78522  0.31808  0.55119  Biso   1.000  H
  H405     1.0000 0.99129  0.21558  0.84757  Biso   1.000  H
  H406     1.0000 0.23736  0.02559  0.84239  Biso   1.000  H
  H407     1.0000 0.29232  0.31399  0.98133  Biso   1.000  H
  H408     1.0000 0.46952  0.17458  0.73118  Biso   1.000  H
  H409     1.0000 0.28865  0.46417  0.18774  Biso   1.000  H
  H410     1.0000 0.18897  0.27131  0.48448  Biso   1.000  H
  H411     1.0000 0.51143  0.20445  0.33666  Biso   1.000  H
  H412     1.0000 0.84646  0.46488  0.28999  Biso   1.000  H
  H413     1.0000 0.69066  0.27502  0.99111  Biso   1.000  H
  H414     1.0000 0.98788  0.22291  0.19328  Biso   1.000  H
  H415     1.0000 0.19056  0.95598  0.25409  Biso   1.000  H
  H416     1.0000 0.33997  0.77095  0.49614  Biso   1.000  H
  H417     1.0000 0.99862  0.66408  0.29424  Biso   1.000  H
  H418     1.0000 0.74791  0.96740  0.34646  Biso   1.000  H
  H419     1.0000 0.82793  0.77644  0.04802  Biso   1.000  H
  H420     1.0000 0.47656  0.65246  0.25791  Biso   1.000  H
  H421     1.0000 0.73428  0.52856  0.83806  Biso   1.000  H
  H422     1.0000 0.78684  0.65259  0.53836  Biso   1.000  H
  H423     1.0000 0.54492  0.77949  0.70816  Biso   1.000  H
  H424     1.0000 0.18053  0.51554  0.74089  Biso   1.000  H
  H425     1.0000 0.33227  0.71115  0.00013  Biso   1.000  H
  H426     1.0000 0.05268  0.76749  0.83889  Biso   1.000  H
  H427     1.0000 0.79022  0.03199  0.83631  Biso   1.000  H
  H428     1.0000 0.73875  0.16198  0.55881  Biso   1.000  H
  H429     1.0000 0.04192  0.31946  0.74542  Biso   1.000  H
  H430     1.0000 0.33385  0.95104  0.75152  Biso   1.000  H
  H431     1.0000 0.19091  0.20797  0.97956  Biso   1.000  H
  H432     1.0000 0.47538  0.27123  0.83638  Biso   1.000  H
  H433     1.0000 0.28663  0.01663  0.69695  Biso   1.000  H
  H434     1.0000 0.73810  0.31348  0.06312  Biso   1.000  H
  H435     1.0000 0.04863  0.72637  0.34840  Biso   1.000  H
  H436     1.0000 0.83643  0.95553  0.80195  Biso   1.000  H
  H437     1.0000 0.24408  0.32390  0.54339  Biso   1.000  H
  H438     1.0000 0.53126  0.70316  0.20130  Biso   1.000  H
  H439     1.0000 0.23525  0.45433  0.69011  Biso   1.000  H
  H440     1.0000 0.77883  0.81844  0.97719  Biso   1.000  H
  H441     1.0000 0.57769  0.15431  0.28629  Biso   1.000  H
  H442     1.0000 0.69110  0.45709  0.79671  Biso   1.000  H
  H443     1.0000 0.27978  0.82373  0.54931  Biso   1.000  H
  H444     1.0000 0.03851  0.16469  0.24800  Biso   1.000  H
  H445     1.0000 0.69147  0.02276  0.29295  Biso   1.000  H
  H446     1.0000 0.27070  0.65280  0.04519  Biso   1.000  H
  H447     1.0000 0.98696  0.26053  0.69913  Biso   1.000  H
  H448     1.0000 0.23501  0.02155  0.19675  Biso   1.000  H
  H449     1.0000 0.83730  0.71103  0.48371  Biso   1.000  H
  H450     1.0000 0.51935  0.33019  0.77735  Biso   1.000  H
  H451     1.0000 0.79140  0.52358  0.34465  Biso   1.000  H
  H452     1.0000 0.23694  0.16626  0.05133  Biso   1.000  H
  H453     1.0000 0.47125  0.82529  0.75185  Biso   1.000  H
  H454     1.0000 0.35444  0.50699  0.23901  Biso   1.000  H
  H455     1.0000 0.68925  0.21493  0.50004  Biso   1.000  H
  H456     1.0000 0.97934  0.81425  0.79724  Biso   1.000  H
  H457     1.0000 0.68653  0.75803  0.49513  Biso   1.000  H
  H458     1.0000 0.48233  0.72698  0.85703  Biso   1.000  H
  H459     1.0000 0.83270  0.47015  0.73738  Biso   1.000  H
  H460     1.0000 0.17608  0.76294  0.04129  Biso   1.000  H
  H461     1.0000 0.97520  0.71417  0.69354  Biso   1.000  H
  H462     1.0000 0.33700  0.45471  0.78205  Biso   1.000  H
  H463     1.0000 0.84088  0.25900  0.50718  Biso   1.000  H
  H464     1.0000 0.05823  0.16732  0.79829  Biso   1.000  H
  H465     1.0000 0.68399  0.01267  0.75131  Biso   1.000  H
  H466     1.0000 0.34559  0.26211  0.04014  Biso   1.000  H
  H467     1.0000 0.53319  0.22852  0.68098  Biso   1.000  H
  H468     1.0000 0.19519  0.94731  0.81036  Biso   1.000  H
  H469     1.0000 0.35154  0.22928  0.53740  Biso   1.000  H
  H470     1.0000 0.55491  0.24679  0.17658  Biso   1.000  H
  H471     1.0000 0.19831  0.53173  0.28425  Biso   1.000  H
  H472     1.0000 0.78925  0.16081  0.99341  Biso   1.000  H
  H473     1.0000 0.05086  0.32078  0.29034  Biso   1.000  H
  H474     1.0000 0.74076  0.52745  0.19247  Biso   1.000  H
  H475     1.0000 0.24111  0.67347  0.53771  Biso   1.000  H
  H476     1.0000 0.05049  0.81713  0.24247  Biso   1.000  H
  H477     1.0000 0.34847  0.01969  0.29085  Biso   1.000  H
  H478     1.0000 0.67543  0.72245  0.99638  Biso   1.000  H
  H479     1.0000 0.47804  0.75637  0.35602  Biso   1.000  H
  H480     1.0000 0.83998  0.02796  0.23155  Biso   1.000  H
  N1       1.0000 0.69291  0.16567  0.52608  Biso   1.000  N
  N2       1.0000 0.50167  0.65442  0.20608  Biso   1.000  N
  N3       1.0000 0.18328  0.48776  0.69137  Biso   1.000  N
  N4       1.0000 0.19267  0.16273  0.01775  Biso   1.000  N
  N5       1.0000 0.02503  0.67118  0.34407  Biso   1.000  N
  N6       1.0000 0.68857  0.49199  0.83973  Biso   1.000  N
  N7       1.0000 0.83637  0.65804  0.51058  Biso   1.000  N
  N8       1.0000 0.01184  0.17249  0.19732  Biso   1.000  N
  N9       1.0000 0.33382  0.98847  0.70002  Biso   1.000  N
  N10      1.0000 0.33005  0.65896  0.02054  Biso   1.000  N
  N11      1.0000 0.54314  0.15633  0.33572  Biso   1.000  N
  N12      1.0000 0.83756  0.99931  0.84345  Biso   1.000  N
  N13      1.0000 0.33534  0.82072  0.52410  Biso   1.000  N
  N14      1.0000 0.50135  0.32045  0.83461  Biso   1.000  N
  N15      1.0000 0.84192  0.49446  0.34033  Biso   1.000  N
  N16      1.0000 0.82828  0.81639  0.00890  Biso   1.000  N
  N17      1.0000 0.01387  0.30962  0.69672  Biso   1.000  N
  N18      1.0000 0.34233  0.48412  0.19075  Biso   1.000  N
  N19      1.0000 0.19221  0.32183  0.51124  Biso   1.000  N
  N20      1.0000 0.01477  0.81584  0.84124  Biso   1.000  N
  N21      1.0000 0.69630  0.99429  0.34145  Biso   1.000  N
  N22      1.0000 0.69122  0.31585  0.02848  Biso   1.000  N
  N23      1.0000 0.50490  0.82595  0.70607  Biso   1.000  N
  N24      1.0000 0.19202  0.98580  0.20202  Biso   1.000  N
  N25      1.0000 0.83008  0.50038  0.68814  Biso   1.000  N
  N26      1.0000 0.69045  0.80898  0.52649  Biso   1.000  N
  N27      1.0000 0.50641  0.67449  0.85026  Biso   1.000  N
  N28      1.0000 0.33733  0.48618  0.83302  Biso   1.000  N
  N29      1.0000 0.18431  0.81384  0.01413  Biso   1.000  N
  N30      1.0000 0.00696  0.66355  0.69820  Biso   1.000  N
  N31      1.0000 0.68481  0.98424  0.69884  Biso   1.000  N
  N32      1.0000 0.83688  0.31139  0.52550  Biso   1.000  N
  N33      1.0000 0.02365  0.16599  0.84458  Biso   1.000  N
  N34      1.0000 0.19270  0.98899  0.84900  Biso   1.000  N
  N35      1.0000 0.34025  0.30977  0.01093  Biso   1.000  N
  N36      1.0000 0.50508  0.17796  0.68481  Biso   1.000  N
  N37      1.0000 0.19609  0.50073  0.33626  Biso   1.000  N
  N38      1.0000 0.34540  0.17394  0.51802  Biso   1.000  N
  N39      1.0000 0.53181  0.30167  0.18402  Biso   1.000  N
  N40      1.0000 0.69488  0.49286  0.19437  Biso   1.000  N
  N41      1.0000 0.83967  0.16728  0.01966  Biso   1.000  N
  N42      1.0000 0.02218  0.31862  0.34231  Biso   1.000  N
  N43      1.0000 0.34397  0.99561  0.34548  Biso   1.000  N
  N44      1.0000 0.18969  0.67497  0.51080  Biso   1.000  N
  N45      1.0000 0.01177  0.81937  0.19812  Biso   1.000  N
  N46      1.0000 0.84117  0.98864  0.19407  Biso   1.000  N
  N47      1.0000 0.68356  0.66922  0.02012  Biso   1.000  N
  N48      1.0000 0.51416  0.80520  0.35392  Biso   1.000  N
  O1       1.0000 0.35796  0.52772  0.00902  Biso   1.000  O
  O2       1.0000 0.00952  0.33137  0.55996  Biso   1.000  O
  O3       1.0000 0.56080  0.98272  0.36381  Biso   1.000  O
  O4       1.0000 0.85530  0.52515  0.51795  Biso   1.000  O
  O5       1.0000 0.51215  0.33058  0.97155  Biso   1.000  O
  O6       1.0000 0.05662  0.99851  0.18146  Biso   1.000  O
  O7       1.0000 0.17165  0.03208  0.02699  Biso   1.000  O
  O8       1.0000 0.50869  0.83975  0.57201  Biso   1.000  O
  O9       1.0000 0.97792  0.49554  0.36502  Biso   1.000  O
  O10      1.0000 0.67596  0.02617  0.51975  Biso   1.000  O
  O11      1.0000 0.00834  0.83692  0.97901  Biso   1.000  O
  O12      1.0000 0.47709  0.47545  0.17057  Biso   1.000  O
  O13      1.0000 0.67177  0.44900  0.01767  Biso   1.000  O
  O14      1.0000 0.01283  0.64777  0.47782  Biso   1.000  O
  O15      1.0000 0.46728  0.00337  0.67725  Biso   1.000  O
  O16      1.0000 0.17176  0.45471  0.51397  Biso   1.000  O
  O17      1.0000 0.50684  0.63782  0.06827  Biso   1.000  O
  O18      1.0000 0.97116  0.99654  0.86096  Biso   1.000  O
  O19      1.0000 0.85328  0.95138  0.01133  Biso   1.000  O
  O20      1.0000 0.53283  0.14708  0.47094  Biso   1.000  O
  O21      1.0000 0.04982  0.48145  0.66982  Biso   1.000  O
  O22      1.0000 0.35794  0.95747  0.52277  Biso   1.000  O
  O23      1.0000 0.01191  0.15054  0.06561  Biso   1.000  O
  O24      1.0000 0.55323  0.49481  0.85956  Biso   1.000  O
  O25      1.0000 0.97431  0.99499  0.18004  Biso   1.000  O
  O26      1.0000 0.17063  0.95003  0.01966  Biso   1.000  O
  O27      1.0000 0.01443  0.14806  0.98051  Biso   1.000  O
  O28      1.0000 0.47855  0.97823  0.36151  Biso   1.000  O
  O29      1.0000 0.67278  0.94493  0.51346  Biso   1.000  O
  O30      1.0000 0.50505  0.14552  0.55210  Biso   1.000  O
  O31      1.0000 0.56029  0.48040  0.17615  Biso   1.000  O
  O32      1.0000 0.36025  0.44378  0.01209  Biso   1.000  O
  O33      1.0000 0.51272  0.64717  0.98191  Biso   1.000  O
  O34      1.0000 0.06180  0.48981  0.36015  Biso   1.000  O
  O35      1.0000 0.85514  0.44435  0.50964  Biso   1.000  O
  O36      1.0000 0.01459  0.64414  0.56422  Biso   1.000  O
  O37      1.0000 0.05647  0.98946  0.86618  Biso   1.000  O
  O38      1.0000 0.85907  0.03471  0.02404  Biso   1.000  O
  O39      1.0000 0.00226  0.83620  0.06410  Biso   1.000  O
  O40      1.0000 0.54994  0.99358  0.67610  Biso   1.000  O
  O41      1.0000 0.36301  0.04191  0.52458  Biso   1.000  O
  O42      1.0000 0.51188  0.83450  0.48844  Biso   1.000  O
  O43      1.0000 0.47199  0.49541  0.85507  Biso   1.000  O
  O44      1.0000 0.67114  0.53412  0.01056  Biso   1.000  O
  O45      1.0000 0.51190  0.32457  0.05457  Biso   1.000  O
  O46      1.0000 0.96713  0.49178  0.66748  Biso   1.000  O
  O47      1.0000 0.17122  0.53950  0.50431  Biso   1.000  O
  O48      1.0000 0.01430  0.33772  0.47795  Biso   1.000  O
  O49      1.0000 0.01585  0.95353  0.17823  Biso   1.000  O
  O50      1.0000 0.17347  0.99628  0.98144  Biso   1.000  O
  O51      1.0000 0.97503  0.14934  0.01933  Biso   1.000  O
  O52      1.0000 0.51982  0.93932  0.36583  Biso   1.000  O
  O53      1.0000 0.67469  0.98215  0.56089  Biso   1.000  O
  O54      1.0000 0.47752  0.14814  0.50468  Biso   1.000  O
  O55      1.0000 0.52158  0.43734  0.17159  Biso   1.000  O
  O56      1.0000 0.35934  0.48313  0.97122  Biso   1.000  O
  O57      1.0000 0.55311  0.64479  0.02901  Biso   1.000  O
  O58      1.0000 0.01689  0.45107  0.36178  Biso   1.000  O
  O59      1.0000 0.84798  0.47868  0.55597  Biso   1.000  O
  O60      1.0000 0.05754  0.65173  0.52381  Biso   1.000  O
  O61      1.0000 0.01039  0.03254  0.86528  Biso   1.000  O
  O62      1.0000 0.85847  0.98446  0.05810  Biso   1.000  O
  O63      1.0000 0.04850  0.83958  0.02355  Biso   1.000  O
  O64      1.0000 0.51186  0.04251  0.67559  Biso   1.000  O
  O65      1.0000 0.36422  0.00057  0.47925  Biso   1.000  O
  O66      1.0000 0.55341  0.83671  0.53365  Biso   1.000  O
  O67      1.0000 0.50616  0.53742  0.86278  Biso   1.000  O
  O68      1.0000 0.67512  0.49556  0.05963  Biso   1.000  O
  O69      1.0000 0.47397  0.32578  0.01095  Biso   1.000  O
  O70      1.0000 0.01543  0.52926  0.67546  Biso   1.000  O
  O71      1.0000 0.17402  0.49241  0.47355  Biso   1.000  O
  O72      1.0000 0.97078  0.33068  0.51451  Biso   1.000  O
  O73      1.0000 0.00543  0.44660  0.67151  Biso   1.000  O
  O74      1.0000 0.67708  0.99127  0.47511  Biso   1.000  O
  O75      1.0000 0.46758  0.64416  0.02022  Biso   1.000  O
  O76      1.0000 0.51180  0.45267  0.86035  Biso   1.000  O
  O77      1.0000 0.17014  0.98594  0.06622  Biso   1.000  O
  O78      1.0000 0.97328  0.64326  0.52178  Biso   1.000  O
  O79      1.0000 0.50420  0.95624  0.67981  Biso   1.000  O
  O80      1.0000 0.85987  0.48868  0.47450  Biso   1.000  O
  O81      1.0000 0.05714  0.14771  0.02192  Biso   1.000  O
  O82      1.0000 0.01381  0.94921  0.86156  Biso   1.000  O
  O83      1.0000 0.35789  0.48987  0.05408  Biso   1.000  O
  O84      1.0000 0.55961  0.14833  0.52490  Biso   1.000  O
  O85      1.0000 0.02036  0.53588  0.36151  Biso   1.000  O
  O86      1.0000 0.35531  0.99881  0.56633  Biso   1.000  O
  O87      1.0000 0.55754  0.32622  0.01319  Biso   1.000  O
  O88      1.0000 0.51277  0.52011  0.17873  Biso   1.000  O
  O89      1.0000 0.85790  0.99962  0.97600  Biso   1.000  O
  O90      1.0000 0.05654  0.33738  0.52397  Biso   1.000  O
  O91      1.0000 0.51700  0.02299  0.36196  Biso   1.000  O
  O92      1.0000 0.16951  0.50549  0.55412  Biso   1.000  O
  O93      1.0000 0.96127  0.83695  0.01456  Biso   1.000  O
  O94      1.0000 0.01384  0.03699  0.18061  Biso   1.000  O
  O95      1.0000 0.67282  0.48602  0.97550  Biso   1.000  O
  O96      1.0000 0.46994  0.83514  0.52988  Biso   1.000  O
  O97      1.0000 0.47887  0.19679  0.49715  Biso   1.000  O
  O98      1.0000 0.52291  0.43207  0.22054  Biso   1.000  O
  O99      1.0000 0.22308  0.49624  0.47284  Biso   1.000  O
  O100     1.0000 0.97159  0.19769  0.01766  Biso   1.000  O
  O101     1.0000 0.01817  0.45201  0.31200  Biso   1.000  O
  O102     1.0000 0.72370  0.49634  0.06006  Biso   1.000  O
  O103     1.0000 0.05102  0.69960  0.52437  Biso   1.000  O
  O104     1.0000 0.01805  0.95323  0.22642  Biso   1.000  O
  O105     1.0000 0.31747  0.00456  0.47877  Biso   1.000  O
  O106     1.0000 0.54964  0.69414  0.03606  Biso   1.000  O
  O107     1.0000 0.51849  0.93823  0.31691  Biso   1.000  O
  O108     1.0000 0.81121  0.99146  0.05857  Biso   1.000  O
  O109     1.0000 0.55356  0.78754  0.53023  Biso   1.000  O
  O110     1.0000 0.51449  0.54474  0.81540  Biso   1.000  O
  O111     1.0000 0.79898  0.48138  0.55449  Biso   1.000  O
  O112     1.0000 0.04852  0.79168  0.02287  Biso   1.000  O
  O113     1.0000 0.00804  0.52795  0.72376  Biso   1.000  O
  O114     1.0000 0.31157  0.48167  0.96810  Biso   1.000  O
  O115     1.0000 0.97263  0.28206  0.51845  Biso   1.000  O
  O116     1.0000 0.01238  0.03277  0.81549  Biso   1.000  O
  O117     1.0000 0.72251  0.98306  0.56416  Biso   1.000  O
  O118     1.0000 0.47351  0.27718  0.00974  Biso   1.000  O
  O119     1.0000 0.51751  0.04396  0.72386  Biso   1.000  O
  O120     1.0000 0.22113  0.98989  0.98229  Biso   1.000  O
  O121     1.0000 0.04891  0.48151  0.71820  Biso   1.000  O
  O122     1.0000 0.72381  0.02934  0.52158  Biso   1.000  O
  O123     1.0000 0.50405  0.68692  0.07067  Biso   1.000  O
  O124     1.0000 0.55561  0.49779  0.81141  Biso   1.000  O
  O125     1.0000 0.21856  0.02568  0.03366  Biso   1.000  O
  O126     1.0000 0.01164  0.69672  0.47722  Biso   1.000  O
  O127     1.0000 0.46997  0.00541  0.72524  Biso   1.000  O
  O128     1.0000 0.80643  0.52648  0.51392  Biso   1.000  O
  O129     1.0000 0.01498  0.19967  0.06241  Biso   1.000  O
  O130     1.0000 0.97153  0.99174  0.81223  Biso   1.000  O
  O131     1.0000 0.30938  0.52586  0.00622  Biso   1.000  O
  O132     1.0000 0.53267  0.19532  0.47024  Biso   1.000  O
  O133     1.0000 0.97831  0.49075  0.31579  Biso   1.000  O
  O134     1.0000 0.30941  0.95975  0.51872  Biso   1.000  O
  O135     1.0000 0.51512  0.28179  0.96686  Biso   1.000  O
  O136     1.0000 0.47491  0.47074  0.21965  Biso   1.000  O
  O137     1.0000 0.80408  0.95579  0.01301  Biso   1.000  O
  O138     1.0000 0.01384  0.28342  0.56038  Biso   1.000  O
  O139     1.0000 0.56052  0.98025  0.31480  Biso   1.000  O
  O140     1.0000 0.21970  0.45701  0.51600  Biso   1.000  O
  O141     1.0000 0.00959  0.78856  0.97804  Biso   1.000  O
  O142     1.0000 0.05801  0.99664  0.23098  Biso   1.000  O
  O143     1.0000 0.72020  0.44935  0.02316  Biso   1.000  O
  O144     1.0000 0.51036  0.79129  0.57087  Biso   1.000  O
  O145     1.0000 0.55918  0.47954  0.22522  Biso   1.000  O
  O146     1.0000 0.22071  0.54140  0.51063  Biso   1.000  O
  O147     1.0000 0.51069  0.19473  0.55108  Biso   1.000  O
  O148     1.0000 0.06104  0.49008  0.31239  Biso   1.000  O
  O149     1.0000 0.71742  0.53223  0.01764  Biso   1.000  O
  O150     1.0000 0.01752  0.19517  0.98010  Biso   1.000  O
  O151     1.0000 0.97172  0.99206  0.22777  Biso   1.000  O
  O152     1.0000 0.31382  0.04317  0.52745  Biso   1.000  O
  O153     1.0000 0.00748  0.69223  0.56272  Biso   1.000  O
  O154     1.0000 0.47788  0.97995  0.31347  Biso   1.000  O
  O155     1.0000 0.81084  0.03487  0.02300  Biso   1.000  O
  O156     1.0000 0.50675  0.69602  0.98688  Biso   1.000  O
  O157     1.0000 0.47320  0.49619  0.80551  Biso   1.000  O
  O158     1.0000 0.80727  0.44399  0.51403  Biso   1.000  O
  O159     1.0000 0.51772  0.78541  0.48821  Biso   1.000  O
  O160     1.0000 0.96561  0.49217  0.71617  Biso   1.000  O
  O161     1.0000 0.31134  0.44431  0.00960  Biso   1.000  O
  O162     1.0000 0.00530  0.78791  0.06165  Biso   1.000  O
  O163     1.0000 0.05817  0.99394  0.81697  Biso   1.000  O
  O164     1.0000 0.72118  0.94393  0.51465  Biso   1.000  O
  O165     1.0000 0.01660  0.28907  0.47612  Biso   1.000  O
  O166     1.0000 0.55028  0.99220  0.72323  Biso   1.000  O
  O167     1.0000 0.21837  0.94516  0.01672  Biso   1.000  O
  O168     1.0000 0.51449  0.27599  0.04952  Biso   1.000  O
  O169     1.0000 0.01323  0.03610  0.22934  Biso   1.000  O
  O170     1.0000 0.21829  0.98118  0.06484  Biso   1.000  O
  O171     1.0000 0.05811  0.19577  0.02269  Biso   1.000  O
  O172     1.0000 0.51740  0.02175  0.31229  Biso   1.000  O
  O173     1.0000 0.72541  0.98870  0.47816  Biso   1.000  O
  O174     1.0000 0.55995  0.19774  0.52177  Biso   1.000  O
  O175     1.0000 0.50892  0.51636  0.22699  Biso   1.000  O
  O176     1.0000 0.30962  0.49000  0.05118  Biso   1.000  O
  O177     1.0000 0.46704  0.69044  0.03041  Biso   1.000  O
  O178     1.0000 0.01964  0.53455  0.31184  Biso   1.000  O
  O179     1.0000 0.81092  0.48751  0.47041  Biso   1.000  O
  O180     1.0000 0.96992  0.69118  0.51985  Biso   1.000  O
  O181     1.0000 0.01460  0.95217  0.81250  Biso   1.000  O
  O182     1.0000 0.80907  0.99991  0.97629  Biso   1.000  O
  O183     1.0000 0.96387  0.78978  0.01964  Biso   1.000  O
  O184     1.0000 0.50338  0.96012  0.72792  Biso   1.000  O
  O185     1.0000 0.30721  0.99332  0.56406  Biso   1.000  O
  O186     1.0000 0.46928  0.78629  0.52467  Biso   1.000  O
  O187     1.0000 0.51206  0.45461  0.81079  Biso   1.000  O
  O188     1.0000 0.72117  0.48828  0.97468  Biso   1.000  O
  O189     1.0000 0.56058  0.27652  0.00936  Biso   1.000  O
  O190     1.0000 0.99975  0.44474  0.71955  Biso   1.000  O
  O191     1.0000 0.21708  0.50106  0.55842  Biso   1.000  O
  O192     1.0000 0.05873  0.29023  0.52213  Biso   1.000  O
