data_image0
_cell_length_a       46.5462
_cell_length_b       47.0233
_cell_length_c       46.6038
_cell_angle_alpha    90
_cell_angle_beta     90
_cell_angle_gamma    90

_symmetry_space_group_name_H-M    "P 1"
_symmetry_int_tables_number       1

loop_
  _symmetry_equiv_pos_as_xyz
  'x, y, z'

loop_
  _atom_site_label
  _atom_site_occupancy
  _atom_site_fract_x
  _atom_site_fract_y
  _atom_site_fract_z
  _atom_site_thermal_displace_type
  _atom_site_B_iso_or_equiv
  _atom_site_type_symbol
  C1       1.0000 0.57866  0.97772  0.34427  Biso   1.000  C
  C2       1.0000 0.34751  0.53098  0.02958  Biso   1.000  C
  C3       1.0000 0.03480  0.30128  0.57194  Biso   1.000  C
  C4       1.0000 0.07471  0.99805  0.20377  Biso   1.000  C
  C5       1.0000 0.84568  0.53575  0.53365  Biso   1.000  C
  C6       1.0000 0.54193  0.29666  0.97486  Biso   1.000  C
  C7       1.0000 0.97303  0.49685  0.35188  Biso   1.000  C
  C8       1.0000 0.21146  0.03486  0.04126  Biso   1.000  C
  C9       1.0000 0.52292  0.79623  0.58478  Biso   1.000  C
  C10      1.0000 0.47872  0.48398  0.21421  Biso   1.000  C
  C11      1.0000 0.70201  0.03210  0.52881  Biso   1.000  C
  C12      1.0000 0.01747  0.79945  0.98114  Biso   1.000  C
  C13      1.0000 0.48276  0.97032  0.71576  Biso   1.000  C
  C14      1.0000 0.71292  0.42945  0.03444  Biso   1.000  C
  C15      1.0000 0.03663  0.66723  0.48421  Biso   1.000  C
  C16      1.0000 0.98636  0.96513  0.84703  Biso   1.000  C
  C17      1.0000 0.20696  0.42952  0.52505  Biso   1.000  C
  C18      1.0000 0.51504  0.66497  0.09249  Biso   1.000  C
  C19      1.0000 0.08108  0.47014  0.70390  Biso   1.000  C
  C20      1.0000 0.85336  0.92626  0.02242  Biso   1.000  C
  C21      1.0000 0.52817  0.16182  0.47384  Biso   1.000  C
  C22      1.0000 0.58049  0.47287  0.84952  Biso   1.000  C
  C23      1.0000 0.34359  0.93008  0.52435  Biso   1.000  C
  C24      1.0000 0.03796  0.16779  0.07311  Biso   1.000  C
  C25      1.0000 0.34634  0.03862  0.53253  Biso   1.000  C
  C26      1.0000 0.52863  0.30040  0.08206  Biso   1.000  C
  C27      1.0000 0.08008  0.48305  0.34559  Biso   1.000  C
  C28      1.0000 0.85218  0.03393  0.02452  Biso   1.000  C
  C29      1.0000 0.01253  0.30568  0.46539  Biso   1.000  C
  C30      1.0000 0.58717  0.47534  0.20955  Biso   1.000  C
  C31      1.0000 0.21206  0.53671  0.53141  Biso   1.000  C
  C32      1.0000 0.03836  0.80730  0.08752  Biso   1.000  C
  C33      1.0000 0.46864  0.97898  0.35348  Biso   1.000  C
  C34      1.0000 0.70766  0.53830  0.02354  Biso   1.000  C
  C35      1.0000 0.51513  0.80132  0.47791  Biso   1.000  C
  C36      1.0000 0.96686  0.98426  0.20370  Biso   1.000  C
  C37      1.0000 0.70218  0.92278  0.52500  Biso   1.000  C
  C38      1.0000 0.52833  0.65821  0.98398  Biso   1.000  C
  C39      1.0000 0.97187  0.47217  0.70676  Biso   1.000  C
  C40      1.0000 0.21022  0.93012  0.02213  Biso   1.000  C
  C41      1.0000 0.01708  0.65595  0.59200  Biso   1.000  C
  C42      1.0000 0.47020  0.48916  0.85299  Biso   1.000  C
  C43      1.0000 0.84237  0.42731  0.52655  Biso   1.000  C
  C44      1.0000 0.03237  0.15468  0.96469  Biso   1.000  C
  C45      1.0000 0.59101  0.98228  0.71313  Biso   1.000  C
  C46      1.0000 0.34983  0.42033  0.03039  Biso   1.000  C
  C47      1.0000 0.51828  0.16466  0.58199  Biso   1.000  C
  C48      1.0000 0.09277  0.98495  0.85291  Biso   1.000  C
  C49      1.0000 0.03071  0.02707  0.84317  Biso   1.000  C
  C50      1.0000 0.84061  0.97828  0.07639  Biso   1.000  C
  C51      1.0000 0.07968  0.80288  0.02315  Biso   1.000  C
  C52      1.0000 0.52927  0.03223  0.71010  Biso   1.000  C
  C53      1.0000 0.34518  0.98793  0.47799  Biso   1.000  C
  C54      1.0000 0.57589  0.79324  0.52702  Biso   1.000  C
  C55      1.0000 0.53526  0.53258  0.85295  Biso   1.000  C
  C56      1.0000 0.71108  0.48974  0.08144  Biso   1.000  C
  C57      1.0000 0.48201  0.29486  0.02210  Biso   1.000  C
  C58      1.0000 0.02699  0.52655  0.71190  Biso   1.000  C
  C59      1.0000 0.20856  0.48379  0.47154  Biso   1.000  C
  C60      1.0000 0.97103  0.30334  0.53317  Biso   1.000  C
  C61      1.0000 0.03030  0.93715  0.20598  Biso   1.000  C
  C62      1.0000 0.21508  0.98793  0.97936  Biso   1.000  C
  C63      1.0000 0.97661  0.16311  0.01817  Biso   1.000  C
  C64      1.0000 0.52483  0.92768  0.34905  Biso   1.000  C
  C65      1.0000 0.70492  0.97410  0.57786  Biso   1.000  C
  C66      1.0000 0.46855  0.16829  0.52306  Biso   1.000  C
  C67      1.0000 0.53253  0.42809  0.21048  Biso   1.000  C
  C68      1.0000 0.34579  0.47424  0.97898  Biso   1.000  C
  C69      1.0000 0.57517  0.66333  0.04923  Biso   1.000  C
  C70      1.0000 0.01964  0.43808  0.34946  Biso   1.000  C
  C71      1.0000 0.84275  0.47326  0.58233  Biso   1.000  C
  C72      1.0000 0.08191  0.66283  0.54945  Biso   1.000  C
  C73      1.0000 0.03208  0.54665  0.35239  Biso   1.000  C
  C74      1.0000 0.35314  0.98111  0.58540  Biso   1.000  C
  C75      1.0000 0.58933  0.29971  0.03994  Biso   1.000  C
  C76      1.0000 0.53603  0.53540  0.21352  Biso   1.000  C
  C77      1.0000 0.85694  0.98023  0.96887  Biso   1.000  C
  C78      1.0000 0.07740  0.30436  0.50603  Biso   1.000  C
  C79      1.0000 0.52489  0.03506  0.34598  Biso   1.000  C
  C80      1.0000 0.20813  0.47924  0.58251  Biso   1.000  C
  C81      1.0000 0.97268  0.79608  0.04080  Biso   1.000  C
  C82      1.0000 0.01401  0.04634  0.20236  Biso   1.000  C
  C83      1.0000 0.71238  0.47961  0.97314  Biso   1.000  C
  C84      1.0000 0.46886  0.80020  0.53229  Biso   1.000  C
  C85      1.0000 0.02686  0.41973  0.70295  Biso   1.000  C
  C86      1.0000 0.70687  0.97992  0.46925  Biso   1.000  C
  C87      1.0000 0.46852  0.66325  0.02991  Biso   1.000  C
  C88      1.0000 0.51424  0.42460  0.84957  Biso   1.000  C
  C89      1.0000 0.20914  0.97764  0.08533  Biso   1.000  C
  C90      1.0000 0.97573  0.66071  0.52742  Biso   1.000  C
  C91      1.0000 0.54164  0.92248  0.71191  Biso   1.000  C
  C92      1.0000 0.84596  0.48347  0.47503  Biso   1.000  C
  C93      1.0000 0.08831  0.16066  0.01536  Biso   1.000  C
  C94      1.0000 0.04728  0.92195  0.85371  Biso   1.000  C
  C95      1.0000 0.34978  0.47906  0.08603  Biso   1.000  C
  C96      1.0000 0.57678  0.16114  0.53299  Biso   1.000  C
  C97      1.0000 0.70289  0.06397  0.52600  Biso   1.000  C
  C98      1.0000 0.51129  0.66397  0.12388  Biso   1.000  C
  C99      1.0000 0.11196  0.47067  0.70467  Biso   1.000  C
  C100     1.0000 0.21470  0.06621  0.03876  Biso   1.000  C
  C101     1.0000 0.03779  0.66837  0.45096  Biso   1.000  C
  C102     1.0000 0.61240  0.47153  0.84871  Biso   1.000  C
  C103     1.0000 0.84473  0.56844  0.53491  Biso   1.000  C
  C104     1.0000 0.03640  0.16953  0.10602  Biso   1.000  C
  C105     1.0000 0.45038  0.96816  0.71519  Biso   1.000  C
  C106     1.0000 0.34735  0.56312  0.02855  Biso   1.000  C
  C107     1.0000 0.53013  0.16118  0.44181  Biso   1.000  C
  C108     1.0000 0.95354  0.96503  0.84665  Biso   1.000  C
  C109     1.0000 0.34328  0.89788  0.52159  Biso   1.000  C
  C110     1.0000 0.53827  0.29827  0.94378  Biso   1.000  C
  C111     1.0000 0.94079  0.49776  0.35054  Biso   1.000  C
  C112     1.0000 0.85181  0.89397  0.02797  Biso   1.000  C
  C113     1.0000 0.03794  0.29848  0.60345  Biso   1.000  C
  C114     1.0000 0.44604  0.48244  0.21356  Biso   1.000  C
  C115     1.0000 0.20711  0.39803  0.51946  Biso   1.000  C
  C116     1.0000 0.01793  0.79883  0.94930  Biso   1.000  C
  C117     1.0000 0.61030  0.97505  0.34387  Biso   1.000  C
  C118     1.0000 0.71304  0.39773  0.04094  Biso   1.000  C
  C119     1.0000 0.52224  0.79497  0.61760  Biso   1.000  C
  C120     1.0000 0.10720  0.99560  0.20726  Biso   1.000  C
  C121     1.0000 0.83866  0.98201  0.10866  Biso   1.000  C
  C122     1.0000 0.11251  0.80325  0.01486  Biso   1.000  C
  C123     1.0000 0.03108  0.05925  0.84115  Biso   1.000  C
  C124     1.0000 0.34273  0.98470  0.44657  Biso   1.000  C
  C125     1.0000 0.60742  0.79281  0.52573  Biso   1.000  C
  C126     1.0000 0.52405  0.06453  0.70880  Biso   1.000  C
  C127     1.0000 0.71207  0.49030  0.11312  Biso   1.000  C
  C128     1.0000 0.44971  0.29471  0.01806  Biso   1.000  C
  C129     1.0000 0.54096  0.56444  0.85514  Biso   1.000  C
  C130     1.0000 0.20686  0.48107  0.44025  Biso   1.000  C
  C131     1.0000 0.93858  0.30325  0.54074  Biso   1.000  C
  C132     1.0000 0.02654  0.55873  0.71364  Biso   1.000  C
  C133     1.0000 0.21570  0.97895  0.94823  Biso   1.000  C
  C134     1.0000 0.94439  0.16427  0.01962  Biso   1.000  C
  C135     1.0000 0.03159  0.90485  0.20869  Biso   1.000  C
  C136     1.0000 0.70776  0.97299  0.61060  Biso   1.000  C
  C137     1.0000 0.43605  0.16814  0.52465  Biso   1.000  C
  C138     1.0000 0.52095  0.89700  0.34932  Biso   1.000  C
  C139     1.0000 0.34685  0.46772  0.94663  Biso   1.000  C
  C140     1.0000 0.60699  0.66268  0.05154  Biso   1.000  C
  C141     1.0000 0.53003  0.39586  0.21077  Biso   1.000  C
  C142     1.0000 0.84282  0.46661  0.61337  Biso   1.000  C
  C143     1.0000 0.11449  0.66243  0.55670  Biso   1.000  C
  C144     1.0000 0.01073  0.40757  0.34542  Biso   1.000  C
  C145     1.0000 0.35086  0.48108  0.11781  Biso   1.000  C
  C146     1.0000 0.10905  0.30699  0.50711  Biso   1.000  C
  C147     1.0000 0.52560  0.06592  0.34657  Biso   1.000  C
  C148     1.0000 0.84610  0.48565  0.44362  Biso   1.000  C
  C149     1.0000 0.62088  0.29883  0.04408  Biso   1.000  C
  C150     1.0000 0.01202  0.07868  0.20044  Biso   1.000  C
  C151     1.0000 0.20654  0.98026  0.11693  Biso   1.000  C
  C152     1.0000 0.43648  0.80149  0.52853  Biso   1.000  C
  C153     1.0000 0.02922  0.57791  0.35393  Biso   1.000  C
  C154     1.0000 0.70751  0.97715  0.43845  Biso   1.000  C
  C155     1.0000 0.94080  0.79553  0.04139  Biso   1.000  C
  C156     1.0000 0.53279  0.56716  0.21545  Biso   1.000  C
  C157     1.0000 0.71096  0.47811  0.94172  Biso   1.000  C
  C158     1.0000 0.94297  0.66000  0.52326  Biso   1.000  C
  C159     1.0000 0.53848  0.89008  0.71166  Biso   1.000  C
  C160     1.0000 0.20862  0.47914  0.61453  Biso   1.000  C
  C161     1.0000 0.43689  0.66093  0.03150  Biso   1.000  C
  C162     1.0000 0.04490  0.89120  0.85306  Biso   1.000  C
  C163     1.0000 0.85823  0.97093  0.93778  Biso   1.000  C
  C164     1.0000 0.60861  0.15957  0.53767  Biso   1.000  C
  C165     1.0000 0.03125  0.38800  0.70118  Biso   1.000  C
  C166     1.0000 0.35433  0.97280  0.61726  Biso   1.000  C
  C167     1.0000 0.12040  0.16008  0.01542  Biso   1.000  C
  C168     1.0000 0.50575  0.39349  0.85225  Biso   1.000  C
  C169     1.0000 0.04136  0.80718  0.11984  Biso   1.000  C
  C170     1.0000 0.12392  0.98388  0.85186  Biso   1.000  C
  C171     1.0000 0.85182  0.06595  0.02430  Biso   1.000  C
  C172     1.0000 0.51407  0.80080  0.44669  Biso   1.000  C
  C173     1.0000 0.62230  0.98145  0.71174  Biso   1.000  C
  C174     1.0000 0.34429  0.07070  0.53181  Biso   1.000  C
  C175     1.0000 0.53008  0.30299  0.11434  Biso   1.000  C
  C176     1.0000 0.43812  0.49035  0.85342  Biso   1.000  C
  C177     1.0000 0.70452  0.56997  0.02956  Biso   1.000  C
  C178     1.0000 0.00858  0.30685  0.43397  Biso   1.000  C
  C179     1.0000 0.93968  0.47256  0.70692  Biso   1.000  C
  C180     1.0000 0.21233  0.56979  0.53514  Biso   1.000  C
  C181     1.0000 0.04091  0.15074  0.93408  Biso   1.000  C
  C182     1.0000 0.93388  0.98490  0.20384  Biso   1.000  C
  C183     1.0000 0.20807  0.89826  0.01876  Biso   1.000  C
  C184     1.0000 0.51831  0.16431  0.61459  Biso   1.000  C
  C185     1.0000 0.43652  0.97806  0.35407  Biso   1.000  C
  C186     1.0000 0.70148  0.89037  0.52318  Biso   1.000  C
  C187     1.0000 0.53055  0.65660  0.95270  Biso   1.000  C
  C188     1.0000 0.61985  0.47355  0.20893  Biso   1.000  C
  C189     1.0000 0.35331  0.38844  0.02723  Biso   1.000  C
  C190     1.0000 0.01597  0.65662  0.62323  Biso   1.000  C
  C191     1.0000 0.11135  0.48193  0.34422  Biso   1.000  C
  C192     1.0000 0.84211  0.39482  0.52884  Biso   1.000  C
  C193     1.0000 0.88563  0.97013  0.92370  Biso   1.000  C
  C194     1.0000 0.92575  0.82487  0.04065  Biso   1.000  C
  C195     1.0000 0.03505  0.87620  0.88069  Biso   1.000  C
  C196     1.0000 0.38055  0.97061  0.63314  Biso   1.000  C
  C197     1.0000 0.42114  0.83027  0.52865  Biso   1.000  C
  C198     1.0000 0.53294  0.87644  0.68377  Biso   1.000  C
  C199     1.0000 0.68243  0.47927  0.92600  Biso   1.000  C
  C200     1.0000 0.63620  0.32682  0.04530  Biso   1.000  C
  C201     1.0000 0.51145  0.37615  0.87792  Biso   1.000  C
  C202     1.0000 0.18064  0.48004  0.62980  Biso   1.000  C
  C203     1.0000 0.12617  0.33324  0.50940  Biso   1.000  C
  C204     1.0000 0.03280  0.37256  0.67441  Biso   1.000  C
  C205     1.0000 0.17782  0.98458  0.13161  Biso   1.000  C
  C206     1.0000 0.13549  0.13237  0.01946  Biso   1.000  C
  C207     1.0000 0.01596  0.09369  0.17328  Biso   1.000  C
  C208     1.0000 0.67945  0.97824  0.42237  Biso   1.000  C
  C209     1.0000 0.62306  0.13225  0.53250  Biso   1.000  C
  C210     1.0000 0.52646  0.08212  0.37429  Biso   1.000  C
  C211     1.0000 0.37755  0.48161  0.13431  Biso   1.000  C
  C212     1.0000 0.42140  0.63446  0.03095  Biso   1.000  C
  C213     1.0000 0.53060  0.58497  0.18929  Biso   1.000  C
  C214     1.0000 0.87214  0.48905  0.42867  Biso   1.000  C
  C215     1.0000 0.92575  0.63322  0.52274  Biso   1.000  C
  C216     1.0000 0.02788  0.59180  0.38165  Biso   1.000  C
  C217     1.0000 0.14061  0.98218  0.87770  Biso   1.000  C
  C218     1.0000 0.87853  0.08216  0.02206  Biso   1.000  C
  C219     1.0000 0.03889  0.83402  0.13445  Biso   1.000  C
  C220     1.0000 0.63741  0.98552  0.68460  Biso   1.000  C
  C221     1.0000 0.36977  0.08694  0.52963  Biso   1.000  C
  C222     1.0000 0.51641  0.82833  0.43113  Biso   1.000  C
  C223     1.0000 0.42270  0.48686  0.88058  Biso   1.000  C
  C224     1.0000 0.67687  0.58457  0.03446  Biso   1.000  C
  C225     1.0000 0.53310  0.33021  0.13124  Biso   1.000  C
  C226     1.0000 0.92231  0.47130  0.68055  Biso   1.000  C
  C227     1.0000 0.18346  0.58520  0.54131  Biso   1.000  C
  C228     1.0000 0.00568  0.33418  0.41825  Biso   1.000  C
  C229     1.0000 0.91888  0.98460  0.17530  Biso   1.000  C
  C230     1.0000 0.18042  0.88200  0.01652  Biso   1.000  C
  C231     1.0000 0.03748  0.12357  0.91741  Biso   1.000  C
  C232     1.0000 0.42016  0.97738  0.38207  Biso   1.000  C
  C233     1.0000 0.67401  0.87365  0.52163  Biso   1.000  C
  C234     1.0000 0.52193  0.13637  0.62785  Biso   1.000  C
  C235     1.0000 0.63520  0.47807  0.18160  Biso   1.000  C
  C236     1.0000 0.37926  0.37234  0.02618  Biso   1.000  C
  C237     1.0000 0.53079  0.63017  0.93581  Biso   1.000  C
  C238     1.0000 0.12709  0.48220  0.37153  Biso   1.000  C
  C239     1.0000 0.87000  0.38066  0.53328  Biso   1.000  C
  C240     1.0000 0.02071  0.62962  0.63818  Biso   1.000  C
  C241     1.0000 0.63039  0.47364  0.87477  Biso   1.000  C
  C242     1.0000 0.87388  0.58360  0.53241  Biso   1.000  C
  C243     1.0000 0.52509  0.82352  0.63316  Biso   1.000  C
  C244     1.0000 0.12869  0.47313  0.67824  Biso   1.000  C
  C245     1.0000 0.37394  0.58016  0.02904  Biso   1.000  C
  C246     1.0000 0.02541  0.82484  0.93434  Biso   1.000  C
  C247     1.0000 0.93784  0.96662  0.87287  Biso   1.000  C
  C248     1.0000 0.67478  0.08024  0.52975  Biso   1.000  C
  C249     1.0000 0.03540  0.32430  0.61991  Biso   1.000  C
  C250     1.0000 0.43522  0.96934  0.68796  Biso   1.000  C
  C251     1.0000 0.18807  0.08202  0.03638  Biso   1.000  C
  C252     1.0000 0.53196  0.32593  0.92866  Biso   1.000  C
  C253     1.0000 0.42939  0.48419  0.18605  Biso   1.000  C
  C254     1.0000 0.17953  0.38314  0.51609  Biso   1.000  C
  C255     1.0000 0.53073  0.13510  0.42523  Biso   1.000  C
  C256     1.0000 0.92575  0.49285  0.37794  Biso   1.000  C
  C257     1.0000 0.68567  0.38054  0.04311  Biso   1.000  C
  C258     1.0000 0.02982  0.14342  0.12201  Biso   1.000  C
  C259     1.0000 0.12399  0.99059  0.18095  Biso   1.000  C
  C260     1.0000 0.36939  0.88127  0.52168  Biso   1.000  C
  C261     1.0000 0.03628  0.64179  0.43512  Biso   1.000  C
  C262     1.0000 0.62721  0.97824  0.37132  Biso   1.000  C
  C263     1.0000 0.87867  0.87642  0.02928  Biso   1.000  C
  C264     1.0000 0.51872  0.63684  0.13968  Biso   1.000  C
  C265     1.0000 0.03332  0.07611  0.86732  Biso   1.000  C
  C266     1.0000 0.86491  0.98154  0.12629  Biso   1.000  C
  C267     1.0000 0.12970  0.82982  0.01255  Biso   1.000  C
  C268     1.0000 0.52392  0.08093  0.68074  Biso   1.000  C
  C269     1.0000 0.36823  0.97853  0.43171  Biso   1.000  C
  C270     1.0000 0.62387  0.81926  0.52322  Biso   1.000  C
  C271     1.0000 0.53828  0.57906  0.88364  Biso   1.000  C
  C272     1.0000 0.68481  0.48468  0.12752  Biso   1.000  C
  C273     1.0000 0.43356  0.32197  0.01754  Biso   1.000  C
  C274     1.0000 0.02621  0.57644  0.68679  Biso   1.000  C
  C275     1.0000 0.17942  0.48059  0.42474  Biso   1.000  C
  C276     1.0000 0.92194  0.33048  0.53926  Biso   1.000  C
  C277     1.0000 0.03449  0.88752  0.18181  Biso   1.000  C
  C278     1.0000 0.18998  0.98134  0.92951  Biso   1.000  C
  C279     1.0000 0.92834  0.13738  0.01876  Biso   1.000  C
  C280     1.0000 0.51839  0.88180  0.37790  Biso   1.000  C
  C281     1.0000 0.68329  0.97648  0.62853  Biso   1.000  C
  C282     1.0000 0.42053  0.14046  0.52705  Biso   1.000  C
  C283     1.0000 0.53071  0.38056  0.18306  Biso   1.000  C
  C284     1.0000 0.37317  0.47285  0.92990  Biso   1.000  C
  C285     1.0000 0.62370  0.63552  0.04682  Biso   1.000  C
  C286     1.0000 0.00663  0.38919  0.37135  Biso   1.000  C
  C287     1.0000 0.87097  0.46744  0.62920  Biso   1.000  C
  C288     1.0000 0.13071  0.63549  0.55277  Biso   1.000  C
  C289     1.0000 0.36741  0.85098  0.52273  Biso   1.000  C
  C290     1.0000 0.52312  0.32371  0.89792  Biso   1.000  C
  C291     1.0000 0.89320  0.49238  0.37621  Biso   1.000  C
  C292     1.0000 0.87452  0.84664  0.03641  Biso   1.000  C
  C293     1.0000 0.03771  0.32165  0.65153  Biso   1.000  C
  C294     1.0000 0.39793  0.48228  0.18724  Biso   1.000  C
  C295     1.0000 0.17989  0.35152  0.51570  Biso   1.000  C
  C296     1.0000 0.02550  0.82527  0.90284  Biso   1.000  C
  C297     1.0000 0.65853  0.97754  0.36996  Biso   1.000  C
  C298     1.0000 0.68802  0.34906  0.04488  Biso   1.000  C
  C299     1.0000 0.52945  0.82190  0.66340  Biso   1.000  C
  C300     1.0000 0.15522  0.99086  0.18358  Biso   1.000  C
  C301     1.0000 0.67559  0.11201  0.52896  Biso   1.000  C
  C302     1.0000 0.51792  0.63761  0.17050  Biso   1.000  C
  C303     1.0000 0.15935  0.47477  0.68192  Biso   1.000  C
  C304     1.0000 0.18726  0.11284  0.02818  Biso   1.000  C
  C305     1.0000 0.03651  0.64485  0.40334  Biso   1.000  C
  C306     1.0000 0.66210  0.47303  0.87283  Biso   1.000  C
  C307     1.0000 0.87280  0.61529  0.53007  Biso   1.000  C
  C308     1.0000 0.02671  0.14521  0.15287  Biso   1.000  C
  C309     1.0000 0.40373  0.96817  0.68810  Biso   1.000  C
  C310     1.0000 0.37055  0.61023  0.02495  Biso   1.000  C
  C311     1.0000 0.52550  0.13640  0.39371  Biso   1.000  C
  C312     1.0000 0.90587  0.96602  0.87022  Biso   1.000  C
  C313     1.0000 0.17957  0.47866  0.39193  Biso   1.000  C
  C314     1.0000 0.38835  0.14000  0.52965  Biso   1.000  C
  C315     1.0000 0.52599  0.34997  0.18482  Biso   1.000  C
  C316     1.0000 0.68723  0.48018  0.15853  Biso   1.000  C
  C317     1.0000 0.89640  0.13794  0.02160  Biso   1.000  C
  C318     1.0000 0.00721  0.35814  0.36752  Biso   1.000  C
  C319     1.0000 0.36625  0.98366  0.40039  Biso   1.000  C
  C320     1.0000 0.16281  0.63594  0.55165  Biso   1.000  C
  C321     1.0000 0.03740  0.85687  0.18498  Biso   1.000  C
  C322     1.0000 0.86367  0.98313  0.15709  Biso   1.000  C
  C323     1.0000 0.65516  0.63645  0.04154  Biso   1.000  C
  C324     1.0000 0.51761  0.85048  0.37870  Biso   1.000  C
  C325     1.0000 0.86916  0.46900  0.66033  Biso   1.000  C
  C326     1.0000 0.65581  0.81846  0.52743  Biso   1.000  C
  C327     1.0000 0.53429  0.61130  0.88362  Biso   1.000  C
  C328     1.0000 0.37093  0.47795  0.90005  Biso   1.000  C
  C329     1.0000 0.16065  0.82876  0.01476  Biso   1.000  C
  C330     1.0000 0.02426  0.60743  0.68920  Biso   1.000  C
  C331     1.0000 0.68645  0.97349  0.65903  Biso   1.000  C
  C332     1.0000 0.89114  0.32777  0.53710  Biso   1.000  C
  C333     1.0000 0.03816  0.10666  0.86533  Biso   1.000  C
  C334     1.0000 0.19257  0.97967  0.89803  Biso   1.000  C
  C335     1.0000 0.40179  0.32038  0.01519  Biso   1.000  C
  C336     1.0000 0.52308  0.11336  0.68081  Biso   1.000  C
  C337     1.0000 0.68389  0.47536  0.89354  Biso   1.000  C
  C338     1.0000 0.89444  0.63607  0.52619  Biso   1.000  C
  C339     1.0000 0.53391  0.84348  0.68469  Biso   1.000  C
  C340     1.0000 0.18114  0.47782  0.66194  Biso   1.000  C
  C341     1.0000 0.39047  0.63362  0.02571  Biso   1.000  C
  C342     1.0000 0.03133  0.84546  0.88057  Biso   1.000  C
  C343     1.0000 0.88451  0.96597  0.89145  Biso   1.000  C
  C344     1.0000 0.65470  0.13320  0.53231  Biso   1.000  C
  C345     1.0000 0.03555  0.34156  0.67422  Biso   1.000  C
  C346     1.0000 0.38220  0.96975  0.66539  Biso   1.000  C
  C347     1.0000 0.16646  0.13239  0.01973  Biso   1.000  C
  C348     1.0000 0.51619  0.34547  0.87705  Biso   1.000  C
  C349     1.0000 0.37573  0.48087  0.16631  Biso   1.000  C
  C350     1.0000 0.15776  0.33046  0.51209  Biso   1.000  C
  C351     1.0000 0.52698  0.11382  0.37252  Biso   1.000  C
  C352     1.0000 0.87219  0.49101  0.39760  Biso   1.000  C
  C353     1.0000 0.66845  0.32650  0.04383  Biso   1.000  C
  C354     1.0000 0.02128  0.12410  0.17391  Biso   1.000  C
  C355     1.0000 0.17726  0.98846  0.16293  Biso   1.000  C
  C356     1.0000 0.38937  0.82989  0.52448  Biso   1.000  C
  C357     1.0000 0.03334  0.62399  0.38118  Biso   1.000  C
  C358     1.0000 0.68030  0.97583  0.39130  Biso   1.000  C
  C359     1.0000 0.89483  0.82404  0.04136  Biso   1.000  C
  C360     1.0000 0.52423  0.61625  0.19235  Biso   1.000  C
  C361     1.0000 0.04044  0.12738  0.88665  Biso   1.000  C
  C362     1.0000 0.88684  0.98573  0.17717  Biso   1.000  C
  C363     1.0000 0.18220  0.84988  0.01472  Biso   1.000  C
  C364     1.0000 0.52419  0.13569  0.65953  Biso   1.000  C
  C365     1.0000 0.38865  0.98178  0.37997  Biso   1.000  C
  C366     1.0000 0.67633  0.84174  0.52594  Biso   1.000  C
  C367     1.0000 0.53168  0.63266  0.90488  Biso   1.000  C
  C368     1.0000 0.66604  0.47572  0.18094  Biso   1.000  C
  C369     1.0000 0.38000  0.34131  0.01888  Biso   1.000  C
  C370     1.0000 0.02151  0.63031  0.66886  Biso   1.000  C
  C371     1.0000 0.15801  0.47853  0.37110  Biso   1.000  C
  C372     1.0000 0.86876  0.34891  0.53579  Biso   1.000  C
  C373     1.0000 0.03993  0.83418  0.16515  Biso   1.000  C
  C374     1.0000 0.17194  0.97940  0.87595  Biso   1.000  C
  C375     1.0000 0.87712  0.11478  0.02388  Biso   1.000  C
  C376     1.0000 0.51558  0.82749  0.40001  Biso   1.000  C
  C377     1.0000 0.66730  0.97816  0.68245  Biso   1.000  C
  C378     1.0000 0.36694  0.11802  0.52938  Biso   1.000  C
  C379     1.0000 0.52783  0.32896  0.16249  Biso   1.000  C
  C380     1.0000 0.39126  0.48268  0.87790  Biso   1.000  C
  C381     1.0000 0.67719  0.61562  0.03606  Biso   1.000  C
  C382     1.0000 0.00671  0.33417  0.38778  Biso   1.000  C
  C383     1.0000 0.89150  0.47041  0.68200  Biso   1.000  C
  C384     1.0000 0.18437  0.61513  0.54721  Biso   1.000  C
  C385     1.0000 0.21431  0.12698  0.02277  Biso   1.000  C
  C386     1.0000 0.03013  0.17174  0.16870  Biso   1.000  C
  C387     1.0000 0.17019  0.99901  0.21053  Biso   1.000  C
  C388     1.0000 0.70220  0.12830  0.52671  Biso   1.000  C
  C389     1.0000 0.52241  0.16225  0.37783  Biso   1.000  C
  C390     1.0000 0.67288  0.97550  0.34324  Biso   1.000  C
  C391     1.0000 0.34260  0.62503  0.02060  Biso   1.000  C
  C392     1.0000 0.51202  0.66274  0.18607  Biso   1.000  C
  C393     1.0000 0.38227  0.48042  0.21418  Biso   1.000  C
  C394     1.0000 0.84644  0.63082  0.53265  Biso   1.000  C
  C395     1.0000 0.03955  0.67294  0.38960  Biso   1.000  C
  C396     1.0000 0.87593  0.49283  0.34905  Biso   1.000  C
  C397     1.0000 0.84622  0.83274  0.03839  Biso   1.000  C
  C398     1.0000 0.02285  0.79797  0.88801  Biso   1.000  C
  C399     1.0000 0.89068  0.96296  0.84306  Biso   1.000  C
  C400     1.0000 0.34105  0.83354  0.52363  Biso   1.000  C
  C401     1.0000 0.53145  0.79488  0.67892  Biso   1.000  C
  C402     1.0000 0.38734  0.96747  0.71519  Biso   1.000  C
  C403     1.0000 0.71525  0.33439  0.04423  Biso   1.000  C
  C404     1.0000 0.52230  0.29675  0.88289  Biso   1.000  C
  C405     1.0000 0.67627  0.47296  0.84546  Biso   1.000  C
  C406     1.0000 0.20617  0.33526  0.51787  Biso   1.000  C
  C407     1.0000 0.03957  0.29351  0.66596  Biso   1.000  C
  C408     1.0000 0.17466  0.47183  0.70888  Biso   1.000  C
  C409     1.0000 0.18754  0.97867  0.85028  Biso   1.000  C
  C410     1.0000 0.84941  0.12875  0.02992  Biso   1.000  C
  C411     1.0000 0.04127  0.80765  0.18107  Biso   1.000  C
  C412     1.0000 0.68517  0.97388  0.70783  Biso   1.000  C
  C413     1.0000 0.33907  0.13339  0.53156  Biso   1.000  C
  C414     1.0000 0.51386  0.80060  0.38440  Biso   1.000  C
  C415     1.0000 0.37579  0.48489  0.85106  Biso   1.000  C
  C416     1.0000 0.70372  0.63371  0.03324  Biso   1.000  C
  C417     1.0000 0.52366  0.30156  0.17746  Biso   1.000  C
  C418     1.0000 0.87536  0.46937  0.70879  Biso   1.000  C
  C419     1.0000 0.21166  0.63168  0.54689  Biso   1.000  C
  C420     1.0000 0.00916  0.30923  0.36997  Biso   1.000  C
  C421     1.0000 0.87139  0.98503  0.20442  Biso   1.000  C
  C422     1.0000 0.20783  0.83462  0.01466  Biso   1.000  C
  C423     1.0000 0.04736  0.15458  0.87165  Biso   1.000  C
  C424     1.0000 0.37431  0.98699  0.35346  Biso   1.000  C
  C425     1.0000 0.70355  0.82674  0.52928  Biso   1.000  C
  C426     1.0000 0.52298  0.16185  0.67690  Biso   1.000  C
  C427     1.0000 0.68324  0.47224  0.20636  Biso   1.000  C
  C428     1.0000 0.35225  0.32462  0.01644  Biso   1.000  C
  C429     1.0000 0.52756  0.65933  0.88883  Biso   1.000  C
  C430     1.0000 0.17383  0.47912  0.34364  Biso   1.000  C
  C431     1.0000 0.84267  0.33140  0.53765  Biso   1.000  C
  C432     1.0000 0.02199  0.65685  0.68601  Biso   1.000  C
  C433     1.0000 0.04162  0.12347  0.83812  Biso   1.000  C
  C434     1.0000 0.83768  0.98245  0.17347  Biso   1.000  C
  C435     1.0000 0.17543  0.80113  0.01622  Biso   1.000  C
  C436     1.0000 0.52274  0.12767  0.70897  Biso   1.000  C
  C437     1.0000 0.34086  0.99074  0.38487  Biso   1.000  C
  C438     1.0000 0.67155  0.79221  0.53222  Biso   1.000  C
  C439     1.0000 0.53388  0.62826  0.85648  Biso   1.000  C
  C440     1.0000 0.71449  0.48352  0.17350  Biso   1.000  C
  C441     1.0000 0.38599  0.29406  0.00931  Biso   1.000  C
  C442     1.0000 0.02611  0.62278  0.71611  Biso   1.000  C
  C443     1.0000 0.20680  0.48040  0.37606  Biso   1.000  C
  C444     1.0000 0.87611  0.29979  0.53918  Biso   1.000  C
  C445     1.0000 0.03872  0.84163  0.21179  Biso   1.000  C
  C446     1.0000 0.22032  0.97579  0.88400  Biso   1.000  C
  C447     1.0000 0.87986  0.16459  0.02625  Biso   1.000  C
  C448     1.0000 0.51519  0.83416  0.35232  Biso   1.000  C
  C449     1.0000 0.71398  0.96820  0.67358  Biso   1.000  C
  C450     1.0000 0.37281  0.16645  0.53293  Biso   1.000  C
  C451     1.0000 0.52268  0.33385  0.21182  Biso   1.000  C
  C452     1.0000 0.34304  0.47610  0.88345  Biso   1.000  C
  C453     1.0000 0.67023  0.66428  0.04021  Biso   1.000  C
  C454     1.0000 0.00996  0.34443  0.33987  Biso   1.000  C
  C455     1.0000 0.84196  0.46670  0.67589  Biso   1.000  C
  C456     1.0000 0.17802  0.66302  0.55463  Biso   1.000  C
  C457     1.0000 0.03576  0.64129  0.35534  Biso   1.000  C
  C458     1.0000 0.35539  0.96984  0.68044  Biso   1.000  C
  C459     1.0000 0.68285  0.29909  0.04105  Biso   1.000  C
  C460     1.0000 0.52090  0.63036  0.21858  Biso   1.000  C
  C461     1.0000 0.85755  0.96434  0.87515  Biso   1.000  C
  C462     1.0000 0.17322  0.30203  0.51145  Biso   1.000  C
  C463     1.0000 0.52390  0.12896  0.34545  Biso   1.000  C
  C464     1.0000 0.20882  0.47491  0.67689  Biso   1.000  C
  C465     1.0000 0.87648  0.79713  0.04348  Biso   1.000  C
  C466     1.0000 0.02101  0.13959  0.20047  Biso   1.000  C
  C467     1.0000 0.71116  0.47510  0.87754  Biso   1.000  C
  C468     1.0000 0.37473  0.80209  0.52331  Biso   1.000  C
  C469     1.0000 0.03844  0.32497  0.70052  Biso   1.000  C
  C470     1.0000 0.70679  0.97293  0.37591  Biso   1.000  C
  C471     1.0000 0.37312  0.66017  0.02143  Biso   1.000  C
  C472     1.0000 0.51064  0.32900  0.85148  Biso   1.000  C
  C473     1.0000 0.20351  0.99182  0.18040  Biso   1.000  C
  C474     1.0000 0.87960  0.66298  0.52657  Biso   1.000  C
  C475     1.0000 0.53697  0.82644  0.71203  Biso   1.000  C
  C476     1.0000 0.84401  0.48948  0.38287  Biso   1.000  C
  C477     1.0000 0.18290  0.15830  0.01354  Biso   1.000  C
  C478     1.0000 0.03291  0.82871  0.85469  Biso   1.000  C
  C479     1.0000 0.34909  0.47958  0.18202  Biso   1.000  C
  C480     1.0000 0.67066  0.15923  0.53425  Biso   1.000  C
  C481     1.0000 0.39073  0.77589  0.52273  Biso   1.000  C
  C482     1.0000 0.50071  0.34476  0.82454  Biso   1.000  C
  C483     1.0000 0.81749  0.48729  0.39726  Biso   1.000  C
  C484     1.0000 0.89085  0.76864  0.04475  Biso   1.000  C
  C485     1.0000 0.03751  0.34128  0.72845  Biso   1.000  C
  C486     1.0000 0.32130  0.47893  0.16573  Biso   1.000  C
  C487     1.0000 0.15629  0.27571  0.50767  Biso   1.000  C
  C488     1.0000 0.03943  0.84224  0.82746  Biso   1.000  C
  C489     1.0000 0.73554  0.97083  0.39217  Biso   1.000  C
  C490     1.0000 0.66740  0.27184  0.04155  Biso   1.000  C
  C491     1.0000 0.54295  0.84165  0.73837  Biso   1.000  C
  C492     1.0000 0.23189  0.98732  0.16596  Biso   1.000  C
  C493     1.0000 0.65552  0.18689  0.54093  Biso   1.000  C
  C494     1.0000 0.52667  0.61432  0.24467  Biso   1.000  C
  C495     1.0000 0.23571  0.47590  0.65990  Biso   1.000  C
  C496     1.0000 0.16767  0.18524  0.00700  Biso   1.000  C
  C497     1.0000 0.03769  0.62720  0.32766  Biso   1.000  C
  C498     1.0000 0.73945  0.47551  0.89462  Biso   1.000  C
  C499     1.0000 0.89742  0.68980  0.52617  Biso   1.000  C
  C500     1.0000 0.01322  0.12442  0.22593  Biso   1.000  C
  C501     1.0000 0.32728  0.97023  0.66407  Biso   1.000  C
  C502     1.0000 0.38866  0.68727  0.02394  Biso   1.000  C
  C503     1.0000 0.52003  0.11254  0.31941  Biso   1.000  C
  C504     1.0000 0.83013  0.96000  0.89122  Biso   1.000  C
  C505     1.0000 0.65861  0.47001  0.81899  Biso   1.000  C
  C506     1.0000 0.81895  0.61468  0.53623  Biso   1.000  C
  C507     1.0000 0.52642  0.76699  0.66490  Biso   1.000  C
  C508     1.0000 0.15847  0.46658  0.73589  Biso   1.000  C
  C509     1.0000 0.31614  0.60803  0.02106  Biso   1.000  C
  C510     1.0000 0.01371  0.77097  0.90312  Biso   1.000  C
  C511     1.0000 0.90696  0.96286  0.81682  Biso   1.000  C
  C512     1.0000 0.72834  0.11331  0.52182  Biso   1.000  C
  C513     1.0000 0.04322  0.26703  0.64833  Biso   1.000  C
  C514     1.0000 0.40312  0.96619  0.74285  Biso   1.000  C
  C515     1.0000 0.24157  0.11091  0.02511  Biso   1.000  C
  C516     1.0000 0.53070  0.26940  0.89871  Biso   1.000  C
  C517     1.0000 0.39930  0.48032  0.24212  Biso   1.000  C
  C518     1.0000 0.23510  0.35009  0.52244  Biso   1.000  C
  C519     1.0000 0.52538  0.18915  0.39348  Biso   1.000  C
  C520     1.0000 0.89210  0.49771  0.32318  Biso   1.000  C
  C521     1.0000 0.74292  0.35196  0.04172  Biso   1.000  C
  C522     1.0000 0.03762  0.19849  0.15198  Biso   1.000  C
  C523     1.0000 0.15365  0.00450  0.23652  Biso   1.000  C
  C524     1.0000 0.31391  0.85080  0.52097  Biso   1.000  C
  C525     1.0000 0.04259  0.69973  0.40551  Biso   1.000  C
  C526     1.0000 0.65668  0.97463  0.31599  Biso   1.000  C
  C527     1.0000 0.82018  0.85135  0.03566  Biso   1.000  C
  C528     1.0000 0.50180  0.68801  0.17137  Biso   1.000  C
  C529     1.0000 0.82216  0.11181  0.03399  Biso   1.000  C
  C530     1.0000 0.04644  0.77995  0.16709  Biso   1.000  C
  C531     1.0000 0.17238  0.98049  0.82358  Biso   1.000  C
  C532     1.0000 0.31187  0.11600  0.53296  Biso   1.000  C
  C533     1.0000 0.51497  0.77298  0.39937  Biso   1.000  C
  C534     1.0000 0.67127  0.97048  0.73603  Biso   1.000  C
  C535     1.0000 0.73104  0.61925  0.02825  Biso   1.000  C
  C536     1.0000 0.52372  0.27480  0.16081  Biso   1.000  C
  C537     1.0000 0.39146  0.49067  0.82469  Biso   1.000  C
  C538     1.0000 0.23887  0.61567  0.54005  Biso   1.000  C
  C539     1.0000 0.01115  0.28212  0.38581  Biso   1.000  C
  C540     1.0000 0.89344  0.47257  0.73552  Biso   1.000  C
  C541     1.0000 0.23548  0.85014  0.01933  Biso   1.000  C
  C542     1.0000 0.05301  0.18055  0.88955  Biso   1.000  C
  C543     1.0000 0.88807  0.98487  0.23092  Biso   1.000  C
  C544     1.0000 0.72928  0.84405  0.52944  Biso   1.000  C
  C545     1.0000 0.51883  0.18987  0.66152  Biso   1.000  C
  C546     1.0000 0.39040  0.98685  0.32573  Biso   1.000  C
  C547     1.0000 0.32334  0.34180  0.01981  Biso   1.000  C
  C548     1.0000 0.52755  0.68595  0.90572  Biso   1.000  C
  C549     1.0000 0.66840  0.46971  0.23441  Biso   1.000  C
  C550     1.0000 0.81338  0.34713  0.53542  Biso   1.000  C
  C551     1.0000 0.02032  0.68472  0.67047  Biso   1.000  C
  C552     1.0000 0.15771  0.47961  0.31621  Biso   1.000  C
  C553     1.0000 0.03549  0.10718  0.81219  Biso   1.000  C
  C554     1.0000 0.81128  0.98227  0.15602  Biso   1.000  C
  C555     1.0000 0.15888  0.77282  0.01700  Biso   1.000  C
  C556     1.0000 0.52411  0.11114  0.73595  Biso   1.000  C
  C557     1.0000 0.31380  0.99657  0.40048  Biso   1.000  C
  C558     1.0000 0.65460  0.76445  0.53456  Biso   1.000  C
  C559     1.0000 0.53626  0.61229  0.82969  Biso   1.000  C
  C560     1.0000 0.74134  0.48833  0.15828  Biso   1.000  C
  C561     1.0000 0.40348  0.26738  0.00374  Biso   1.000  C
  C562     1.0000 0.02529  0.60409  0.74239  Biso   1.000  C
  C563     1.0000 0.23321  0.48193  0.39358  Biso   1.000  C
  C564     1.0000 0.89282  0.27358  0.54312  Biso   1.000  C
  C565     1.0000 0.03422  0.85847  0.23804  Biso   1.000  C
  C566     1.0000 0.24463  0.97074  0.90278  Biso   1.000  C
  C567     1.0000 0.89679  0.19099  0.02557  Biso   1.000  C
  C568     1.0000 0.51358  0.84935  0.32433  Biso   1.000  C
  C569     1.0000 0.73900  0.96444  0.65505  Biso   1.000  C
  C570     1.0000 0.38759  0.19426  0.53025  Biso   1.000  C
  C571     1.0000 0.52307  0.34807  0.23913  Biso   1.000  C
  C572     1.0000 0.31591  0.47030  0.89969  Biso   1.000  C
  C573     1.0000 0.65415  0.69117  0.04701  Biso   1.000  C
  C574     1.0000 0.00871  0.36287  0.31357  Biso   1.000  C
  C575     1.0000 0.81517  0.46281  0.66035  Biso   1.000  C
  C576     1.0000 0.16203  0.69028  0.56126  Biso   1.000  C
  C577     1.0000 0.32307  0.48009  0.13414  Biso   1.000  C
  C578     1.0000 0.12510  0.27852  0.50580  Biso   1.000  C
  C579     1.0000 0.52422  0.08160  0.32024  Biso   1.000  C
  C580     1.0000 0.81714  0.48596  0.42894  Biso   1.000  C
  C581     1.0000 0.63597  0.27041  0.04326  Biso   1.000  C
  C582     1.0000 0.00884  0.09347  0.22717  Biso   1.000  C
  C583     1.0000 0.23356  0.98196  0.13500  Biso   1.000  C
  C584     1.0000 0.42179  0.77484  0.52424  Biso   1.000  C
  C585     1.0000 0.03472  0.59552  0.32786  Biso   1.000  C
  C586     1.0000 0.73448  0.97363  0.42390  Biso   1.000  C
  C587     1.0000 0.92358  0.76843  0.04517  Biso   1.000  C
  C588     1.0000 0.53146  0.58091  0.24433  Biso   1.000  C
  C589     1.0000 0.73897  0.47671  0.92607  Biso   1.000  C
  C590     1.0000 0.92832  0.68686  0.52582  Biso   1.000  C
  C591     1.0000 0.54460  0.87216  0.73822  Biso   1.000  C
  C592     1.0000 0.23577  0.47603  0.62939  Biso   1.000  C
  C593     1.0000 0.42081  0.68738  0.02733  Biso   1.000  C
  C594     1.0000 0.04542  0.87343  0.82721  Biso   1.000  C
  C595     1.0000 0.83060  0.96547  0.92134  Biso   1.000  C
  C596     1.0000 0.62461  0.18673  0.54241  Biso   1.000  C
  C597     1.0000 0.03547  0.37263  0.72810  Biso   1.000  C
  C598     1.0000 0.32655  0.97235  0.63209  Biso   1.000  C
  C599     1.0000 0.13697  0.18685  0.00881  Biso   1.000  C
  C600     1.0000 0.49748  0.37666  0.82672  Biso   1.000  C
  C601     1.0000 0.24254  0.97064  0.93409  Biso   1.000  C
  C602     1.0000 0.92856  0.19045  0.02249  Biso   1.000  C
  C603     1.0000 0.03164  0.88948  0.23685  Biso   1.000  C
  C604     1.0000 0.73594  0.96661  0.62377  Biso   1.000  C
  C605     1.0000 0.41884  0.19412  0.52522  Biso   1.000  C
  C606     1.0000 0.51921  0.87988  0.32296  Biso   1.000  C
  C607     1.0000 0.31838  0.46564  0.93058  Biso   1.000  C
  C608     1.0000 0.62373  0.69101  0.05270  Biso   1.000  C
  C609     1.0000 0.52663  0.37971  0.23802  Biso   1.000  C
  C610     1.0000 0.81593  0.46285  0.62885  Biso   1.000  C
  C611     1.0000 0.13014  0.68958  0.56266  Biso   1.000  C
  C612     1.0000 0.01019  0.39437  0.31682  Biso   1.000  C
  C613     1.0000 0.81100  0.98257  0.12359  Biso   1.000  C
  C614     1.0000 0.12699  0.77463  0.01741  Biso   1.000  C
  C615     1.0000 0.03338  0.07513  0.81290  Biso   1.000  C
  C616     1.0000 0.31506  0.99102  0.43202  Biso   1.000  C
  C617     1.0000 0.62326  0.76526  0.53104  Biso   1.000  C
  C618     1.0000 0.52533  0.07984  0.73645  Biso   1.000  C
  C619     1.0000 0.74058  0.49156  0.12700  Biso   1.000  C
  C620     1.0000 0.43476  0.26680  0.01137  Biso   1.000  C
  C621     1.0000 0.53873  0.58094  0.82845  Biso   1.000  C
  C622     1.0000 0.23392  0.48237  0.42435  Biso   1.000  C
  C623     1.0000 0.92379  0.27518  0.54358  Biso   1.000  C
  C624     1.0000 0.02730  0.57223  0.74054  Biso   1.000  C
  C625     1.0000 0.05133  0.17712  0.91989  Biso   1.000  C
  C626     1.0000 0.92033  0.98611  0.23147  Biso   1.000  C
  C627     1.0000 0.23479  0.88157  0.01924  Biso   1.000  C
  C628     1.0000 0.51528  0.19164  0.62922  Biso   1.000  C
  C629     1.0000 0.42213  0.98183  0.32562  Biso   1.000  C
  C630     1.0000 0.72815  0.87606  0.52619  Biso   1.000  C
  C631     1.0000 0.53002  0.68472  0.93698  Biso   1.000  C
  C632     1.0000 0.63659  0.46881  0.23541  Biso   1.000  C
  C633     1.0000 0.32530  0.37302  0.02603  Biso   1.000  C
  C634     1.0000 0.01411  0.68404  0.63916  Biso   1.000  C
  C635     1.0000 0.12596  0.48150  0.31601  Biso   1.000  C
  C636     1.0000 0.81431  0.37875  0.52967  Biso   1.000  C
  C637     1.0000 0.04351  0.77993  0.13565  Biso   1.000  C
  C638     1.0000 0.14046  0.98302  0.82456  Biso   1.000  C
  C639     1.0000 0.82412  0.07990  0.03151  Biso   1.000  C
  C640     1.0000 0.51619  0.77329  0.43072  Biso   1.000  C
  C641     1.0000 0.63871  0.97379  0.73855  Biso   1.000  C
  C642     1.0000 0.31550  0.08351  0.53301  Biso   1.000  C
  C643     1.0000 0.52663  0.27473  0.13046  Biso   1.000  C
  C644     1.0000 0.42247  0.49398  0.82571  Biso   1.000  C
  C645     1.0000 0.73150  0.58765  0.02495  Biso   1.000  C
  C646     1.0000 0.01042  0.28036  0.41869  Biso   1.000  C
  C647     1.0000 0.92546  0.47398  0.73510  Biso   1.000  C
  C648     1.0000 0.23874  0.58605  0.53403  Biso   1.000  C
  C649     1.0000 0.04150  0.69718  0.43733  Biso   1.000  C
  C650     1.0000 0.43541  0.96587  0.74280  Biso   1.000  C
  C651     1.0000 0.74196  0.38384  0.03939  Biso   1.000  C
  C652     1.0000 0.50344  0.69004  0.14033  Biso   1.000  C
  C653     1.0000 0.93862  0.96551  0.81864  Biso   1.000  C
  C654     1.0000 0.23498  0.38253  0.52062  Biso   1.000  C
  C655     1.0000 0.52983  0.18959  0.42604  Biso   1.000  C
  C656     1.0000 0.12728  0.46766  0.73269  Biso   1.000  C
  C657     1.0000 0.82258  0.88174  0.03222  Biso   1.000  C
  C658     1.0000 0.03896  0.19801  0.12009  Biso   1.000  C
  C659     1.0000 0.62600  0.46963  0.82036  Biso   1.000  C
  C660     1.0000 0.31558  0.88257  0.51822  Biso   1.000  C
  C661     1.0000 0.04318  0.27005  0.61754  Biso   1.000  C
  C662     1.0000 0.62495  0.97334  0.31565  Biso   1.000  C
  C663     1.0000 0.31781  0.57662  0.02601  Biso   1.000  C
  C664     1.0000 0.53943  0.27121  0.92933  Biso   1.000  C
  C665     1.0000 0.12200  0.00269  0.23445  Biso   1.000  C
  C666     1.0000 0.81735  0.58317  0.53698  Biso   1.000  C
  C667     1.0000 0.52268  0.76780  0.63297  Biso   1.000  C
  C668     1.0000 0.92394  0.50143  0.32414  Biso   1.000  C
  C669     1.0000 0.24175  0.08121  0.03438  Biso   1.000  C
  C670     1.0000 0.01293  0.77089  0.93388  Biso   1.000  C
  C671     1.0000 0.43162  0.47949  0.24122  Biso   1.000  C
  C672     1.0000 0.73033  0.08135  0.52395  Biso   1.000  C
  C673     1.0000 0.23405  0.97199  0.83753  Biso   1.000  C
  C674     1.0000 0.83410  0.17557  0.03465  Biso   1.000  C
  C675     1.0000 0.04240  0.79498  0.22803  Biso   1.000  C
  C676     1.0000 0.73317  0.96767  0.71888  Biso   1.000  C
  C677     1.0000 0.32431  0.17760  0.53345  Biso   1.000  C
  C678     1.0000 0.51217  0.78756  0.33775  Biso   1.000  C
  C679     1.0000 0.32984  0.47721  0.83664  Biso   1.000  C
  C680     1.0000 0.71708  0.68202  0.03624  Biso   1.000  C
  C681     1.0000 0.52087  0.28406  0.22141  Biso   1.000  C
  C682     1.0000 0.83058  0.46445  0.72367  Biso   1.000  C
  C683     1.0000 0.22486  0.67931  0.55146  Biso   1.000  C
  C684     1.0000 0.00972  0.29840  0.32196  Biso   1.000  C
  C685     1.0000 0.82478  0.98303  0.22031  Biso   1.000  C
  C686     1.0000 0.22323  0.78813  0.01609  Biso   1.000  C
  C687     1.0000 0.04994  0.16934  0.82506  Biso   1.000  C
  C688     1.0000 0.32816  0.99540  0.33839  Biso   1.000  C
  C689     1.0000 0.71735  0.77923  0.53282  Biso   1.000  C
  C690     1.0000 0.52426  0.17391  0.72408  Biso   1.000  C
  C691     1.0000 0.72845  0.47833  0.22018  Biso   1.000  C
  C692     1.0000 0.33923  0.27841  0.00965  Biso   1.000  C
  C693     1.0000 0.52721  0.67532  0.84144  Biso   1.000  C
  C694     1.0000 0.22138  0.48119  0.32999  Biso   1.000  C
  C695     1.0000 0.82931  0.28511  0.53744  Biso   1.000  C
  C696     1.0000 0.02717  0.66747  0.73288  Biso   1.000  C
  C697     1.0000 0.72119  0.97286  0.33034  Biso   1.000  C
  C698     1.0000 0.32675  0.67285  0.01799  Biso   1.000  C
  C699     1.0000 0.04181  0.27736  0.71312  Biso   1.000  C
  C700     1.0000 0.21671  0.99967  0.22581  Biso   1.000  C
  C701     1.0000 0.83242  0.67855  0.53000  Biso   1.000  C
  C702     1.0000 0.51533  0.28251  0.83769  Biso   1.000  C
  C703     1.0000 0.82984  0.49062  0.33597  Biso   1.000  C
  C704     1.0000 0.23123  0.16934  0.01294  Biso   1.000  C
  C705     1.0000 0.53081  0.78011  0.72684  Biso   1.000  C
  C706     1.0000 0.33560  0.47907  0.22903  Biso   1.000  C
  C707     1.0000 0.71610  0.17564  0.53039  Biso   1.000  C
  C708     1.0000 0.02907  0.78169  0.84181  Biso   1.000  C
  C709     1.0000 0.34075  0.96742  0.72769  Biso   1.000  C
  C710     1.0000 0.73191  0.28889  0.04107  Biso   1.000  C
  C711     1.0000 0.04266  0.68829  0.34233  Biso   1.000  C
  C712     1.0000 0.84370  0.96200  0.82849  Biso   1.000  C
  C713     1.0000 0.21867  0.28673  0.51789  Biso   1.000  C
  C714     1.0000 0.51123  0.67815  0.23206  Biso   1.000  C
  C715     1.0000 0.22220  0.47557  0.72572  Biso   1.000  C
  C716     1.0000 0.82790  0.78719  0.04045  Biso   1.000  C
  C717     1.0000 0.52136  0.17482  0.33008  Biso   1.000  C
  C718     1.0000 0.72266  0.47137  0.82981  Biso   1.000  C
  C719     1.0000 0.32747  0.78660  0.52969  Biso   1.000  C
  C720     1.0000 0.02342  0.18841  0.21358  Biso   1.000  C
  C721     1.0000 0.53085  0.78818  0.31338  Biso   1.000  C
  C722     1.0000 0.33098  0.49685  0.81022  Biso   1.000  C
  C723     1.0000 0.80037  0.28690  0.55237  Biso   1.000  C
  C724     1.0000 0.02375  0.76914  0.22772  Biso   1.000  C
  C725     1.0000 0.80355  0.47829  0.71968  Biso   1.000  C
  C726     1.0000 0.31155  0.28097  0.99394  Biso   1.000  C
  C727     1.0000 0.99485  0.26923  0.32462  Biso   1.000  C
  C728     1.0000 0.26399  0.98640  0.84202  Biso   1.000  C
  C729     1.0000 0.74420  0.78247  0.55070  Biso   1.000  C
  C730     1.0000 0.49792  0.28317  0.24230  Biso   1.000  C
  C731     1.0000 0.75721  0.94701  0.71725  Biso   1.000  C
  C732     1.0000 0.24778  0.78717  0.99787  Biso   1.000  C
  C733     1.0000 0.50636  0.16933  0.74791  Biso   1.000  C
  C734     1.0000 0.72795  0.45608  0.24366  Biso   1.000  C
  C735     1.0000 0.21691  0.70614  0.53604  Biso   1.000  C
  C736     1.0000 0.03869  0.19914  0.82562  Biso   1.000  C
  C737     1.0000 0.24771  0.46457  0.33541  Biso   1.000  C
  C738     1.0000 0.74396  0.67657  0.05067  Biso   1.000  C
  C739     1.0000 0.04557  0.66527  0.75901  Biso   1.000  C
  C740     1.0000 0.79679  0.96633  0.21752  Biso   1.000  C
  C741     1.0000 0.29765  0.17299  0.51618  Biso   1.000  C
  C742     1.0000 0.54599  0.67309  0.81464  Biso   1.000  C
  C743     1.0000 0.29857  0.98206  0.34105  Biso   1.000  C
  C744     1.0000 0.84237  0.20263  0.05104  Biso   1.000  C
  C745     1.0000 0.06137  0.71218  0.34332  Biso   1.000  C
  C746     1.0000 0.31227  0.98283  0.72524  Biso   1.000  C
  C747     1.0000 0.76002  0.29339  0.05578  Biso   1.000  C
  C748     1.0000 0.52434  0.70713  0.22563  Biso   1.000  C
  C749     1.0000 0.84656  0.94639  0.80193  Biso   1.000  C
  C750     1.0000 0.24160  0.28892  0.53978  Biso   1.000  C
  C751     1.0000 0.53438  0.16901  0.30269  Biso   1.000  C
  C752     1.0000 0.25060  0.46199  0.72234  Biso   1.000  C
  C753     1.0000 0.80405  0.79033  0.01936  Biso   1.000  C
  C754     1.0000 0.03139  0.18122  0.24378  Biso   1.000  C
  C755     1.0000 0.71666  0.45228  0.80422  Biso   1.000  C
  C756     1.0000 0.30121  0.79440  0.54541  Biso   1.000  C
  C757     1.0000 0.02912  0.24821  0.70882  Biso   1.000  C
  C758     1.0000 0.71872  0.99385  0.30722  Biso   1.000  C
  C759     1.0000 0.29741  0.66892  0.03264  Biso   1.000  C
  C760     1.0000 0.52653  0.28980  0.80981  Biso   1.000  C
  C761     1.0000 0.24343  0.01608  0.22172  Biso   1.000  C
  C762     1.0000 0.83192  0.70636  0.51316  Biso   1.000  C
  C763     1.0000 0.51349  0.78667  0.75193  Biso   1.000  C
  C764     1.0000 0.80258  0.50711  0.33755  Biso   1.000  C
  C765     1.0000 0.25041  0.17168  0.03774  Biso   1.000  C
  C766     1.0000 0.01784  0.78537  0.81257  Biso   1.000  C
  C767     1.0000 0.33871  0.49510  0.25770  Biso   1.000  C
  C768     1.0000 0.71160  0.20345  0.51491  Biso   1.000  C
  C769     1.0000 0.50835  0.70011  0.84357  Biso   1.000  C
  C770     1.0000 0.83421  0.44491  0.74859  Biso   1.000  C
  C771     1.0000 0.71526  0.75337  0.51388  Biso   1.000  C
  C772     1.0000 0.00745  0.69222  0.73216  Biso   1.000  C
  C773     1.0000 0.30264  0.45963  0.83807  Biso   1.000  C
  C774     1.0000 0.21976  0.76240  0.03550  Biso   1.000  C
  C775     1.0000 0.06137  0.16268  0.79674  Biso   1.000  C
  C776     1.0000 0.73420  0.98778  0.74337  Biso   1.000  C
  C777     1.0000 0.83358  0.25777  0.52196  Biso   1.000  C
  C778     1.0000 0.54122  0.20100  0.72430  Biso   1.000  C
  C779     1.0000 0.22946  0.95741  0.81033  Biso   1.000  C
  C780     1.0000 0.34344  0.25104  0.02573  Biso   1.000  C
  C781     1.0000 0.54058  0.25796  0.21856  Biso   1.000  C
  C782     1.0000 0.22050  0.49945  0.30213  Biso   1.000  C
  C783     1.0000 0.32708  0.20557  0.54945  Biso   1.000  C
  C784     1.0000 0.02684  0.30325  0.29507  Biso   1.000  C
  C785     1.0000 0.75083  0.50045  0.22094  Biso   1.000  C
  C786     1.0000 0.80596  0.17292  0.02124  Biso   1.000  C
  C787     1.0000 0.06099  0.79931  0.25363  Biso   1.000  C
  C788     1.0000 0.33268  0.01205  0.31121  Biso   1.000  C
  C789     1.0000 0.25370  0.67533  0.56339  Biso   1.000  C
  C790     1.0000 0.49347  0.76182  0.34112  Biso   1.000  C
  C791     1.0000 0.82993  0.99822  0.24960  Biso   1.000  C
  C792     1.0000 0.71125  0.70977  0.02336  Biso   1.000  C
  C793     1.0000 0.50608  0.20193  0.33260  Biso   1.000  C
  C794     1.0000 0.31008  0.46124  0.22450  Biso   1.000  C
  C795     1.0000 0.21886  0.26053  0.49888  Biso   1.000  C
  C796     1.0000 0.01495  0.21867  0.20593  Biso   1.000  C
  C797     1.0000 0.83324  0.47368  0.31047  Biso   1.000  C
  C798     1.0000 0.72721  0.26320  0.02365  Biso   1.000  C
  C799     1.0000 0.02180  0.68754  0.31808  Biso   1.000  C
  C800     1.0000 0.21196  0.98533  0.25297  Biso   1.000  C
  C801     1.0000 0.32974  0.75785  0.51757  Biso   1.000  C
  C802     1.0000 0.49658  0.67419  0.25888  Biso   1.000  C
  C803     1.0000 0.74482  0.95145  0.32870  Biso   1.000  C
  C804     1.0000 0.82838  0.76400  0.06099  Biso   1.000  C
  C805     1.0000 0.54303  0.75183  0.72519  Biso   1.000  C
  C806     1.0000 0.75135  0.48541  0.83179  Biso   1.000  C
  C807     1.0000 0.80641  0.67345  0.54847  Biso   1.000  C
  C808     1.0000 0.03901  0.75238  0.84916  Biso   1.000  C
  C809     1.0000 0.21610  0.49015  0.75385  Biso   1.000  C
  C810     1.0000 0.33330  0.70040  0.00326  Biso   1.000  C
  C811     1.0000 0.05772  0.28202  0.74042  Biso   1.000  C
  C812     1.0000 0.81724  0.97846  0.83226  Biso   1.000  C
  C813     1.0000 0.74448  0.16897  0.54404  Biso   1.000  C
  C814     1.0000 0.50314  0.25203  0.84109  Biso   1.000  C
  C815     1.0000 0.34320  0.94903  0.75483  Biso   1.000  C
  C816     1.0000 0.23520  0.18605  0.98746  Biso   1.000  C
  C817     1.0000 0.03855  0.21777  0.80250  Biso   1.000  C
  C818     1.0000 0.77770  0.96612  0.23957  Biso   1.000  C
  C819     1.0000 0.26737  0.76526  0.99867  Biso   1.000  C
  C820     1.0000 0.50370  0.18940  0.76931  Biso   1.000  C
  C821     1.0000 0.27818  0.98515  0.31865  Biso   1.000  C
  C822     1.0000 0.76405  0.76068  0.55229  Biso   1.000  C
  C823     1.0000 0.54417  0.69609  0.79448  Biso   1.000  C
  C824     1.0000 0.74680  0.46058  0.26720  Biso   1.000  C
  C825     1.0000 0.29118  0.25794  0.99510  Biso   1.000  C
  C826     1.0000 0.04728  0.68633  0.77929  Biso   1.000  C
  C827     1.0000 0.26973  0.46336  0.31462  Biso   1.000  C
  C828     1.0000 0.77784  0.26580  0.54605  Biso   1.000  C
  C829     1.0000 0.02138  0.75221  0.25254  Biso   1.000  C
  C830     1.0000 0.28408  0.98359  0.82035  Biso   1.000  C
  C831     1.0000 0.82381  0.22497  0.04982  Biso   1.000  C
  C832     1.0000 0.52870  0.76868  0.29225  Biso   1.000  C
  C833     1.0000 0.77903  0.94626  0.73949  Biso   1.000  C
  C834     1.0000 0.27639  0.19345  0.51698  Biso   1.000  C
  C835     1.0000 0.49663  0.25863  0.26151  Biso   1.000  C
  C836     1.0000 0.30967  0.49654  0.78914  Biso   1.000  C
  C837     1.0000 0.76400  0.69797  0.05243  Biso   1.000  C
  C838     1.0000 0.99753  0.24893  0.30181  Biso   1.000  C
  C839     1.0000 0.78397  0.47593  0.74160  Biso   1.000  C
  C840     1.0000 0.23711  0.72812  0.53258  Biso   1.000  C
  C841     1.0000 0.25121  0.95607  0.79004  Biso   1.000  C
  C842     1.0000 0.78870  0.19606  0.02196  Biso   1.000  C
  C843     1.0000 0.06142  0.77705  0.27488  Biso   1.000  C
  C844     1.0000 0.75689  0.98821  0.76362  Biso   1.000  C
  C845     1.0000 0.30609  0.22493  0.54735  Biso   1.000  C
  C846     1.0000 0.49371  0.74098  0.32028  Biso   1.000  C
  C847     1.0000 0.28148  0.46124  0.81578  Biso   1.000  C
  C848     1.0000 0.73361  0.73060  0.02405  Biso   1.000  C
  C849     1.0000 0.53848  0.23569  0.23790  Biso   1.000  C
  C850     1.0000 0.81401  0.44366  0.77075  Biso   1.000  C
  C851     1.0000 0.27339  0.69698  0.55820  Biso   1.000  C
  C852     1.0000 0.03187  0.27960  0.27592  Biso   1.000  C
  C853     1.0000 0.80984  0.99623  0.27039  Biso   1.000  C
  C854     1.0000 0.23928  0.73921  0.03389  Biso   1.000  C
  C855     1.0000 0.06403  0.18179  0.77360  Biso   1.000  C
  C856     1.0000 0.31129  0.01287  0.28978  Biso   1.000  C
  C857     1.0000 0.73875  0.73350  0.51492  Biso   1.000  C
  C858     1.0000 0.53645  0.22343  0.74454  Biso   1.000  C
  C859     1.0000 0.77070  0.50169  0.24374  Biso   1.000  C
  C860     1.0000 0.32276  0.23014  0.02679  Biso   1.000  C
  C861     1.0000 0.50744  0.72058  0.82132  Biso   1.000  C
  C862     1.0000 0.24297  0.49833  0.28381  Biso   1.000  C
  C863     1.0000 0.81105  0.23770  0.51912  Biso   1.000  C
  C864     1.0000 0.00991  0.71399  0.75384  Biso   1.000  C
  C865     1.0000 0.73965  0.44755  0.78500  Biso   1.000  C
  C866     1.0000 0.80804  0.72290  0.51409  Biso   1.000  C
  C867     1.0000 0.51114  0.76591  0.77425  Biso   1.000  C
  C868     1.0000 0.27109  0.46431  0.74403  Biso   1.000  C
  C869     1.0000 0.27735  0.69114  0.03079  Biso   1.000  C
  C870     1.0000 0.02181  0.76372  0.79164  Biso   1.000  C
  C871     1.0000 0.82497  0.94832  0.78078  Biso   1.000  C
  C872     1.0000 0.73276  0.22462  0.51693  Biso   1.000  C
  C873     1.0000 0.03496  0.22554  0.72898  Biso   1.000  C
  C874     1.0000 0.29119  0.98401  0.74615  Biso   1.000  C
  C875     1.0000 0.27223  0.19217  0.03606  Biso   1.000  C
  C876     1.0000 0.52852  0.26895  0.78768  Biso   1.000  C
  C877     1.0000 0.31407  0.49559  0.27477  Biso   1.000  C
  C878     1.0000 0.26198  0.26813  0.54157  Biso   1.000  C
  C879     1.0000 0.53166  0.18722  0.27809  Biso   1.000  C
  C880     1.0000 0.78151  0.50375  0.31398  Biso   1.000  C
  C881     1.0000 0.78052  0.27205  0.05159  Biso   1.000  C
  C882     1.0000 0.02836  0.20311  0.26390  Biso   1.000  C
  C883     1.0000 0.26461  0.01475  0.24448  Biso   1.000  C
  C884     1.0000 0.28045  0.77274  0.54975  Biso   1.000  C
  C885     1.0000 0.06069  0.73293  0.32136  Biso   1.000  C
  C886     1.0000 0.74085  0.99657  0.28591  Biso   1.000  C
  C887     1.0000 0.78261  0.77006  0.01957  Biso   1.000  C
  C888     1.0000 0.52117  0.72915  0.24559  Biso   1.000  C
  C889     1.0000 0.76665  0.95716  0.30837  Biso   1.000  C
  C890     1.0000 0.31134  0.72028  0.99970  Biso   1.000  C
  C891     1.0000 0.06092  0.25917  0.76004  Biso   1.000  C
  C892     1.0000 0.23444  0.98552  0.27534  Biso   1.000  C
  C893     1.0000 0.78411  0.69384  0.55001  Biso   1.000  C
  C894     1.0000 0.50208  0.23176  0.81705  Biso   1.000  C
  C895     1.0000 0.81407  0.47277  0.28716  Biso   1.000  C
  C896     1.0000 0.25762  0.20575  0.98576  Biso   1.000  C
  C897     1.0000 0.54022  0.73178  0.74748  Biso   1.000  C
  C898     1.0000 0.28733  0.46247  0.24284  Biso   1.000  C
  C899     1.0000 0.76515  0.19133  0.54233  Biso   1.000  C
  C900     1.0000 0.03928  0.73071  0.82934  Biso   1.000  C
  C901     1.0000 0.32192  0.94897  0.77560  Biso   1.000  C
  C902     1.0000 0.74925  0.24256  0.02002  Biso   1.000  C
  C903     1.0000 0.02141  0.70903  0.29631  Biso   1.000  C
  C904     1.0000 0.79625  0.97803  0.81006  Biso   1.000  C
  C905     1.0000 0.24043  0.24047  0.50287  Biso   1.000  C
  C906     1.0000 0.49447  0.69631  0.27926  Biso   1.000  C
  C907     1.0000 0.23826  0.49312  0.77463  Biso   1.000  C
  C908     1.0000 0.80524  0.74457  0.05926  Biso   1.000  C
  C909     1.0000 0.50808  0.22169  0.30984  Biso   1.000  C
  C910     1.0000 0.77304  0.47859  0.81231  Biso   1.000  C
  C911     1.0000 0.30860  0.73643  0.52406  Biso   1.000  C
  C912     1.0000 0.01281  0.23923  0.22735  Biso   1.000  C
  C913     1.0000 0.78853  0.45845  0.76670  Biso   1.000  C
  C914     1.0000 0.76316  0.73891  0.53178  Biso   1.000  C
  C915     1.0000 0.52529  0.71820  0.79700  Biso   1.000  C
  C916     1.0000 0.28496  0.47938  0.79271  Biso   1.000  C
  C917     1.0000 0.26449  0.74070  0.01658  Biso   1.000  C
  C918     1.0000 0.02911  0.71070  0.77807  Biso   1.000  C
  C919     1.0000 0.77847  0.96696  0.76250  Biso   1.000  C
  C920     1.0000 0.78399  0.24104  0.53126  Biso   1.000  C
  C921     1.0000 0.05237  0.20999  0.77699  Biso   1.000  C
  C922     1.0000 0.27729  0.96864  0.79547  Biso   1.000  C
  C923     1.0000 0.29828  0.23251  0.00917  Biso   1.000  C
  C924     1.0000 0.51924  0.21642  0.76833  Biso   1.000  C
  C925     1.0000 0.26715  0.48038  0.28977  Biso   1.000  C
  C926     1.0000 0.28021  0.21832  0.53194  Biso   1.000  C
  C927     1.0000 0.51788  0.23603  0.25989  Biso   1.000  C
  C928     1.0000 0.76687  0.48328  0.26730  Biso   1.000  C
  C929     1.0000 0.79568  0.22157  0.03663  Biso   1.000  C
  C930     1.0000 0.01506  0.25384  0.27823  Biso   1.000  C
  C931     1.0000 0.28431  0.99877  0.29256  Biso   1.000  C
  C932     1.0000 0.26515  0.72324  0.54424  Biso   1.000  C
  C933     1.0000 0.04174  0.75385  0.27518  Biso   1.000  C
  C934     1.0000 0.78541  0.97965  0.26570  Biso   1.000  C
  C935     1.0000 0.75975  0.72400  0.03784  Biso   1.000  C
  C936     1.0000 0.51214  0.74447  0.29618  Biso   1.000  C
  C937     1.0000 0.77526  0.24693  0.03526  Biso   1.000  C
  C938     1.0000 0.04203  0.73147  0.29778  Biso   1.000  C
  C939     1.0000 0.29707  0.96622  0.77095  Biso   1.000  C
  C940     1.0000 0.26237  0.24383  0.52377  Biso   1.000  C
  C941     1.0000 0.50772  0.72374  0.27260  Biso   1.000  C
  C942     1.0000 0.80069  0.96518  0.78457  Biso   1.000  C
  C943     1.0000 0.78209  0.74751  0.04099  Biso   1.000  C
  C944     1.0000 0.51852  0.21418  0.28254  Biso   1.000  C
  C945     1.0000 0.26441  0.47945  0.76919  Biso   1.000  C
  C946     1.0000 0.28579  0.74555  0.53863  Biso   1.000  C
  C947     1.0000 0.01842  0.23114  0.25622  Biso   1.000  C
  C948     1.0000 0.76652  0.46097  0.78896  Biso   1.000  C
  C949     1.0000 0.28513  0.71624  0.01511  Biso   1.000  C
  C950     1.0000 0.04994  0.23215  0.75467  Biso   1.000  C
  C951     1.0000 0.76402  0.97730  0.28770  Biso   1.000  C
  C952     1.0000 0.78520  0.71735  0.53241  Biso   1.000  C
  C953     1.0000 0.51466  0.24047  0.78969  Biso   1.000  C
  C954     1.0000 0.26075  0.99820  0.27039  Biso   1.000  C
  C955     1.0000 0.27633  0.20899  0.01033  Biso   1.000  C
  C956     1.0000 0.52501  0.73934  0.77188  Biso   1.000  C
  C957     1.0000 0.78738  0.48565  0.29130  Biso   1.000  C
  C958     1.0000 0.76021  0.21838  0.52887  Biso   1.000  C
  C959     1.0000 0.03164  0.73521  0.80012  Biso   1.000  C
  C960     1.0000 0.29006  0.47902  0.26810  Biso   1.000  C
  Cu1      1.0000 0.02558  0.47495  0.67872  Biso   1.000  Cu
  Cu2      1.0000 0.67548  0.97718  0.52408  Biso   1.000  Cu
  Cu3      1.0000 0.52330  0.63403  0.03927  Biso   1.000  Cu
  Cu4      1.0000 0.52583  0.47819  0.87802  Biso   1.000  Cu
  Cu5      1.0000 0.18527  0.98486  0.03185  Biso   1.000  Cu
  Cu6      1.0000 0.02976  0.63595  0.53671  Biso   1.000  Cu
  Cu7      1.0000 0.53571  0.97565  0.68423  Biso   1.000  Cu
  Cu8      1.0000 0.87309  0.48096  0.52914  Biso   1.000  Cu
  Cu9      1.0000 0.03204  0.13431  0.02212  Biso   1.000  Cu
  Cu10     1.0000 0.03873  0.97620  0.87689  Biso   1.000  Cu
  Cu11     1.0000 0.37427  0.47654  0.03226  Biso   1.000  Cu
  Cu12     1.0000 0.52146  0.13732  0.52811  Biso   1.000  Cu
  Cu13     1.0000 0.02778  0.49038  0.37779  Biso   1.000  Cu
  Cu14     1.0000 0.37459  0.98256  0.53002  Biso   1.000  Cu
  Cu15     1.0000 0.53412  0.32562  0.02840  Biso   1.000  Cu
  Cu16     1.0000 0.53157  0.48320  0.18284  Biso   1.000  Cu
  Cu17     1.0000 0.87769  0.97976  0.02647  Biso   1.000  Cu
  Cu18     1.0000 0.02263  0.33101  0.51988  Biso   1.000  Cu
  Cu19     1.0000 0.52636  0.98006  0.37544  Biso   1.000  Cu
  Cu20     1.0000 0.18145  0.48302  0.52716  Biso   1.000  Cu
  Cu21     1.0000 0.02468  0.82888  0.03378  Biso   1.000  Cu
  Cu22     1.0000 0.02176  0.99123  0.17738  Biso   1.000  Cu
  Cu23     1.0000 0.68440  0.48165  0.02655  Biso   1.000  Cu
  Cu24     1.0000 0.52333  0.82480  0.53208  Biso   1.000  Cu
  Cu25     1.0000 0.23784  0.98226  0.03422  Biso   1.000  Cu
  Cu26     1.0000 0.03373  0.18758  0.01405  Biso   1.000  Cu
  Cu27     1.0000 0.02160  0.99225  0.23234  Biso   1.000  Cu
  Cu28     1.0000 0.73019  0.97875  0.52375  Biso   1.000  Cu
  Cu29     1.0000 0.52293  0.19250  0.52873  Biso   1.000  Cu
  Cu30     1.0000 0.52166  0.98100  0.32142  Biso   1.000  Cu
  Cu31     1.0000 0.31996  0.47475  0.03256  Biso   1.000  Cu
  Cu32     1.0000 0.52144  0.68945  0.03722  Biso   1.000  Cu
  Cu33     1.0000 0.53487  0.48157  0.23822  Biso   1.000  Cu
  Cu34     1.0000 0.81745  0.48053  0.52884  Biso   1.000  Cu
  Cu35     1.0000 0.02828  0.68973  0.53802  Biso   1.000  Cu
  Cu36     1.0000 0.02556  0.49258  0.32404  Biso   1.000  Cu
  Cu37     1.0000 0.82417  0.97985  0.02006  Biso   1.000  Cu
  Cu38     1.0000 0.02778  0.77410  0.03491  Biso   1.000  Cu
  Cu39     1.0000 0.04069  0.97296  0.82273  Biso   1.000  Cu
  Cu40     1.0000 0.31846  0.98484  0.53165  Biso   1.000  Cu
  Cu41     1.0000 0.52201  0.76999  0.53000  Biso   1.000  Cu
  Cu42     1.0000 0.53822  0.97657  0.73812  Biso   1.000  Cu
  Cu43     1.0000 0.73811  0.48488  0.02692  Biso   1.000  Cu
  Cu44     1.0000 0.53824  0.27164  0.02923  Biso   1.000  Cu
  Cu45     1.0000 0.52485  0.48084  0.82460  Biso   1.000  Cu
  Cu46     1.0000 0.23689  0.48224  0.52923  Biso   1.000  Cu
  Cu47     1.0000 0.02513  0.27757  0.51742  Biso   1.000  Cu
  Cu48     1.0000 0.02770  0.46971  0.73364  Biso   1.000  Cu
  H1       1.0000 0.26300  0.77911  0.56305  Biso   1.000  H
  H2       1.0000 0.54039  0.27544  0.76863  Biso   1.000  H
  H3       1.0000 0.76148  0.51750  0.31372  Biso   1.000  H
  H4       1.0000 0.76943  0.77125  0.99999  Biso   1.000  H
  H5       1.0000 0.02633  0.20445  0.72608  Biso   1.000  H
  H6       1.0000 0.31305  0.51068  0.29233  Biso   1.000  H
  H7       1.0000 0.27844  0.27226  0.55810  Biso   1.000  H
  H8       1.0000 0.01638  0.76819  0.76767  Biso   1.000  H
  H9       1.0000 0.74007  0.01447  0.26917  Biso   1.000  H
  H10      1.0000 0.80146  0.27608  0.06273  Biso   1.000  H
  H11      1.0000 0.49820  0.76943  0.79292  Biso   1.000  H
  H12      1.0000 0.28478  0.02664  0.24252  Biso   1.000  H
  H13      1.0000 0.73050  0.24732  0.50920  Biso   1.000  H
  H14      1.0000 0.53023  0.74949  0.24009  Biso   1.000  H
  H15      1.0000 0.29373  0.45319  0.74190  Biso   1.000  H
  H16      1.0000 0.28478  0.19531  0.05545  Biso   1.000  H
  H17      1.0000 0.07620  0.75011  0.32536  Biso   1.000  H
  H18      1.0000 0.73587  0.43405  0.76635  Biso   1.000  H
  H19      1.0000 0.80791  0.74201  0.50086  Biso   1.000  H
  H20      1.0000 0.03454  0.19806  0.28632  Biso   1.000  H
  H21      1.0000 0.27451  0.00045  0.74241  Biso   1.000  H
  H22      1.0000 0.25707  0.68706  0.04215  Biso   1.000  H
  H23      1.0000 0.53794  0.17928  0.25694  Biso   1.000  H
  H24      1.0000 0.82905  0.93885  0.76038  Biso   1.000  H
  H25      1.0000 0.30455  0.99718  0.82367  Biso   1.000  H
  H26      1.0000 0.82915  0.24530  0.06153  Biso   1.000  H
  H27      1.0000 0.00613  0.73413  0.24804  Biso   1.000  H
  H28      1.0000 0.79387  0.92869  0.73893  Biso   1.000  H
  H29      1.0000 0.25757  0.18872  0.50550  Biso   1.000  H
  H30      1.0000 0.54367  0.77113  0.27437  Biso   1.000  H
  H31      1.0000 0.30935  0.51203  0.77036  Biso   1.000  H
  H32      1.0000 0.78648  0.69146  0.06107  Biso   1.000  H
  H33      1.0000 0.48190  0.25587  0.27790  Biso   1.000  H
  H34      1.0000 0.76212  0.48500  0.73743  Biso   1.000  H
  H35      1.0000 0.23354  0.74826  0.52268  Biso   1.000  H
  H36      1.0000 0.98519  0.22877  0.30208  Biso   1.000  H
  H37      1.0000 0.75916  0.95271  0.23699  Biso   1.000  H
  H38      1.0000 0.28622  0.76771  0.98502  Biso   1.000  H
  H39      1.0000 0.02860  0.23926  0.80533  Biso   1.000  H
  H40      1.0000 0.25856  0.97084  0.32236  Biso   1.000  H
  H41      1.0000 0.78486  0.76246  0.56311  Biso   1.000  H
  H42      1.0000 0.48760  0.18371  0.78620  Biso   1.000  H
  H43      1.0000 0.74283  0.44848  0.28853  Biso   1.000  H
  H44      1.0000 0.27078  0.25777  0.98406  Biso   1.000  H
  H45      1.0000 0.56261  0.69763  0.78023  Biso   1.000  H
  H46      1.0000 0.28721  0.44645  0.31767  Biso   1.000  H
  H47      1.0000 0.75823  0.26839  0.55735  Biso   1.000  H
  H48      1.0000 0.06361  0.68241  0.79754  Biso   1.000  H
  H49      1.0000 0.24347  0.51115  0.26268  Biso   1.000  H
  H50      1.0000 0.31112  0.24508  0.55927  Biso   1.000  H
  H51      1.0000 0.55322  0.21781  0.23636  Biso   1.000  H
  H52      1.0000 0.78688  0.51957  0.24558  Biso   1.000  H
  H53      1.0000 0.76752  0.19253  0.01113  Biso   1.000  H
  H54      1.0000 0.04868  0.28415  0.25985  Biso   1.000  H
  H55      1.0000 0.31535  0.02318  0.26889  Biso   1.000  H
  H56      1.0000 0.29538  0.69506  0.56696  Biso   1.000  H
  H57      1.0000 0.07796  0.77825  0.29034  Biso   1.000  H
  H58      1.0000 0.81067  0.00788  0.29102  Biso   1.000  H
  H59      1.0000 0.72802  0.75217  0.01609  Biso   1.000  H
  H60      1.0000 0.47962  0.72241  0.32354  Biso   1.000  H
  H61      1.0000 0.81752  0.42728  0.78830  Biso   1.000  H
  H62      1.0000 0.73791  0.71614  0.50199  Biso   1.000  H
  H63      1.0000 0.49539  0.73902  0.82271  Biso   1.000  H
  H64      1.0000 0.26224  0.44665  0.81528  Biso   1.000  H
  H65      1.0000 0.23536  0.71919  0.04608  Biso   1.000  H
  H66      1.0000 0.99551  0.73275  0.75194  Biso   1.000  H
  H67      1.0000 0.75856  0.00561  0.77894  Biso   1.000  H
  H68      1.0000 0.81119  0.21816  0.50811  Biso   1.000  H
  H69      1.0000 0.07652  0.17645  0.75519  Biso   1.000  H
  H70      1.0000 0.24675  0.94437  0.76959  Biso   1.000  H
  H71      1.0000 0.32884  0.21085  0.03895  Biso   1.000  H
  H72      1.0000 0.54733  0.24341  0.74228  Biso   1.000  H
  H73      1.0000 0.79666  0.48595  0.81184  Biso   1.000  H
  H74      1.0000 0.76532  0.68882  0.56439  Biso   1.000  H
  H75      1.0000 0.54724  0.70944  0.74466  Biso   1.000  H
  H76      1.0000 0.23389  0.50500  0.79469  Biso   1.000  H
  H77      1.0000 0.31528  0.73962  0.98628  Biso   1.000  H
  H78      1.0000 0.05010  0.71099  0.83678  Biso   1.000  H
  H79      1.0000 0.77710  0.98934  0.81429  Biso   1.000  H
  H80      1.0000 0.78593  0.18517  0.55117  Biso   1.000  H
  H81      1.0000 0.07001  0.26332  0.78000  Biso   1.000  H
  H82      1.0000 0.32250  0.93399  0.79483  Biso   1.000  H
  H83      1.0000 0.26137  0.21989  0.96588  Biso   1.000  H
  H84      1.0000 0.48703  0.21374  0.81920  Biso   1.000  H
  H85      1.0000 0.26806  0.44819  0.24024  Biso   1.000  H
  H86      1.0000 0.23963  0.22206  0.48689  Biso   1.000  H
  H87      1.0000 0.50137  0.24388  0.31462  Biso   1.000  H
  H88      1.0000 0.81995  0.46253  0.26772  Biso   1.000  H
  H89      1.0000 0.74834  0.22908  0.00156  Biso   1.000  H
  H90      1.0000 0.00559  0.26070  0.22201  Biso   1.000  H
  H91      1.0000 0.22976  0.97646  0.29631  Biso   1.000  H
  H92      1.0000 0.31331  0.71636  0.51514  Biso   1.000  H
  H93      1.0000 0.00436  0.70850  0.28121  Biso   1.000  H
  H94      1.0000 0.78401  0.94040  0.30840  Biso   1.000  H
  H95      1.0000 0.80616  0.72729  0.07574  Biso   1.000  H
  H96      1.0000 0.48345  0.69040  0.29944  Biso   1.000  H
  H97      1.0000 0.90662  0.97373  0.93487  Biso   1.000  H
  H98      1.0000 0.93638  0.84689  0.03851  Biso   1.000  H
  H99      1.0000 0.03336  0.88741  0.90164  Biso   1.000  H
  H100     1.0000 0.40199  0.97033  0.62329  Biso   1.000  H
  H101     1.0000 0.43402  0.85007  0.53107  Biso   1.000  H
  H102     1.0000 0.53199  0.88849  0.66234  Biso   1.000  H
  H103     1.0000 0.66182  0.48297  0.93839  Biso   1.000  H
  H104     1.0000 0.62402  0.34703  0.04590  Biso   1.000  H
  H105     1.0000 0.51686  0.38554  0.89894  Biso   1.000  H
  H106     1.0000 0.15874  0.47682  0.61886  Biso   1.000  H
  H107     1.0000 0.11678  0.35577  0.51025  Biso   1.000  H
  H108     1.0000 0.03286  0.38469  0.65346  Biso   1.000  H
  H109     1.0000 0.15819  0.98382  0.11915  Biso   1.000  H
  H110     1.0000 0.12362  0.11331  0.02772  Biso   1.000  H
  H111     1.0000 0.01655  0.08166  0.15284  Biso   1.000  H
  H112     1.0000 0.66052  0.98568  0.43334  Biso   1.000  H
  H113     1.0000 0.61189  0.11206  0.52815  Biso   1.000  H
  H114     1.0000 0.52707  0.06985  0.39662  Biso   1.000  H
  H115     1.0000 0.39846  0.48277  0.12169  Biso   1.000  H
  H116     1.0000 0.43247  0.61348  0.03731  Biso   1.000  H
  H117     1.0000 0.52820  0.57617  0.16747  Biso   1.000  H
  H118     1.0000 0.89310  0.48677  0.43826  Biso   1.000  H
  H119     1.0000 0.93402  0.61105  0.52308  Biso   1.000  H
  H120     1.0000 0.02566  0.57860  0.40355  Biso   1.000  H
  H121     1.0000 0.13335  0.97923  0.89945  Biso   1.000  H
  H122     1.0000 0.89843  0.06999  0.01873  Biso   1.000  H
  H123     1.0000 0.03807  0.85384  0.12222  Biso   1.000  H
  H124     1.0000 0.62410  0.99134  0.66533  Biso   1.000  H
  H125     1.0000 0.39238  0.07883  0.52960  Biso   1.000  H
  H126     1.0000 0.51921  0.84844  0.44201  Biso   1.000  H
  H127     1.0000 0.43377  0.48737  0.90160  Biso   1.000  H
  H128     1.0000 0.65676  0.57283  0.03656  Biso   1.000  H
  H129     1.0000 0.53747  0.35129  0.11937  Biso   1.000  H
  H130     1.0000 0.93021  0.46768  0.65907  Biso   1.000  H
  H131     1.0000 0.16379  0.57298  0.54508  Biso   1.000  H
  H132     1.0000 0.00306  0.35338  0.43012  Biso   1.000  H
  H133     1.0000 0.93211  0.98602  0.15490  Biso   1.000  H
  H134     1.0000 0.16026  0.89375  0.01585  Biso   1.000  H
  H135     1.0000 0.03434  0.10284  0.92791  Biso   1.000  H
  H136     1.0000 0.43050  0.97297  0.40388  Biso   1.000  H
  H137     1.0000 0.65292  0.88412  0.51896  Biso   1.000  H
  H138     1.0000 0.52366  0.11679  0.61686  Biso   1.000  H
  H139     1.0000 0.62323  0.48255  0.16169  Biso   1.000  H
  H140     1.0000 0.39951  0.38474  0.02871  Biso   1.000  H
  H141     1.0000 0.52802  0.60850  0.94597  Biso   1.000  H
  H142     1.0000 0.11656  0.48549  0.39268  Biso   1.000  H
  H143     1.0000 0.89086  0.39143  0.53108  Biso   1.000  H
  H144     1.0000 0.02142  0.60858  0.62786  Biso   1.000  H
  H145     1.0000 0.62080  0.47607  0.89604  Biso   1.000  H
  H146     1.0000 0.89541  0.57322  0.53436  Biso   1.000  H
  H147     1.0000 0.52339  0.84231  0.62087  Biso   1.000  H
  H148     1.0000 0.11794  0.47330  0.65690  Biso   1.000  H
  H149     1.0000 0.39400  0.57006  0.03448  Biso   1.000  H
  H150     1.0000 0.02939  0.84491  0.94545  Biso   1.000  H
  H151     1.0000 0.94840  0.96577  0.89378  Biso   1.000  H
  H152     1.0000 0.65430  0.06839  0.52931  Biso   1.000  H
  H153     1.0000 0.02845  0.34420  0.61075  Biso   1.000  H
  H154     1.0000 0.44783  0.96869  0.66759  Biso   1.000  H
  H155     1.0000 0.16739  0.07041  0.03974  Biso   1.000  H
  H156     1.0000 0.53361  0.34808  0.93813  Biso   1.000  H
  H157     1.0000 0.43938  0.48141  0.16531  Biso   1.000  H
  H158     1.0000 0.15961  0.39447  0.51343  Biso   1.000  H
  H159     1.0000 0.53572  0.11413  0.43681  Biso   1.000  H
  H160     1.0000 0.93654  0.49088  0.39966  Biso   1.000  H
  H161     1.0000 0.66527  0.39030  0.04288  Biso   1.000  H
  H162     1.0000 0.03069  0.12313  0.10892  Biso   1.000  H
  H163     1.0000 0.11217  0.98404  0.16150  Biso   1.000  H
  H164     1.0000 0.39100  0.89000  0.52004  Biso   1.000  H
  H165     1.0000 0.04002  0.61964  0.44686  Biso   1.000  H
  H166     1.0000 0.61735  0.97898  0.39231  Biso   1.000  H
  H167     1.0000 0.89986  0.88617  0.02621  Biso   1.000  H
  H168     1.0000 0.52526  0.61653  0.13085  Biso   1.000  H
  H169     1.0000 0.03390  0.06569  0.88817  Biso   1.000  H
  H170     1.0000 0.88678  0.98184  0.11764  Biso   1.000  H
  H171     1.0000 0.12125  0.85024  0.01006  Biso   1.000  H
  H172     1.0000 0.52671  0.06923  0.66079  Biso   1.000  H
  H173     1.0000 0.38769  0.96972  0.44242  Biso   1.000  H
  H174     1.0000 0.61408  0.84012  0.51724  Biso   1.000  H
  H175     1.0000 0.53911  0.56704  0.90485  Biso   1.000  H
  H176     1.0000 0.66340  0.48168  0.11772  Biso   1.000  H
  H177     1.0000 0.44458  0.34153  0.02356  Biso   1.000  H
  H178     1.0000 0.02590  0.56666  0.66633  Biso   1.000  H
  H179     1.0000 0.15932  0.48229  0.43527  Biso   1.000  H
  H180     1.0000 0.93163  0.35109  0.53803  Biso   1.000  H
  H181     1.0000 0.03555  0.89742  0.15934  Biso   1.000  H
  H182     1.0000 0.16854  0.98614  0.93836  Biso   1.000  H
  H183     1.0000 0.94001  0.11715  0.01379  Biso   1.000  H
  H184     1.0000 0.51709  0.89535  0.39866  Biso   1.000  H
  H185     1.0000 0.66155  0.98186  0.61908  Biso   1.000  H
  H186     1.0000 0.43441  0.12245  0.52393  Biso   1.000  H
  H187     1.0000 0.53797  0.39101  0.16324  Biso   1.000  H
  H188     1.0000 0.39419  0.47673  0.94102  Biso   1.000  H
  H189     1.0000 0.61137  0.61374  0.04651  Biso   1.000  H
  H190     1.0000 0.00305  0.39993  0.39117  Biso   1.000  H
  H191     1.0000 0.89185  0.46583  0.61796  Biso   1.000  H
  H192     1.0000 0.12096  0.61385  0.55063  Biso   1.000  H
  H193     1.0000 0.29274  0.84123  0.51564  Biso   1.000  H
  H194     1.0000 0.53038  0.24846  0.88857  Biso   1.000  H
  H195     1.0000 0.88058  0.50223  0.30185  Biso   1.000  H
  H196     1.0000 0.79870  0.84326  0.04114  Biso   1.000  H
  H197     1.0000 0.04682  0.24535  0.65644  Biso   1.000  H
  H198     1.0000 0.38916  0.48085  0.26241  Biso   1.000  H
  H199     1.0000 0.25593  0.33903  0.52448  Biso   1.000  H
  H200     1.0000 0.00665  0.75160  0.89303  Biso   1.000  H
  H201     1.0000 0.66730  0.97416  0.29529  Biso   1.000  H
  H202     1.0000 0.76411  0.34218  0.04091  Biso   1.000  H
  H203     1.0000 0.52516  0.74654  0.67643  Biso   1.000  H
  H204     1.0000 0.16226  0.01151  0.25831  Biso   1.000  H
  H205     1.0000 0.74650  0.12641  0.51597  Biso   1.000  H
  H206     1.0000 0.49351  0.70457  0.18443  Biso   1.000  H
  H207     1.0000 0.16881  0.46693  0.75792  Biso   1.000  H
  H208     1.0000 0.26293  0.12136  0.01802  Biso   1.000  H
  H209     1.0000 0.04564  0.72051  0.39609  Biso   1.000  H
  H210     1.0000 0.66816  0.46900  0.79652  Biso   1.000  H
  H211     1.0000 0.79678  0.62346  0.53648  Biso   1.000  H
  H212     1.0000 0.03928  0.21913  0.16258  Biso   1.000  H
  H213     1.0000 0.39196  0.96645  0.76243  Biso   1.000  H
  H214     1.0000 0.29537  0.61787  0.01456  Biso   1.000  H
  H215     1.0000 0.52512  0.20952  0.38157  Biso   1.000  H
  H216     1.0000 0.89828  0.96402  0.79601  Biso   1.000  H
  H217     1.0000 0.25477  0.48284  0.38472  Biso   1.000  H
  H218     1.0000 0.37625  0.21481  0.52864  Biso   1.000  H
  H219     1.0000 0.51889  0.33632  0.25926  Biso   1.000  H
  H220     1.0000 0.76179  0.48918  0.16926  Biso   1.000  H
  H221     1.0000 0.88725  0.21257  0.02603  Biso   1.000  H
  H222     1.0000 0.00752  0.35311  0.29248  Biso   1.000  H
  H223     1.0000 0.29397  0.00321  0.39083  Biso   1.000  H
  H224     1.0000 0.17294  0.70988  0.56329  Biso   1.000  H
  H225     1.0000 0.03573  0.84613  0.25800  Biso   1.000  H
  H226     1.0000 0.78986  0.98347  0.16677  Biso   1.000  H
  H227     1.0000 0.66616  0.71190  0.04827  Biso   1.000  H
  H228     1.0000 0.51071  0.84181  0.30289  Biso   1.000  H
  H229     1.0000 0.79444  0.45908  0.66984  Biso   1.000  H
  H230     1.0000 0.66465  0.74364  0.53902  Biso   1.000  H
  H231     1.0000 0.53378  0.62481  0.80851  Biso   1.000  H
  H232     1.0000 0.29577  0.46996  0.88779  Biso   1.000  H
  H233     1.0000 0.17117  0.75128  0.01748  Biso   1.000  H
  H234     1.0000 0.02384  0.61289  0.76394  Biso   1.000  H
  H235     1.0000 0.76137  0.95961  0.66461  Biso   1.000  H
  H236     1.0000 0.88204  0.25358  0.55006  Biso   1.000  H
  H237     1.0000 0.03257  0.11762  0.79051  Biso   1.000  H
  H238     1.0000 0.26552  0.96854  0.89357  Biso   1.000  H
  H239     1.0000 0.39309  0.24698  0.99673  Biso   1.000  H
  H240     1.0000 0.52468  0.11967  0.75725  Biso   1.000  H
  H241     1.0000 0.75985  0.47707  0.88606  Biso   1.000  H
  H242     1.0000 0.88804  0.71102  0.52719  Biso   1.000  H
  H243     1.0000 0.54791  0.83025  0.75805  Biso   1.000  H
  H244     1.0000 0.25628  0.47625  0.67135  Biso   1.000  H
  H245     1.0000 0.37796  0.70949  0.02504  Biso   1.000  H
  H246     1.0000 0.04113  0.83048  0.80751  Biso   1.000  H
  H247     1.0000 0.80930  0.95209  0.88043  Biso   1.000  H
  H248     1.0000 0.66639  0.20705  0.54407  Biso   1.000  H
  H249     1.0000 0.03645  0.33089  0.74889  Biso   1.000  H
  H250     1.0000 0.30638  0.96759  0.67455  Biso   1.000  H
  H251     1.0000 0.17891  0.20529  0.00329  Biso   1.000  H
  H252     1.0000 0.49594  0.33677  0.80250  Biso   1.000  H
  H253     1.0000 0.30113  0.47893  0.17758  Biso   1.000  H
  H254     1.0000 0.16843  0.25495  0.50677  Biso   1.000  H
  H255     1.0000 0.51328  0.12434  0.30004  Biso   1.000  H
  H256     1.0000 0.79719  0.48548  0.38461  Biso   1.000  H
  H257     1.0000 0.67708  0.24913  0.04370  Biso   1.000  H
  H258     1.0000 0.00716  0.13885  0.24458  Biso   1.000  H
  H259     1.0000 0.25160  0.98564  0.17738  Biso   1.000  H
  H260     1.0000 0.38020  0.75571  0.52489  Biso   1.000  H
  H261     1.0000 0.04166  0.63775  0.30753  Biso   1.000  H
  H262     1.0000 0.75643  0.96858  0.38104  Biso   1.000  H
  H263     1.0000 0.87987  0.74811  0.04802  Biso   1.000  H
  H264     1.0000 0.52966  0.62705  0.26568  Biso   1.000  H
  H265     1.0000 0.05967  0.20210  0.88050  Biso   1.000  H
  H266     1.0000 0.87646  0.98402  0.25159  Biso   1.000  H
  H267     1.0000 0.25397  0.83805  0.02659  Biso   1.000  H
  H268     1.0000 0.51411  0.21081  0.67414  Biso   1.000  H
  H269     1.0000 0.37757  0.99116  0.30632  Biso   1.000  H
  H270     1.0000 0.75113  0.83541  0.53481  Biso   1.000  H
  H271     1.0000 0.52762  0.70849  0.89819  Biso   1.000  H
  H272     1.0000 0.68010  0.46799  0.25416  Biso   1.000  H
  H273     1.0000 0.30161  0.33083  0.01872  Biso   1.000  H
  H274     1.0000 0.02142  0.70549  0.68026  Biso   1.000  H
  H275     1.0000 0.17064  0.48022  0.29738  Biso   1.000  H
  H276     1.0000 0.79402  0.33334  0.53700  Biso   1.000  H
  H277     1.0000 0.05005  0.76148  0.18211  Biso   1.000  H
  H278     1.0000 0.18192  0.98212  0.80295  Biso   1.000  H
  H279     1.0000 0.80161  0.12126  0.03952  Biso   1.000  H
  H280     1.0000 0.51634  0.75187  0.38814  Biso   1.000  H
  H281     1.0000 0.68160  0.96509  0.75670  Biso   1.000  H
  H282     1.0000 0.28987  0.12517  0.53343  Biso   1.000  H
  H283     1.0000 0.51819  0.25420  0.17142  Biso   1.000  H
  H284     1.0000 0.38209  0.49319  0.80328  Biso   1.000  H
  H285     1.0000 0.75034  0.63354  0.03011  Biso   1.000  H
  H286     1.0000 0.01381  0.26226  0.37300  Biso   1.000  H
  H287     1.0000 0.88275  0.47540  0.75563  Biso   1.000  H
  H288     1.0000 0.26021  0.62537  0.53674  Biso   1.000  H
  H289     1.0000 0.12490  0.20819  0.00564  Biso   1.000  H
  H290     1.0000 0.00471  0.08099  0.24942  Biso   1.000  H
  H291     1.0000 0.25622  0.97539  0.12655  Biso   1.000  H
  H292     1.0000 0.61302  0.20688  0.54417  Biso   1.000  H
  H293     1.0000 0.52385  0.07055  0.30068  Biso   1.000  H
  H294     1.0000 0.75534  0.97358  0.43696  Biso   1.000  H
  H295     1.0000 0.43230  0.70840  0.02483  Biso   1.000  H
  H296     1.0000 0.53564  0.56881  0.26382  Biso   1.000  H
  H297     1.0000 0.30252  0.47490  0.12425  Biso   1.000  H
  H298     1.0000 0.94186  0.70606  0.52726  Biso   1.000  H
  H299     1.0000 0.03548  0.58300  0.30742  Biso   1.000  H
  H300     1.0000 0.79731  0.48341  0.43946  Biso   1.000  H
  H301     1.0000 0.93401  0.74802  0.04936  Biso   1.000  H
  H302     1.0000 0.05439  0.88157  0.80785  Biso   1.000  H
  H303     1.0000 0.81088  0.96491  0.93262  Biso   1.000  H
  H304     1.0000 0.43062  0.75390  0.52391  Biso   1.000  H
  H305     1.0000 0.55002  0.88185  0.76058  Biso   1.000  H
  H306     1.0000 0.30563  0.97401  0.62292  Biso   1.000  H
  H307     1.0000 0.62645  0.24890  0.04414  Biso   1.000  H
  H308     1.0000 0.48755  0.38710  0.80857  Biso   1.000  H
  H309     1.0000 0.76054  0.48178  0.93646  Biso   1.000  H
  H310     1.0000 0.11274  0.25805  0.50536  Biso   1.000  H
  H311     1.0000 0.03792  0.38240  0.74996  Biso   1.000  H
  H312     1.0000 0.25614  0.47461  0.61611  Biso   1.000  H
  H313     1.0000 0.26250  0.96823  0.94723  Biso   1.000  H
  H314     1.0000 0.94018  0.21032  0.01772  Biso   1.000  H
  H315     1.0000 0.02706  0.90207  0.25648  Biso   1.000  H
  H316     1.0000 0.75477  0.96324  0.61064  Biso   1.000  H
  H317     1.0000 0.42942  0.21590  0.52234  Biso   1.000  H
  H318     1.0000 0.52407  0.88962  0.30377  Biso   1.000  H
  H319     1.0000 0.29807  0.46266  0.94094  Biso   1.000  H
  H320     1.0000 0.61214  0.71113  0.05474  Biso   1.000  H
  H321     1.0000 0.52631  0.38895  0.25920  Biso   1.000  H
  H322     1.0000 0.79509  0.46410  0.61638  Biso   1.000  H
  H323     1.0000 0.11978  0.70972  0.56498  Biso   1.000  H
  H324     1.0000 0.01367  0.40820  0.29818  Biso   1.000  H
  H325     1.0000 0.79026  0.98291  0.11059  Biso   1.000  H
  H326     1.0000 0.11486  0.75554  0.01673  Biso   1.000  H
  H327     1.0000 0.03095  0.06262  0.79402  Biso   1.000  H
  H328     1.0000 0.29449  0.99338  0.44201  Biso   1.000  H
  H329     1.0000 0.61258  0.74440  0.52875  Biso   1.000  H
  H330     1.0000 0.52675  0.06789  0.75704  Biso   1.000  H
  H331     1.0000 0.76058  0.49634  0.11340  Biso   1.000  H
  H332     1.0000 0.44614  0.24622  0.01184  Biso   1.000  H
  H333     1.0000 0.53873  0.56925  0.80799  Biso   1.000  H
  H334     1.0000 0.25402  0.48556  0.43620  Biso   1.000  H
  H335     1.0000 0.93682  0.25648  0.54954  Biso   1.000  H
  H336     1.0000 0.02700  0.56057  0.76243  Biso   1.000  H
  H337     1.0000 0.05906  0.19544  0.93260  Biso   1.000  H
  H338     1.0000 0.93204  0.98569  0.25143  Biso   1.000  H
  H339     1.0000 0.25578  0.89163  0.02363  Biso   1.000  H
  H340     1.0000 0.50932  0.21120  0.61649  Biso   1.000  H
  H341     1.0000 0.43287  0.98200  0.30467  Biso   1.000  H
  H342     1.0000 0.74908  0.88672  0.52551  Biso   1.000  H
  H343     1.0000 0.53001  0.70451  0.95036  Biso   1.000  H
  H344     1.0000 0.62734  0.46406  0.25766  Biso   1.000  H
  H345     1.0000 0.30582  0.38549  0.02658  Biso   1.000  H
  H346     1.0000 0.00931  0.70617  0.62940  Biso   1.000  H
  H347     1.0000 0.11367  0.48038  0.29538  Biso   1.000  H
  H348     1.0000 0.79512  0.39315  0.52465  Biso   1.000  H
  H349     1.0000 0.04143  0.75784  0.12701  Biso   1.000  H
  H350     1.0000 0.13208  0.98412  0.80312  Biso   1.000  H
  H351     1.0000 0.80407  0.06697  0.03234  Biso   1.000  H
  H352     1.0000 0.51951  0.75272  0.44346  Biso   1.000  H
  H353     1.0000 0.62705  0.97161  0.75899  Biso   1.000  H
  H354     1.0000 0.29695  0.06897  0.53574  Biso   1.000  H
  H355     1.0000 0.52446  0.25512  0.11869  Biso   1.000  H
  H356     1.0000 0.43264  0.49822  0.80558  Biso   1.000  H
  H357     1.0000 0.75285  0.57830  0.01952  Biso   1.000  H
  H358     1.0000 0.01061  0.25907  0.42988  Biso   1.000  H
  H359     1.0000 0.93851  0.47785  0.75318  Biso   1.000  H
  H360     1.0000 0.25985  0.57557  0.53164  Biso   1.000  H
  H361     1.0000 0.03904  0.71802  0.44813  Biso   1.000  H
  H362     1.0000 0.44815  0.96217  0.76268  Biso   1.000  H
  H363     1.0000 0.76287  0.39645  0.03862  Biso   1.000  H
  H364     1.0000 0.49837  0.71050  0.12831  Biso   1.000  H
  H365     1.0000 0.95180  0.96623  0.79831  Biso   1.000  H
  H366     1.0000 0.25450  0.39537  0.52234  Biso   1.000  H
  H367     1.0000 0.52677  0.21035  0.43834  Biso   1.000  H
  H368     1.0000 0.11484  0.46274  0.75160  Biso   1.000  H
  H369     1.0000 0.80239  0.89443  0.03398  Biso   1.000  H
  H370     1.0000 0.04010  0.21927  0.10656  Biso   1.000  H
  H371     1.0000 0.61436  0.46613  0.80052  Biso   1.000  H
  H372     1.0000 0.29672  0.89703  0.51305  Biso   1.000  H
  H373     1.0000 0.04621  0.25229  0.60326  Biso   1.000  H
  H374     1.0000 0.61164  0.97092  0.29590  Biso   1.000  H
  H375     1.0000 0.29741  0.56292  0.02912  Biso   1.000  H
  H376     1.0000 0.54559  0.25105  0.93992  Biso   1.000  H
  H377     1.0000 0.10571  0.00732  0.25235  Biso   1.000  H
  H378     1.0000 0.79580  0.57298  0.53859  Biso   1.000  H
  H379     1.0000 0.52024  0.74671  0.62230  Biso   1.000  H
  H380     1.0000 0.93487  0.50742  0.30348  Biso   1.000  H
  H381     1.0000 0.26224  0.06950  0.03530  Biso   1.000  H
  H382     1.0000 0.00931  0.74821  0.94457  Biso   1.000  H
  H383     1.0000 0.44378  0.47469  0.26249  Biso   1.000  H
  H384     1.0000 0.75079  0.06908  0.51911  Biso   1.000  H
  H385     1.0000 0.24905  0.45221  0.35480  Biso   1.000  H
  H386     1.0000 0.29278  0.15339  0.50418  Biso   1.000  H
  H387     1.0000 0.48321  0.30045  0.24552  Biso   1.000  H
  H388     1.0000 0.71219  0.43869  0.24345  Biso   1.000  H
  H389     1.0000 0.86329  0.20663  0.06304  Biso   1.000  H
  H390     1.0000 0.98352  0.26471  0.34517  Biso   1.000  H
  H391     1.0000 0.29430  0.96902  0.36077  Biso   1.000  H
  H392     1.0000 0.19476  0.71107  0.52971  Biso   1.000  H
  H393     1.0000 0.00974  0.76378  0.20862  Biso   1.000  H
  H394     1.0000 0.79204  0.95356  0.19747  Biso   1.000  H
  H395     1.0000 0.74656  0.65748  0.06445  Biso   1.000  H
  H396     1.0000 0.54646  0.80540  0.30944  Biso   1.000  H
  H397     1.0000 0.79891  0.49379  0.70151  Biso   1.000  H
  H398     1.0000 0.74643  0.80014  0.56565  Biso   1.000  H
  H399     1.0000 0.56123  0.65623  0.81309  Biso   1.000  H
  H400     1.0000 0.34774  0.51302  0.80679  Biso   1.000  H
  H401     1.0000 0.24976  0.80487  0.98209  Biso   1.000  H
  H402     1.0000 0.06179  0.64901  0.75974  Biso   1.000  H
  H403     1.0000 0.75553  0.93282  0.69946  Biso   1.000  H
  H404     1.0000 0.79474  0.30314  0.56767  Biso   1.000  H
  H405     1.0000 0.02821  0.20524  0.84502  Biso   1.000  H
  H406     1.0000 0.26908  0.99959  0.86075  Biso   1.000  H
  H407     1.0000 0.30592  0.29984  0.98014  Biso   1.000  H
  H408     1.0000 0.49130  0.15094  0.74872  Biso   1.000  H
  H409     1.0000 0.30945  0.44612  0.20580  Biso   1.000  H
  H410     1.0000 0.20468  0.25570  0.48051  Biso   1.000  H
  H411     1.0000 0.49245  0.20638  0.35194  Biso   1.000  H
  H412     1.0000 0.85379  0.46138  0.30846  Biso   1.000  H
  H413     1.0000 0.70765  0.25891  0.01013  Biso   1.000  H
  H414     1.0000 0.01049  0.22646  0.18323  Biso   1.000  H
  H415     1.0000 0.19203  0.97413  0.25688  Biso   1.000  H
  H416     1.0000 0.34782  0.75339  0.50408  Biso   1.000  H
  H417     1.0000 0.00464  0.67134  0.31577  Biso   1.000  H
  H418     1.0000 0.74489  0.93240  0.34258  Biso   1.000  H
  H419     1.0000 0.84331  0.76259  0.07930  Biso   1.000  H
  H420     1.0000 0.48584  0.65410  0.26503  Biso   1.000  H
  H421     1.0000 0.75386  0.50033  0.84997  Biso   1.000  H
  H422     1.0000 0.80800  0.65785  0.56718  Biso   1.000  H
  H423     1.0000 0.55440  0.74360  0.70623  Biso   1.000  H
  H424     1.0000 0.19591  0.49773  0.75665  Biso   1.000  H
  H425     1.0000 0.35334  0.70481  0.99091  Biso   1.000  H
  H426     1.0000 0.04833  0.74768  0.87217  Biso   1.000  H
  H427     1.0000 0.81362  0.99371  0.84889  Biso   1.000  H
  H428     1.0000 0.74813  0.14785  0.55432  Biso   1.000  H
  H429     1.0000 0.06613  0.30313  0.74837  Biso   1.000  H
  H430     1.0000 0.36106  0.93182  0.75817  Biso   1.000  H
  H431     1.0000 0.22059  0.18131  0.96995  Biso   1.000  H
  H432     1.0000 0.49336  0.24460  0.86159  Biso   1.000  H
  H433     1.0000 0.30682  0.99735  0.70584  Biso   1.000  H
  H434     1.0000 0.76516  0.31246  0.07064  Biso   1.000  H
  H435     1.0000 0.07732  0.71568  0.36077  Biso   1.000  H
  H436     1.0000 0.86506  0.93373  0.79837  Biso   1.000  H
  H437     1.0000 0.24364  0.30671  0.55491  Biso   1.000  H
  H438     1.0000 0.53479  0.71259  0.20478  Biso   1.000  H
  H439     1.0000 0.25571  0.45134  0.70222  Biso   1.000  H
  H440     1.0000 0.80412  0.80580  0.00141  Biso   1.000  H
  H441     1.0000 0.54630  0.14851  0.29916  Biso   1.000  H
  H442     1.0000 0.69696  0.44018  0.80090  Biso   1.000  H
  H443     1.0000 0.29482  0.81531  0.55526  Biso   1.000  H
  H444     1.0000 0.03978  0.15934  0.25125  Biso   1.000  H
  H445     1.0000 0.69981  0.00846  0.30500  Biso   1.000  H
  H446     1.0000 0.29202  0.65079  0.04662  Biso   1.000  H
  H447     1.0000 0.01375  0.24363  0.69198  Biso   1.000  H
  H448     1.0000 0.24637  0.03065  0.20382  Biso   1.000  H
  H449     1.0000 0.84890  0.71154  0.49838  Biso   1.000  H
  H450     1.0000 0.53684  0.31044  0.80535  Biso   1.000  H
  H451     1.0000 0.79845  0.51982  0.35677  Biso   1.000  H
  H452     1.0000 0.24536  0.16036  0.05749  Biso   1.000  H
  H453     1.0000 0.50074  0.80709  0.75253  Biso   1.000  H
  H454     1.0000 0.35635  0.50947  0.26550  Biso   1.000  H
  H455     1.0000 0.69128  0.21008  0.50414  Biso   1.000  H
  H456     1.0000 0.00897  0.80543  0.80519  Biso   1.000  H
  H457     1.0000 0.69613  0.75112  0.50011  Biso   1.000  H
  H458     1.0000 0.49450  0.70224  0.86181  Biso   1.000  H
  H459     1.0000 0.85346  0.43270  0.74949  Biso   1.000  H
  H460     1.0000 0.20247  0.76056  0.05016  Biso   1.000  H
  H461     1.0000 0.99099  0.69252  0.71529  Biso   1.000  H
  H462     1.0000 0.29915  0.44558  0.85478  Biso   1.000  H
  H463     1.0000 0.85539  0.25136  0.51261  Biso   1.000  H
  H464     1.0000 0.07078  0.14039  0.79135  Biso   1.000  H
  H465     1.0000 0.71637  0.00340  0.74452  Biso   1.000  H
  H466     1.0000 0.36341  0.24630  0.03995  Biso   1.000  H
  H467     1.0000 0.55605  0.20462  0.70730  Biso   1.000  H
  H468     1.0000 0.20925  0.94601  0.80604  Biso   1.000  H
  H469     1.0000 0.34520  0.20999  0.56437  Biso   1.000  H
  H470     1.0000 0.55911  0.25633  0.20237  Biso   1.000  H
  H471     1.0000 0.20229  0.51441  0.29798  Biso   1.000  H
  H472     1.0000 0.79864  0.15618  0.00504  Biso   1.000  H
  H473     1.0000 0.04181  0.32114  0.29325  Biso   1.000  H
  H474     1.0000 0.75113  0.51952  0.20556  Biso   1.000  H
  H475     1.0000 0.26185  0.65410  0.57248  Biso   1.000  H
  H476     1.0000 0.07632  0.81754  0.25076  Biso   1.000  H
  H477     1.0000 0.35215  0.02395  0.30951  Biso   1.000  H
  H478     1.0000 0.69076  0.71405  0.01351  Biso   1.000  H
  H479     1.0000 0.47870  0.76318  0.35894  Biso   1.000  H
  H480     1.0000 0.84952  0.01099  0.25432  Biso   1.000  H
  N1       1.0000 0.69754  0.15553  0.53056  Biso   1.000  N
  N2       1.0000 0.51399  0.65766  0.21358  Biso   1.000  N
  N3       1.0000 0.20240  0.47422  0.70488  Biso   1.000  N
  N4       1.0000 0.20942  0.15308  0.01584  Biso   1.000  N
  N5       1.0000 0.03985  0.66911  0.36174  Biso   1.000  N
  N6       1.0000 0.70414  0.47357  0.84969  Biso   1.000  N
  N7       1.0000 0.85239  0.65865  0.52935  Biso   1.000  N
  N8       1.0000 0.02446  0.16696  0.19531  Biso   1.000  N
  N9       1.0000 0.36024  0.96821  0.70790  Biso   1.000  N
  N10      1.0000 0.34628  0.65316  0.01964  Biso   1.000  N
  N11      1.0000 0.52249  0.15628  0.35047  Biso   1.000  N
  N12      1.0000 0.86370  0.96305  0.84785  Biso   1.000  N
  N13      1.0000 0.34679  0.80620  0.52567  Biso   1.000  N
  N14      1.0000 0.51460  0.30203  0.85675  Biso   1.000  N
  N15      1.0000 0.84911  0.49128  0.35593  Biso   1.000  N
  N16      1.0000 0.84973  0.80540  0.04272  Biso   1.000  N
  N17      1.0000 0.03949  0.29763  0.69388  Biso   1.000  N
  N18      1.0000 0.35489  0.47812  0.20934  Biso   1.000  N
  N19      1.0000 0.19947  0.30752  0.51636  Biso   1.000  N
  N20      1.0000 0.02835  0.80182  0.86096  Biso   1.000  N
  N21      1.0000 0.70000  0.97145  0.34868  Biso   1.000  N
  N22      1.0000 0.71103  0.30696  0.04095  Biso   1.000  N
  N23      1.0000 0.53292  0.79887  0.70623  Biso   1.000  N
  N24      1.0000 0.19741  0.99706  0.20609  Biso   1.000  N
  N25      1.0000 0.84853  0.46586  0.70278  Biso   1.000  N
  N26      1.0000 0.69869  0.79879  0.53187  Biso   1.000  N
  N27      1.0000 0.52927  0.65560  0.86113  Biso   1.000  N
  N28      1.0000 0.34872  0.47983  0.85666  Biso   1.000  N
  N29      1.0000 0.20319  0.80706  0.01633  Biso   1.000  N
  N30      1.0000 0.02577  0.64982  0.71188  Biso   1.000  N
  N31      1.0000 0.71150  0.96859  0.70071  Biso   1.000  N
  N32      1.0000 0.84929  0.30501  0.53830  Biso   1.000  N
  N33      1.0000 0.04717  0.15016  0.84464  Biso   1.000  N
  N34      1.0000 0.21491  0.97552  0.85658  Biso   1.000  N
  N35      1.0000 0.35860  0.29789  0.01192  Biso   1.000  N
  N36      1.0000 0.52375  0.15555  0.70367  Biso   1.000  N
  N37      1.0000 0.20093  0.48027  0.34887  Biso   1.000  N
  N38      1.0000 0.34552  0.16009  0.53333  Biso   1.000  N
  N39      1.0000 0.52129  0.30638  0.20476  Biso   1.000  N
  N40      1.0000 0.70991  0.47781  0.19995  Biso   1.000  N
  N41      1.0000 0.85353  0.15638  0.03057  Biso   1.000  N
  N42      1.0000 0.00963  0.31651  0.34291  Biso   1.000  N
  N43      1.0000 0.34752  0.99127  0.35851  Biso   1.000  N
  N44      1.0000 0.20567  0.65861  0.55180  Biso   1.000  N
  N45      1.0000 0.04098  0.81398  0.20878  Biso   1.000  N
  N46      1.0000 0.84350  0.98340  0.20089  Biso   1.000  N
  N47      1.0000 0.69798  0.66103  0.03637  Biso   1.000  N
  N48      1.0000 0.51386  0.80666  0.35717  Biso   1.000  N
  O1       1.0000 0.37195  0.51940  0.03186  Biso   1.000  O
  O2       1.0000 0.03405  0.32586  0.56116  Biso   1.000  O
  O3       1.0000 0.56701  0.97994  0.36860  Biso   1.000  O
  O4       1.0000 0.86974  0.52433  0.53136  Biso   1.000  O
  O5       1.0000 0.54009  0.32035  0.98808  Biso   1.000  O
  O6       1.0000 0.06362  0.99586  0.17966  Biso   1.000  O
  O7       1.0000 0.18632  0.02487  0.03955  Biso   1.000  O
  O8       1.0000 0.52402  0.82149  0.57370  Biso   1.000  O
  O9       1.0000 0.98635  0.49358  0.37524  Biso   1.000  O
  O10      1.0000 0.67706  0.01938  0.52762  Biso   1.000  O
  O11      1.0000 0.01757  0.82425  0.99335  Biso   1.000  O
  O12      1.0000 0.48959  0.48388  0.18908  Biso   1.000  O
  O13      1.0000 0.68810  0.44058  0.03305  Biso   1.000  O
  O14      1.0000 0.03439  0.64201  0.49469  Biso   1.000  O
  O15      1.0000 0.49478  0.96921  0.69057  Biso   1.000  O
  O16      1.0000 0.18169  0.44143  0.52588  Biso   1.000  O
  O17      1.0000 0.51549  0.64125  0.07997  Biso   1.000  O
  O18      1.0000 0.99696  0.96759  0.87161  Biso   1.000  O
  O19      1.0000 0.87726  0.93860  0.02196  Biso   1.000  O
  O20      1.0000 0.52842  0.13813  0.48713  Biso   1.000  O
  O21      1.0000 0.06785  0.47391  0.67943  Biso   1.000  O
  O22      1.0000 0.36904  0.94122  0.52579  Biso   1.000  O
  O23      1.0000 0.04096  0.14336  0.06282  Biso   1.000  O
  O24      1.0000 0.56981  0.47396  0.87394  Biso   1.000  O
  O25      1.0000 0.98061  0.98411  0.18031  Biso   1.000  O
  O26      1.0000 0.18658  0.94449  0.02307  Biso   1.000  O
  O27      1.0000 0.03157  0.13273  0.97949  Biso   1.000  O
  O28      1.0000 0.48340  0.97604  0.37667  Biso   1.000  O
  O29      1.0000 0.67834  0.93464  0.52591  Biso   1.000  O
  O30      1.0000 0.51558  0.14166  0.56902  Biso   1.000  O
  O31      1.0000 0.57443  0.47946  0.18536  Biso   1.000  O
  O32      1.0000 0.37312  0.43578  0.02964  Biso   1.000  O
  O33      1.0000 0.53038  0.63411  0.99748  Biso   1.000  O
  O34      1.0000 0.06859  0.48589  0.37016  Biso   1.000  O
  O35      1.0000 0.86544  0.44169  0.53180  Biso   1.000  O
  O36      1.0000 0.01834  0.63140  0.58047  Biso   1.000  O
  O37      1.0000 0.08117  0.98500  0.87778  Biso   1.000  O
  O38      1.0000 0.87615  0.02122  0.02614  Biso   1.000  O
  O39      1.0000 0.03397  0.83104  0.07548  Biso   1.000  O
  O40      1.0000 0.57854  0.98638  0.68947  Biso   1.000  O
  O41      1.0000 0.37122  0.02774  0.53226  Biso   1.000  O
  O42      1.0000 0.51629  0.82570  0.49023  Biso   1.000  O
  O43      1.0000 0.48330  0.48344  0.87731  Biso   1.000  O
  O44      1.0000 0.68527  0.52315  0.01950  Biso   1.000  O
  O45      1.0000 0.53018  0.32440  0.07026  Biso   1.000  O
  O46      1.0000 0.98373  0.47305  0.68264  Biso   1.000  O
  O47      1.0000 0.18552  0.52608  0.52718  Biso   1.000  O
  O48      1.0000 0.01484  0.33012  0.47892  Biso   1.000  O
  O49      1.0000 0.02865  0.94852  0.18133  Biso   1.000  O
  O50      1.0000 0.18994  0.98931  0.98930  Biso   1.000  O
  O51      1.0000 0.98875  0.13972  0.02321  Biso   1.000  O
  O52      1.0000 0.53077  0.93871  0.37367  Biso   1.000  O
  O53      1.0000 0.67940  0.97786  0.56676  Biso   1.000  O
  O54      1.0000 0.48024  0.14328  0.52137  Biso   1.000  O
  O55      1.0000 0.53200  0.44169  0.18660  Biso   1.000  O
  O56      1.0000 0.37086  0.47919  0.99133  Biso   1.000  O
  O57      1.0000 0.56261  0.63989  0.04980  Biso   1.000  O
  O58      1.0000 0.02412  0.44702  0.37529  Biso   1.000  O
  O59      1.0000 0.86694  0.47587  0.56983  Biso   1.000  O
  O60      1.0000 0.06968  0.63817  0.54481  Biso   1.000  O
  O61      1.0000 0.03406  0.01692  0.86860  Biso   1.000  O
  O62      1.0000 0.86618  0.97736  0.06753  Biso   1.000  O
  O63      1.0000 0.06580  0.82749  0.02568  Biso   1.000  O
  O64      1.0000 0.52575  0.01819  0.68642  Biso   1.000  O
  O65      1.0000 0.37133  0.98639  0.48856  Biso   1.000  O
  O66      1.0000 0.56528  0.81865  0.53040  Biso   1.000  O
  O67      1.0000 0.53495  0.51775  0.87612  Biso   1.000  O
  O68      1.0000 0.68606  0.48913  0.06896  Biso   1.000  O
  O69      1.0000 0.49270  0.32025  0.02455  Biso   1.000  O
  O70      1.0000 0.02602  0.51558  0.68750  Biso   1.000  O
  O71      1.0000 0.18443  0.48176  0.48413  Biso   1.000  O
  O72      1.0000 0.97984  0.32939  0.52771  Biso   1.000  O
  O73      1.0000 0.02598  0.43312  0.67903  Biso   1.000  O
  O74      1.0000 0.68182  0.97828  0.48161  Biso   1.000  O
  O75      1.0000 0.48098  0.63910  0.03176  Biso   1.000  O
  O76      1.0000 0.51836  0.43693  0.87387  Biso   1.000  O
  O77      1.0000 0.18594  0.97677  0.07090  Biso   1.000  O
  O78      1.0000 0.98718  0.63585  0.52724  Biso   1.000  O
  O79      1.0000 0.54561  0.93268  0.68746  Biso   1.000  O
  O80      1.0000 0.87007  0.47954  0.48883  Biso   1.000  O
  O81      1.0000 0.07604  0.13628  0.02019  Biso   1.000  O
  O82      1.0000 0.04399  0.93506  0.87703  Biso   1.000  O
  O83      1.0000 0.37324  0.47669  0.07422  Biso   1.000  O
  O84      1.0000 0.56362  0.13740  0.53258  Biso   1.000  O
  O85      1.0000 0.03209  0.53339  0.37641  Biso   1.000  O
  O86      1.0000 0.37658  0.97830  0.57059  Biso   1.000  O
  O87      1.0000 0.57634  0.32358  0.03538  Biso   1.000  O
  O88      1.0000 0.53347  0.52543  0.18872  Biso   1.000  O
  O89      1.0000 0.88012  0.98044  0.98427  Biso   1.000  O
  O90      1.0000 0.06274  0.32843  0.50517  Biso   1.000  O
  O91      1.0000 0.52555  0.02139  0.37072  Biso   1.000  O
  O92      1.0000 0.18476  0.48213  0.56878  Biso   1.000  O
  O93      1.0000 0.98442  0.82118  0.04084  Biso   1.000  O
  O94      1.0000 0.01538  0.03208  0.17896  Biso   1.000  O
  O95      1.0000 0.68841  0.47729  0.98492  Biso   1.000  O
  O96      1.0000 0.48293  0.82321  0.53709  Biso   1.000  O
  O97      1.0000 0.48158  0.19284  0.52494  Biso   1.000  O
  O98      1.0000 0.53304  0.43895  0.23545  Biso   1.000  O
  O99      1.0000 0.23411  0.48626  0.48422  Biso   1.000  O
  O100     1.0000 0.99070  0.18650  0.01426  Biso   1.000  O
  O101     1.0000 0.02058  0.45273  0.32623  Biso   1.000  O
  O102     1.0000 0.73499  0.48754  0.06923  Biso   1.000  O
  O103     1.0000 0.06796  0.68762  0.54911  Biso   1.000  O
  O104     1.0000 0.03034  0.95097  0.22892  Biso   1.000  O
  O105     1.0000 0.32122  0.98865  0.49078  Biso   1.000  O
  O106     1.0000 0.56364  0.68777  0.04392  Biso   1.000  O
  O107     1.0000 0.51985  0.93923  0.32413  Biso   1.000  O
  O108     1.0000 0.81907  0.97683  0.05999  Biso   1.000  O
  O109     1.0000 0.56306  0.76885  0.52524  Biso   1.000  O
  O110     1.0000 0.53297  0.52224  0.82746  Biso   1.000  O
  O111     1.0000 0.81774  0.47568  0.57029  Biso   1.000  O
  O112     1.0000 0.06750  0.77794  0.02530  Biso   1.000  O
  O113     1.0000 0.02811  0.51270  0.73551  Biso   1.000  O
  O114     1.0000 0.32128  0.47435  0.99149  Biso   1.000  O
  O115     1.0000 0.98590  0.27964  0.53189  Biso   1.000  O
  O116     1.0000 0.03060  0.01237  0.82008  Biso   1.000  O
  O117     1.0000 0.72818  0.97175  0.56463  Biso   1.000  O
  O118     1.0000 0.49564  0.27094  0.02114  Biso   1.000  O
  O119     1.0000 0.53585  0.02056  0.73439  Biso   1.000  O
  O120     1.0000 0.23884  0.98941  0.99337  Biso   1.000  O
  O121     1.0000 0.06944  0.46682  0.72840  Biso   1.000  O
  O122     1.0000 0.72643  0.02012  0.53047  Biso   1.000  O
  O123     1.0000 0.51690  0.68826  0.07831  Biso   1.000  O
  O124     1.0000 0.56635  0.47329  0.82559  Biso   1.000  O
  O125     1.0000 0.23526  0.02206  0.04189  Biso   1.000  O
  O126     1.0000 0.03542  0.69022  0.49747  Biso   1.000  O
  O127     1.0000 0.49578  0.97466  0.73942  Biso   1.000  O
  O128     1.0000 0.82022  0.52245  0.53242  Biso   1.000  O
  O129     1.0000 0.03677  0.19222  0.05933  Biso   1.000  O
  O130     1.0000 0.00001  0.96119  0.82314  Biso   1.000  O
  O131     1.0000 0.32351  0.51586  0.02939  Biso   1.000  O
  O132     1.0000 0.52458  0.18757  0.48505  Biso   1.000  O
  O133     1.0000 0.98497  0.50114  0.32768  Biso   1.000  O
  O134     1.0000 0.31897  0.94246  0.52636  Biso   1.000  O
  O135     1.0000 0.54663  0.27325  0.98810  Biso   1.000  O
  O136     1.0000 0.49370  0.48479  0.23771  Biso   1.000  O
  O137     1.0000 0.82944  0.93800  0.01910  Biso   1.000  O
  O138     1.0000 0.03338  0.27815  0.55822  Biso   1.000  O
  O139     1.0000 0.56441  0.97934  0.32058  Biso   1.000  O
  O140     1.0000 0.23282  0.44176  0.52705  Biso   1.000  O
  O141     1.0000 0.01672  0.77507  0.99360  Biso   1.000  O
  O142     1.0000 0.06224  0.00178  0.22821  Biso   1.000  O
  O143     1.0000 0.73825  0.44246  0.02985  Biso   1.000  O
  O144     1.0000 0.52287  0.77227  0.57265  Biso   1.000  O
  O145     1.0000 0.57655  0.47580  0.23402  Biso   1.000  O
  O146     1.0000 0.23674  0.52407  0.53174  Biso   1.000  O
  O147     1.0000 0.51978  0.18901  0.56997  Biso   1.000  O
  O148     1.0000 0.06616  0.48432  0.32223  Biso   1.000  O
  O149     1.0000 0.73311  0.52855  0.02593  Biso   1.000  O
  O150     1.0000 0.02888  0.18128  0.97277  Biso   1.000  O
  O151     1.0000 0.97953  0.98721  0.22804  Biso   1.000  O
  O152     1.0000 0.32349  0.02496  0.53304  Biso   1.000  O
  O153     1.0000 0.01763  0.68086  0.58105  Biso   1.000  O
  O154     1.0000 0.48067  0.98180  0.32920  Biso   1.000  O
  O155     1.0000 0.82775  0.02274  0.02186  Biso   1.000  O
  O156     1.0000 0.52513  0.68282  0.99588  Biso   1.000  O
  O157     1.0000 0.48382  0.49155  0.83002  Biso   1.000  O
  O158     1.0000 0.81749  0.43844  0.52135  Biso   1.000  O
  O159     1.0000 0.51762  0.77751  0.49084  Biso   1.000  O
  O160     1.0000 0.98590  0.46922  0.73093  Biso   1.000  O
  O161     1.0000 0.32481  0.43187  0.03223  Biso   1.000  O
  O162     1.0000 0.03755  0.78242  0.07601  Biso   1.000  O
  O163     1.0000 0.07936  0.98472  0.82805  Biso   1.000  O
  O164     1.0000 0.72706  0.93506  0.52338  Biso   1.000  O
  O165     1.0000 0.01260  0.28107  0.47756  Biso   1.000  O
  O166     1.0000 0.58002  0.97694  0.73796  Biso   1.000  O
  O167     1.0000 0.23634  0.94085  0.02751  Biso   1.000  O
  O168     1.0000 0.52829  0.27535  0.07085  Biso   1.000  O
  O169     1.0000 0.01377  0.03355  0.22708  Biso   1.000  O
  O170     1.0000 0.23415  0.97625  0.07599  Biso   1.000  O
  O171     1.0000 0.07575  0.18517  0.01182  Biso   1.000  O
  O172     1.0000 0.52405  0.02402  0.32075  Biso   1.000  O
  O173     1.0000 0.73086  0.98103  0.48339  Biso   1.000  O
  O174     1.0000 0.56446  0.18618  0.53283  Biso   1.000  O
  O175     1.0000 0.53876  0.52202  0.23801  Biso   1.000  O
  O176     1.0000 0.32568  0.47851  0.07350  Biso   1.000  O
  O177     1.0000 0.47963  0.68746  0.02966  Biso   1.000  O
  O178     1.0000 0.03408  0.53445  0.32832  Biso   1.000  O
  O179     1.0000 0.82148  0.48625  0.48685  Biso   1.000  O
  O180     1.0000 0.98610  0.68574  0.53033  Biso   1.000  O
  O181     1.0000 0.05126  0.93248  0.82882  Biso   1.000  O
  O182     1.0000 0.83106  0.98198  0.97818  Biso   1.000  O
  O183     1.0000 0.98599  0.77208  0.04153  Biso   1.000  O
  O184     1.0000 0.54084  0.93545  0.73491  Biso   1.000  O
  O185     1.0000 0.32853  0.98376  0.57335  Biso   1.000  O
  O186     1.0000 0.48082  0.77529  0.53022  Biso   1.000  O
  O187     1.0000 0.51613  0.43762  0.82532  Biso   1.000  O
  O188     1.0000 0.73654  0.48162  0.98672  Biso   1.000  O
  O189     1.0000 0.57696  0.27576  0.04409  Biso   1.000  O
  O190     1.0000 0.02392  0.43048  0.72724  Biso   1.000  O
  O191     1.0000 0.23241  0.47891  0.57083  Biso   1.000  O
  O192     1.0000 0.06635  0.27869  0.50684  Biso   1.000  O
