data_image0
_cell_length_a       47.227
_cell_length_b       46.4712
_cell_length_c       46.5147
_cell_angle_alpha    90
_cell_angle_beta     90
_cell_angle_gamma    90

_symmetry_space_group_name_H-M    "P 1"
_symmetry_int_tables_number       1

loop_
  _symmetry_equiv_pos_as_xyz
  'x, y, z'

loop_
  _atom_site_label
  _atom_site_occupancy
  _atom_site_fract_x
  _atom_site_fract_y
  _atom_site_fract_z
  _atom_site_thermal_displace_type
  _atom_site_B_iso_or_equiv
  _atom_site_type_symbol
  C1       1.0000 0.57197  0.97600  0.32804  Biso   1.000  C
  C2       1.0000 0.34193  0.52210  0.01364  Biso   1.000  C
  C3       1.0000 0.03261  0.29529  0.55913  Biso   1.000  C
  C4       1.0000 0.07595  0.97468  0.19581  Biso   1.000  C
  C5       1.0000 0.83996  0.53057  0.51045  Biso   1.000  C
  C6       1.0000 0.52898  0.29965  0.94156  Biso   1.000  C
  C7       1.0000 0.97135  0.48094  0.33647  Biso   1.000  C
  C8       1.0000 0.21057  0.02601  0.01833  Biso   1.000  C
  C9       1.0000 0.51515  0.80313  0.58115  Biso   1.000  C
  C10      1.0000 0.47345  0.45938  0.19469  Biso   1.000  C
  C11      1.0000 0.70309  0.03078  0.49428  Biso   1.000  C
  C12      1.0000 0.02126  0.79952  0.96482  Biso   1.000  C
  C13      1.0000 0.47490  0.98989  0.70183  Biso   1.000  C
  C14      1.0000 0.70874  0.43365  0.01673  Biso   1.000  C
  C15      1.0000 0.01519  0.66722  0.46462  Biso   1.000  C
  C16      1.0000 0.97051  0.97102  0.82836  Biso   1.000  C
  C17      1.0000 0.20533  0.43387  0.50745  Biso   1.000  C
  C18      1.0000 0.51517  0.66034  0.08355  Biso   1.000  C
  C19      1.0000 0.06926  0.46373  0.68877  Biso   1.000  C
  C20      1.0000 0.83810  0.93102  0.00346  Biso   1.000  C
  C21      1.0000 0.52766  0.16355  0.44228  Biso   1.000  C
  C22      1.0000 0.56545  0.49211  0.83178  Biso   1.000  C
  C23      1.0000 0.33840  0.93536  0.52601  Biso   1.000  C
  C24      1.0000 0.02775  0.16096  0.06218  Biso   1.000  C
  C25      1.0000 0.34657  0.04378  0.51979  Biso   1.000  C
  C26      1.0000 0.54171  0.29667  0.05077  Biso   1.000  C
  C27      1.0000 0.07890  0.49713  0.33557  Biso   1.000  C
  C28      1.0000 0.85322  0.03879  0.00859  Biso   1.000  C
  C29      1.0000 0.03883  0.29996  0.45110  Biso   1.000  C
  C30      1.0000 0.58237  0.46991  0.19549  Biso   1.000  C
  C31      1.0000 0.19706  0.54323  0.52077  Biso   1.000  C
  C32      1.0000 0.00827  0.80181  0.07366  Biso   1.000  C
  C33      1.0000 0.46564  0.96146  0.33661  Biso   1.000  C
  C34      1.0000 0.69049  0.54104  0.00871  Biso   1.000  C
  C35      1.0000 0.51857  0.79799  0.47027  Biso   1.000  C
  C36      1.0000 0.96726  0.99128  0.19351  Biso   1.000  C
  C37      1.0000 0.70161  0.92233  0.50796  Biso   1.000  C
  C38      1.0000 0.50301  0.66824  0.97224  Biso   1.000  C
  C39      1.0000 0.96384  0.48259  0.69347  Biso   1.000  C
  C40      1.0000 0.20527  0.91823  0.02085  Biso   1.000  C
  C41      1.0000 0.01397  0.65774  0.57688  Biso   1.000  C
  C42      1.0000 0.45867  0.49793  0.84241  Biso   1.000  C
  C43      1.0000 0.84640  0.41967  0.51237  Biso   1.000  C
  C44      1.0000 0.04534  0.15674  0.95425  Biso   1.000  C
  C45      1.0000 0.58045  0.99902  0.68678  Biso   1.000  C
  C46      1.0000 0.34620  0.41486  0.02445  Biso   1.000  C
  C47      1.0000 0.52551  0.16288  0.55112  Biso   1.000  C
  C48      1.0000 0.07854  0.97233  0.83367  Biso   1.000  C
  C49      1.0000 0.02318  0.02818  0.82847  Biso   1.000  C
  C50      1.0000 0.84073  0.98450  0.05872  Biso   1.000  C
  C51      1.0000 0.07082  0.80025  0.02730  Biso   1.000  C
  C52      1.0000 0.52046  0.04916  0.69066  Biso   1.000  C
  C53      1.0000 0.34528  0.98462  0.47126  Biso   1.000  C
  C54      1.0000 0.56835  0.79905  0.52765  Biso   1.000  C
  C55      1.0000 0.51456  0.54610  0.84158  Biso   1.000  C
  C56      1.0000 0.70332  0.49089  0.06780  Biso   1.000  C
  C57      1.0000 0.48289  0.29743  0.00080  Biso   1.000  C
  C58      1.0000 0.02244  0.52449  0.69503  Biso   1.000  C
  C59      1.0000 0.20570  0.49470  0.45994  Biso   1.000  C
  C60      1.0000 0.97662  0.29987  0.50078  Biso   1.000  C
  C61      1.0000 0.00988  0.93051  0.19437  Biso   1.000  C
  C62      1.0000 0.20517  0.96580  0.96408  Biso   1.000  C
  C63      1.0000 0.98222  0.16157  0.99716  Biso   1.000  C
  C64      1.0000 0.52419  0.91481  0.33565  Biso   1.000  C
  C65      1.0000 0.70768  0.98567  0.55372  Biso   1.000  C
  C66      1.0000 0.47770  0.16149  0.49095  Biso   1.000  C
  C67      1.0000 0.53170  0.41458  0.18847  Biso   1.000  C
  C68      1.0000 0.33900  0.46342  0.96562  Biso   1.000  C
  C69      1.0000 0.56214  0.66945  0.02365  Biso   1.000  C
  C70      1.0000 0.03778  0.43628  0.33500  Biso   1.000  C
  C71      1.0000 0.83776  0.47564  0.56965  Biso   1.000  C
  C72      1.0000 0.07034  0.67247  0.52479  Biso   1.000  C
  C73      1.0000 0.01122  0.54501  0.33408  Biso   1.000  C
  C74      1.0000 0.34650  0.98802  0.57916  Biso   1.000  C
  C75      1.0000 0.59138  0.30399  0.99227  Biso   1.000  C
  C76      1.0000 0.52346  0.52189  0.19741  Biso   1.000  C
  C77      1.0000 0.84645  0.98826  0.95065  Biso   1.000  C
  C78      1.0000 0.08767  0.30039  0.50904  Biso   1.000  C
  C79      1.0000 0.50672  0.02392  0.32856  Biso   1.000  C
  C80      1.0000 0.20159  0.48147  0.56598  Biso   1.000  C
  C81      1.0000 0.96111  0.79892  0.01089  Biso   1.000  C
  C82      1.0000 0.03117  0.03740  0.19003  Biso   1.000  C
  C83      1.0000 0.69685  0.48966  0.95925  Biso   1.000  C
  C84      1.0000 0.46207  0.80212  0.52339  Biso   1.000  C
  C85      1.0000 0.00846  0.41717  0.68775  Biso   1.000  C
  C86      1.0000 0.70127  0.96996  0.44832  Biso   1.000  C
  C87      1.0000 0.45598  0.65546  0.03445  Biso   1.000  C
  C88      1.0000 0.50421  0.44140  0.83013  Biso   1.000  C
  C89      1.0000 0.20688  0.97740  0.07418  Biso   1.000  C
  C90      1.0000 0.96242  0.65943  0.51979  Biso   1.000  C
  C91      1.0000 0.53199  0.93900  0.69975  Biso   1.000  C
  C92      1.0000 0.84238  0.47606  0.46182  Biso   1.000  C
  C93      1.0000 0.09005  0.15996  0.01409  Biso   1.000  C
  C94      1.0000 0.02904  0.91917  0.83484  Biso   1.000  C
  C95      1.0000 0.34460  0.47547  0.07366  Biso   1.000  C
  C96      1.0000 0.58562  0.16521  0.49724  Biso   1.000  C
  C97      1.0000 0.70489  0.06193  0.49217  Biso   1.000  C
  C98      1.0000 0.51396  0.65699  0.11557  Biso   1.000  C
  C99      1.0000 0.10160  0.46178  0.68949  Biso   1.000  C
  C100     1.0000 0.21482  0.05769  0.01663  Biso   1.000  C
  C101     1.0000 0.01028  0.66803  0.43327  Biso   1.000  C
  C102     1.0000 0.59673  0.49766  0.83092  Biso   1.000  C
  C103     1.0000 0.83826  0.56285  0.50674  Biso   1.000  C
  C104     1.0000 0.02645  0.16403  0.09523  Biso   1.000  C
  C105     1.0000 0.44376  0.98732  0.70440  Biso   1.000  C
  C106     1.0000 0.33845  0.55364  0.01299  Biso   1.000  C
  C107     1.0000 0.52590  0.16011  0.41097  Biso   1.000  C
  C108     1.0000 0.93921  0.96963  0.82739  Biso   1.000  C
  C109     1.0000 0.33678  0.90308  0.52542  Biso   1.000  C
  C110     1.0000 0.52392  0.30231  0.90964  Biso   1.000  C
  C111     1.0000 0.93946  0.48114  0.33640  Biso   1.000  C
  C112     1.0000 0.83550  0.89827  0.00387  Biso   1.000  C
  C113     1.0000 0.02834  0.29114  0.59168  Biso   1.000  C
  C114     1.0000 0.44305  0.45406  0.19533  Biso   1.000  C
  C115     1.0000 0.20814  0.40139  0.50667  Biso   1.000  C
  C116     1.0000 0.02025  0.79804  0.93379  Biso   1.000  C
  C117     1.0000 0.60325  0.97824  0.32494  Biso   1.000  C
  C118     1.0000 0.71169  0.40174  0.01888  Biso   1.000  C
  C119     1.0000 0.51685  0.80509  0.61383  Biso   1.000  C
  C120     1.0000 0.10734  0.97262  0.19927  Biso   1.000  C
  C121     1.0000 0.83939  0.98114  0.09021  Biso   1.000  C
  C122     1.0000 0.10290  0.79973  0.02890  Biso   1.000  C
  C123     1.0000 0.02126  0.06107  0.82854  Biso   1.000  C
  C124     1.0000 0.34319  0.98036  0.43883  Biso   1.000  C
  C125     1.0000 0.60157  0.79800  0.52605  Biso   1.000  C
  C126     1.0000 0.51643  0.08042  0.68799  Biso   1.000  C
  C127     1.0000 0.70476  0.48856  0.10046  Biso   1.000  C
  C128     1.0000 0.45176  0.29670  0.00276  Biso   1.000  C
  C129     1.0000 0.51262  0.57851  0.84238  Biso   1.000  C
  C130     1.0000 0.20738  0.49696  0.42834  Biso   1.000  C
  C131     1.0000 0.94380  0.29792  0.49740  Biso   1.000  C
  C132     1.0000 0.02654  0.55693  0.69574  Biso   1.000  C
  C133     1.0000 0.20322  0.96390  0.93253  Biso   1.000  C
  C134     1.0000 0.94992  0.16494  0.99548  Biso   1.000  C
  C135     1.0000 0.00262  0.89924  0.19620  Biso   1.000  C
  C136     1.0000 0.70819  0.98739  0.58684  Biso   1.000  C
  C137     1.0000 0.44563  0.16368  0.48789  Biso   1.000  C
  C138     1.0000 0.52192  0.88269  0.33797  Biso   1.000  C
  C139     1.0000 0.33666  0.46908  0.93549  Biso   1.000  C
  C140     1.0000 0.59552  0.67011  0.01996  Biso   1.000  C
  C141     1.0000 0.53306  0.38264  0.18543  Biso   1.000  C
  C142     1.0000 0.83642  0.47296  0.60150  Biso   1.000  C
  C143     1.0000 0.10155  0.67242  0.53174  Biso   1.000  C
  C144     1.0000 0.03775  0.40410  0.33265  Biso   1.000  C
  C145     1.0000 0.34412  0.47512  0.10690  Biso   1.000  C
  C146     1.0000 0.11937  0.30150  0.51016  Biso   1.000  C
  C147     1.0000 0.50838  0.05676  0.32661  Biso   1.000  C
  C148     1.0000 0.84265  0.48377  0.42987  Biso   1.000  C
  C149     1.0000 0.62337  0.30419  0.99309  Biso   1.000  C
  C150     1.0000 0.03395  0.06979  0.18919  Biso   1.000  C
  C151     1.0000 0.20689  0.97785  0.10680  Biso   1.000  C
  C152     1.0000 0.42946  0.80302  0.51935  Biso   1.000  C
  C153     1.0000 0.00440  0.57585  0.33554  Biso   1.000  C
  C154     1.0000 0.70117  0.96538  0.41601  Biso   1.000  C
  C155     1.0000 0.92833  0.79637  0.01053  Biso   1.000  C
  C156     1.0000 0.52059  0.55389  0.20091  Biso   1.000  C
  C157     1.0000 0.69587  0.49612  0.92717  Biso   1.000  C
  C158     1.0000 0.92981  0.65988  0.52288  Biso   1.000  C
  C159     1.0000 0.53057  0.90716  0.70301  Biso   1.000  C
  C160     1.0000 0.19836  0.47544  0.59920  Biso   1.000  C
  C161     1.0000 0.42431  0.65214  0.04015  Biso   1.000  C
  C162     1.0000 0.02958  0.88725  0.83632  Biso   1.000  C
  C163     1.0000 0.84529  0.99289  0.91937  Biso   1.000  C
  C164     1.0000 0.61802  0.16343  0.49379  Biso   1.000  C
  C165     1.0000 0.01362  0.38351  0.68767  Biso   1.000  C
  C166     1.0000 0.34477  0.98380  0.61076  Biso   1.000  C
  C167     1.0000 0.12228  0.15838  0.01244  Biso   1.000  C
  C168     1.0000 0.50279  0.40899  0.82602  Biso   1.000  C
  C169     1.0000 0.00552  0.80198  0.10516  Biso   1.000  C
  C170     1.0000 0.11105  0.97361  0.83600  Biso   1.000  C
  C171     1.0000 0.85396  0.07139  0.00830  Biso   1.000  C
  C172     1.0000 0.51936  0.79378  0.43882  Biso   1.000  C
  C173     1.0000 0.61245  0.99965  0.68293  Biso   1.000  C
  C174     1.0000 0.34904  0.07478  0.51304  Biso   1.000  C
  C175     1.0000 0.54134  0.29454  0.08297  Biso   1.000  C
  C176     1.0000 0.42583  0.49201  0.84248  Biso   1.000  C
  C177     1.0000 0.68826  0.57323  0.00485  Biso   1.000  C
  C178     1.0000 0.04232  0.30367  0.42095  Biso   1.000  C
  C179     1.0000 0.93252  0.48823  0.69198  Biso   1.000  C
  C180     1.0000 0.19634  0.57552  0.52480  Biso   1.000  C
  C181     1.0000 0.04688  0.15606  0.92158  Biso   1.000  C
  C182     1.0000 0.93434  0.99429  0.18961  Biso   1.000  C
  C183     1.0000 0.20463  0.88613  0.01997  Biso   1.000  C
  C184     1.0000 0.52181  0.16431  0.58359  Biso   1.000  C
  C185     1.0000 0.43407  0.96160  0.33901  Biso   1.000  C
  C186     1.0000 0.69938  0.89008  0.50519  Biso   1.000  C
  C187     1.0000 0.49977  0.67007  0.94095  Biso   1.000  C
  C188     1.0000 0.61538  0.47323  0.19591  Biso   1.000  C
  C189     1.0000 0.34792  0.38294  0.02593  Biso   1.000  C
  C190     1.0000 0.01600  0.65563  0.61046  Biso   1.000  C
  C191     1.0000 0.11068  0.48968  0.33376  Biso   1.000  C
  C192     1.0000 0.84740  0.38747  0.50911  Biso   1.000  C
  C193     1.0000 0.87216  0.98950  0.90374  Biso   1.000  C
  C194     1.0000 0.91199  0.82342  0.01192  Biso   1.000  C
  C195     1.0000 0.02871  0.87272  0.86496  Biso   1.000  C
  C196     1.0000 0.37375  0.98728  0.62547  Biso   1.000  C
  C197     1.0000 0.41393  0.83053  0.51758  Biso   1.000  C
  C198     1.0000 0.52686  0.88960  0.67805  Biso   1.000  C
  C199     1.0000 0.66794  0.49508  0.91211  Biso   1.000  C
  C200     1.0000 0.63751  0.33136  0.00079  Biso   1.000  C
  C201     1.0000 0.50895  0.38987  0.85131  Biso   1.000  C
  C202     1.0000 0.17110  0.47446  0.61274  Biso   1.000  C
  C203     1.0000 0.13294  0.32947  0.51192  Biso   1.000  C
  C204     1.0000 0.01737  0.36825  0.66151  Biso   1.000  C
  C205     1.0000 0.17925  0.97332  0.12198  Biso   1.000  C
  C206     1.0000 0.13724  0.12995  0.01248  Biso   1.000  C
  C207     1.0000 0.03334  0.08598  0.16245  Biso   1.000  C
  C208     1.0000 0.67299  0.96442  0.40105  Biso   1.000  C
  C209     1.0000 0.63123  0.13504  0.48947  Biso   1.000  C
  C210     1.0000 0.51295  0.07480  0.35224  Biso   1.000  C
  C211     1.0000 0.37086  0.46781  0.12124  Biso   1.000  C
  C212     1.0000 0.41192  0.62347  0.03353  Biso   1.000  C
  C213     1.0000 0.51849  0.57290  0.17361  Biso   1.000  C
  C214     1.0000 0.87013  0.48240  0.41459  Biso   1.000  C
  C215     1.0000 0.91440  0.63254  0.52202  Biso   1.000  C
  C216     1.0000 0.00428  0.59105  0.36300  Biso   1.000  C
  C217     1.0000 0.12625  0.97002  0.86313  Biso   1.000  C
  C218     1.0000 0.88116  0.08670  0.00643  Biso   1.000  C
  C219     1.0000 0.00240  0.82945  0.11969  Biso   1.000  C
  C220     1.0000 0.62819  0.99948  0.65587  Biso   1.000  C
  C221     1.0000 0.37686  0.08843  0.50745  Biso   1.000  C
  C222     1.0000 0.52248  0.81958  0.41988  Biso   1.000  C
  C223     1.0000 0.41053  0.48557  0.86957  Biso   1.000  C
  C224     1.0000 0.66009  0.58913  0.00977  Biso   1.000  C
  C225     1.0000 0.54087  0.32056  0.10182  Biso   1.000  C
  C226     1.0000 0.91563  0.48122  0.66758  Biso   1.000  C
  C227     1.0000 0.16978  0.59176  0.52712  Biso   1.000  C
  C228     1.0000 0.04419  0.33195  0.40705  Biso   1.000  C
  C229     1.0000 0.91928  0.99137  0.16112  Biso   1.000  C
  C230     1.0000 0.17695  0.87258  0.01713  Biso   1.000  C
  C231     1.0000 0.04508  0.12918  0.90416  Biso   1.000  C
  C232     1.0000 0.42029  0.96904  0.36617  Biso   1.000  C
  C233     1.0000 0.67269  0.87510  0.51432  Biso   1.000  C
  C234     1.0000 0.52028  0.13911  0.60213  Biso   1.000  C
  C235     1.0000 0.62994  0.47704  0.16953  Biso   1.000  C
  C236     1.0000 0.37613  0.37033  0.01999  Biso   1.000  C
  C237     1.0000 0.50081  0.64310  0.92462  Biso   1.000  C
  C238     1.0000 0.12816  0.49185  0.36088  Biso   1.000  C
  C239     1.0000 0.87444  0.37182  0.50654  Biso   1.000  C
  C240     1.0000 0.01924  0.62776  0.62292  Biso   1.000  C
  C241     1.0000 0.61414  0.49901  0.85935  Biso   1.000  C
  C242     1.0000 0.86518  0.57903  0.51193  Biso   1.000  C
  C243     1.0000 0.51950  0.83345  0.62710  Biso   1.000  C
  C244     1.0000 0.11766  0.46452  0.66341  Biso   1.000  C
  C245     1.0000 0.36443  0.56989  0.01706  Biso   1.000  C
  C246     1.0000 0.02346  0.82331  0.91725  Biso   1.000  C
  C247     1.0000 0.92353  0.97930  0.85364  Biso   1.000  C
  C248     1.0000 0.67800  0.07991  0.48985  Biso   1.000  C
  C249     1.0000 0.02217  0.31881  0.60881  Biso   1.000  C
  C250     1.0000 0.42628  0.98623  0.67641  Biso   1.000  C
  C251     1.0000 0.18811  0.07386  0.01772  Biso   1.000  C
  C252     1.0000 0.52234  0.33156  0.89641  Biso   1.000  C
  C253     1.0000 0.42517  0.45546  0.16861  Biso   1.000  C
  C254     1.0000 0.18282  0.38345  0.51227  Biso   1.000  C
  C255     1.0000 0.52383  0.13168  0.39807  Biso   1.000  C
  C256     1.0000 0.92413  0.48107  0.36323  Biso   1.000  C
  C257     1.0000 0.68559  0.38544  0.01784  Biso   1.000  C
  C258     1.0000 0.02900  0.13563  0.11073  Biso   1.000  C
  C259     1.0000 0.12363  0.97012  0.17195  Biso   1.000  C
  C260     1.0000 0.36364  0.88543  0.52410  Biso   1.000  C
  C261     1.0000 0.01115  0.64153  0.41653  Biso   1.000  C
  C262     1.0000 0.62136  0.97445  0.35167  Biso   1.000  C
  C263     1.0000 0.86269  0.87985  0.00367  Biso   1.000  C
  C264     1.0000 0.51841  0.62938  0.12965  Biso   1.000  C
  C265     1.0000 0.02933  0.07694  0.85431  Biso   1.000  C
  C266     1.0000 0.86715  0.98387  0.10641  Biso   1.000  C
  C267     1.0000 0.12101  0.82603  0.02585  Biso   1.000  C
  C268     1.0000 0.51640  0.09186  0.65819  Biso   1.000  C
  C269     1.0000 0.37104  0.97637  0.42221  Biso   1.000  C
  C270     1.0000 0.61843  0.82463  0.52319  Biso   1.000  C
  C271     1.0000 0.50958  0.59190  0.87080  Biso   1.000  C
  C272     1.0000 0.67871  0.48244  0.11651  Biso   1.000  C
  C273     1.0000 0.43445  0.32148  0.00511  Biso   1.000  C
  C274     1.0000 0.02339  0.57302  0.66975  Biso   1.000  C
  C275     1.0000 0.18039  0.49437  0.41072  Biso   1.000  C
  C276     1.0000 0.92631  0.32447  0.50042  Biso   1.000  C
  C277     1.0000 0.99937  0.88300  0.16938  Biso   1.000  C
  C278     1.0000 0.17556  0.96693  0.91629  Biso   1.000  C
  C279     1.0000 0.93361  0.13877  0.99645  Biso   1.000  C
  C280     1.0000 0.52288  0.86719  0.36634  Biso   1.000  C
  C281     1.0000 0.68112  0.99251  0.60268  Biso   1.000  C
  C282     1.0000 0.43056  0.13614  0.49235  Biso   1.000  C
  C283     1.0000 0.53588  0.36832  0.15620  Biso   1.000  C
  C284     1.0000 0.36284  0.47553  0.92012  Biso   1.000  C
  C285     1.0000 0.61049  0.64221  0.01857  Biso   1.000  C
  C286     1.0000 0.04289  0.38533  0.35824  Biso   1.000  C
  C287     1.0000 0.86281  0.47284  0.61766  Biso   1.000  C
  C288     1.0000 0.11694  0.64464  0.52949  Biso   1.000  C
  C289     1.0000 0.36159  0.85410  0.52232  Biso   1.000  C
  C290     1.0000 0.51620  0.33525  0.86504  Biso   1.000  C
  C291     1.0000 0.89238  0.48144  0.36269  Biso   1.000  C
  C292     1.0000 0.85987  0.84744  0.00291  Biso   1.000  C
  C293     1.0000 0.02553  0.31674  0.63990  Biso   1.000  C
  C294     1.0000 0.39386  0.45875  0.17181  Biso   1.000  C
  C295     1.0000 0.18532  0.35178  0.50873  Biso   1.000  C
  C296     1.0000 0.02512  0.82008  0.88615  Biso   1.000  C
  C297     1.0000 0.65182  0.97139  0.34835  Biso   1.000  C
  C298     1.0000 0.68747  0.35435  0.01382  Biso   1.000  C
  C299     1.0000 0.52698  0.83562  0.65763  Biso   1.000  C
  C300     1.0000 0.15459  0.97364  0.17472  Biso   1.000  C
  C301     1.0000 0.68206  0.11081  0.48730  Biso   1.000  C
  C302     1.0000 0.51424  0.62766  0.16057  Biso   1.000  C
  C303     1.0000 0.14956  0.46596  0.66453  Biso   1.000  C
  C304     1.0000 0.18942  0.10644  0.01872  Biso   1.000  C
  C305     1.0000 0.00458  0.64285  0.38603  Biso   1.000  C
  C306     1.0000 0.64594  0.50051  0.85906  Biso   1.000  C
  C307     1.0000 0.86415  0.61028  0.51060  Biso   1.000  C
  C308     1.0000 0.03354  0.13774  0.14284  Biso   1.000  C
  C309     1.0000 0.39562  0.98433  0.67742  Biso   1.000  C
  C310     1.0000 0.36012  0.60108  0.02336  Biso   1.000  C
  C311     1.0000 0.52234  0.12951  0.36681  Biso   1.000  C
  C312     1.0000 0.89253  0.98196  0.85146  Biso   1.000  C
  C313     1.0000 0.18264  0.49090  0.37993  Biso   1.000  C
  C314     1.0000 0.39854  0.13978  0.49731  Biso   1.000  C
  C315     1.0000 0.53716  0.33754  0.15533  Biso   1.000  C
  C316     1.0000 0.68083  0.48135  0.14896  Biso   1.000  C
  C317     1.0000 0.90205  0.13996  0.99532  Biso   1.000  C
  C318     1.0000 0.03990  0.35432  0.35537  Biso   1.000  C
  C319     1.0000 0.36764  0.97584  0.39086  Biso   1.000  C
  C320     1.0000 0.14893  0.64585  0.53107  Biso   1.000  C
  C321     1.0000 0.99547  0.85230  0.17087  Biso   1.000  C
  C322     1.0000 0.86690  0.98474  0.13725  Biso   1.000  C
  C323     1.0000 0.63980  0.64314  0.01065  Biso   1.000  C
  C324     1.0000 0.52225  0.83534  0.36583  Biso   1.000  C
  C325     1.0000 0.86199  0.48093  0.64767  Biso   1.000  C
  C326     1.0000 0.64959  0.82361  0.51973  Biso   1.000  C
  C327     1.0000 0.50741  0.62374  0.87141  Biso   1.000  C
  C328     1.0000 0.35984  0.47729  0.88871  Biso   1.000  C
  C329     1.0000 0.15250  0.82298  0.02300  Biso   1.000  C
  C330     1.0000 0.02403  0.60393  0.67355  Biso   1.000  C
  C331     1.0000 0.68307  0.99633  0.63388  Biso   1.000  C
  C332     1.0000 0.89536  0.31979  0.49793  Biso   1.000  C
  C333     1.0000 0.02992  0.10841  0.85312  Biso   1.000  C
  C334     1.0000 0.17780  0.96846  0.88487  Biso   1.000  C
  C335     1.0000 0.40367  0.31889  0.00924  Biso   1.000  C
  C336     1.0000 0.51480  0.12477  0.65695  Biso   1.000  C
  C337     1.0000 0.66786  0.49884  0.88122  Biso   1.000  C
  C338     1.0000 0.88439  0.63232  0.51608  Biso   1.000  C
  C339     1.0000 0.52831  0.85886  0.67934  Biso   1.000  C
  C340     1.0000 0.17154  0.46859  0.64327  Biso   1.000  C
  C341     1.0000 0.38107  0.62324  0.02987  Biso   1.000  C
  C342     1.0000 0.02709  0.84100  0.86418  Biso   1.000  C
  C343     1.0000 0.87056  0.98701  0.87239  Biso   1.000  C
  C344     1.0000 0.66212  0.13431  0.48740  Biso   1.000  C
  C345     1.0000 0.02249  0.33813  0.66265  Biso   1.000  C
  C346     1.0000 0.37329  0.98531  0.65587  Biso   1.000  C
  C347     1.0000 0.16849  0.12857  0.01776  Biso   1.000  C
  C348     1.0000 0.51166  0.35860  0.84703  Biso   1.000  C
  C349     1.0000 0.37132  0.46348  0.15161  Biso   1.000  C
  C350     1.0000 0.16493  0.32900  0.50712  Biso   1.000  C
  C351     1.0000 0.51791  0.10536  0.34690  Biso   1.000  C
  C352     1.0000 0.87022  0.48246  0.38388  Biso   1.000  C
  C353     1.0000 0.66846  0.33166  0.00751  Biso   1.000  C
  C354     1.0000 0.03568  0.11718  0.16405  Biso   1.000  C
  C355     1.0000 0.17706  0.97405  0.15321  Biso   1.000  C
  C356     1.0000 0.38293  0.83127  0.52015  Biso   1.000  C
  C357     1.0000 0.00245  0.62272  0.36272  Biso   1.000  C
  C358     1.0000 0.67328  0.96921  0.36951  Biso   1.000  C
  C359     1.0000 0.88097  0.82444  0.00806  Biso   1.000  C
  C360     1.0000 0.51441  0.60311  0.17867  Biso   1.000  C
  C361     1.0000 0.03542  0.13086  0.87472  Biso   1.000  C
  C362     1.0000 0.88822  0.98796  0.15995  Biso   1.000  C
  C363     1.0000 0.17747  0.84079  0.01947  Biso   1.000  C
  C364     1.0000 0.51587  0.14378  0.63306  Biso   1.000  C
  C365     1.0000 0.38870  0.97094  0.36785  Biso   1.000  C
  C366     1.0000 0.67170  0.84343  0.51487  Biso   1.000  C
  C367     1.0000 0.50420  0.64504  0.89412  Biso   1.000  C
  C368     1.0000 0.66108  0.47829  0.17090  Biso   1.000  C
  C369     1.0000 0.37899  0.33885  0.01508  Biso   1.000  C
  C370     1.0000 0.02303  0.62642  0.65441  Biso   1.000  C
  C371     1.0000 0.15975  0.48900  0.35831  Biso   1.000  C
  C372     1.0000 0.87368  0.34137  0.50200  Biso   1.000  C
  C373     1.0000 0.99584  0.82990  0.15014  Biso   1.000  C
  C374     1.0000 0.15723  0.96939  0.86298  Biso   1.000  C
  C375     1.0000 0.88080  0.11896  0.99926  Biso   1.000  C
  C376     1.0000 0.52146  0.81538  0.38919  Biso   1.000  C
  C377     1.0000 0.66041  0.00050  0.65632  Biso   1.000  C
  C378     1.0000 0.37670  0.11962  0.50296  Biso   1.000  C
  C379     1.0000 0.53875  0.31742  0.13219  Biso   1.000  C
  C380     1.0000 0.37933  0.48134  0.86642  Biso   1.000  C
  C381     1.0000 0.66024  0.62077  0.00698  Biso   1.000  C
  C382     1.0000 0.04141  0.33171  0.37601  Biso   1.000  C
  C383     1.0000 0.88340  0.48540  0.66870  Biso   1.000  C
  C384     1.0000 0.17096  0.62365  0.53171  Biso   1.000  C
  C385     1.0000 0.21618  0.12198  0.02199  Biso   1.000  C
  C386     1.0000 0.03458  0.16474  0.15907  Biso   1.000  C
  C387     1.0000 0.17039  0.97688  0.20150  Biso   1.000  C
  C388     1.0000 0.71042  0.12376  0.48868  Biso   1.000  C
  C389     1.0000 0.52415  0.15468  0.34868  Biso   1.000  C
  C390     1.0000 0.66519  0.97196  0.32049  Biso   1.000  C
  C391     1.0000 0.33111  0.61555  0.02602  Biso   1.000  C
  C392     1.0000 0.50933  0.65205  0.17888  Biso   1.000  C
  C393     1.0000 0.38002  0.45589  0.19930  Biso   1.000  C
  C394     1.0000 0.83726  0.62525  0.50580  Biso   1.000  C
  C395     1.0000 0.99987  0.67072  0.37202  Biso   1.000  C
  C396     1.0000 0.87679  0.48194  0.33559  Biso   1.000  C
  C397     1.0000 0.83357  0.83253  0.99827  Biso   1.000  C
  C398     1.0000 0.02337  0.79246  0.87187  Biso   1.000  C
  C399     1.0000 0.87695  0.97896  0.82347  Biso   1.000  C
  C400     1.0000 0.33547  0.83888  0.52342  Biso   1.000  C
  C401     1.0000 0.52741  0.80921  0.67449  Biso   1.000  C
  C402     1.0000 0.38044  0.98508  0.70511  Biso   1.000  C
  C403     1.0000 0.71629  0.33997  0.01295  Biso   1.000  C
  C404     1.0000 0.51068  0.30915  0.84758  Biso   1.000  C
  C405     1.0000 0.66173  0.50499  0.83165  Biso   1.000  C
  C406     1.0000 0.21277  0.33814  0.50268  Biso   1.000  C
  C407     1.0000 0.02869  0.29022  0.65501  Biso   1.000  C
  C408     1.0000 0.16543  0.46408  0.69159  Biso   1.000  C
  C409     1.0000 0.17322  0.97290  0.83523  Biso   1.000  C
  C410     1.0000 0.85357  0.13460  0.99581  Biso   1.000  C
  C411     1.0000 0.99130  0.80442  0.16583  Biso   1.000  C
  C412     1.0000 0.67696  0.00110  0.68326  Biso   1.000  C
  C413     1.0000 0.35072  0.13774  0.50299  Biso   1.000  C
  C414     1.0000 0.51911  0.78716  0.37581  Biso   1.000  C
  C415     1.0000 0.36253  0.48137  0.83982  Biso   1.000  C
  C416     1.0000 0.68717  0.63540  0.00135  Biso   1.000  C
  C417     1.0000 0.53968  0.28871  0.14637  Biso   1.000  C
  C418     1.0000 0.86886  0.49304  0.69468  Biso   1.000  C
  C419     1.0000 0.19780  0.63986  0.53315  Biso   1.000  C
  C420     1.0000 0.03829  0.30525  0.35867  Biso   1.000  C
  C421     1.0000 0.87164  0.98682  0.18616  Biso   1.000  C
  C422     1.0000 0.20278  0.82185  0.02091  Biso   1.000  C
  C423     1.0000 0.03387  0.15841  0.85985  Biso   1.000  C
  C424     1.0000 0.37122  0.97276  0.34167  Biso   1.000  C
  C425     1.0000 0.69818  0.82612  0.50896  Biso   1.000  C
  C426     1.0000 0.51091  0.17266  0.64503  Biso   1.000  C
  C427     1.0000 0.67802  0.47732  0.19672  Biso   1.000  C
  C428     1.0000 0.35482  0.32001  0.01762  Biso   1.000  C
  C429     1.0000 0.50435  0.67281  0.88010  Biso   1.000  C
  C430     1.0000 0.17456  0.48444  0.33107  Biso   1.000  C
  C431     1.0000 0.84714  0.32413  0.50033  Biso   1.000  C
  C432     1.0000 0.02281  0.65273  0.67161  Biso   1.000  C
  C433     1.0000 0.02396  0.12450  0.82713  Biso   1.000  C
  C434     1.0000 0.83997  0.98082  0.15305  Biso   1.000  C
  C435     1.0000 0.16534  0.79436  0.02678  Biso   1.000  C
  C436     1.0000 0.51319  0.14306  0.68244  Biso   1.000  C
  C437     1.0000 0.34138  0.97948  0.37592  Biso   1.000  C
  C438     1.0000 0.66474  0.79555  0.51758  Biso   1.000  C
  C439     1.0000 0.50771  0.64179  0.84510  Biso   1.000  C
  C440     1.0000 0.70804  0.48588  0.16402  Biso   1.000  C
  C441     1.0000 0.38992  0.29067  0.00924  Biso   1.000  C
  C442     1.0000 0.02478  0.61795  0.70108  Biso   1.000  C
  C443     1.0000 0.20873  0.48795  0.36423  Biso   1.000  C
  C444     1.0000 0.88109  0.29195  0.49265  Biso   1.000  C
  C445     1.0000 0.99106  0.83741  0.19732  Biso   1.000  C
  C446     1.0000 0.20513  0.96810  0.86863  Biso   1.000  C
  C447     1.0000 0.88623  0.16702  0.99047  Biso   1.000  C
  C448     1.0000 0.51896  0.81812  0.34089  Biso   1.000  C
  C449     1.0000 0.70986  0.99402  0.65035  Biso   1.000  C
  C450     1.0000 0.38378  0.16815  0.49483  Biso   1.000  C
  C451     1.0000 0.53597  0.31940  0.18122  Biso   1.000  C
  C452     1.0000 0.33243  0.47243  0.87406  Biso   1.000  C
  C453     1.0000 0.65629  0.66916  0.00793  Biso   1.000  C
  C454     1.0000 0.03472  0.33912  0.32838  Biso   1.000  C
  C455     1.0000 0.83580  0.48759  0.66335  Biso   1.000  C
  C456     1.0000 0.16437  0.67249  0.53619  Biso   1.000  C
  C457     1.0000 0.99721  0.64008  0.33728  Biso   1.000  C
  C458     1.0000 0.34711  0.98247  0.67219  Biso   1.000  C
  C459     1.0000 0.68597  0.30533  0.00407  Biso   1.000  C
  C460     1.0000 0.51121  0.61616  0.20764  Biso   1.000  C
  C461     1.0000 0.84423  0.98863  0.85577  Biso   1.000  C
  C462     1.0000 0.18127  0.30383  0.50375  Biso   1.000  C
  C463     1.0000 0.52011  0.11815  0.31840  Biso   1.000  C
  C464     1.0000 0.19800  0.46757  0.66008  Biso   1.000  C
  C465     1.0000 0.86584  0.79877  0.00507  Biso   1.000  C
  C466     1.0000 0.03721  0.13369  0.19127  Biso   1.000  C
  C467     1.0000 0.69488  0.50240  0.86530  Biso   1.000  C
  C468     1.0000 0.36563  0.80476  0.52032  Biso   1.000  C
  C469     1.0000 0.02465  0.32234  0.69010  Biso   1.000  C
  C470     1.0000 0.69873  0.96649  0.35162  Biso   1.000  C
  C471     1.0000 0.36257  0.64839  0.03377  Biso   1.000  C
  C472     1.0000 0.50577  0.34540  0.81892  Biso   1.000  C
  C473     1.0000 0.20333  0.97953  0.16996  Biso   1.000  C
  C474     1.0000 0.86801  0.65899  0.51451  Biso   1.000  C
  C475     1.0000 0.53132  0.84366  0.70656  Biso   1.000  C
  C476     1.0000 0.84395  0.48609  0.36790  Biso   1.000  C
  C477     1.0000 0.18322  0.15629  0.02007  Biso   1.000  C
  C478     1.0000 0.02637  0.82370  0.83778  Biso   1.000  C
  C479     1.0000 0.34555  0.46537  0.16842  Biso   1.000  C
  C480     1.0000 0.68024  0.15928  0.48726  Biso   1.000  C
  C481     1.0000 0.38137  0.77646  0.52140  Biso   1.000  C
  C482     1.0000 0.49774  0.36615  0.79423  Biso   1.000  C
  C483     1.0000 0.81660  0.48834  0.38228  Biso   1.000  C
  C484     1.0000 0.88089  0.77034  0.00536  Biso   1.000  C
  C485     1.0000 0.01979  0.33727  0.71764  Biso   1.000  C
  C486     1.0000 0.31854  0.47304  0.15304  Biso   1.000  C
  C487     1.0000 0.16720  0.27582  0.50337  Biso   1.000  C
  C488     1.0000 0.02800  0.83709  0.80934  Biso   1.000  C
  C489     1.0000 0.72678  0.96218  0.36640  Biso   1.000  C
  C490     1.0000 0.67157  0.27782  0.99338  Biso   1.000  C
  C491     1.0000 0.53473  0.86185  0.73364  Biso   1.000  C
  C492     1.0000 0.23084  0.98353  0.15568  Biso   1.000  C
  C493     1.0000 0.66623  0.18749  0.48987  Biso   1.000  C
  C494     1.0000 0.51294  0.59815  0.23415  Biso   1.000  C
  C495     1.0000 0.22528  0.47366  0.64710  Biso   1.000  C
  C496     1.0000 0.16886  0.18549  0.02042  Biso   1.000  C
  C497     1.0000 0.99908  0.62490  0.31004  Biso   1.000  C
  C498     1.0000 0.72194  0.50555  0.88039  Biso   1.000  C
  C499     1.0000 0.88167  0.68692  0.51952  Biso   1.000  C
  C500     1.0000 0.03790  0.11780  0.21921  Biso   1.000  C
  C501     1.0000 0.31811  0.97978  0.65697  Biso   1.000  C
  C502     1.0000 0.37564  0.67563  0.04226  Biso   1.000  C
  C503     1.0000 0.51681  0.09874  0.29263  Biso   1.000  C
  C504     1.0000 0.81729  0.99345  0.87191  Biso   1.000  C
  C505     1.0000 0.64627  0.50448  0.80355  Biso   1.000  C
  C506     1.0000 0.81062  0.60835  0.50163  Biso   1.000  C
  C507     1.0000 0.52309  0.78009  0.66192  Biso   1.000  C
  C508     1.0000 0.14965  0.46051  0.71781  Biso   1.000  C
  C509     1.0000 0.30518  0.59826  0.02140  Biso   1.000  C
  C510     1.0000 0.01527  0.76630  0.88828  Biso   1.000  C
  C511     1.0000 0.89298  0.96952  0.79784  Biso   1.000  C
  C512     1.0000 0.73572  0.10487  0.48795  Biso   1.000  C
  C513     1.0000 0.03247  0.26332  0.63886  Biso   1.000  C
  C514     1.0000 0.39754  0.98971  0.73242  Biso   1.000  C
  C515     1.0000 0.24284  0.10394  0.02119  Biso   1.000  C
  C516     1.0000 0.51516  0.27908  0.86017  Biso   1.000  C
  C517     1.0000 0.39757  0.45261  0.22547  Biso   1.000  C
  C518     1.0000 0.23875  0.35520  0.49699  Biso   1.000  C
  C519     1.0000 0.52792  0.18371  0.36127  Biso   1.000  C
  C520     1.0000 0.89236  0.48068  0.30680  Biso   1.000  C
  C521     1.0000 0.74236  0.35718  0.01747  Biso   1.000  C
  C522     1.0000 0.03601  0.19196  0.14062  Biso   1.000  C
  C523     1.0000 0.15515  0.97672  0.22808  Biso   1.000  C
  C524     1.0000 0.30889  0.85606  0.52287  Biso   1.000  C
  C525     1.0000 0.99879  0.69692  0.38967  Biso   1.000  C
  C526     1.0000 0.64836  0.97710  0.29397  Biso   1.000  C
  C527     1.0000 0.80739  0.85266  0.99776  Biso   1.000  C
  C528     1.0000 0.50385  0.68101  0.16402  Biso   1.000  C
  C529     1.0000 0.82598  0.11836  0.99981  Biso   1.000  C
  C530     1.0000 0.99379  0.77565  0.15113  Biso   1.000  C
  C531     1.0000 0.15803  0.98097  0.80849  Biso   1.000  C
  C532     1.0000 0.32343  0.12370  0.51035  Biso   1.000  C
  C533     1.0000 0.51753  0.76142  0.39442  Biso   1.000  C
  C534     1.0000 0.66044  0.00185  0.70982  Biso   1.000  C
  C535     1.0000 0.71493  0.61852  0.99369  Biso   1.000  C
  C536     1.0000 0.54320  0.26240  0.12700  Biso   1.000  C
  C537     1.0000 0.37809  0.48731  0.81389  Biso   1.000  C
  C538     1.0000 0.22454  0.62241  0.53120  Biso   1.000  C
  C539     1.0000 0.04211  0.27780  0.37283  Biso   1.000  C
  C540     1.0000 0.88763  0.49824  0.72125  Biso   1.000  C
  C541     1.0000 0.23064  0.83614  0.02085  Biso   1.000  C
  C542     1.0000 0.04137  0.18464  0.87482  Biso   1.000  C
  C543     1.0000 0.88588  0.98912  0.21395  Biso   1.000  C
  C544     1.0000 0.72358  0.84126  0.49703  Biso   1.000  C
  C545     1.0000 0.50729  0.19754  0.62584  Biso   1.000  C
  C546     1.0000 0.38381  0.96382  0.31444  Biso   1.000  C
  C547     1.0000 0.32640  0.33199  0.02556  Biso   1.000  C
  C548     1.0000 0.50466  0.70010  0.89656  Biso   1.000  C
  C549     1.0000 0.66264  0.47438  0.22417  Biso   1.000  C
  C550     1.0000 0.82052  0.34053  0.50111  Biso   1.000  C
  C551     1.0000 0.01722  0.68110  0.65883  Biso   1.000  C
  C552     1.0000 0.15731  0.47866  0.30478  Biso   1.000  C
  C553     1.0000 0.01384  0.10788  0.80197  Biso   1.000  C
  C554     1.0000 0.81265  0.97740  0.13705  Biso   1.000  C
  C555     1.0000 0.14805  0.76952  0.03641  Biso   1.000  C
  C556     1.0000 0.51588  0.13083  0.71118  Biso   1.000  C
  C557     1.0000 0.31455  0.98699  0.39225  Biso   1.000  C
  C558     1.0000 0.64902  0.76934  0.52224  Biso   1.000  C
  C559     1.0000 0.51057  0.62776  0.81571  Biso   1.000  C
  C560     1.0000 0.73394  0.49058  0.14614  Biso   1.000  C
  C561     1.0000 0.40797  0.26443  0.00201  Biso   1.000  C
  C562     1.0000 0.02879  0.60128  0.72751  Biso   1.000  C
  C563     1.0000 0.23605  0.49096  0.38055  Biso   1.000  C
  C564     1.0000 0.89847  0.26552  0.48911  Biso   1.000  C
  C565     1.0000 0.99077  0.85384  0.22512  Biso   1.000  C
  C566     1.0000 0.23104  0.96136  0.88654  Biso   1.000  C
  C567     1.0000 0.90396  0.19183  0.98564  Biso   1.000  C
  C568     1.0000 0.52031  0.83399  0.31277  Biso   1.000  C
  C569     1.0000 0.73696  0.99026  0.63423  Biso   1.000  C
  C570     1.0000 0.39862  0.19361  0.48525  Biso   1.000  C
  C571     1.0000 0.53535  0.33353  0.21087  Biso   1.000  C
  C572     1.0000 0.30695  0.46511  0.88876  Biso   1.000  C
  C573     1.0000 0.64083  0.69727  0.00954  Biso   1.000  C
  C574     1.0000 0.03169  0.35722  0.30270  Biso   1.000  C
  C575     1.0000 0.80684  0.48532  0.64732  Biso   1.000  C
  C576     1.0000 0.14753  0.70005  0.54174  Biso   1.000  C
  C577     1.0000 0.31841  0.47904  0.12268  Biso   1.000  C
  C578     1.0000 0.13592  0.27373  0.50803  Biso   1.000  C
  C579     1.0000 0.51190  0.06852  0.29742  Biso   1.000  C
  C580     1.0000 0.81625  0.48560  0.41370  Biso   1.000  C
  C581     1.0000 0.64014  0.27742  0.98906  Biso   1.000  C
  C582     1.0000 0.03891  0.08532  0.21847  Biso   1.000  C
  C583     1.0000 0.23216  0.98255  0.12407  Biso   1.000  C
  C584     1.0000 0.41342  0.77649  0.52009  Biso   1.000  C
  C585     1.0000 0.00185  0.59262  0.30843  Biso   1.000  C
  C586     1.0000 0.72822  0.96500  0.39886  Biso   1.000  C
  C587     1.0000 0.91267  0.76930  0.00743  Biso   1.000  C
  C588     1.0000 0.51803  0.56682  0.23039  Biso   1.000  C
  C589     1.0000 0.72307  0.50222  0.91240  Biso   1.000  C
  C590     1.0000 0.91338  0.68696  0.52225  Biso   1.000  C
  C591     1.0000 0.53393  0.89292  0.73144  Biso   1.000  C
  C592     1.0000 0.22586  0.47470  0.61589  Biso   1.000  C
  C593     1.0000 0.40722  0.67935  0.04416  Biso   1.000  C
  C594     1.0000 0.03098  0.86884  0.80851  Biso   1.000  C
  C595     1.0000 0.81786  0.99665  0.90332  Biso   1.000  C
  C596     1.0000 0.63543  0.19007  0.49447  Biso   1.000  C
  C597     1.0000 0.01677  0.36911  0.71558  Biso   1.000  C
  C598     1.0000 0.31734  0.98125  0.62530  Biso   1.000  C
  C599     1.0000 0.13803  0.18589  0.01652  Biso   1.000  C
  C600     1.0000 0.49532  0.39747  0.79878  Biso   1.000  C
  C601     1.0000 0.23023  0.96078  0.91786  Biso   1.000  C
  C602     1.0000 0.93536  0.19328  0.99145  Biso   1.000  C
  C603     1.0000 0.99750  0.88479  0.22544  Biso   1.000  C
  C604     1.0000 0.73432  0.98728  0.60322  Biso   1.000  C
  C605     1.0000 0.43077  0.19094  0.48413  Biso   1.000  C
  C606     1.0000 0.52308  0.86540  0.31140  Biso   1.000  C
  C607     1.0000 0.30812  0.46489  0.92041  Biso   1.000  C
  C608     1.0000 0.61020  0.69786  0.01684  Biso   1.000  C
  C609     1.0000 0.53163  0.36501  0.21170  Biso   1.000  C
  C610     1.0000 0.80842  0.47667  0.61589  Biso   1.000  C
  C611     1.0000 0.11644  0.70025  0.53892  Biso   1.000  C
  C612     1.0000 0.03308  0.38988  0.30427  Biso   1.000  C
  C613     1.0000 0.81136  0.97880  0.10587  Biso   1.000  C
  C614     1.0000 0.11730  0.77112  0.03569  Biso   1.000  C
  C615     1.0000 0.01257  0.07640  0.80217  Biso   1.000  C
  C616     1.0000 0.31622  0.98680  0.42420  Biso   1.000  C
  C617     1.0000 0.61812  0.76902  0.52484  Biso   1.000  C
  C618     1.0000 0.51587  0.10011  0.71326  Biso   1.000  C
  C619     1.0000 0.73136  0.49350  0.11561  Biso   1.000  C
  C620     1.0000 0.43804  0.26894  0.00229  Biso   1.000  C
  C621     1.0000 0.51389  0.59594  0.81629  Biso   1.000  C
  C622     1.0000 0.23535  0.49580  0.41189  Biso   1.000  C
  C623     1.0000 0.92938  0.26838  0.49174  Biso   1.000  C
  C624     1.0000 0.02846  0.57158  0.72388  Biso   1.000  C
  C625     1.0000 0.04753  0.18337  0.90612  Biso   1.000  C
  C626     1.0000 0.91623  0.99464  0.21511  Biso   1.000  C
  C627     1.0000 0.23045  0.86746  0.02255  Biso   1.000  C
  C628     1.0000 0.51324  0.19258  0.59494  Biso   1.000  C
  C629     1.0000 0.41626  0.95888  0.31321  Biso   1.000  C
  C630     1.0000 0.72399  0.87263  0.49540  Biso   1.000  C
  C631     1.0000 0.50143  0.69828  0.92764  Biso   1.000  C
  C632     1.0000 0.63141  0.47130  0.22317  Biso   1.000  C
  C633     1.0000 0.32329  0.36405  0.02831  Biso   1.000  C
  C634     1.0000 0.01202  0.68157  0.62809  Biso   1.000  C
  C635     1.0000 0.12527  0.48287  0.30555  Biso   1.000  C
  C636     1.0000 0.82039  0.37106  0.50519  Biso   1.000  C
  C637     1.0000 0.00131  0.77389  0.12127  Biso   1.000  C
  C638     1.0000 0.12567  0.97814  0.80901  Biso   1.000  C
  C639     1.0000 0.82660  0.08789  0.00671  Biso   1.000  C
  C640     1.0000 0.51646  0.76532  0.42508  Biso   1.000  C
  C641     1.0000 0.62918  0.00296  0.70972  Biso   1.000  C
  C642     1.0000 0.32317  0.09316  0.51364  Biso   1.000  C
  C643     1.0000 0.54173  0.26524  0.09567  Biso   1.000  C
  C644     1.0000 0.40942  0.49206  0.81467  Biso   1.000  C
  C645     1.0000 0.71388  0.58805  0.99675  Biso   1.000  C
  C646     1.0000 0.04317  0.27591  0.40387  Biso   1.000  C
  C647     1.0000 0.91942  0.49698  0.71881  Biso   1.000  C
  C648     1.0000 0.22371  0.59159  0.52783  Biso   1.000  C
  C649     1.0000 0.00319  0.69514  0.41986  Biso   1.000  C
  C650     1.0000 0.42856  0.98984  0.73136  Biso   1.000  C
  C651     1.0000 0.73994  0.38808  0.02001  Biso   1.000  C
  C652     1.0000 0.50682  0.68223  0.13327  Biso   1.000  C
  C653     1.0000 0.92332  0.96223  0.80079  Biso   1.000  C
  C654     1.0000 0.23600  0.38732  0.49918  Biso   1.000  C
  C655     1.0000 0.52797  0.18606  0.39321  Biso   1.000  C
  C656     1.0000 0.11764  0.45993  0.71683  Biso   1.000  C
  C657     1.0000 0.80793  0.88431  0.00062  Biso   1.000  C
  C658     1.0000 0.03249  0.19134  0.10955  Biso   1.000  C
  C659     1.0000 0.61432  0.50147  0.80428  Biso   1.000  C
  C660     1.0000 0.30988  0.88718  0.52398  Biso   1.000  C
  C661     1.0000 0.03230  0.26330  0.60749  Biso   1.000  C
  C662     1.0000 0.61730  0.98053  0.29719  Biso   1.000  C
  C663     1.0000 0.30871  0.56719  0.01596  Biso   1.000  C
  C664     1.0000 0.52060  0.27704  0.89083  Biso   1.000  C
  C665     1.0000 0.12440  0.97364  0.22757  Biso   1.000  C
  C666     1.0000 0.81132  0.57641  0.50300  Biso   1.000  C
  C667     1.0000 0.51839  0.77835  0.63111  Biso   1.000  C
  C668     1.0000 0.92484  0.48095  0.30769  Biso   1.000  C
  C669     1.0000 0.24229  0.07205  0.01879  Biso   1.000  C
  C670     1.0000 0.01454  0.76971  0.91961  Biso   1.000  C
  C671     1.0000 0.42950  0.45207  0.22467  Biso   1.000  C
  C672     1.0000 0.73361  0.07369  0.49162  Biso   1.000  C
  C673     1.0000 0.22066  0.97447  0.82275  Biso   1.000  C
  C674     1.0000 0.83944  0.18094  0.98983  Biso   1.000  C
  C675     1.0000 0.98581  0.79180  0.21250  Biso   1.000  C
  C676     1.0000 0.72400  0.99616  0.69765  Biso   1.000  C
  C677     1.0000 0.33543  0.18368  0.49586  Biso   1.000  C
  C678     1.0000 0.50813  0.77211  0.33132  Biso   1.000  C
  C679     1.0000 0.31768  0.47417  0.82626  Biso   1.000  C
  C680     1.0000 0.70323  0.68097  0.00047  Biso   1.000  C
  C681     1.0000 0.53172  0.27225  0.19286  Biso   1.000  C
  C682     1.0000 0.82169  0.49761  0.70969  Biso   1.000  C
  C683     1.0000 0.20822  0.68982  0.53758  Biso   1.000  C
  C684     1.0000 0.03237  0.29120  0.31132  Biso   1.000  C
  C685     1.0000 0.82463  0.98099  0.20037  Biso   1.000  C
  C686     1.0000 0.20958  0.77449  0.02706  Biso   1.000  C
  C687     1.0000 0.02368  0.17004  0.81227  Biso   1.000  C
  C688     1.0000 0.32389  0.97886  0.32942  Biso   1.000  C
  C689     1.0000 0.71023  0.77769  0.50700  Biso   1.000  C
  C690     1.0000 0.50852  0.18926  0.69166  Biso   1.000  C
  C691     1.0000 0.72393  0.48323  0.21030  Biso   1.000  C
  C692     1.0000 0.34540  0.27168  0.01188  Biso   1.000  C
  C693     1.0000 0.50845  0.68807  0.83267  Biso   1.000  C
  C694     1.0000 0.22067  0.47585  0.31808  Biso   1.000  C
  C695     1.0000 0.83462  0.27656  0.49574  Biso   1.000  C
  C696     1.0000 0.02501  0.66316  0.72011  Biso   1.000  C
  C697     1.0000 0.71174  0.96609  0.30515  Biso   1.000  C
  C698     1.0000 0.31443  0.66138  0.02967  Biso   1.000  C
  C699     1.0000 0.02822  0.27554  0.70209  Biso   1.000  C
  C700     1.0000 0.21762  0.98238  0.21771  Biso   1.000  C
  C701     1.0000 0.82043  0.67129  0.50494  Biso   1.000  C
  C702     1.0000 0.50618  0.30039  0.80053  Biso   1.000  C
  C703     1.0000 0.83139  0.48589  0.32071  Biso   1.000  C
  C704     1.0000 0.23096  0.16578  0.02147  Biso   1.000  C
  C705     1.0000 0.52876  0.79804  0.72298  Biso   1.000  C
  C706     1.0000 0.33262  0.46066  0.21571  Biso   1.000  C
  C707     1.0000 0.72824  0.16900  0.48740  Biso   1.000  C
  C708     1.0000 0.02557  0.77635  0.82636  Biso   1.000  C
  C709     1.0000 0.33281  0.98178  0.71918  Biso   1.000  C
  C710     1.0000 0.73203  0.29173  0.00449  Biso   1.000  C
  C711     1.0000 0.99050  0.68692  0.32656  Biso   1.000  C
  C712     1.0000 0.83076  0.98511  0.80814  Biso   1.000  C
  C713     1.0000 0.22779  0.29356  0.49619  Biso   1.000  C
  C714     1.0000 0.50736  0.66322  0.22514  Biso   1.000  C
  C715     1.0000 0.21106  0.47292  0.70734  Biso   1.000  C
  C716     1.0000 0.81815  0.78581  0.00006  Biso   1.000  C
  C717     1.0000 0.52220  0.16471  0.30237  Biso   1.000  C
  C718     1.0000 0.70880  0.50380  0.81824  Biso   1.000  C
  C719     1.0000 0.31782  0.79367  0.52423  Biso   1.000  C
  C720     1.0000 0.03428  0.18215  0.20521  Biso   1.000  C
  C721     1.0000 0.52151  0.74384  0.33429  Biso   1.000  C
  C722     1.0000 0.28917  0.49031  0.82869  Biso   1.000  C
  C723     1.0000 0.80999  0.27807  0.51529  Biso   1.000  C
  C724     1.0000 0.96957  0.76544  0.21048  Biso   1.000  C
  C725     1.0000 0.79544  0.51458  0.70440  Biso   1.000  C
  C726     1.0000 0.31654  0.27265  0.99608  Biso   1.000  C
  C727     1.0000 0.01714  0.26423  0.31601  Biso   1.000  C
  C728     1.0000 0.24912  0.98589  0.83215  Biso   1.000  C
  C729     1.0000 0.74081  0.78367  0.51381  Biso   1.000  C
  C730     1.0000 0.51461  0.27755  0.21892  Biso   1.000  C
  C731     1.0000 0.74645  0.97522  0.69449  Biso   1.000  C
  C732     1.0000 0.23661  0.77837  0.04168  Biso   1.000  C
  C733     1.0000 0.49144  0.18755  0.71709  Biso   1.000  C
  C734     1.0000 0.71801  0.49424  0.23963  Biso   1.000  C
  C735     1.0000 0.20183  0.71420  0.52019  Biso   1.000  C
  C736     1.0000 0.01083  0.19859  0.81694  Biso   1.000  C
  C737     1.0000 0.24818  0.46188  0.32709  Biso   1.000  C
  C738     1.0000 0.73139  0.67338  0.01104  Biso   1.000  C
  C739     1.0000 0.04279  0.69079  0.71783  Biso   1.000  C
  C740     1.0000 0.80381  0.95765  0.19607  Biso   1.000  C
  C741     1.0000 0.30752  0.17786  0.48207  Biso   1.000  C
  C742     1.0000 0.53177  0.68852  0.81122  Biso   1.000  C
  C743     1.0000 0.29456  0.96769  0.33398  Biso   1.000  C
  C744     1.0000 0.84176  0.20775  0.00669  Biso   1.000  C
  C745     1.0000 0.00557  0.71334  0.32850  Biso   1.000  C
  C746     1.0000 0.30411  0.99729  0.71554  Biso   1.000  C
  C747     1.0000 0.75911  0.29855  0.98924  Biso   1.000  C
  C748     1.0000 0.52128  0.69105  0.22423  Biso   1.000  C
  C749     1.0000 0.83230  0.96602  0.78307  Biso   1.000  C
  C750     1.0000 0.25364  0.29351  0.51501  Biso   1.000  C
  C751     1.0000 0.53795  0.15992  0.27479  Biso   1.000  C
  C752     1.0000 0.23979  0.45677  0.70622  Biso   1.000  C
  C753     1.0000 0.79124  0.78964  0.98357  Biso   1.000  C
  C754     1.0000 0.04973  0.18098  0.23210  Biso   1.000  C
  C755     1.0000 0.73338  0.48390  0.81960  Biso   1.000  C
  C756     1.0000 0.29126  0.80119  0.53997  Biso   1.000  C
  C757     1.0000 0.01536  0.24696  0.69781  Biso   1.000  C
  C758     1.0000 0.73683  0.98464  0.31023  Biso   1.000  C
  C759     1.0000 0.28636  0.65525  0.04302  Biso   1.000  C
  C760     1.0000 0.52349  0.30495  0.77471  Biso   1.000  C
  C761     1.0000 0.24019  0.00338  0.21788  Biso   1.000  C
  C762     1.0000 0.82322  0.69827  0.48633  Biso   1.000  C
  C763     1.0000 0.51246  0.80675  0.74863  Biso   1.000  C
  C764     1.0000 0.80741  0.50630  0.31921  Biso   1.000  C
  C765     1.0000 0.25650  0.16355  0.03942  Biso   1.000  C
  C766     1.0000 0.00870  0.77768  0.79871  Biso   1.000  C
  C767     1.0000 0.33708  0.47216  0.24507  Biso   1.000  C
  C768     1.0000 0.72401  0.19941  0.47451  Biso   1.000  C
  C769     1.0000 0.48980  0.71390  0.83373  Biso   1.000  C
  C770     1.0000 0.82396  0.48541  0.73854  Biso   1.000  C
  C771     1.0000 0.70281  0.74828  0.49514  Biso   1.000  C
  C772     1.0000 0.01041  0.65938  0.74849  Biso   1.000  C
  C773     1.0000 0.32148  0.45756  0.79939  Biso   1.000  C
  C774     1.0000 0.20244  0.74531  0.01582  Biso   1.000  C
  C775     1.0000 0.03388  0.16153  0.78305  Biso   1.000  C
  C776     1.0000 0.72536  0.01807  0.71974  Biso   1.000  C
  C777     1.0000 0.83814  0.25290  0.47583  Biso   1.000  C
  C778     1.0000 0.52260  0.21680  0.68548  Biso   1.000  C
  C779     1.0000 0.21694  0.96334  0.79325  Biso   1.000  C
  C780     1.0000 0.35164  0.24460  0.02895  Biso   1.000  C
  C781     1.0000 0.54399  0.24422  0.18889  Biso   1.000  C
  C782     1.0000 0.21827  0.48579  0.28786  Biso   1.000  C
  C783     1.0000 0.34140  0.21305  0.50734  Biso   1.000  C
  C784     1.0000 0.04501  0.29578  0.28271  Biso   1.000  C
  C785     1.0000 0.75337  0.47040  0.20406  Biso   1.000  C
  C786     1.0000 0.81151  0.17642  0.97465  Biso   1.000  C
  C787     1.0000 0.00011  0.79745  0.23941  Biso   1.000  C
  C788     1.0000 0.32880  0.99171  0.30121  Biso   1.000  C
  C789     1.0000 0.23833  0.68779  0.55012  Biso   1.000  C
  C790     1.0000 0.49008  0.77860  0.30527  Biso   1.000  C
  C791     1.0000 0.82171  0.00058  0.22482  Biso   1.000  C
  C792     1.0000 0.69919  0.70867  0.98655  Biso   1.000  C
  C793     1.0000 0.50623  0.19259  0.30518  Biso   1.000  C
  C794     1.0000 0.30397  0.44822  0.20766  Biso   1.000  C
  C795     1.0000 0.22508  0.27013  0.47478  Biso   1.000  C
  C796     1.0000 0.01592  0.20723  0.19818  Biso   1.000  C
  C797     1.0000 0.83303  0.46321  0.29735  Biso   1.000  C
  C798     1.0000 0.72842  0.26298  0.01622  Biso   1.000  C
  C799     1.0000 0.97026  0.68357  0.30191  Biso   1.000  C
  C800     1.0000 0.21810  0.95972  0.23887  Biso   1.000  C
  C801     1.0000 0.31847  0.76519  0.50892  Biso   1.000  C
  C802     1.0000 0.48936  0.65862  0.25029  Biso   1.000  C
  C803     1.0000 0.71060  0.95283  0.27702  Biso   1.000  C
  C804     1.0000 0.82001  0.75710  0.01517  Biso   1.000  C
  C805     1.0000 0.54194  0.76959  0.72265  Biso   1.000  C
  C806     1.0000 0.70851  0.52468  0.79355  Biso   1.000  C
  C807     1.0000 0.79240  0.66748  0.51834  Biso   1.000  C
  C808     1.0000 0.04191  0.75031  0.83276  Biso   1.000  C
  C809     1.0000 0.20331  0.48771  0.73388  Biso   1.000  C
  C810     1.0000 0.31856  0.69117  0.01800  Biso   1.000  C
  C811     1.0000 0.04227  0.28024  0.73111  Biso   1.000  C
  C812     1.0000 0.80667  0.00674  0.81060  Biso   1.000  C
  C813     1.0000 0.75633  0.16392  0.50209  Biso   1.000  C
  C814     1.0000 0.48469  0.27505  0.80166  Biso   1.000  C
  C815     1.0000 0.33664  0.96488  0.74657  Biso   1.000  C
  C816     1.0000 0.23291  0.18789  0.99927  Biso   1.000  C
  C817     1.0000 0.01338  0.21886  0.79480  Biso   1.000  C
  C818     1.0000 0.78273  0.95523  0.21735  Biso   1.000  C
  C819     1.0000 0.25529  0.75415  0.04390  Biso   1.000  C
  C820     1.0000 0.49138  0.21035  0.73762  Biso   1.000  C
  C821     1.0000 0.27438  0.96859  0.31100  Biso   1.000  C
  C822     1.0000 0.76047  0.76150  0.51148  Biso   1.000  C
  C823     1.0000 0.53513  0.71201  0.79231  Biso   1.000  C
  C824     1.0000 0.73959  0.49240  0.26070  Biso   1.000  C
  C825     1.0000 0.29694  0.25138  0.99920  Biso   1.000  C
  C826     1.0000 0.04259  0.71071  0.74113  Biso   1.000  C
  C827     1.0000 0.26967  0.45591  0.30582  Biso   1.000  C
  C828     1.0000 0.78955  0.25670  0.51166  Biso   1.000  C
  C829     1.0000 0.96979  0.74647  0.23485  Biso   1.000  C
  C830     1.0000 0.27109  0.98699  0.81202  Biso   1.000  C
  C831     1.0000 0.82001  0.23001  0.00430  Biso   1.000  C
  C832     1.0000 0.51342  0.72280  0.31475  Biso   1.000  C
  C833     1.0000 0.76883  0.97420  0.71501  Biso   1.000  C
  C834     1.0000 0.28742  0.19925  0.48128  Biso   1.000  C
  C835     1.0000 0.50880  0.25539  0.23693  Biso   1.000  C
  C836     1.0000 0.26920  0.49115  0.80527  Biso   1.000  C
  C837     1.0000 0.75387  0.69415  0.00846  Biso   1.000  C
  C838     1.0000 0.01609  0.24340  0.29475  Biso   1.000  C
  C839     1.0000 0.77333  0.51724  0.72532  Biso   1.000  C
  C840     1.0000 0.22258  0.73450  0.51597  Biso   1.000  C
  C841     1.0000 0.24060  0.96631  0.77535  Biso   1.000  C
  C842     1.0000 0.79043  0.19852  0.97302  Biso   1.000  C
  C843     1.0000 0.99872  0.77905  0.26389  Biso   1.000  C
  C844     1.0000 0.74979  0.01760  0.73891  Biso   1.000  C
  C845     1.0000 0.32100  0.23514  0.50368  Biso   1.000  C
  C846     1.0000 0.48779  0.75651  0.28448  Biso   1.000  C
  C847     1.0000 0.30032  0.46171  0.77554  Biso   1.000  C
  C848     1.0000 0.72104  0.72889  0.98415  Biso   1.000  C
  C849     1.0000 0.53958  0.22202  0.20898  Biso   1.000  C
  C850     1.0000 0.80330  0.48881  0.75975  Biso   1.000  C
  C851     1.0000 0.25862  0.70944  0.54624  Biso   1.000  C
  C852     1.0000 0.04044  0.27524  0.26159  Biso   1.000  C
  C853     1.0000 0.79803  0.99855  0.24416  Biso   1.000  C
  C854     1.0000 0.22179  0.72171  0.01782  Biso   1.000  C
  C855     1.0000 0.03605  0.18363  0.76303  Biso   1.000  C
  C856     1.0000 0.30775  0.99552  0.28081  Biso   1.000  C
  C857     1.0000 0.72408  0.72725  0.49199  Biso   1.000  C
  C858     1.0000 0.52195  0.24011  0.70559  Biso   1.000  C
  C859     1.0000 0.77325  0.46989  0.22693  Biso   1.000  C
  C860     1.0000 0.33149  0.22351  0.02931  Biso   1.000  C
  C861     1.0000 0.49316  0.73640  0.81229  Biso   1.000  C
  C862     1.0000 0.24019  0.47877  0.26780  Biso   1.000  C
  C863     1.0000 0.81788  0.23156  0.47482  Biso   1.000  C
  C864     1.0000 0.01310  0.67938  0.77153  Biso   1.000  C
  C865     1.0000 0.75397  0.48543  0.79690  Biso   1.000  C
  C866     1.0000 0.80027  0.71944  0.48432  Biso   1.000  C
  C867     1.0000 0.50903  0.78818  0.77247  Biso   1.000  C
  C868     1.0000 0.25834  0.45853  0.73009  Biso   1.000  C
  C869     1.0000 0.26353  0.67588  0.04456  Biso   1.000  C
  C870     1.0000 0.01076  0.75341  0.77985  Biso   1.000  C
  C871     1.0000 0.81354  0.97074  0.76076  Biso   1.000  C
  C872     1.0000 0.74585  0.21893  0.47806  Biso   1.000  C
  C873     1.0000 0.01547  0.22571  0.71920  Biso   1.000  C
  C874     1.0000 0.28354  0.99508  0.73664  Biso   1.000  C
  C875     1.0000 0.28024  0.18159  0.03896  Biso   1.000  C
  C876     1.0000 0.52187  0.28435  0.75231  Biso   1.000  C
  C877     1.0000 0.31528  0.47134  0.26572  Biso   1.000  C
  C878     1.0000 0.27521  0.27260  0.51248  Biso   1.000  C
  C879     1.0000 0.53634  0.18003  0.25229  Biso   1.000  C
  C880     1.0000 0.78654  0.50210  0.29825  Biso   1.000  C
  C881     1.0000 0.77866  0.27595  0.98421  Biso   1.000  C
  C882     1.0000 0.04780  0.20536  0.25085  Biso   1.000  C
  C883     1.0000 0.25835  0.00688  0.24212  Biso   1.000  C
  C884     1.0000 0.26938  0.78020  0.54157  Biso   1.000  C
  C885     1.0000 0.00278  0.73478  0.30783  Biso   1.000  C
  C886     1.0000 0.75869  0.98552  0.28974  Biso   1.000  C
  C887     1.0000 0.76897  0.76964  0.98414  Biso   1.000  C
  C888     1.0000 0.51542  0.71286  0.24431  Biso   1.000  C
  C889     1.0000 0.73114  0.95574  0.25527  Biso   1.000  C
  C890     1.0000 0.29558  0.71047  0.01924  Biso   1.000  C
  C891     1.0000 0.04123  0.25931  0.75280  Biso   1.000  C
  C892     1.0000 0.23859  0.96025  0.26157  Biso   1.000  C
  C893     1.0000 0.77017  0.68759  0.51243  Biso   1.000  C
  C894     1.0000 0.48580  0.25606  0.77799  Biso   1.000  C
  C895     1.0000 0.81275  0.46291  0.27477  Biso   1.000  C
  C896     1.0000 0.25751  0.20412  0.99970  Biso   1.000  C
  C897     1.0000 0.53656  0.75064  0.74545  Biso   1.000  C
  C898     1.0000 0.28343  0.45011  0.22828  Biso   1.000  C
  C899     1.0000 0.77646  0.18520  0.50347  Biso   1.000  C
  C900     1.0000 0.04430  0.72722  0.81311  Biso   1.000  C
  C901     1.0000 0.31590  0.96652  0.76746  Biso   1.000  C
  C902     1.0000 0.74907  0.24188  0.00847  Biso   1.000  C
  C903     1.0000 0.96779  0.70686  0.28155  Biso   1.000  C
  C904     1.0000 0.78825  0.00837  0.78626  Biso   1.000  C
  C905     1.0000 0.24806  0.24941  0.47334  Biso   1.000  C
  C906     1.0000 0.48648  0.67965  0.27157  Biso   1.000  C
  C907     1.0000 0.22389  0.49010  0.75642  Biso   1.000  C
  C908     1.0000 0.79883  0.73671  0.01258  Biso   1.000  C
  C909     1.0000 0.50583  0.21296  0.28254  Biso   1.000  C
  C910     1.0000 0.73083  0.52565  0.77323  Biso   1.000  C
  C911     1.0000 0.29562  0.74601  0.51093  Biso   1.000  C
  C912     1.0000 0.01130  0.23016  0.21954  Biso   1.000  C
  C913     1.0000 0.77772  0.50526  0.75203  Biso   1.000  C
  C914     1.0000 0.75232  0.73525  0.50001  Biso   1.000  C
  C915     1.0000 0.51792  0.73692  0.79293  Biso   1.000  C
  C916     1.0000 0.27364  0.47664  0.77874  Biso   1.000  C
  C917     1.0000 0.24766  0.72668  0.03259  Biso   1.000  C
  C918     1.0000 0.02819  0.70493  0.76643  Biso   1.000  C
  C919     1.0000 0.76937  0.99441  0.73777  Biso   1.000  C
  C920     1.0000 0.79372  0.23424  0.49172  Biso   1.000  C
  C921     1.0000 0.02536  0.21072  0.76844  Biso   1.000  C
  C922     1.0000 0.26648  0.97932  0.78407  Biso   1.000  C
  C923     1.0000 0.30437  0.22612  0.01455  Biso   1.000  C
  C924     1.0000 0.50567  0.23660  0.73195  Biso   1.000  C
  C925     1.0000 0.26518  0.46433  0.27690  Biso   1.000  C
  C926     1.0000 0.29452  0.22795  0.49162  Biso   1.000  C
  C927     1.0000 0.52069  0.22776  0.23164  Biso   1.000  C
  C928     1.0000 0.76649  0.48075  0.25382  Biso   1.000  C
  C929     1.0000 0.79582  0.22514  0.98784  Biso   1.000  C
  C930     1.0000 0.02653  0.24921  0.26762  Biso   1.000  C
  C931     1.0000 0.28032  0.98389  0.28551  Biso   1.000  C
  C932     1.0000 0.25119  0.73089  0.52810  Biso   1.000  C
  C933     1.0000 0.98228  0.75385  0.26100  Biso   1.000  C
  C934     1.0000 0.77773  0.97625  0.23928  Biso   1.000  C
  C935     1.0000 0.74808  0.72189  0.99688  Biso   1.000  C
  C936     1.0000 0.49667  0.72821  0.29170  Biso   1.000  C
  C937     1.0000 0.77245  0.24696  0.99055  Biso   1.000  C
  C938     1.0000 0.98467  0.73161  0.28320  Biso   1.000  C
  C939     1.0000 0.28976  0.98274  0.76341  Biso   1.000  C
  C940     1.0000 0.27194  0.25091  0.49200  Biso   1.000  C
  C941     1.0000 0.49648  0.70745  0.26767  Biso   1.000  C
  C942     1.0000 0.79068  0.99128  0.76189  Biso   1.000  C
  C943     1.0000 0.77151  0.74314  0.99953  Biso   1.000  C
  C944     1.0000 0.52217  0.20690  0.25641  Biso   1.000  C
  C945     1.0000 0.25172  0.47635  0.75477  Biso   1.000  C
  C946     1.0000 0.27134  0.75517  0.52511  Biso   1.000  C
  C947     1.0000 0.02760  0.22741  0.24423  Biso   1.000  C
  C948     1.0000 0.75366  0.50648  0.77516  Biso   1.000  C
  C949     1.0000 0.26946  0.70386  0.03273  Biso   1.000  C
  C950     1.0000 0.02739  0.23332  0.74597  Biso   1.000  C
  C951     1.0000 0.75682  0.97054  0.26281  Biso   1.000  C
  C952     1.0000 0.77435  0.71317  0.49698  Biso   1.000  C
  C953     1.0000 0.50426  0.26038  0.75414  Biso   1.000  C
  C954     1.0000 0.25741  0.98435  0.26302  Biso   1.000  C
  C955     1.0000 0.28118  0.20401  0.01819  Biso   1.000  C
  C956     1.0000 0.52118  0.75886  0.76915  Biso   1.000  C
  C957     1.0000 0.78907  0.48095  0.27596  Biso   1.000  C
  C958     1.0000 0.77170  0.21089  0.49105  Biso   1.000  C
  C959     1.0000 0.02859  0.72900  0.78698  Biso   1.000  C
  C960     1.0000 0.28842  0.45987  0.25724  Biso   1.000  C
  Cu1      1.0000 0.01660  0.47286  0.66383  Biso   1.000  Cu
  Cu2      1.0000 0.67691  0.97840  0.50190  Biso   1.000  Cu
  Cu3      1.0000 0.51201  0.63620  0.02453  Biso   1.000  Cu
  Cu4      1.0000 0.51409  0.49209  0.86470  Biso   1.000  Cu
  Cu5      1.0000 0.17959  0.97521  0.01984  Biso   1.000  Cu
  Cu6      1.0000 0.01976  0.63716  0.52025  Biso   1.000  Cu
  Cu7      1.0000 0.52556  0.98891  0.66706  Biso   1.000  Cu
  Cu8      1.0000 0.86921  0.47557  0.51640  Biso   1.000  Cu
  Cu9      1.0000 0.03296  0.13295  0.00726  Biso   1.000  Cu
  Cu10     1.0000 0.02391  0.97571  0.85754  Biso   1.000  Cu
  Cu11     1.0000 0.36970  0.47033  0.01816  Biso   1.000  Cu
  Cu12     1.0000 0.53069  0.13554  0.49745  Biso   1.000  Cu
  Cu13     1.0000 0.02547  0.49187  0.36126  Biso   1.000  Cu
  Cu14     1.0000 0.37139  0.98770  0.52385  Biso   1.000  Cu
  Cu15     1.0000 0.53455  0.32630  0.99813  Biso   1.000  Cu
  Cu16     1.0000 0.52665  0.47030  0.16503  Biso   1.000  Cu
  Cu17     1.0000 0.87223  0.98056  0.00714  Biso   1.000  Cu
  Cu18     1.0000 0.03017  0.32513  0.50562  Biso   1.000  Cu
  Cu19     1.0000 0.52061  0.97230  0.35896  Biso   1.000  Cu
  Cu20     1.0000 0.17516  0.48713  0.51073  Biso   1.000  Cu
  Cu21     1.0000 0.01421  0.82746  0.01995  Biso   1.000  Cu
  Cu22     1.0000 0.02334  0.98202  0.16654  Biso   1.000  Cu
  Cu23     1.0000 0.67356  0.48676  0.01278  Biso   1.000  Cu
  Cu24     1.0000 0.51567  0.82686  0.52322  Biso   1.000  Cu
  Cu25     1.0000 0.23342  0.96960  0.01868  Biso   1.000  Cu
  Cu26     1.0000 0.03697  0.18698  0.00871  Biso   1.000  Cu
  Cu27     1.0000 0.01926  0.98655  0.21962  Biso   1.000  Cu
  Cu28     1.0000 0.73125  0.97522  0.50174  Biso   1.000  Cu
  Cu29     1.0000 0.53065  0.18914  0.49524  Biso   1.000  Cu
  Cu30     1.0000 0.51686  0.96506  0.30605  Biso   1.000  Cu
  Cu31     1.0000 0.31332  0.46676  0.02143  Biso   1.000  Cu
  Cu32     1.0000 0.50582  0.69232  0.03217  Biso   1.000  Cu
  Cu33     1.0000 0.52804  0.46668  0.22017  Biso   1.000  Cu
  Cu34     1.0000 0.81388  0.47612  0.51371  Biso   1.000  Cu
  Cu35     1.0000 0.01388  0.68992  0.52267  Biso   1.000  Cu
  Cu36     1.0000 0.02472  0.49107  0.30756  Biso   1.000  Cu
  Cu37     1.0000 0.81817  0.98798  0.00435  Biso   1.000  Cu
  Cu38     1.0000 0.01608  0.77355  0.01881  Biso   1.000  Cu
  Cu39     1.0000 0.02715  0.97213  0.80613  Biso   1.000  Cu
  Cu40     1.0000 0.31695  0.99038  0.52555  Biso   1.000  Cu
  Cu41     1.0000 0.51422  0.77368  0.52616  Biso   1.000  Cu
  Cu42     1.0000 0.53184  0.99791  0.72241  Biso   1.000  Cu
  Cu43     1.0000 0.72780  0.49025  0.01278  Biso   1.000  Cu
  Cu44     1.0000 0.53967  0.27098  0.99485  Biso   1.000  Cu
  Cu45     1.0000 0.51077  0.49649  0.81161  Biso   1.000  Cu
  Cu46     1.0000 0.22893  0.48987  0.51392  Biso   1.000  Cu
  Cu47     1.0000 0.03247  0.27203  0.50284  Biso   1.000  Cu
  Cu48     1.0000 0.01627  0.47158  0.71787  Biso   1.000  Cu
  H1       1.0000 0.25015  0.78680  0.55354  Biso   1.000  H
  H2       1.0000 0.53776  0.28611  0.73315  Biso   1.000  H
  H3       1.0000 0.76780  0.51679  0.30085  Biso   1.000  H
  H4       1.0000 0.74947  0.77638  0.97172  Biso   1.000  H
  H5       1.0000 0.00135  0.20771  0.71706  Biso   1.000  H
  H6       1.0000 0.31696  0.48140  0.28709  Biso   1.000  H
  H7       1.0000 0.29394  0.27241  0.52798  Biso   1.000  H
  H8       1.0000 0.00028  0.75189  0.75864  Biso   1.000  H
  H9       1.0000 0.77760  0.99896  0.29505  Biso   1.000  H
  H10      1.0000 0.79828  0.28224  0.97349  Biso   1.000  H
  H11      1.0000 0.49214  0.79281  0.78905  Biso   1.000  H
  H12      1.0000 0.27185  0.02533  0.24747  Biso   1.000  H
  H13      1.0000 0.74335  0.24103  0.47023  Biso   1.000  H
  H14      1.0000 0.52801  0.73359  0.24317  Biso   1.000  H
  H15      1.0000 0.27789  0.44586  0.72713  Biso   1.000  H
  H16      1.0000 0.29871  0.17862  0.05510  Biso   1.000  H
  H17      1.0000 0.01668  0.75276  0.31168  Biso   1.000  H
  H18      1.0000 0.77078  0.46920  0.79713  Biso   1.000  H
  H19      1.0000 0.80265  0.73832  0.47326  Biso   1.000  H
  H20      1.0000 0.06111  0.20536  0.27098  Biso   1.000  H
  H21      1.0000 0.26403  0.00658  0.73311  Biso   1.000  H
  H22      1.0000 0.24281  0.67066  0.05279  Biso   1.000  H
  H23      1.0000 0.54815  0.17429  0.23259  Biso   1.000  H
  H24      1.0000 0.81747  0.95700  0.74067  Biso   1.000  H
  H25      1.0000 0.29354  0.99409  0.81825  Biso   1.000  H
  H26      1.0000 0.82268  0.24902  0.01849  Biso   1.000  H
  H27      1.0000 0.95788  0.72664  0.23367  Biso   1.000  H
  H28      1.0000 0.78733  0.95902  0.71351  Biso   1.000  H
  H29      1.0000 0.26418  0.19227  0.47334  Biso   1.000  H
  H30      1.0000 0.52224  0.69994  0.31836  Biso   1.000  H
  H31      1.0000 0.24818  0.50205  0.80887  Biso   1.000  H
  H32      1.0000 0.77624  0.68727  0.01510  Biso   1.000  H
  H33      1.0000 0.49360  0.25819  0.25394  Biso   1.000  H
  H34      1.0000 0.75263  0.52895  0.72066  Biso   1.000  H
  H35      1.0000 0.21602  0.75357  0.50313  Biso   1.000  H
  H36      1.0000 0.00277  0.22284  0.29738  Biso   1.000  H
  H37      1.0000 0.76789  0.93685  0.21715  Biso   1.000  H
  H38      1.0000 0.27692  0.75959  0.05383  Biso   1.000  H
  H39      1.0000 0.00580  0.24208  0.79683  Biso   1.000  H
  H40      1.0000 0.25412  0.95792  0.31569  Biso   1.000  H
  H41      1.0000 0.78203  0.76449  0.52048  Biso   1.000  H
  H42      1.0000 0.48178  0.20858  0.75907  Biso   1.000  H
  H43      1.0000 0.73228  0.50301  0.28054  Biso   1.000  H
  H44      1.0000 0.27553  0.25456  0.99076  Biso   1.000  H
  H45      1.0000 0.55383  0.71237  0.77916  Biso   1.000  H
  H46      1.0000 0.28822  0.44362  0.31412  Biso   1.000  H
  H47      1.0000 0.76991  0.25727  0.52363  Biso   1.000  H
  H48      1.0000 0.05547  0.72974  0.74183  Biso   1.000  H
  H49      1.0000 0.24078  0.48729  0.24646  Biso   1.000  H
  H50      1.0000 0.32889  0.25690  0.50868  Biso   1.000  H
  H51      1.0000 0.54816  0.20112  0.20434  Biso   1.000  H
  H52      1.0000 0.79403  0.45878  0.22273  Biso   1.000  H
  H53      1.0000 0.77039  0.19302  0.95970  Biso   1.000  H
  H54      1.0000 0.05408  0.27831  0.24119  Biso   1.000  H
  H55      1.0000 0.31433  0.00689  0.26177  Biso   1.000  H
  H56      1.0000 0.28083  0.70716  0.55542  Biso   1.000  H
  H57      1.0000 0.01086  0.78378  0.28270  Biso   1.000  H
  H58      1.0000 0.79363  0.01510  0.26027  Biso   1.000  H
  H59      1.0000 0.71560  0.74938  0.97535  Biso   1.000  H
  H60      1.0000 0.47594  0.75977  0.26466  Biso   1.000  H
  H61      1.0000 0.80702  0.48322  0.78165  Biso   1.000  H
  H62      1.0000 0.71961  0.70519  0.48286  Biso   1.000  H
  H63      1.0000 0.48140  0.75669  0.81258  Biso   1.000  H
  H64      1.0000 0.30636  0.45388  0.75418  Biso   1.000  H
  H65      1.0000 0.21716  0.70127  0.00903  Biso   1.000  H
  H66      1.0000 0.00396  0.67365  0.79236  Biso   1.000  H
  H67      1.0000 0.74981  0.03672  0.75224  Biso   1.000  H
  H68      1.0000 0.82301  0.21082  0.46087  Biso   1.000  H
  H69      1.0000 0.04580  0.18085  0.74257  Biso   1.000  H
  H70      1.0000 0.23776  0.95954  0.75176  Biso   1.000  H
  H71      1.0000 0.33837  0.20227  0.03883  Biso   1.000  H
  H72      1.0000 0.53392  0.25988  0.69989  Biso   1.000  H
  H73      1.0000 0.72847  0.53905  0.75408  Biso   1.000  H
  H74      1.0000 0.74905  0.68539  0.52325  Biso   1.000  H
  H75      1.0000 0.54395  0.72891  0.74208  Biso   1.000  H
  H76      1.0000 0.22080  0.50514  0.77514  Biso   1.000  H
  H77      1.0000 0.29639  0.73089  0.00720  Biso   1.000  H
  H78      1.0000 0.05778  0.70911  0.82117  Biso   1.000  H
  H79      1.0000 0.77111  0.02471  0.79010  Biso   1.000  H
  H80      1.0000 0.79732  0.18262  0.51640  Biso   1.000  H
  H81      1.0000 0.05416  0.26205  0.77207  Biso   1.000  H
  H82      1.0000 0.32123  0.95550  0.78792  Biso   1.000  H
  H83      1.0000 0.25589  0.22138  0.98341  Biso   1.000  H
  H84      1.0000 0.46769  0.23912  0.77494  Biso   1.000  H
  H85      1.0000 0.26151  0.44309  0.22416  Biso   1.000  H
  H86      1.0000 0.24327  0.23015  0.46026  Biso   1.000  H
  H87      1.0000 0.49161  0.23235  0.28658  Biso   1.000  H
  H88      1.0000 0.81210  0.44585  0.25888  Biso   1.000  H
  H89      1.0000 0.74418  0.22041  0.01454  Biso   1.000  H
  H90      1.0000 0.99662  0.24823  0.21423  Biso   1.000  H
  H91      1.0000 0.23755  0.94373  0.27747  Biso   1.000  H
  H92      1.0000 0.29543  0.72320  0.50288  Biso   1.000  H
  H93      1.0000 0.95579  0.70297  0.26182  Biso   1.000  H
  H94      1.0000 0.72640  0.95041  0.23313  Biso   1.000  H
  H95      1.0000 0.80190  0.71788  0.02754  Biso   1.000  H
  H96      1.0000 0.47759  0.67257  0.29108  Biso   1.000  H
  H97      1.0000 0.89359  0.98554  0.91399  Biso   1.000  H
  H98      1.0000 0.92276  0.84431  0.01451  Biso   1.000  H
  H99      1.0000 0.03175  0.88468  0.88525  Biso   1.000  H
  H100     1.0000 0.39409  0.98861  0.61534  Biso   1.000  H
  H101     1.0000 0.42554  0.85167  0.51683  Biso   1.000  H
  H102     1.0000 0.52476  0.90068  0.65631  Biso   1.000  H
  H103     1.0000 0.64852  0.48966  0.92319  Biso   1.000  H
  H104     1.0000 0.62391  0.35210  0.00456  Biso   1.000  H
  H105     1.0000 0.51136  0.39949  0.87267  Biso   1.000  H
  H106     1.0000 0.14994  0.47518  0.60072  Biso   1.000  H
  H107     1.0000 0.12078  0.35117  0.51468  Biso   1.000  H
  H108     1.0000 0.01490  0.37802  0.63960  Biso   1.000  H
  H109     1.0000 0.15843  0.97095  0.10976  Biso   1.000  H
  H110     1.0000 0.12668  0.10944  0.01043  Biso   1.000  H
  H111     1.0000 0.03093  0.07391  0.14167  Biso   1.000  H
  H112     1.0000 0.65315  0.96038  0.41216  Biso   1.000  H
  H113     1.0000 0.61983  0.11435  0.48770  Biso   1.000  H
  H114     1.0000 0.51039  0.06493  0.37306  Biso   1.000  H
  H115     1.0000 0.39048  0.46709  0.10988  Biso   1.000  H
  H116     1.0000 0.42377  0.60239  0.03367  Biso   1.000  H
  H117     1.0000 0.52106  0.56277  0.15188  Biso   1.000  H
  H118     1.0000 0.88914  0.48173  0.42773  Biso   1.000  H
  H119     1.0000 0.92821  0.61346  0.52328  Biso   1.000  H
  H120     1.0000 0.00448  0.57886  0.38311  Biso   1.000  H
  H121     1.0000 0.11465  0.96731  0.88359  Biso   1.000  H
  H122     1.0000 0.90135  0.07700  0.00899  Biso   1.000  H
  H123     1.0000 0.00749  0.85101  0.11002  Biso   1.000  H
  H124     1.0000 0.61535  0.99867  0.63551  Biso   1.000  H
  H125     1.0000 0.39789  0.07566  0.50757  Biso   1.000  H
  H126     1.0000 0.52398  0.84200  0.42917  Biso   1.000  H
  H127     1.0000 0.42287  0.48411  0.89016  Biso   1.000  H
  H128     1.0000 0.63881  0.57918  0.01209  Biso   1.000  H
  H129     1.0000 0.54099  0.34207  0.09176  Biso   1.000  H
  H130     1.0000 0.92359  0.47022  0.64879  Biso   1.000  H
  H131     1.0000 0.14968  0.58035  0.52641  Biso   1.000  H
  H132     1.0000 0.04682  0.35243  0.41835  Biso   1.000  H
  H133     1.0000 0.92912  0.99765  0.14083  Biso   1.000  H
  H134     1.0000 0.15684  0.88554  0.01678  Biso   1.000  H
  H135     1.0000 0.04607  0.10718  0.91383  Biso   1.000  H
  H136     1.0000 0.43374  0.97288  0.38516  Biso   1.000  H
  H137     1.0000 0.65558  0.88730  0.52314  Biso   1.000  H
  H138     1.0000 0.52522  0.11521  0.59554  Biso   1.000  H
  H139     1.0000 0.62291  0.47800  0.14740  Biso   1.000  H
  H140     1.0000 0.39635  0.38333  0.02002  Biso   1.000  H
  H141     1.0000 0.49739  0.62148  0.93522  Biso   1.000  H
  H142     1.0000 0.11749  0.49441  0.38290  Biso   1.000  H
  H143     1.0000 0.89446  0.38221  0.51025  Biso   1.000  H
  H144     1.0000 0.01808  0.60690  0.61286  Biso   1.000  H
  H145     1.0000 0.60456  0.49824  0.88061  Biso   1.000  H
  H146     1.0000 0.88585  0.56860  0.51824  Biso   1.000  H
  H147     1.0000 0.51721  0.85220  0.61401  Biso   1.000  H
  H148     1.0000 0.10787  0.46505  0.64175  Biso   1.000  H
  H149     1.0000 0.38679  0.56121  0.01192  Biso   1.000  H
  H150     1.0000 0.02218  0.84494  0.92833  Biso   1.000  H
  H151     1.0000 0.93557  0.98346  0.87432  Biso   1.000  H
  H152     1.0000 0.65562  0.07077  0.49112  Biso   1.000  H
  H153     1.0000 0.01746  0.33976  0.59800  Biso   1.000  H
  H154     1.0000 0.43350  0.98710  0.65381  Biso   1.000  H
  H155     1.0000 0.16545  0.06395  0.01757  Biso   1.000  H
  H156     1.0000 0.52462  0.35034  0.91165  Biso   1.000  H
  H157     1.0000 0.43372  0.45479  0.14748  Biso   1.000  H
  H158     1.0000 0.16056  0.39130  0.51480  Biso   1.000  H
  H159     1.0000 0.52107  0.11185  0.40989  Biso   1.000  H
  H160     1.0000 0.93525  0.48143  0.38405  Biso   1.000  H
  H161     1.0000 0.66540  0.39727  0.01680  Biso   1.000  H
  H162     1.0000 0.02682  0.11367  0.10027  Biso   1.000  H
  H163     1.0000 0.11441  0.96588  0.15169  Biso   1.000  H
  H164     1.0000 0.38460  0.89348  0.52462  Biso   1.000  H
  H165     1.0000 0.01745  0.62042  0.42622  Biso   1.000  H
  H166     1.0000 0.61123  0.96933  0.37170  Biso   1.000  H
  H167     1.0000 0.88398  0.88873  0.00409  Biso   1.000  H
  H168     1.0000 0.52516  0.60978  0.11731  Biso   1.000  H
  H169     1.0000 0.03244  0.06606  0.87651  Biso   1.000  H
  H170     1.0000 0.88802  0.98496  0.09570  Biso   1.000  H
  H171     1.0000 0.11092  0.84795  0.02576  Biso   1.000  H
  H172     1.0000 0.51921  0.07608  0.63945  Biso   1.000  H
  H173     1.0000 0.39230  0.97180  0.43255  Biso   1.000  H
  H174     1.0000 0.60922  0.84710  0.52651  Biso   1.000  H
  H175     1.0000 0.50737  0.57839  0.88939  Biso   1.000  H
  H176     1.0000 0.65856  0.48065  0.10450  Biso   1.000  H
  H177     1.0000 0.44726  0.34282  0.00556  Biso   1.000  H
  H178     1.0000 0.02090  0.56257  0.64862  Biso   1.000  H
  H179     1.0000 0.15915  0.49268  0.41988  Biso   1.000  H
  H180     1.0000 0.93527  0.34532  0.50185  Biso   1.000  H
  H181     1.0000 0.00233  0.89511  0.14907  Biso   1.000  H
  H182     1.0000 0.15489  0.96970  0.92838  Biso   1.000  H
  H183     1.0000 0.94463  0.11932  0.99974  Biso   1.000  H
  H184     1.0000 0.52240  0.87810  0.38802  Biso   1.000  H
  H185     1.0000 0.65966  0.99524  0.59128  Biso   1.000  H
  H186     1.0000 0.44271  0.11531  0.49383  Biso   1.000  H
  H187     1.0000 0.53693  0.37827  0.13536  Biso   1.000  H
  H188     1.0000 0.38381  0.47942  0.92930  Biso   1.000  H
  H189     1.0000 0.60118  0.62135  0.02452  Biso   1.000  H
  H190     1.0000 0.04853  0.39476  0.37887  Biso   1.000  H
  H191     1.0000 0.88317  0.46925  0.60842  Biso   1.000  H
  H192     1.0000 0.10798  0.62328  0.52775  Biso   1.000  H
  H193     1.0000 0.28781  0.84556  0.52126  Biso   1.000  H
  H194     1.0000 0.51545  0.26006  0.84687  Biso   1.000  H
  H195     1.0000 0.88156  0.47873  0.28674  Biso   1.000  H
  H196     1.0000 0.78647  0.84485  0.99586  Biso   1.000  H
  H197     1.0000 0.03397  0.24235  0.64899  Biso   1.000  H
  H198     1.0000 0.38811  0.44790  0.24619  Biso   1.000  H
  H199     1.0000 0.26003  0.34634  0.49312  Biso   1.000  H
  H200     1.0000 0.01037  0.74403  0.88073  Biso   1.000  H
  H201     1.0000 0.65672  0.97479  0.27178  Biso   1.000  H
  H202     1.0000 0.76490  0.34694  0.01803  Biso   1.000  H
  H203     1.0000 0.52018  0.76145  0.67491  Biso   1.000  H
  H204     1.0000 0.16695  0.98037  0.24856  Biso   1.000  H
  H205     1.0000 0.75860  0.11311  0.48773  Biso   1.000  H
  H206     1.0000 0.49571  0.69918  0.17731  Biso   1.000  H
  H207     1.0000 0.16147  0.45322  0.73824  Biso   1.000  H
  H208     1.0000 0.26297  0.11424  0.01843  Biso   1.000  H
  H209     1.0000 0.99241  0.71727  0.37853  Biso   1.000  H
  H210     1.0000 0.65418  0.50646  0.77945  Biso   1.000  H
  H211     1.0000 0.78906  0.61953  0.50063  Biso   1.000  H
  H212     1.0000 0.04081  0.21504  0.14768  Biso   1.000  H
  H213     1.0000 0.38720  0.99333  0.75384  Biso   1.000  H
  H214     1.0000 0.28266  0.60601  0.02027  Biso   1.000  H
  H215     1.0000 0.52980  0.20407  0.34994  Biso   1.000  H
  H216     1.0000 0.88350  0.96762  0.77616  Biso   1.000  H
  H217     1.0000 0.25730  0.49098  0.37050  Biso   1.000  H
  H218     1.0000 0.38622  0.21297  0.47953  Biso   1.000  H
  H219     1.0000 0.53794  0.32114  0.23137  Biso   1.000  H
  H220     1.0000 0.75398  0.49622  0.15426  Biso   1.000  H
  H221     1.0000 0.89486  0.21251  0.97815  Biso   1.000  H
  H222     1.0000 0.02899  0.34463  0.28221  Biso   1.000  H
  H223     1.0000 0.29328  0.99326  0.38382  Biso   1.000  H
  H224     1.0000 0.16006  0.71870  0.54593  Biso   1.000  H
  H225     1.0000 0.98310  0.84334  0.24465  Biso   1.000  H
  H226     1.0000 0.79322  0.97848  0.14960  Biso   1.000  H
  H227     1.0000 0.65379  0.71672  0.00739  Biso   1.000  H
  H228     1.0000 0.51949  0.82142  0.29390  Biso   1.000  H
  H229     1.0000 0.78707  0.48747  0.65753  Biso   1.000  H
  H230     1.0000 0.65975  0.74866  0.52365  Biso   1.000  H
  H231     1.0000 0.51068  0.64016  0.79562  Biso   1.000  H
  H232     1.0000 0.28562  0.46129  0.87721  Biso   1.000  H
  H233     1.0000 0.15676  0.74735  0.03931  Biso   1.000  H
  H234     1.0000 0.03117  0.60985  0.74934  Biso   1.000  H
  H235     1.0000 0.75791  0.98726  0.64347  Biso   1.000  H
  H236     1.0000 0.89151  0.24243  0.48844  Biso   1.000  H
  H237     1.0000 0.00562  0.11969  0.78218  Biso   1.000  H
  H238     1.0000 0.25199  0.96038  0.87498  Biso   1.000  H
  H239     1.0000 0.39742  0.24379  0.99914  Biso   1.000  H
  H240     1.0000 0.51914  0.14243  0.73085  Biso   1.000  H
  H241     1.0000 0.74135  0.50842  0.86762  Biso   1.000  H
  H242     1.0000 0.87059  0.70755  0.52218  Biso   1.000  H
  H243     1.0000 0.53996  0.85108  0.75455  Biso   1.000  H
  H244     1.0000 0.24655  0.47630  0.65705  Biso   1.000  H
  H245     1.0000 0.36060  0.69621  0.04273  Biso   1.000  H
  H246     1.0000 0.02687  0.82659  0.78873  Biso   1.000  H
  H247     1.0000 0.79694  0.99471  0.86003  Biso   1.000  H
  H248     1.0000 0.67748  0.20826  0.49005  Biso   1.000  H
  H249     1.0000 0.01980  0.32799  0.73826  Biso   1.000  H
  H250     1.0000 0.29841  0.97632  0.66902  Biso   1.000  H
  H251     1.0000 0.18036  0.20609  0.02322  Biso   1.000  H
  H252     1.0000 0.49205  0.35739  0.77300  Biso   1.000  H
  H253     1.0000 0.29762  0.47708  0.16545  Biso   1.000  H
  H254     1.0000 0.17991  0.25664  0.50375  Biso   1.000  H
  H255     1.0000 0.51818  0.10421  0.27029  Biso   1.000  H
  H256     1.0000 0.79584  0.48895  0.36900  Biso   1.000  H
  H257     1.0000 0.68249  0.25736  0.98944  Biso   1.000  H
  H258     1.0000 0.04032  0.12708  0.24086  Biso   1.000  H
  H259     1.0000 0.24959  0.98797  0.16801  Biso   1.000  H
  H260     1.0000 0.36860  0.75652  0.52422  Biso   1.000  H
  H261     1.0000 0.99824  0.63666  0.28868  Biso   1.000  H
  H262     1.0000 0.74666  0.95849  0.35278  Biso   1.000  H
  H263     1.0000 0.87068  0.74987  0.00268  Biso   1.000  H
  H264     1.0000 0.50944  0.60864  0.25620  Biso   1.000  H
  H265     1.0000 0.04030  0.20670  0.86341  Biso   1.000  H
  H266     1.0000 0.87121  0.98820  0.23310  Biso   1.000  H
  H267     1.0000 0.25200  0.82528  0.02069  Biso   1.000  H
  H268     1.0000 0.50079  0.21838  0.63483  Biso   1.000  H
  H269     1.0000 0.37344  0.96048  0.29337  Biso   1.000  H
  H270     1.0000 0.74294  0.83081  0.48631  Biso   1.000  H
  H271     1.0000 0.50774  0.72073  0.88707  Biso   1.000  H
  H272     1.0000 0.67322  0.47358  0.24569  Biso   1.000  H
  H273     1.0000 0.30837  0.31947  0.03104  Biso   1.000  H
  H274     1.0000 0.01570  0.70101  0.67300  Biso   1.000  H
  H275     1.0000 0.16718  0.47439  0.28378  Biso   1.000  H
  H276     1.0000 0.80137  0.32871  0.50087  Biso   1.000  H
  H277     1.0000 0.98985  0.75542  0.16388  Biso   1.000  H
  H278     1.0000 0.17008  0.98519  0.78786  Biso   1.000  H
  H279     1.0000 0.80473  0.12999  0.99888  Biso   1.000  H
  H280     1.0000 0.51190  0.73998  0.38690  Biso   1.000  H
  H281     1.0000 0.67209  0.00057  0.73038  Biso   1.000  H
  H282     1.0000 0.30219  0.13442  0.51367  Biso   1.000  H
  H283     1.0000 0.54697  0.24089  0.13740  Biso   1.000  H
  H284     1.0000 0.36630  0.48756  0.79381  Biso   1.000  H
  H285     1.0000 0.73536  0.62833  0.98816  Biso   1.000  H
  H286     1.0000 0.04347  0.25690  0.36106  Biso   1.000  H
  H287     1.0000 0.87823  0.50420  0.74192  Biso   1.000  H
  H288     1.0000 0.24575  0.63357  0.53410  Biso   1.000  H
  H289     1.0000 0.12702  0.20749  0.01656  Biso   1.000  H
  H290     1.0000 0.04194  0.07393  0.23880  Biso   1.000  H
  H291     1.0000 0.25285  0.98243  0.11475  Biso   1.000  H
  H292     1.0000 0.62607  0.21222  0.49772  Biso   1.000  H
  H293     1.0000 0.50754  0.05574  0.27883  Biso   1.000  H
  H294     1.0000 0.74952  0.96596  0.41014  Biso   1.000  H
  H295     1.0000 0.41798  0.70023  0.04885  Biso   1.000  H
  H296     1.0000 0.51836  0.55475  0.24979  Biso   1.000  H
  H297     1.0000 0.30078  0.48835  0.10988  Biso   1.000  H
  H298     1.0000 0.92525  0.70809  0.52686  Biso   1.000  H
  H299     1.0000 0.00352  0.58215  0.28797  Biso   1.000  H
  H300     1.0000 0.79558  0.48546  0.42466  Biso   1.000  H
  H301     1.0000 0.92337  0.74783  0.00720  Biso   1.000  H
  H302     1.0000 0.02944  0.87874  0.78755  Biso   1.000  H
  H303     1.0000 0.79849  0.99952  0.91666  Biso   1.000  H
  H304     1.0000 0.42664  0.75545  0.52044  Biso   1.000  H
  H305     1.0000 0.53583  0.90556  0.75154  Biso   1.000  H
  H306     1.0000 0.29848  0.97784  0.61281  Biso   1.000  H
  H307     1.0000 0.63168  0.25662  0.98133  Biso   1.000  H
  H308     1.0000 0.49059  0.41452  0.78116  Biso   1.000  H
  H309     1.0000 0.74288  0.50431  0.92505  Biso   1.000  H
  H310     1.0000 0.12512  0.25322  0.50634  Biso   1.000  H
  H311     1.0000 0.01401  0.38277  0.73539  Biso   1.000  H
  H312     1.0000 0.24710  0.47430  0.60556  Biso   1.000  H
  H313     1.0000 0.24995  0.95948  0.92995  Biso   1.000  H
  H314     1.0000 0.94421  0.21559  0.99296  Biso   1.000  H
  H315     1.0000 0.99970  0.89642  0.24567  Biso   1.000  H
  H316     1.0000 0.75469  0.98332  0.59150  Biso   1.000  H
  H317     1.0000 0.44392  0.20917  0.47625  Biso   1.000  H
  H318     1.0000 0.52846  0.87548  0.29057  Biso   1.000  H
  H319     1.0000 0.29109  0.45914  0.93484  Biso   1.000  H
  H320     1.0000 0.59589  0.71779  0.01840  Biso   1.000  H
  H321     1.0000 0.53016  0.37480  0.23182  Biso   1.000  H
  H322     1.0000 0.78869  0.47267  0.60436  Biso   1.000  H
  H323     1.0000 0.10487  0.72061  0.53545  Biso   1.000  H
  H324     1.0000 0.03276  0.40251  0.28428  Biso   1.000  H
  H325     1.0000 0.78907  0.97990  0.09565  Biso   1.000  H
  H326     1.0000 0.10625  0.75094  0.03456  Biso   1.000  H
  H327     1.0000 0.00508  0.06465  0.78230  Biso   1.000  H
  H328     1.0000 0.29789  0.99341  0.43664  Biso   1.000  H
  H329     1.0000 0.60502  0.74883  0.52664  Biso   1.000  H
  H330     1.0000 0.51349  0.08875  0.73418  Biso   1.000  H
  H331     1.0000 0.74997  0.50123  0.10551  Biso   1.000  H
  H332     1.0000 0.45205  0.24960  0.99713  Biso   1.000  H
  H333     1.0000 0.51791  0.58491  0.79441  Biso   1.000  H
  H334     1.0000 0.25617  0.49996  0.42374  Biso   1.000  H
  H335     1.0000 0.94451  0.25019  0.48978  Biso   1.000  H
  H336     1.0000 0.03009  0.55815  0.74243  Biso   1.000  H
  H337     1.0000 0.04897  0.20530  0.91717  Biso   1.000  H
  H338     1.0000 0.92633  0.99898  0.23678  Biso   1.000  H
  H339     1.0000 0.25177  0.87760  0.02699  Biso   1.000  H
  H340     1.0000 0.51176  0.21184  0.58274  Biso   1.000  H
  H341     1.0000 0.42641  0.95204  0.29211  Biso   1.000  H
  H342     1.0000 0.74445  0.88219  0.48902  Biso   1.000  H
  H343     1.0000 0.49938  0.71793  0.94231  Biso   1.000  H
  H344     1.0000 0.62130  0.46662  0.24317  Biso   1.000  H
  H345     1.0000 0.30100  0.37178  0.03189  Biso   1.000  H
  H346     1.0000 0.00405  0.70121  0.61811  Biso   1.000  H
  H347     1.0000 0.11387  0.47770  0.28470  Biso   1.000  H
  H348     1.0000 0.80019  0.38232  0.50369  Biso   1.000  H
  H349     1.0000 0.00570  0.75367  0.11120  Biso   1.000  H
  H350     1.0000 0.11593  0.98255  0.78856  Biso   1.000  H
  H351     1.0000 0.80691  0.07665  0.01130  Biso   1.000  H
  H352     1.0000 0.51303  0.74574  0.43669  Biso   1.000  H
  H353     1.0000 0.62061  0.00275  0.73251  Biso   1.000  H
  H354     1.0000 0.30271  0.08331  0.51599  Biso   1.000  H
  H355     1.0000 0.54414  0.24652  0.08094  Biso   1.000  H
  H356     1.0000 0.41964  0.49867  0.79413  Biso   1.000  H
  H357     1.0000 0.73471  0.57765  0.99363  Biso   1.000  H
  H358     1.0000 0.04306  0.25368  0.41273  Biso   1.000  H
  H359     1.0000 0.93382  0.50232  0.73642  Biso   1.000  H
  H360     1.0000 0.24430  0.57945  0.52894  Biso   1.000  H
  H361     1.0000 0.99968  0.71530  0.43352  Biso   1.000  H
  H362     1.0000 0.44173  0.99077  0.75179  Biso   1.000  H
  H363     1.0000 0.75970  0.40252  0.02147  Biso   1.000  H
  H364     1.0000 0.49764  0.70200  0.12436  Biso   1.000  H
  H365     1.0000 0.93465  0.95505  0.78064  Biso   1.000  H
  H366     1.0000 0.25447  0.40041  0.49739  Biso   1.000  H
  H367     1.0000 0.52896  0.20750  0.40131  Biso   1.000  H
  H368     1.0000 0.10595  0.45361  0.73487  Biso   1.000  H
  H369     1.0000 0.78651  0.89548  0.99987  Biso   1.000  H
  H370     1.0000 0.03625  0.20921  0.09536  Biso   1.000  H
  H371     1.0000 0.60109  0.50212  0.78465  Biso   1.000  H
  H372     1.0000 0.29068  0.90075  0.52501  Biso   1.000  H
  H373     1.0000 0.03968  0.24273  0.59543  Biso   1.000  H
  H374     1.0000 0.60490  0.98179  0.27777  Biso   1.000  H
  H375     1.0000 0.28930  0.55337  0.01517  Biso   1.000  H
  H376     1.0000 0.51825  0.25499  0.90028  Biso   1.000  H
  H377     1.0000 0.11546  0.97118  0.24899  Biso   1.000  H
  H378     1.0000 0.79370  0.56154  0.50138  Biso   1.000  H
  H379     1.0000 0.51316  0.75781  0.62266  Biso   1.000  H
  H380     1.0000 0.93490  0.47998  0.28585  Biso   1.000  H
  H381     1.0000 0.26250  0.05926  0.01731  Biso   1.000  H
  H382     1.0000 0.00955  0.75126  0.93293  Biso   1.000  H
  H383     1.0000 0.44100  0.44948  0.24470  Biso   1.000  H
  H384     1.0000 0.75245  0.05849  0.49247  Biso   1.000  H
  H385     1.0000 0.25278  0.45260  0.34797  Biso   1.000  H
  H386     1.0000 0.30118  0.15600  0.47258  Biso   1.000  H
  H387     1.0000 0.50128  0.29825  0.22143  Biso   1.000  H
  H388     1.0000 0.69842  0.50512  0.24564  Biso   1.000  H
  H389     1.0000 0.85916  0.21150  0.02223  Biso   1.000  H
  H390     1.0000 0.00613  0.26097  0.33637  Biso   1.000  H
  H391     1.0000 0.28825  0.95753  0.35425  Biso   1.000  H
  H392     1.0000 0.18136  0.71677  0.50948  Biso   1.000  H
  H393     1.0000 0.95793  0.76025  0.19002  Biso   1.000  H
  H394     1.0000 0.80646  0.94304  0.17872  Biso   1.000  H
  H395     1.0000 0.73767  0.65310  0.02360  Biso   1.000  H
  H396     1.0000 0.53885  0.74214  0.35121  Biso   1.000  H
  H397     1.0000 0.79352  0.52353  0.68305  Biso   1.000  H
  H398     1.0000 0.74807  0.80471  0.52040  Biso   1.000  H
  H399     1.0000 0.54673  0.66869  0.80915  Biso   1.000  H
  H400     1.0000 0.28113  0.50618  0.84711  Biso   1.000  H
  H401     1.0000 0.24441  0.79802  0.04972  Biso   1.000  H
  H402     1.0000 0.05601  0.69548  0.69987  Biso   1.000  H
  H403     1.0000 0.74479  0.95656  0.67970  Biso   1.000  H
  H404     1.0000 0.80698  0.29432  0.53227  Biso   1.000  H
  H405     1.0000 0.99857  0.20754  0.83591  Biso   1.000  H
  H406     1.0000 0.25434  0.99291  0.85436  Biso   1.000  H
  H407     1.0000 0.31134  0.29253  0.98545  Biso   1.000  H
  H408     1.0000 0.47664  0.16850  0.71828  Biso   1.000  H
  H409     1.0000 0.29920  0.43409  0.18856  Biso   1.000  H
  H410     1.0000 0.20488  0.26886  0.46190  Biso   1.000  H
  H411     1.0000 0.49534  0.19831  0.32553  Biso   1.000  H
  H412     1.0000 0.85254  0.44909  0.29536  Biso   1.000  H
  H413     1.0000 0.70851  0.25719  0.02952  Biso   1.000  H
  H414     1.0000 0.00417  0.20880  0.17803  Biso   1.000  H
  H415     1.0000 0.20261  0.94291  0.23574  Biso   1.000  H
  H416     1.0000 0.33882  0.75954  0.49599  Biso   1.000  H
  H417     1.0000 0.95612  0.66463  0.29848  Biso   1.000  H
  H418     1.0000 0.69157  0.94098  0.27087  Biso   1.000  H
  H419     1.0000 0.83608  0.75586  0.03214  Biso   1.000  H
  H420     1.0000 0.47842  0.63843  0.25285  Biso   1.000  H
  H421     1.0000 0.69184  0.54025  0.79229  Biso   1.000  H
  H422     1.0000 0.78516  0.64917  0.53161  Biso   1.000  H
  H423     1.0000 0.55607  0.76170  0.70568  Biso   1.000  H
  H424     1.0000 0.18503  0.50260  0.73452  Biso   1.000  H
  H425     1.0000 0.33862  0.69742  0.00894  Biso   1.000  H
  H426     1.0000 0.05536  0.74779  0.85218  Biso   1.000  H
  H427     1.0000 0.80391  0.02294  0.82834  Biso   1.000  H
  H428     1.0000 0.76185  0.14481  0.51393  Biso   1.000  H
  H429     1.0000 0.05454  0.29970  0.73866  Biso   1.000  H
  H430     1.0000 0.35760  0.95531  0.75308  Biso   1.000  H
  H431     1.0000 0.21437  0.19534  0.98458  Biso   1.000  H
  H432     1.0000 0.47127  0.27243  0.82081  Biso   1.000  H
  H433     1.0000 0.30064  0.01142  0.69759  Biso   1.000  H
  H434     1.0000 0.76186  0.31988  0.98073  Biso   1.000  H
  H435     1.0000 0.02133  0.71709  0.34542  Biso   1.000  H
  H436     1.0000 0.84722  0.94870  0.78312  Biso   1.000  H
  H437     1.0000 0.25377  0.30634  0.53483  Biso   1.000  H
  H438     1.0000 0.53747  0.69520  0.20861  Biso   1.000  H
  H439     1.0000 0.24544  0.44267  0.68794  Biso   1.000  H
  H440     1.0000 0.78499  0.80737  0.96985  Biso   1.000  H
  H441     1.0000 0.54966  0.13931  0.27024  Biso   1.000  H
  H442     1.0000 0.73562  0.46489  0.83418  Biso   1.000  H
  H443     1.0000 0.28818  0.82010  0.55474  Biso   1.000  H
  H444     1.0000 0.06372  0.16269  0.23638  Biso   1.000  H
  H445     1.0000 0.73796  0.99871  0.33006  Biso   1.000  H
  H446     1.0000 0.28250  0.63605  0.05547  Biso   1.000  H
  H447     1.0000 0.00389  0.24314  0.67817  Biso   1.000  H
  H448     1.0000 0.24138  0.02012  0.20134  Biso   1.000  H
  H449     1.0000 0.84275  0.69930  0.47206  Biso   1.000  H
  H450     1.0000 0.53727  0.32230  0.77344  Biso   1.000  H
  H451     1.0000 0.80499  0.52386  0.33482  Biso   1.000  H
  H452     1.0000 0.25855  0.14684  0.05538  Biso   1.000  H
  H453     1.0000 0.49977  0.82794  0.75107  Biso   1.000  H
  H454     1.0000 0.35682  0.48464  0.24889  Biso   1.000  H
  H455     1.0000 0.70573  0.20226  0.46118  Biso   1.000  H
  H456     1.0000 0.99436  0.79587  0.79589  Biso   1.000  H
  H457     1.0000 0.68052  0.74318  0.48829  Biso   1.000  H
  H458     1.0000 0.47215  0.71780  0.84803  Biso   1.000  H
  H459     1.0000 0.84305  0.47244  0.74184  Biso   1.000  H
  H460     1.0000 0.18374  0.74124  0.00372  Biso   1.000  H
  H461     1.0000 0.99855  0.64075  0.75274  Biso   1.000  H
  H462     1.0000 0.34197  0.44689  0.79632  Biso   1.000  H
  H463     1.0000 0.85670  0.25163  0.46074  Biso   1.000  H
  H464     1.0000 0.04545  0.14009  0.77868  Biso   1.000  H
  H465     1.0000 0.70921  0.03505  0.72105  Biso   1.000  H
  H466     1.0000 0.37244  0.24051  0.04278  Biso   1.000  H
  H467     1.0000 0.53429  0.21672  0.66412  Biso   1.000  H
  H468     1.0000 0.19690  0.95160  0.78811  Biso   1.000  H
  H469     1.0000 0.36034  0.21812  0.51868  Biso   1.000  H
  H470     1.0000 0.55757  0.23815  0.17239  Biso   1.000  H
  H471     1.0000 0.20137  0.50110  0.28348  Biso   1.000  H
  H472     1.0000 0.80747  0.15700  0.96057  Biso   1.000  H
  H473     1.0000 0.05961  0.31397  0.27610  Biso   1.000  H
  H474     1.0000 0.76009  0.46129  0.18277  Biso   1.000  H
  H475     1.0000 0.24436  0.66844  0.56324  Biso   1.000  H
  H476     1.0000 0.01473  0.81645  0.24045  Biso   1.000  H
  H477     1.0000 0.35089  0.00025  0.29768  Biso   1.000  H
  H478     1.0000 0.67763  0.71292  0.97906  Biso   1.000  H
  H479     1.0000 0.47824  0.79920  0.30100  Biso   1.000  H
  H480     1.0000 0.83657  0.01768  0.22615  Biso   1.000  H
  N1       1.0000 0.70704  0.15100  0.48601  Biso   1.000  N
  N2       1.0000 0.50914  0.64417  0.20559  Biso   1.000  N
  N3       1.0000 0.19260  0.46802  0.68738  Biso   1.000  N
  N4       1.0000 0.21005  0.14955  0.02197  Biso   1.000  N
  N5       1.0000 0.99605  0.66652  0.34541  Biso   1.000  N
  N6       1.0000 0.68911  0.50309  0.83774  Biso   1.000  N
  N7       1.0000 0.84098  0.65316  0.50878  Biso   1.000  N
  N8       1.0000 0.03620  0.16120  0.18661  Biso   1.000  N
  N9       1.0000 0.35291  0.98307  0.70032  Biso   1.000  N
  N10      1.0000 0.33563  0.64275  0.02954  Biso   1.000  N
  N11      1.0000 0.52232  0.14586  0.32242  Biso   1.000  N
  N12      1.0000 0.84993  0.98408  0.82861  Biso   1.000  N
  N13      1.0000 0.33891  0.81079  0.52327  Biso   1.000  N
  N14      1.0000 0.50718  0.31786  0.82123  Biso   1.000  N
  N15      1.0000 0.84980  0.48515  0.34125  Biso   1.000  N
  N16      1.0000 0.83868  0.80529  0.00116  Biso   1.000  N
  N17      1.0000 0.02777  0.29505  0.68282  Biso   1.000  N
  N18      1.0000 0.35153  0.45934  0.19609  Biso   1.000  N
  N19      1.0000 0.20794  0.31075  0.50155  Biso   1.000  N
  N20      1.0000 0.02591  0.79643  0.84510  Biso   1.000  N
  N21      1.0000 0.69270  0.96761  0.32481  Biso   1.000  N
  N22      1.0000 0.71331  0.31273  0.00686  Biso   1.000  N
  N23      1.0000 0.53021  0.81629  0.70181  Biso   1.000  N
  N24      1.0000 0.19832  0.97954  0.19728  Biso   1.000  N
  N25      1.0000 0.84144  0.49380  0.68980  Biso   1.000  N
  N26      1.0000 0.69186  0.79856  0.51101  Biso   1.000  N
  N27      1.0000 0.50708  0.66878  0.85213  Biso   1.000  N
  N28      1.0000 0.33664  0.47602  0.84616  Biso   1.000  N
  N29      1.0000 0.19218  0.79668  0.02373  Biso   1.000  N
  N30      1.0000 0.02359  0.64535  0.69834  Biso   1.000  N
  N31      1.0000 0.70439  0.99751  0.67793  Biso   1.000  N
  N32      1.0000 0.85407  0.29654  0.49561  Biso   1.000  N
  N33      1.0000 0.02775  0.15161  0.83302  Biso   1.000  N
  N34      1.0000 0.20002  0.97215  0.84112  Biso   1.000  N
  N35      1.0000 0.36226  0.29343  0.01317  Biso   1.000  N
  N36      1.0000 0.50937  0.16881  0.67344  Biso   1.000  N
  N37      1.0000 0.20173  0.48231  0.33693  Biso   1.000  N
  N38      1.0000 0.35577  0.16461  0.49673  Biso   1.000  N
  N39      1.0000 0.53596  0.29248  0.17420  Biso   1.000  N
  N40      1.0000 0.70517  0.48098  0.19057  Biso   1.000  N
  N41      1.0000 0.85875  0.16182  0.99186  Biso   1.000  N
  N42      1.0000 0.03453  0.31155  0.33151  Biso   1.000  N
  N43      1.0000 0.34470  0.97809  0.34830  Biso   1.000  N
  N44      1.0000 0.19194  0.66803  0.53731  Biso   1.000  N
  N45      1.0000 0.98929  0.81033  0.19245  Biso   1.000  N
  N46      1.0000 0.84448  0.98400  0.18019  Biso   1.000  N
  N47      1.0000 0.68249  0.66359  0.00315  Biso   1.000  N
  N48      1.0000 0.51595  0.79220  0.34909  Biso   1.000  N
  O1       1.0000 0.36700  0.51169  0.01256  Biso   1.000  O
  O2       1.0000 0.03104  0.31997  0.54810  Biso   1.000  O
  O3       1.0000 0.56074  0.97820  0.35257  Biso   1.000  O
  O4       1.0000 0.86453  0.51958  0.51324  Biso   1.000  O
  O5       1.0000 0.53008  0.32430  0.95296  Biso   1.000  O
  O6       1.0000 0.06517  0.97216  0.17081  Biso   1.000  O
  O7       1.0000 0.18481  0.01650  0.01759  Biso   1.000  O
  O8       1.0000 0.51516  0.82655  0.56633  Biso   1.000  O
  O9       1.0000 0.98480  0.48271  0.36060  Biso   1.000  O
  O10      1.0000 0.67936  0.01926  0.49946  Biso   1.000  O
  O11      1.0000 0.02068  0.82424  0.97775  Biso   1.000  O
  O12      1.0000 0.48328  0.46556  0.16999  Biso   1.000  O
  O13      1.0000 0.68394  0.44559  0.01867  Biso   1.000  O
  O14      1.0000 0.01811  0.64389  0.47742  Biso   1.000  O
  O15      1.0000 0.48482  0.98678  0.67588  Biso   1.000  O
  O16      1.0000 0.18001  0.44514  0.50711  Biso   1.000  O
  O17      1.0000 0.51559  0.63658  0.06972  Biso   1.000  O
  O18      1.0000 0.98377  0.96913  0.85180  Biso   1.000  O
  O19      1.0000 0.86318  0.94112  0.00582  Biso   1.000  O
  O20      1.0000 0.52780  0.13983  0.45583  Biso   1.000  O
  O21      1.0000 0.05631  0.46804  0.66467  Biso   1.000  O
  O22      1.0000 0.36323  0.94556  0.52258  Biso   1.000  O
  O23      1.0000 0.02991  0.13672  0.04972  Biso   1.000  O
  O24      1.0000 0.55431  0.48725  0.85718  Biso   1.000  O
  O25      1.0000 0.98040  0.99073  0.17012  Biso   1.000  O
  O26      1.0000 0.18180  0.93215  0.02214  Biso   1.000  O
  O27      1.0000 0.04186  0.13182  0.96509  Biso   1.000  O
  O28      1.0000 0.47907  0.96601  0.35978  Biso   1.000  O
  O29      1.0000 0.67771  0.93510  0.51181  Biso   1.000  O
  O30      1.0000 0.52670  0.13820  0.54015  Biso   1.000  O
  O31      1.0000 0.56862  0.47335  0.17157  Biso   1.000  O
  O32      1.0000 0.36942  0.42860  0.02324  Biso   1.000  O
  O33      1.0000 0.50732  0.64276  0.98171  Biso   1.000  O
  O34      1.0000 0.06800  0.50102  0.36045  Biso   1.000  O
  O35      1.0000 0.87030  0.43140  0.51428  Biso   1.000  O
  O36      1.0000 0.01686  0.63426  0.56347  Biso   1.000  O
  O37      1.0000 0.06389  0.97343  0.85700  Biso   1.000  O
  O38      1.0000 0.87739  0.02427  0.01071  Biso   1.000  O
  O39      1.0000 0.00751  0.82616  0.06165  Biso   1.000  O
  O40      1.0000 0.56526  0.99589  0.66395  Biso   1.000  O
  O41      1.0000 0.37064  0.02959  0.52290  Biso   1.000  O
  O42      1.0000 0.51711  0.82314  0.48164  Biso   1.000  O
  O43      1.0000 0.47276  0.49446  0.86558  Biso   1.000  O
  O44      1.0000 0.66721  0.52680  0.01014  Biso   1.000  O
  O45      1.0000 0.53739  0.31974  0.03746  Biso   1.000  O
  O46      1.0000 0.97494  0.47978  0.66854  Biso   1.000  O
  O47      1.0000 0.17251  0.53010  0.51627  Biso   1.000  O
  O48      1.0000 0.03593  0.32311  0.46517  Biso   1.000  O
  O49      1.0000 0.01704  0.94187  0.17086  Biso   1.000  O
  O50      1.0000 0.18295  0.97222  0.97890  Biso   1.000  O
  O51      1.0000 0.99337  0.13756  0.99752  Biso   1.000  O
  O52      1.0000 0.52612  0.93014  0.35822  Biso   1.000  O
  O53      1.0000 0.68363  0.98360  0.54156  Biso   1.000  O
  O54      1.0000 0.48898  0.13688  0.49581  Biso   1.000  O
  O55      1.0000 0.53161  0.42846  0.16498  Biso   1.000  O
  O56      1.0000 0.36400  0.46453  0.97645  Biso   1.000  O
  O57      1.0000 0.55112  0.64417  0.01968  Biso   1.000  O
  O58      1.0000 0.03567  0.44813  0.36008  Biso   1.000  O
  O59      1.0000 0.86270  0.47518  0.55840  Biso   1.000  O
  O60      1.0000 0.06012  0.64727  0.52162  Biso   1.000  O
  O61      1.0000 0.02115  0.01722  0.85329  Biso   1.000  O
  O62      1.0000 0.86589  0.98257  0.04856  Biso   1.000  O
  O63      1.0000 0.05743  0.82431  0.02487  Biso   1.000  O
  O64      1.0000 0.52116  0.03354  0.66804  Biso   1.000  O
  O65      1.0000 0.36991  0.98375  0.48267  Biso   1.000  O
  O66      1.0000 0.55727  0.82372  0.52527  Biso   1.000  O
  O67      1.0000 0.51538  0.53252  0.86595  Biso   1.000  O
  O68      1.0000 0.67826  0.49059  0.05571  Biso   1.000  O
  O69      1.0000 0.49306  0.32248  0.99826  Biso   1.000  O
  O70      1.0000 0.01801  0.51445  0.66925  Biso   1.000  O
  O71      1.0000 0.18148  0.49226  0.47080  Biso   1.000  O
  O72      1.0000 0.98879  0.32504  0.50061  Biso   1.000  O
  O73      1.0000 0.01059  0.43077  0.66366  Biso   1.000  O
  O74      1.0000 0.67712  0.97295  0.46007  Biso   1.000  O
  O75      1.0000 0.47155  0.63244  0.03063  Biso   1.000  O
  O76      1.0000 0.50588  0.45101  0.85608  Biso   1.000  O
  O77      1.0000 0.18253  0.97687  0.06110  Biso   1.000  O
  O78      1.0000 0.97797  0.63629  0.52198  Biso   1.000  O
  O79      1.0000 0.53103  0.94871  0.67436  Biso   1.000  O
  O80      1.0000 0.86683  0.47326  0.47441  Biso   1.000  O
  O81      1.0000 0.07620  0.13623  0.01505  Biso   1.000  O
  O82      1.0000 0.02955  0.93358  0.85859  Biso   1.000  O
  O83      1.0000 0.36911  0.47558  0.06093  Biso   1.000  O
  O84      1.0000 0.57109  0.14116  0.50014  Biso   1.000  O
  O85      1.0000 0.01510  0.53325  0.35838  Biso   1.000  O
  O86      1.0000 0.36966  0.98504  0.56528  Biso   1.000  O
  O87      1.0000 0.57808  0.32782  0.99681  Biso   1.000  O
  O88      1.0000 0.52216  0.51050  0.17107  Biso   1.000  O
  O89      1.0000 0.86996  0.98245  0.96480  Biso   1.000  O
  O90      1.0000 0.07365  0.32406  0.51252  Biso   1.000  O
  O91      1.0000 0.50825  0.01402  0.35513  Biso   1.000  O
  O92      1.0000 0.17788  0.48318  0.55218  Biso   1.000  O
  O93      1.0000 0.97114  0.82489  0.01237  Biso   1.000  O
  O94      1.0000 0.03227  0.02306  0.16632  Biso   1.000  O
  O95      1.0000 0.67281  0.48819  0.97157  Biso   1.000  O
  O96      1.0000 0.47448  0.82617  0.52385  Biso   1.000  O
  O97      1.0000 0.49055  0.18560  0.48815  Biso   1.000  O
  O98      1.0000 0.53201  0.42443  0.21454  Biso   1.000  O
  O99      1.0000 0.22894  0.49600  0.47332  Biso   1.000  O
  O100     1.0000 0.99489  0.18612  0.99738  Biso   1.000  O
  O101     1.0000 0.03530  0.44982  0.31088  Biso   1.000  O
  O102     1.0000 0.72673  0.49345  0.05410  Biso   1.000  O
  O103     1.0000 0.05602  0.69607  0.52479  Biso   1.000  O
  O104     1.0000 0.00926  0.94439  0.21897  Biso   1.000  O
  O105     1.0000 0.32112  0.98615  0.48412  Biso   1.000  O
  O106     1.0000 0.54871  0.69340  0.02668  Biso   1.000  O
  O107     1.0000 0.52379  0.92511  0.31038  Biso   1.000  O
  O108     1.0000 0.81726  0.98705  0.04459  Biso   1.000  O
  O109     1.0000 0.55527  0.77498  0.52867  Biso   1.000  O
  O110     1.0000 0.51630  0.53479  0.81620  Biso   1.000  O
  O111     1.0000 0.81421  0.47891  0.55450  Biso   1.000  O
  O112     1.0000 0.05739  0.77648  0.02583  Biso   1.000  O
  O113     1.0000 0.02448  0.51020  0.71845  Biso   1.000  O
  O114     1.0000 0.31469  0.46043  0.97836  Biso   1.000  O
  O115     1.0000 0.99020  0.27506  0.50358  Biso   1.000  O
  O116     1.0000 0.02567  0.01475  0.80457  Biso   1.000  O
  O117     1.0000 0.73144  0.98429  0.54121  Biso   1.000  O
  O118     1.0000 0.49868  0.27484  0.00231  Biso   1.000  O
  O119     1.0000 0.52544  0.03926  0.71508  Biso   1.000  O
  O120     1.0000 0.23043  0.96330  0.97398  Biso   1.000  O
  O121     1.0000 0.05776  0.46191  0.71334  Biso   1.000  O
  O122     1.0000 0.72803  0.01895  0.49234  Biso   1.000  O
  O123     1.0000 0.51197  0.68520  0.07337  Biso   1.000  O
  O124     1.0000 0.55226  0.49280  0.80825  Biso   1.000  O
  O125     1.0000 0.23271  0.01090  0.01660  Biso   1.000  O
  O126     1.0000 0.01422  0.69153  0.47887  Biso   1.000  O
  O127     1.0000 0.48909  0.99374  0.72516  Biso   1.000  O
  O128     1.0000 0.81585  0.51844  0.51289  Biso   1.000  O
  O129     1.0000 0.02667  0.18529  0.04934  Biso   1.000  O
  O130     1.0000 0.98358  0.97335  0.80488  Biso   1.000  O
  O131     1.0000 0.31892  0.50794  0.01605  Biso   1.000  O
  O132     1.0000 0.52859  0.18936  0.45249  Biso   1.000  O
  O133     1.0000 0.98401  0.48202  0.31105  Biso   1.000  O
  O134     1.0000 0.31581  0.95068  0.52787  Biso   1.000  O
  O135     1.0000 0.53039  0.27450  0.95346  Biso   1.000  O
  O136     1.0000 0.48702  0.46176  0.21875  Biso   1.000  O
  O137     1.0000 0.81430  0.94605  0.00200  Biso   1.000  O
  O138     1.0000 0.03358  0.27214  0.54369  Biso   1.000  O
  O139     1.0000 0.55748  0.97208  0.30536  Biso   1.000  O
  O140     1.0000 0.22854  0.44848  0.50573  Biso   1.000  O
  O141     1.0000 0.02314  0.77466  0.97701  Biso   1.000  O
  O142     1.0000 0.06105  0.97837  0.21866  Biso   1.000  O
  O143     1.0000 0.73131  0.44849  0.01569  Biso   1.000  O
  O144     1.0000 0.51427  0.77753  0.56844  Biso   1.000  O
  O145     1.0000 0.56986  0.46602  0.22009  Biso   1.000  O
  O146     1.0000 0.22265  0.53120  0.52226  Biso   1.000  O
  O147     1.0000 0.53090  0.18685  0.53822  Biso   1.000  O
  O148     1.0000 0.06629  0.49628  0.31086  Biso   1.000  O
  O149     1.0000 0.71590  0.53066  0.01099  Biso   1.000  O
  O150     1.0000 0.04382  0.18132  0.96713  Biso   1.000  O
  O151     1.0000 0.97786  0.99330  0.21870  Biso   1.000  O
  O152     1.0000 0.32080  0.03323  0.52115  Biso   1.000  O
  O153     1.0000 0.01138  0.68214  0.56578  Biso   1.000  O
  O154     1.0000 0.47577  0.95917  0.31101  Biso   1.000  O
  O155     1.0000 0.82846  0.02817  0.00396  Biso   1.000  O
  O156     1.0000 0.49988  0.69180  0.98783  Biso   1.000  O
  O157     1.0000 0.46942  0.50392  0.81796  Biso   1.000  O
  O158     1.0000 0.82176  0.43224  0.51237  Biso   1.000  O
  O159     1.0000 0.51755  0.77331  0.48353  Biso   1.000  O
  O160     1.0000 0.97563  0.48268  0.71824  Biso   1.000  O
  O161     1.0000 0.31958  0.42446  0.02453  Biso   1.000  O
  O162     1.0000 0.01213  0.77676  0.06166  Biso   1.000  O
  O163     1.0000 0.06885  0.97134  0.80877  Biso   1.000  O
  O164     1.0000 0.72718  0.93466  0.50595  Biso   1.000  O
  O165     1.0000 0.03614  0.27427  0.46134  Biso   1.000  O
  O166     1.0000 0.57211  0.00026  0.71201  Biso   1.000  O
  O167     1.0000 0.23063  0.92783  0.01950  Biso   1.000  O
  O168     1.0000 0.54593  0.27277  0.03656  Biso   1.000  O
  O169     1.0000 0.02834  0.02731  0.21562  Biso   1.000  O
  O170     1.0000 0.23102  0.97242  0.06214  Biso   1.000  O
  O171     1.0000 0.07727  0.18454  0.01667  Biso   1.000  O
  O172     1.0000 0.51270  0.00936  0.30557  Biso   1.000  O
  O173     1.0000 0.72694  0.96980  0.46065  Biso   1.000  O
  O174     1.0000 0.57403  0.18996  0.49594  Biso   1.000  O
  O175     1.0000 0.52710  0.50721  0.21960  Biso   1.000  O
  O176     1.0000 0.31964  0.47006  0.06200  Biso   1.000  O
  O177     1.0000 0.46509  0.68154  0.03555  Biso   1.000  O
  O178     1.0000 0.01436  0.53346  0.31033  Biso   1.000  O
  O179     1.0000 0.81773  0.47373  0.47243  Biso   1.000  O
  O180     1.0000 0.97235  0.68364  0.51741  Biso   1.000  O
  O181     1.0000 0.02685  0.92964  0.81046  Biso   1.000  O
  O182     1.0000 0.82235  0.98932  0.96269  Biso   1.000  O
  O183     1.0000 0.97518  0.77466  0.01272  Biso   1.000  O
  O184     1.0000 0.53461  0.95496  0.72190  Biso   1.000  O
  O185     1.0000 0.32189  0.99249  0.56738  Biso   1.000  O
  O186     1.0000 0.47354  0.77642  0.52540  Biso   1.000  O
  O187     1.0000 0.50520  0.45676  0.80784  Biso   1.000  O
  O188     1.0000 0.72217  0.48529  0.96937  Biso   1.000  O
  O189     1.0000 0.58021  0.27921  0.98921  Biso   1.000  O
  O190     1.0000 0.00980  0.42966  0.71277  Biso   1.000  O
  O191     1.0000 0.22718  0.48309  0.55646  Biso   1.000  O
  O192     1.0000 0.07599  0.27585  0.50681  Biso   1.000  O
