data_image0
_cell_length_a       47.1797
_cell_length_b       46.4933
_cell_length_c       46.589
_cell_angle_alpha    90
_cell_angle_beta     90
_cell_angle_gamma    90

_symmetry_space_group_name_H-M    "P 1"
_symmetry_int_tables_number       1

loop_
  _symmetry_equiv_pos_as_xyz
  'x, y, z'

loop_
  _atom_site_label
  _atom_site_occupancy
  _atom_site_fract_x
  _atom_site_fract_y
  _atom_site_fract_z
  _atom_site_thermal_displace_type
  _atom_site_B_iso_or_equiv
  _atom_site_type_symbol
  C1       1.0000 0.54942  0.98009  0.36106  Biso   1.000  C
  C2       1.0000 0.30714  0.52392  0.04237  Biso   1.000  C
  C3       1.0000 0.98800  0.29733  0.59236  Biso   1.000  C
  C4       1.0000 0.05031  0.98028  0.22463  Biso   1.000  C
  C5       1.0000 0.81345  0.53335  0.54828  Biso   1.000  C
  C6       1.0000 0.50923  0.29870  0.98436  Biso   1.000  C
  C7       1.0000 0.93875  0.48611  0.36505  Biso   1.000  C
  C8       1.0000 0.18251  0.02320  0.05238  Biso   1.000  C
  C9       1.0000 0.48443  0.79805  0.59819  Biso   1.000  C
  C10      1.0000 0.43749  0.47188  0.22135  Biso   1.000  C
  C11      1.0000 0.67885  0.03747  0.53864  Biso   1.000  C
  C12      1.0000 0.98326  0.79952  0.98805  Biso   1.000  C
  C13      1.0000 0.44497  0.98940  0.71997  Biso   1.000  C
  C14      1.0000 0.67995  0.43636  0.03174  Biso   1.000  C
  C15      1.0000 0.99499  0.65586  0.49269  Biso   1.000  C
  C16      1.0000 0.94569  0.97056  0.85782  Biso   1.000  C
  C17      1.0000 0.17720  0.42767  0.54722  Biso   1.000  C
  C18      1.0000 0.48954  0.66410  0.10365  Biso   1.000  C
  C19      1.0000 0.05085  0.46499  0.71945  Biso   1.000  C
  C20      1.0000 0.80650  0.93672  0.03033  Biso   1.000  C
  C21      1.0000 0.48678  0.16306  0.48018  Biso   1.000  C
  C22      1.0000 0.55037  0.47680  0.85999  Biso   1.000  C
  C23      1.0000 0.31390  0.92749  0.54684  Biso   1.000  C
  C24      1.0000 0.01783  0.16097  0.09194  Biso   1.000  C
  C25      1.0000 0.31478  0.03398  0.53716  Biso   1.000  C
  C26      1.0000 0.49097  0.30046  0.09261  Biso   1.000  C
  C27      1.0000 0.04694  0.47403  0.36522  Biso   1.000  C
  C28      1.0000 0.81929  0.04660  0.04058  Biso   1.000  C
  C29      1.0000 0.00622  0.29863  0.48509  Biso   1.000  C
  C30      1.0000 0.54875  0.47873  0.22454  Biso   1.000  C
  C31      1.0000 0.17759  0.53419  0.52725  Biso   1.000  C
  C32      1.0000 0.98055  0.79864  0.09885  Biso   1.000  C
  C33      1.0000 0.43983  0.97644  0.36711  Biso   1.000  C
  C34      1.0000 0.67172  0.54184  0.05271  Biso   1.000  C
  C35      1.0000 0.50441  0.79322  0.49175  Biso   1.000  C
  C36      1.0000 0.94009  0.97483  0.21734  Biso   1.000  C
  C37      1.0000 0.67702  0.92662  0.54108  Biso   1.000  C
  C38      1.0000 0.47035  0.66015  0.99762  Biso   1.000  C
  C39      1.0000 0.94251  0.47822  0.72233  Biso   1.000  C
  C40      1.0000 0.17582  0.91399  0.04293  Biso   1.000  C
  C41      1.0000 0.99687  0.65269  0.60064  Biso   1.000  C
  C42      1.0000 0.44079  0.47833  0.85933  Biso   1.000  C
  C43      1.0000 0.81645  0.42688  0.53370  Biso   1.000  C
  C44      1.0000 0.99569  0.15897  0.98592  Biso   1.000  C
  C45      1.0000 0.55122  0.97489  0.72117  Biso   1.000  C
  C46      1.0000 0.31378  0.41725  0.03482  Biso   1.000  C
  C47      1.0000 0.49754  0.16516  0.58783  Biso   1.000  C
  C48      1.0000 0.05314  0.98529  0.86265  Biso   1.000  C
  C49      1.0000 0.99036  0.03016  0.86138  Biso   1.000  C
  C50      1.0000 0.81108  0.98651  0.09020  Biso   1.000  C
  C51      1.0000 0.03421  0.79570  0.04737  Biso   1.000  C
  C52      1.0000 0.50694  0.03498  0.71495  Biso   1.000  C
  C53      1.0000 0.31468  0.97011  0.49397  Biso   1.000  C
  C54      1.0000 0.54652  0.80174  0.56200  Biso   1.000  C
  C55      1.0000 0.49562  0.53524  0.86580  Biso   1.000  C
  C56      1.0000 0.67722  0.47595  0.09751  Biso   1.000  C
  C57      1.0000 0.44899  0.29690  0.02985  Biso   1.000  C
  C58      1.0000 0.00018  0.52516  0.72495  Biso   1.000  C
  C59      1.0000 0.17881  0.46988  0.48743  Biso   1.000  C
  C60      1.0000 0.94362  0.29635  0.53431  Biso   1.000  C
  C61      1.0000 0.99750  0.92371  0.22627  Biso   1.000  C
  C62      1.0000 0.18092  0.97231  0.99151  Biso   1.000  C
  C63      1.0000 0.95315  0.16564  0.04936  Biso   1.000  C
  C64      1.0000 0.49265  0.92325  0.36778  Biso   1.000  C
  C65      1.0000 0.67485  0.98305  0.59160  Biso   1.000  C
  C66      1.0000 0.43759  0.16393  0.54080  Biso   1.000  C
  C67      1.0000 0.49511  0.42262  0.22348  Biso   1.000  C
  C68      1.0000 0.30589  0.47313  0.98149  Biso   1.000  C
  C69      1.0000 0.53235  0.66105  0.03632  Biso   1.000  C
  C70      1.0000 0.98792  0.42587  0.36393  Biso   1.000  C
  C71      1.0000 0.81449  0.47571  0.59789  Biso   1.000  C
  C72      1.0000 0.05262  0.65690  0.54304  Biso   1.000  C
  C73      1.0000 0.99926  0.53186  0.36478  Biso   1.000  C
  C74      1.0000 0.31735  0.98703  0.59866  Biso   1.000  C
  C75      1.0000 0.55818  0.30668  0.04680  Biso   1.000  C
  C76      1.0000 0.49455  0.53245  0.22537  Biso   1.000  C
  C77      1.0000 0.81645  0.99612  0.98304  Biso   1.000  C
  C78      1.0000 0.04981  0.29966  0.54518  Biso   1.000  C
  C79      1.0000 0.49407  0.03075  0.36455  Biso   1.000  C
  C80      1.0000 0.17653  0.48945  0.59343  Biso   1.000  C
  C81      1.0000 0.92407  0.80610  0.04460  Biso   1.000  C
  C82      1.0000 0.99548  0.03475  0.21821  Biso   1.000  C
  C83      1.0000 0.67158  0.49818  0.98948  Biso   1.000  C
  C84      1.0000 0.44184  0.80063  0.53277  Biso   1.000  C
  C85      1.0000 0.98890  0.41780  0.72188  Biso   1.000  C
  C86      1.0000 0.67494  0.98238  0.48443  Biso   1.000  C
  C87      1.0000 0.42652  0.65497  0.05953  Biso   1.000  C
  C88      1.0000 0.49381  0.42565  0.86008  Biso   1.000  C
  C89      1.0000 0.17852  0.96534  0.10282  Biso   1.000  C
  C90      1.0000 0.93924  0.65989  0.54992  Biso   1.000  C
  C91      1.0000 0.49373  0.92696  0.72343  Biso   1.000  C
  C92      1.0000 0.81060  0.48600  0.48900  Biso   1.000  C
  C93      1.0000 0.06024  0.15551  0.02994  Biso   1.000  C
  C94      1.0000 0.00816  0.92345  0.86062  Biso   1.000  C
  C95      1.0000 0.30824  0.46800  0.09150  Biso   1.000  C
  C96      1.0000 0.54862  0.16699  0.53078  Biso   1.000  C
  C97      1.0000 0.67631  0.06996  0.53968  Biso   1.000  C
  C98      1.0000 0.49296  0.66232  0.13443  Biso   1.000  C
  C99      1.0000 0.08155  0.45782  0.71928  Biso   1.000  C
  C100     1.0000 0.18358  0.05468  0.05266  Biso   1.000  C
  C101     1.0000 0.99199  0.65777  0.46014  Biso   1.000  C
  C102     1.0000 0.58201  0.47947  0.86151  Biso   1.000  C
  C103     1.0000 0.81292  0.56601  0.54896  Biso   1.000  C
  C104     1.0000 0.01766  0.16033  0.12475  Biso   1.000  C
  C105     1.0000 0.41347  0.99614  0.72102  Biso   1.000  C
  C106     1.0000 0.30766  0.55573  0.04496  Biso   1.000  C
  C107     1.0000 0.48789  0.16383  0.44823  Biso   1.000  C
  C108     1.0000 0.91353  0.97248  0.85797  Biso   1.000  C
  C109     1.0000 0.31423  0.89672  0.53698  Biso   1.000  C
  C110     1.0000 0.50537  0.29893  0.95311  Biso   1.000  C
  C111     1.0000 0.90856  0.49585  0.36413  Biso   1.000  C
  C112     1.0000 0.80252  0.90494  0.02892  Biso   1.000  C
  C113     1.0000 0.98691  0.29435  0.62435  Biso   1.000  C
  C114     1.0000 0.40608  0.46623  0.21821  Biso   1.000  C
  C115     1.0000 0.17484  0.39561  0.54564  Biso   1.000  C
  C116     1.0000 0.98093  0.80087  0.95500  Biso   1.000  C
  C117     1.0000 0.58086  0.98393  0.35823  Biso   1.000  C
  C118     1.0000 0.68069  0.40548  0.02573  Biso   1.000  C
  C119     1.0000 0.48337  0.79839  0.63280  Biso   1.000  C
  C120     1.0000 0.08148  0.97218  0.22764  Biso   1.000  C
  C121     1.0000 0.81031  0.98540  0.12269  Biso   1.000  C
  C122     1.0000 0.06578  0.79350  0.05012  Biso   1.000  C
  C123     1.0000 0.98297  0.06166  0.86190  Biso   1.000  C
  C124     1.0000 0.31462  0.95966  0.46351  Biso   1.000  C
  C125     1.0000 0.57891  0.80266  0.56751  Biso   1.000  C
  C126     1.0000 0.51138  0.06843  0.71276  Biso   1.000  C
  C127     1.0000 0.67733  0.47053  0.12844  Biso   1.000  C
  C128     1.0000 0.41817  0.29546  0.02358  Biso   1.000  C
  C129     1.0000 0.49076  0.56831  0.86741  Biso   1.000  C
  C130     1.0000 0.17775  0.46818  0.45602  Biso   1.000  C
  C131     1.0000 0.91138  0.29710  0.53665  Biso   1.000  C
  C132     1.0000 0.99807  0.55765  0.72622  Biso   1.000  C
  C133     1.0000 0.18016  0.97760  0.95948  Biso   1.000  C
  C134     1.0000 0.92220  0.17051  0.04826  Biso   1.000  C
  C135     1.0000 0.99617  0.89274  0.22486  Biso   1.000  C
  C136     1.0000 0.67600  0.98080  0.62354  Biso   1.000  C
  C137     1.0000 0.40576  0.16174  0.54566  Biso   1.000  C
  C138     1.0000 0.48666  0.89186  0.36929  Biso   1.000  C
  C139     1.0000 0.30882  0.47336  0.95022  Biso   1.000  C
  C140     1.0000 0.56428  0.66218  0.03711  Biso   1.000  C
  C141     1.0000 0.49286  0.39147  0.22306  Biso   1.000  C
  C142     1.0000 0.81418  0.47829  0.62994  Biso   1.000  C
  C143     1.0000 0.08343  0.65853  0.53785  Biso   1.000  C
  C144     1.0000 0.98555  0.39362  0.36167  Biso   1.000  C
  C145     1.0000 0.30877  0.46972  0.12460  Biso   1.000  C
  C146     1.0000 0.08203  0.29966  0.54708  Biso   1.000  C
  C147     1.0000 0.49499  0.06175  0.36117  Biso   1.000  C
  C148     1.0000 0.81116  0.49203  0.45629  Biso   1.000  C
  C149     1.0000 0.58950  0.30907  0.05110  Biso   1.000  C
  C150     1.0000 0.99647  0.06635  0.21998  Biso   1.000  C
  C151     1.0000 0.17879  0.96168  0.13378  Biso   1.000  C
  C152     1.0000 0.40962  0.80045  0.52745  Biso   1.000  C
  C153     1.0000 0.00625  0.56395  0.36440  Biso   1.000  C
  C154     1.0000 0.67565  0.98662  0.45260  Biso   1.000  C
  C155     1.0000 0.89254  0.80708  0.04452  Biso   1.000  C
  C156     1.0000 0.48889  0.56320  0.22706  Biso   1.000  C
  C157     1.0000 0.67217  0.49359  0.95799  Biso   1.000  C
  C158     1.0000 0.90758  0.66076  0.54993  Biso   1.000  C
  C159     1.0000 0.49139  0.89471  0.72684  Biso   1.000  C
  C160     1.0000 0.17725  0.48778  0.62485  Biso   1.000  C
  C161     1.0000 0.39377  0.65510  0.05684  Biso   1.000  C
  C162     1.0000 0.00566  0.89118  0.86028  Biso   1.000  C
  C163     1.0000 0.81860  0.99840  0.95076  Biso   1.000  C
  C164     1.0000 0.58098  0.16586  0.53260  Biso   1.000  C
  C165     1.0000 0.98105  0.38539  0.72195  Biso   1.000  C
  C166     1.0000 0.31773  0.98532  0.63072  Biso   1.000  C
  C167     1.0000 0.09237  0.15202  0.03235  Biso   1.000  C
  C168     1.0000 0.48889  0.39438  0.85837  Biso   1.000  C
  C169     1.0000 0.98427  0.79758  0.13054  Biso   1.000  C
  C170     1.0000 0.08443  0.99290  0.86571  Biso   1.000  C
  C171     1.0000 0.82164  0.07874  0.04237  Biso   1.000  C
  C172     1.0000 0.49963  0.79312  0.45994  Biso   1.000  C
  C173     1.0000 0.58278  0.97349  0.72245  Biso   1.000  C
  C174     1.0000 0.31262  0.06543  0.53845  Biso   1.000  C
  C175     1.0000 0.48694  0.30101  0.12469  Biso   1.000  C
  C176     1.0000 0.40837  0.47046  0.85775  Biso   1.000  C
  C177     1.0000 0.66762  0.57430  0.05383  Biso   1.000  C
  C178     1.0000 0.00350  0.29828  0.45244  Biso   1.000  C
  C179     1.0000 0.91102  0.48397  0.72345  Biso   1.000  C
  C180     1.0000 0.17780  0.56475  0.51570  Biso   1.000  C
  C181     1.0000 0.99453  0.15788  0.95496  Biso   1.000  C
  C182     1.0000 0.90760  0.97331  0.21751  Biso   1.000  C
  C183     1.0000 0.17042  0.88304  0.05152  Biso   1.000  C
  C184     1.0000 0.50023  0.16533  0.62027  Biso   1.000  C
  C185     1.0000 0.40717  0.97344  0.36842  Biso   1.000  C
  C186     1.0000 0.67656  0.89571  0.54522  Biso   1.000  C
  C187     1.0000 0.46942  0.66169  0.96329  Biso   1.000  C
  C188     1.0000 0.58109  0.48089  0.22539  Biso   1.000  C
  C189     1.0000 0.31706  0.38462  0.03287  Biso   1.000  C
  C190     1.0000 0.99535  0.65285  0.63297  Biso   1.000  C
  C191     1.0000 0.07920  0.47367  0.36246  Biso   1.000  C
  C192     1.0000 0.81492  0.39501  0.52945  Biso   1.000  C
  C193     1.0000 0.84610  0.99276  0.93493  Biso   1.000  C
  C194     1.0000 0.87811  0.83521  0.04519  Biso   1.000  C
  C195     1.0000 0.00025  0.87727  0.88729  Biso   1.000  C
  C196     1.0000 0.34426  0.98687  0.64590  Biso   1.000  C
  C197     1.0000 0.39314  0.82860  0.53009  Biso   1.000  C
  C198     1.0000 0.48823  0.87889  0.70060  Biso   1.000  C
  C199     1.0000 0.64387  0.49100  0.94289  Biso   1.000  C
  C200     1.0000 0.60487  0.33564  0.04193  Biso   1.000  C
  C201     1.0000 0.49074  0.37854  0.88559  Biso   1.000  C
  C202     1.0000 0.15097  0.48136  0.64198  Biso   1.000  C
  C203     1.0000 0.09812  0.32684  0.54981  Biso   1.000  C
  C204     1.0000 0.98162  0.36929  0.69478  Biso   1.000  C
  C205     1.0000 0.15139  0.96249  0.15041  Biso   1.000  C
  C206     1.0000 0.10555  0.12417  0.03937  Biso   1.000  C
  C207     1.0000 0.00290  0.08186  0.19173  Biso   1.000  C
  C208     1.0000 0.64871  0.98437  0.43676  Biso   1.000  C
  C209     1.0000 0.59503  0.13763  0.53332  Biso   1.000  C
  C210     1.0000 0.49427  0.07947  0.38655  Biso   1.000  C
  C211     1.0000 0.33623  0.46870  0.13913  Biso   1.000  C
  C212     1.0000 0.37924  0.62737  0.05292  Biso   1.000  C
  C213     1.0000 0.49054  0.58077  0.20011  Biso   1.000  C
  C214     1.0000 0.83776  0.49669  0.43996  Biso   1.000  C
  C215     1.0000 0.89115  0.63389  0.54410  Biso   1.000  C
  C216     1.0000 0.00170  0.58093  0.39073  Biso   1.000  C
  C217     1.0000 0.09833  0.98847  0.89363  Biso   1.000  C
  C218     1.0000 0.85025  0.09230  0.04440  Biso   1.000  C
  C219     1.0000 0.98636  0.82520  0.14536  Biso   1.000  C
  C220     1.0000 0.59887  0.97670  0.69539  Biso   1.000  C
  C221     1.0000 0.33977  0.08208  0.54040  Biso   1.000  C
  C222     1.0000 0.49757  0.82210  0.44479  Biso   1.000  C
  C223     1.0000 0.39084  0.47159  0.88368  Biso   1.000  C
  C224     1.0000 0.63807  0.58781  0.05418  Biso   1.000  C
  C225     1.0000 0.49016  0.32683  0.14260  Biso   1.000  C
  C226     1.0000 0.89605  0.48499  0.69602  Biso   1.000  C
  C227     1.0000 0.15087  0.58173  0.51709  Biso   1.000  C
  C228     1.0000 0.00063  0.32616  0.43735  Biso   1.000  C
  C229     1.0000 0.89107  0.97437  0.19009  Biso   1.000  C
  C230     1.0000 0.14093  0.86953  0.05234  Biso   1.000  C
  C231     1.0000 0.99099  0.12982  0.93952  Biso   1.000  C
  C232     1.0000 0.39021  0.96888  0.39467  Biso   1.000  C
  C233     1.0000 0.64902  0.88184  0.55418  Biso   1.000  C
  C234     1.0000 0.50568  0.13795  0.63372  Biso   1.000  C
  C235     1.0000 0.59772  0.47691  0.19868  Biso   1.000  C
  C236     1.0000 0.34578  0.37155  0.02897  Biso   1.000  C
  C237     1.0000 0.47341  0.63607  0.94725  Biso   1.000  C
  C238     1.0000 0.09502  0.47705  0.38923  Biso   1.000  C
  C239     1.0000 0.84084  0.37757  0.52923  Biso   1.000  C
  C240     1.0000 0.99658  0.62562  0.64838  Biso   1.000  C
  C241     1.0000 0.59648  0.48255  0.88857  Biso   1.000  C
  C242     1.0000 0.83943  0.58328  0.55066  Biso   1.000  C
  C243     1.0000 0.48824  0.82513  0.64824  Biso   1.000  C
  C244     1.0000 0.09848  0.46430  0.69212  Biso   1.000  C
  C245     1.0000 0.33457  0.57321  0.04665  Biso   1.000  C
  C246     1.0000 0.98736  0.82771  0.93871  Biso   1.000  C
  C247     1.0000 0.89616  0.97853  0.88503  Biso   1.000  C
  C248     1.0000 0.64832  0.08562  0.53882  Biso   1.000  C
  C249     1.0000 0.98234  0.32023  0.64173  Biso   1.000  C
  C250     1.0000 0.39653  0.99466  0.69442  Biso   1.000  C
  C251     1.0000 0.15518  0.07155  0.05201  Biso   1.000  C
  C252     1.0000 0.50022  0.32799  0.93836  Biso   1.000  C
  C253     1.0000 0.38920  0.46753  0.19223  Biso   1.000  C
  C254     1.0000 0.14858  0.37897  0.54981  Biso   1.000  C
  C255     1.0000 0.49007  0.13511  0.43542  Biso   1.000  C
  C256     1.0000 0.89089  0.49635  0.38923  Biso   1.000  C
  C257     1.0000 0.65437  0.38865  0.02990  Biso   1.000  C
  C258     1.0000 0.01113  0.13415  0.14138  Biso   1.000  C
  C259     1.0000 0.09949  0.97173  0.20140  Biso   1.000  C
  C260     1.0000 0.34249  0.88094  0.53507  Biso   1.000  C
  C261     1.0000 0.99557  0.62993  0.44210  Biso   1.000  C
  C262     1.0000 0.59731  0.98346  0.38479  Biso   1.000  C
  C263     1.0000 0.82873  0.88677  0.03041  Biso   1.000  C
  C264     1.0000 0.49432  0.63519  0.15044  Biso   1.000  C
  C265     1.0000 0.98418  0.07823  0.88877  Biso   1.000  C
  C266     1.0000 0.83941  0.98464  0.13771  Biso   1.000  C
  C267     1.0000 0.08318  0.81978  0.04739  Biso   1.000  C
  C268     1.0000 0.50974  0.08405  0.68595  Biso   1.000  C
  C269     1.0000 0.34030  0.96268  0.44612  Biso   1.000  C
  C270     1.0000 0.59516  0.82952  0.56522  Biso   1.000  C
  C271     1.0000 0.48728  0.58375  0.89570  Biso   1.000  C
  C272     1.0000 0.65044  0.47016  0.14486  Biso   1.000  C
  C273     1.0000 0.40013  0.32348  0.02694  Biso   1.000  C
  C274     1.0000 0.99905  0.57430  0.69931  Biso   1.000  C
  C275     1.0000 0.15081  0.47253  0.44151  Biso   1.000  C
  C276     1.0000 0.89571  0.32380  0.53398  Biso   1.000  C
  C277     1.0000 0.99557  0.87694  0.19747  Biso   1.000  C
  C278     1.0000 0.15240  0.98034  0.94483  Biso   1.000  C
  C279     1.0000 0.90486  0.14418  0.04756  Biso   1.000  C
  C280     1.0000 0.48830  0.87661  0.39682  Biso   1.000  C
  C281     1.0000 0.64904  0.97683  0.64177  Biso   1.000  C
  C282     1.0000 0.39136  0.13352  0.54628  Biso   1.000  C
  C283     1.0000 0.49263  0.37678  0.19581  Biso   1.000  C
  C284     1.0000 0.33608  0.47694  0.93432  Biso   1.000  C
  C285     1.0000 0.58040  0.63500  0.04080  Biso   1.000  C
  C286     1.0000 0.98768  0.37730  0.38816  Biso   1.000  C
  C287     1.0000 0.84144  0.47981  0.64494  Biso   1.000  C
  C288     1.0000 0.09894  0.63017  0.53304  Biso   1.000  C
  C289     1.0000 0.33944  0.84872  0.53009  Biso   1.000  C
  C290     1.0000 0.49798  0.32655  0.90622  Biso   1.000  C
  C291     1.0000 0.85917  0.49769  0.38691  Biso   1.000  C
  C292     1.0000 0.82662  0.85620  0.03698  Biso   1.000  C
  C293     1.0000 0.98618  0.31746  0.67305  Biso   1.000  C
  C294     1.0000 0.35718  0.46379  0.19140  Biso   1.000  C
  C295     1.0000 0.14981  0.34705  0.55065  Biso   1.000  C
  C296     1.0000 0.99148  0.82532  0.90808  Biso   1.000  C
  C297     1.0000 0.62806  0.98468  0.38273  Biso   1.000  C
  C298     1.0000 0.65471  0.35768  0.03165  Biso   1.000  C
  C299     1.0000 0.48794  0.82675  0.67877  Biso   1.000  C
  C300     1.0000 0.12972  0.96652  0.20224  Biso   1.000  C
  C301     1.0000 0.64888  0.11734  0.53880  Biso   1.000  C
  C302     1.0000 0.49275  0.63489  0.18127  Biso   1.000  C
  C303     1.0000 0.12939  0.46204  0.69202  Biso   1.000  C
  C304     1.0000 0.15831  0.10310  0.04837  Biso   1.000  C
  C305     1.0000 0.99978  0.63372  0.41154  Biso   1.000  C
  C306     1.0000 0.62816  0.48573  0.88841  Biso   1.000  C
  C307     1.0000 0.83778  0.61394  0.54984  Biso   1.000  C
  C308     1.0000 0.00805  0.13675  0.17352  Biso   1.000  C
  C309     1.0000 0.36479  0.99369  0.69864  Biso   1.000  C
  C310     1.0000 0.32948  0.60393  0.05001  Biso   1.000  C
  C311     1.0000 0.48722  0.13255  0.40469  Biso   1.000  C
  C312     1.0000 0.86456  0.98162  0.88312  Biso   1.000  C
  C313     1.0000 0.14891  0.47207  0.41003  Biso   1.000  C
  C314     1.0000 0.36040  0.13468  0.54612  Biso   1.000  C
  C315     1.0000 0.48867  0.34609  0.19631  Biso   1.000  C
  C316     1.0000 0.65152  0.47775  0.17531  Biso   1.000  C
  C317     1.0000 0.87375  0.14495  0.04419  Biso   1.000  C
  C318     1.0000 0.99023  0.34610  0.38652  Biso   1.000  C
  C319     1.0000 0.33708  0.96193  0.41479  Biso   1.000  C
  C320     1.0000 0.12986  0.63406  0.52543  Biso   1.000  C
  C321     1.0000 0.99662  0.84593  0.19823  Biso   1.000  C
  C322     1.0000 0.83911  0.98056  0.16977  Biso   1.000  C
  C323     1.0000 0.61078  0.63813  0.04309  Biso   1.000  C
  C324     1.0000 0.48473  0.84576  0.39441  Biso   1.000  C
  C325     1.0000 0.84213  0.48246  0.67661  Biso   1.000  C
  C326     1.0000 0.62779  0.82721  0.56162  Biso   1.000  C
  C327     1.0000 0.48191  0.61495  0.89480  Biso   1.000  C
  C328     1.0000 0.33633  0.47366  0.90362  Biso   1.000  C
  C329     1.0000 0.11368  0.81828  0.05304  Biso   1.000  C
  C330     1.0000 0.99798  0.60509  0.70174  Biso   1.000  C
  C331     1.0000 0.65108  0.97592  0.67301  Biso   1.000  C
  C332     1.0000 0.86325  0.32461  0.53223  Biso   1.000  C
  C333     1.0000 0.98600  0.10899  0.88682  Biso   1.000  C
  C334     1.0000 0.15219  0.98172  0.91342  Biso   1.000  C
  C335     1.0000 0.36935  0.31859  0.02713  Biso   1.000  C
  C336     1.0000 0.50934  0.11476  0.68682  Biso   1.000  C
  C337     1.0000 0.64702  0.49071  0.91089  Biso   1.000  C
  C338     1.0000 0.85938  0.63582  0.54796  Biso   1.000  C
  C339     1.0000 0.48821  0.84736  0.70047  Biso   1.000  C
  C340     1.0000 0.15174  0.46833  0.67193  Biso   1.000  C
  C341     1.0000 0.34820  0.62676  0.05341  Biso   1.000  C
  C342     1.0000 0.99722  0.84555  0.88677  Biso   1.000  C
  C343     1.0000 0.84378  0.98715  0.90404  Biso   1.000  C
  C344     1.0000 0.62610  0.13854  0.53771  Biso   1.000  C
  C345     1.0000 0.98269  0.33796  0.69536  Biso   1.000  C
  C346     1.0000 0.34253  0.99073  0.67764  Biso   1.000  C
  C347     1.0000 0.13710  0.12388  0.04353  Biso   1.000  C
  C348     1.0000 0.49461  0.34806  0.88453  Biso   1.000  C
  C349     1.0000 0.33549  0.46398  0.17025  Biso   1.000  C
  C350     1.0000 0.12900  0.32487  0.54995  Biso   1.000  C
  C351     1.0000 0.48897  0.11030  0.38327  Biso   1.000  C
  C352     1.0000 0.83663  0.49782  0.40896  Biso   1.000  C
  C353     1.0000 0.63494  0.33491  0.03637  Biso   1.000  C
  C354     1.0000 0.00398  0.11377  0.19451  Biso   1.000  C
  C355     1.0000 0.15127  0.96337  0.18125  Biso   1.000  C
  C356     1.0000 0.36160  0.82696  0.52806  Biso   1.000  C
  C357     1.0000 0.00268  0.61220  0.38983  Biso   1.000  C
  C358     1.0000 0.65018  0.98669  0.40478  Biso   1.000  C
  C359     1.0000 0.84721  0.83431  0.04267  Biso   1.000  C
  C360     1.0000 0.49116  0.61312  0.20241  Biso   1.000  C
  C361     1.0000 0.98805  0.13088  0.90845  Biso   1.000  C
  C362     1.0000 0.85953  0.97911  0.19115  Biso   1.000  C
  C363     1.0000 0.13729  0.83781  0.05425  Biso   1.000  C
  C364     1.0000 0.50613  0.13700  0.66508  Biso   1.000  C
  C365     1.0000 0.35828  0.96568  0.39329  Biso   1.000  C
  C366     1.0000 0.64950  0.84942  0.55809  Biso   1.000  C
  C367     1.0000 0.47564  0.63681  0.91637  Biso   1.000  C
  C368     1.0000 0.62874  0.47997  0.19721  Biso   1.000  C
  C369     1.0000 0.34688  0.33936  0.02950  Biso   1.000  C
  C370     1.0000 0.99661  0.62662  0.67982  Biso   1.000  C
  C371     1.0000 0.12704  0.47380  0.38847  Biso   1.000  C
  C372     1.0000 0.84063  0.34678  0.53085  Biso   1.000  C
  C373     1.0000 0.99142  0.82372  0.17721  Biso   1.000  C
  C374     1.0000 0.12973  0.98543  0.89280  Biso   1.000  C
  C375     1.0000 0.85048  0.12437  0.04501  Biso   1.000  C
  C376     1.0000 0.48993  0.82283  0.41472  Biso   1.000  C
  C377     1.0000 0.62987  0.97539  0.69557  Biso   1.000  C
  C378     1.0000 0.33859  0.11386  0.54400  Biso   1.000  C
  C379     1.0000 0.48834  0.32444  0.17406  Biso   1.000  C
  C380     1.0000 0.35953  0.47065  0.88266  Biso   1.000  C
  C381     1.0000 0.63449  0.61925  0.04802  Biso   1.000  C
  C382     1.0000 0.99561  0.32545  0.40738  Biso   1.000  C
  C383     1.0000 0.86440  0.48411  0.69801  Biso   1.000  C
  C384     1.0000 0.15238  0.61336  0.52033  Biso   1.000  C
  C385     1.0000 0.18608  0.11757  0.04749  Biso   1.000  C
  C386     1.0000 0.00994  0.16271  0.18935  Biso   1.000  C
  C387     1.0000 0.14295  0.96327  0.23035  Biso   1.000  C
  C388     1.0000 0.67489  0.13251  0.54364  Biso   1.000  C
  C389     1.0000 0.48472  0.15857  0.38721  Biso   1.000  C
  C390     1.0000 0.64420  0.98729  0.35602  Biso   1.000  C
  C391     1.0000 0.30112  0.61707  0.05241  Biso   1.000  C
  C392     1.0000 0.49206  0.66116  0.19709  Biso   1.000  C
  C393     1.0000 0.34096  0.45908  0.21867  Biso   1.000  C
  C394     1.0000 0.81050  0.62868  0.55336  Biso   1.000  C
  C395     1.0000 0.00191  0.66026  0.39591  Biso   1.000  C
  C396     1.0000 0.84303  0.50020  0.35941  Biso   1.000  C
  C397     1.0000 0.79849  0.84063  0.03590  Biso   1.000  C
  C398     1.0000 0.98873  0.79845  0.89280  Biso   1.000  C
  C399     1.0000 0.84856  0.97840  0.85570  Biso   1.000  C
  C400     1.0000 0.31349  0.83334  0.52513  Biso   1.000  C
  C401     1.0000 0.48542  0.80041  0.69459  Biso   1.000  C
  C402     1.0000 0.34989  0.99523  0.72569  Biso   1.000  C
  C403     1.0000 0.68151  0.34134  0.02689  Biso   1.000  C
  C404     1.0000 0.50058  0.29809  0.88984  Biso   1.000  C
  C405     1.0000 0.64625  0.48397  0.86181  Biso   1.000  C
  C406     1.0000 0.17777  0.33310  0.55031  Biso   1.000  C
  C407     1.0000 0.98864  0.29049  0.68691  Biso   1.000  C
  C408     1.0000 0.14482  0.45277  0.71721  Biso   1.000  C
  C409     1.0000 0.14560  0.98859  0.86611  Biso   1.000  C
  C410     1.0000 0.82524  0.14260  0.04521  Biso   1.000  C
  C411     1.0000 0.99518  0.79754  0.19210  Biso   1.000  C
  C412     1.0000 0.64616  0.97514  0.72156  Biso   1.000  C
  C413     1.0000 0.31183  0.12775  0.54776  Biso   1.000  C
  C414     1.0000 0.48374  0.79690  0.39951  Biso   1.000  C
  C415     1.0000 0.34610  0.46313  0.85527  Biso   1.000  C
  C416     1.0000 0.65985  0.63685  0.04556  Biso   1.000  C
  C417     1.0000 0.48467  0.29659  0.18915  Biso   1.000  C
  C418     1.0000 0.84876  0.48478  0.72565  Biso   1.000  C
  C419     1.0000 0.17867  0.63024  0.52045  Biso   1.000  C
  C420     1.0000 0.99592  0.29887  0.39104  Biso   1.000  C
  C421     1.0000 0.84364  0.98073  0.21829  Biso   1.000  C
  C422     1.0000 0.16338  0.81976  0.05566  Biso   1.000  C
  C423     1.0000 0.98693  0.15777  0.89234  Biso   1.000  C
  C424     1.0000 0.34264  0.96272  0.36558  Biso   1.000  C
  C425     1.0000 0.67565  0.83276  0.55710  Biso   1.000  C
  C426     1.0000 0.50509  0.16367  0.68235  Biso   1.000  C
  C427     1.0000 0.64520  0.48786  0.22341  Biso   1.000  C
  C428     1.0000 0.31948  0.32200  0.03088  Biso   1.000  C
  C429     1.0000 0.47177  0.66224  0.90104  Biso   1.000  C
  C430     1.0000 0.14200  0.47135  0.36098  Biso   1.000  C
  C431     1.0000 0.81317  0.33222  0.53400  Biso   1.000  C
  C432     1.0000 0.99083  0.65384  0.69461  Biso   1.000  C
  C433     1.0000 0.98396  0.12423  0.85936  Biso   1.000  C
  C434     1.0000 0.81242  0.98256  0.18601  Biso   1.000  C
  C435     1.0000 0.12714  0.79004  0.05626  Biso   1.000  C
  C436     1.0000 0.50884  0.13026  0.71368  Biso   1.000  C
  C437     1.0000 0.31075  0.95721  0.40025  Biso   1.000  C
  C438     1.0000 0.64373  0.80068  0.56294  Biso   1.000  C
  C439     1.0000 0.47834  0.62985  0.86748  Biso   1.000  C
  C440     1.0000 0.67823  0.48441  0.19060  Biso   1.000  C
  C441     1.0000 0.35362  0.29174  0.02754  Biso   1.000  C
  C442     1.0000 0.99578  0.62012  0.72877  Biso   1.000  C
  C443     1.0000 0.17547  0.46762  0.39266  Biso   1.000  C
  C444     1.0000 0.84630  0.29834  0.53724  Biso   1.000  C
  C445     1.0000 0.00051  0.83092  0.22434  Biso   1.000  C
  C446     1.0000 0.17936  0.98240  0.89711  Biso   1.000  C
  C447     1.0000 0.85932  0.17211  0.04214  Biso   1.000  C
  C448     1.0000 0.47721  0.83127  0.36826  Biso   1.000  C
  C449     1.0000 0.67870  0.97802  0.68741  Biso   1.000  C
  C450     1.0000 0.34407  0.16112  0.54774  Biso   1.000  C
  C451     1.0000 0.48749  0.32919  0.22220  Biso   1.000  C
  C452     1.0000 0.31055  0.46724  0.88684  Biso   1.000  C
  C453     1.0000 0.62485  0.66577  0.03823  Biso   1.000  C
  C454     1.0000 0.99038  0.33113  0.35875  Biso   1.000  C
  C455     1.0000 0.81549  0.48185  0.69308  Biso   1.000  C
  C456     1.0000 0.14605  0.66152  0.52705  Biso   1.000  C
  C457     1.0000 0.00798  0.62787  0.36318  Biso   1.000  C
  C458     1.0000 0.31646  0.99246  0.69379  Biso   1.000  C
  C459     1.0000 0.65277  0.30856  0.03863  Biso   1.000  C
  C460     1.0000 0.48767  0.62812  0.22921  Biso   1.000  C
  C461     1.0000 0.81759  0.98923  0.88975  Biso   1.000  C
  C462     1.0000 0.14445  0.29819  0.55022  Biso   1.000  C
  C463     1.0000 0.48936  0.12399  0.35598  Biso   1.000  C
  C464     1.0000 0.17819  0.46333  0.68612  Biso   1.000  C
  C465     1.0000 0.83048  0.80725  0.04310  Biso   1.000  C
  C466     1.0000 0.00055  0.12944  0.22154  Biso   1.000  C
  C467     1.0000 0.67652  0.49066  0.89662  Biso   1.000  C
  C468     1.0000 0.34543  0.80012  0.52231  Biso   1.000  C
  C469     1.0000 0.98239  0.32197  0.72075  Biso   1.000  C
  C470     1.0000 0.67639  0.99129  0.38900  Biso   1.000  C
  C471     1.0000 0.33166  0.65162  0.05498  Biso   1.000  C
  C472     1.0000 0.49669  0.33238  0.85720  Biso   1.000  C
  C473     1.0000 0.17804  0.95888  0.19795  Biso   1.000  C
  C474     1.0000 0.84405  0.66188  0.55512  Biso   1.000  C
  C475     1.0000 0.48788  0.83211  0.72708  Biso   1.000  C
  C476     1.0000 0.81033  0.49831  0.39299  Biso   1.000  C
  C477     1.0000 0.15464  0.15082  0.04059  Biso   1.000  C
  C478     1.0000 0.99962  0.82958  0.86050  Biso   1.000  C
  C479     1.0000 0.30750  0.46135  0.18551  Biso   1.000  C
  C480     1.0000 0.64201  0.16578  0.54179  Biso   1.000  C
  C481     1.0000 0.36192  0.77364  0.51915  Biso   1.000  C
  C482     1.0000 0.49046  0.34824  0.83054  Biso   1.000  C
  C483     1.0000 0.78249  0.49383  0.40867  Biso   1.000  C
  C484     1.0000 0.84571  0.77921  0.04196  Biso   1.000  C
  C485     1.0000 0.97935  0.33902  0.74897  Biso   1.000  C
  C486     1.0000 0.27995  0.46400  0.17014  Biso   1.000  C
  C487     1.0000 0.12846  0.27129  0.54801  Biso   1.000  C
  C488     1.0000 0.00735  0.84423  0.83313  Biso   1.000  C
  C489     1.0000 0.70327  0.99626  0.40471  Biso   1.000  C
  C490     1.0000 0.63832  0.28269  0.04939  Biso   1.000  C
  C491     1.0000 0.49285  0.84727  0.75480  Biso   1.000  C
  C492     1.0000 0.20683  0.95484  0.18219  Biso   1.000  C
  C493     1.0000 0.62637  0.19358  0.54222  Biso   1.000  C
  C494     1.0000 0.48629  0.61018  0.25668  Biso   1.000  C
  C495     1.0000 0.20405  0.47147  0.66967  Biso   1.000  C
  C496     1.0000 0.14078  0.17917  0.03478  Biso   1.000  C
  C497     1.0000 0.01412  0.61095  0.33640  Biso   1.000  C
  C498     1.0000 0.70417  0.48986  0.91223  Biso   1.000  C
  C499     1.0000 0.86005  0.68898  0.56256  Biso   1.000  C
  C500     1.0000 0.99541  0.11343  0.24929  Biso   1.000  C
  C501     1.0000 0.28875  0.98798  0.67794  Biso   1.000  C
  C502     1.0000 0.34533  0.67939  0.05878  Biso   1.000  C
  C503     1.0000 0.49266  0.10787  0.32955  Biso   1.000  C
  C504     1.0000 0.79084  0.99765  0.90520  Biso   1.000  C
  C505     1.0000 0.63158  0.48190  0.83462  Biso   1.000  C
  C506     1.0000 0.78339  0.61210  0.55436  Biso   1.000  C
  C507     1.0000 0.47837  0.77227  0.68020  Biso   1.000  C
  C508     1.0000 0.12761  0.44357  0.74176  Biso   1.000  C
  C509     1.0000 0.27592  0.59963  0.04676  Biso   1.000  C
  C510     1.0000 0.97874  0.77227  0.90845  Biso   1.000  C
  C511     1.0000 0.86615  0.97323  0.82974  Biso   1.000  C
  C512     1.0000 0.70282  0.11767  0.54477  Biso   1.000  C
  C513     1.0000 0.99085  0.26422  0.66938  Biso   1.000  C
  C514     1.0000 0.36617  0.99743  0.75160  Biso   1.000  C
  C515     1.0000 0.21306  0.10186  0.04882  Biso   1.000  C
  C516     1.0000 0.50458  0.27074  0.90420  Biso   1.000  C
  C517     1.0000 0.35715  0.45532  0.24397  Biso   1.000  C
  C518     1.0000 0.20452  0.34852  0.54809  Biso   1.000  C
  C519     1.0000 0.48509  0.18646  0.40112  Biso   1.000  C
  C520     1.0000 0.86331  0.50378  0.33449  Biso   1.000  C
  C521     1.0000 0.70598  0.35782  0.01591  Biso   1.000  C
  C522     1.0000 0.01728  0.18861  0.17289  Biso   1.000  C
  C523     1.0000 0.12592  0.96364  0.25775  Biso   1.000  C
  C524     1.0000 0.28691  0.84926  0.52483  Biso   1.000  C
  C525     1.0000 0.00042  0.68695  0.41387  Biso   1.000  C
  C526     1.0000 0.62734  0.98605  0.32840  Biso   1.000  C
  C527     1.0000 0.77234  0.85912  0.03331  Biso   1.000  C
  C528     1.0000 0.49060  0.69059  0.18241  Biso   1.000  C
  C529     1.0000 0.79604  0.12702  0.04585  Biso   1.000  C
  C530     1.0000 0.99031  0.76918  0.17751  Biso   1.000  C
  C531     1.0000 0.13136  0.99565  0.83884  Biso   1.000  C
  C532     1.0000 0.28371  0.11134  0.54807  Biso   1.000  C
  C533     1.0000 0.48313  0.76889  0.41315  Biso   1.000  C
  C534     1.0000 0.62984  0.97206  0.74908  Biso   1.000  C
  C535     1.0000 0.68849  0.62346  0.04698  Biso   1.000  C
  C536     1.0000 0.47956  0.27101  0.17006  Biso   1.000  C
  C537     1.0000 0.36389  0.46005  0.82859  Biso   1.000  C
  C538     1.0000 0.20516  0.61283  0.51581  Biso   1.000  C
  C539     1.0000 0.00242  0.27132  0.40589  Biso   1.000  C
  C540     1.0000 0.86429  0.48518  0.75244  Biso   1.000  C
  C541     1.0000 0.19172  0.83226  0.05612  Biso   1.000  C
  C542     1.0000 0.99186  0.18532  0.90761  Biso   1.000  C
  C543     1.0000 0.85898  0.97776  0.24513  Biso   1.000  C
  C544     1.0000 0.70179  0.84834  0.54936  Biso   1.000  C
  C545     1.0000 0.49885  0.19146  0.66852  Biso   1.000  C
  C546     1.0000 0.35950  0.96854  0.34003  Biso   1.000  C
  C547     1.0000 0.29136  0.33640  0.03580  Biso   1.000  C
  C548     1.0000 0.46537  0.68969  0.91690  Biso   1.000  C
  C549     1.0000 0.62870  0.49178  0.25094  Biso   1.000  C
  C550     1.0000 0.78653  0.34873  0.53059  Biso   1.000  C
  C551     1.0000 0.98636  0.68012  0.67948  Biso   1.000  C
  C552     1.0000 0.12480  0.46925  0.33447  Biso   1.000  C
  C553     1.0000 0.97829  0.10719  0.83137  Biso   1.000  C
  C554     1.0000 0.78413  0.98587  0.17122  Biso   1.000  C
  C555     1.0000 0.11042  0.76360  0.05524  Biso   1.000  C
  C556     1.0000 0.51224  0.11517  0.74026  Biso   1.000  C
  C557     1.0000 0.28495  0.95066  0.41686  Biso   1.000  C
  C558     1.0000 0.62806  0.77401  0.56831  Biso   1.000  C
  C559     1.0000 0.47858  0.61380  0.84074  Biso   1.000  C
  C560     1.0000 0.70663  0.47928  0.17469  Biso   1.000  C
  C561     1.0000 0.37173  0.26649  0.02410  Biso   1.000  C
  C562     1.0000 0.99381  0.60382  0.75555  Biso   1.000  C
  C563     1.0000 0.20263  0.46051  0.40710  Biso   1.000  C
  C564     1.0000 0.86166  0.27126  0.54272  Biso   1.000  C
  C565     1.0000 0.00098  0.84569  0.25183  Biso   1.000  C
  C566     1.0000 0.20822  0.97848  0.91238  Biso   1.000  C
  C567     1.0000 0.87779  0.19910  0.04167  Biso   1.000  C
  C568     1.0000 0.47102  0.84809  0.34201  Biso   1.000  C
  C569     1.0000 0.70523  0.98080  0.66974  Biso   1.000  C
  C570     1.0000 0.35859  0.18904  0.54678  Biso   1.000  C
  C571     1.0000 0.48816  0.34405  0.24942  Biso   1.000  C
  C572     1.0000 0.28369  0.46529  0.90277  Biso   1.000  C
  C573     1.0000 0.60877  0.69091  0.03428  Biso   1.000  C
  C574     1.0000 0.98770  0.34718  0.33189  Biso   1.000  C
  C575     1.0000 0.78780  0.48101  0.67714  Biso   1.000  C
  C576     1.0000 0.12991  0.68856  0.53279  Biso   1.000  C
  C577     1.0000 0.28091  0.46816  0.13946  Biso   1.000  C
  C578     1.0000 0.09695  0.27212  0.54823  Biso   1.000  C
  C579     1.0000 0.49266  0.07575  0.33171  Biso   1.000  C
  C580     1.0000 0.78382  0.49194  0.44115  Biso   1.000  C
  C581     1.0000 0.60735  0.28476  0.05884  Biso   1.000  C
  C582     1.0000 0.99284  0.08099  0.24759  Biso   1.000  C
  C583     1.0000 0.20651  0.95647  0.15048  Biso   1.000  C
  C584     1.0000 0.39337  0.77387  0.52168  Biso   1.000  C
  C585     1.0000 0.01234  0.57957  0.33725  Biso   1.000  C
  C586     1.0000 0.70257  0.99380  0.43648  Biso   1.000  C
  C587     1.0000 0.87742  0.77927  0.04227  Biso   1.000  C
  C588     1.0000 0.48463  0.57853  0.25456  Biso   1.000  C
  C589     1.0000 0.70103  0.49323  0.94380  Biso   1.000  C
  C590     1.0000 0.89227  0.68806  0.55879  Biso   1.000  C
  C591     1.0000 0.49199  0.87864  0.75455  Biso   1.000  C
  C592     1.0000 0.20385  0.48394  0.63991  Biso   1.000  C
  C593     1.0000 0.37722  0.68124  0.05913  Biso   1.000  C
  C594     1.0000 0.00976  0.87499  0.83389  Biso   1.000  C
  C595     1.0000 0.79108  0.00376  0.93582  Biso   1.000  C
  C596     1.0000 0.59602  0.19371  0.53601  Biso   1.000  C
  C597     1.0000 0.97720  0.37039  0.74887  Biso   1.000  C
  C598     1.0000 0.29010  0.98498  0.64641  Biso   1.000  C
  C599     1.0000 0.10971  0.17872  0.02767  Biso   1.000  C
  C600     1.0000 0.48665  0.37925  0.83143  Biso   1.000  C
  C601     1.0000 0.20727  0.97731  0.94320  Biso   1.000  C
  C602     1.0000 0.90912  0.19941  0.04683  Biso   1.000  C
  C603     1.0000 0.99795  0.87746  0.25128  Biso   1.000  C
  C604     1.0000 0.70488  0.98103  0.63870  Biso   1.000  C
  C605     1.0000 0.38976  0.18935  0.54616  Biso   1.000  C
  C606     1.0000 0.47758  0.87891  0.34268  Biso   1.000  C
  C607     1.0000 0.28335  0.46706  0.93435  Biso   1.000  C
  C608     1.0000 0.57736  0.69054  0.03401  Biso   1.000  C
  C609     1.0000 0.49209  0.37550  0.24954  Biso   1.000  C
  C610     1.0000 0.78654  0.47691  0.64653  Biso   1.000  C
  C611     1.0000 0.09931  0.68601  0.53840  Biso   1.000  C
  C612     1.0000 0.98463  0.37804  0.33404  Biso   1.000  C
  C613     1.0000 0.78376  0.98645  0.14075  Biso   1.000  C
  C614     1.0000 0.07976  0.76530  0.05293  Biso   1.000  C
  C615     1.0000 0.97867  0.07527  0.83418  Biso   1.000  C
  C616     1.0000 0.28760  0.95172  0.44816  Biso   1.000  C
  C617     1.0000 0.59555  0.77487  0.57096  Biso   1.000  C
  C618     1.0000 0.51550  0.08449  0.73986  Biso   1.000  C
  C619     1.0000 0.70564  0.46996  0.14370  Biso   1.000  C
  C620     1.0000 0.40346  0.26776  0.02163  Biso   1.000  C
  C621     1.0000 0.48637  0.58410  0.83932  Biso   1.000  C
  C622     1.0000 0.20417  0.46129  0.43819  Biso   1.000  C
  C623     1.0000 0.89340  0.27054  0.54184  Biso   1.000  C
  C624     1.0000 0.99702  0.57290  0.75400  Biso   1.000  C
  C625     1.0000 0.99469  0.18476  0.93890  Biso   1.000  C
  C626     1.0000 0.89101  0.97467  0.24469  Biso   1.000  C
  C627     1.0000 0.19464  0.86316  0.05387  Biso   1.000  C
  C628     1.0000 0.49797  0.19209  0.63674  Biso   1.000  C
  C629     1.0000 0.39152  0.97407  0.34195  Biso   1.000  C
  C630     1.0000 0.70262  0.87856  0.54265  Biso   1.000  C
  C631     1.0000 0.46603  0.68958  0.94819  Biso   1.000  C
  C632     1.0000 0.59766  0.48757  0.25115  Biso   1.000  C
  C633     1.0000 0.29016  0.36869  0.03719  Biso   1.000  C
  C634     1.0000 0.98701  0.68025  0.64860  Biso   1.000  C
  C635     1.0000 0.09360  0.47278  0.33516  Biso   1.000  C
  C636     1.0000 0.78748  0.38033  0.52787  Biso   1.000  C
  C637     1.0000 0.98593  0.77033  0.14555  Biso   1.000  C
  C638     1.0000 0.10048  0.99808  0.83779  Biso   1.000  C
  C639     1.0000 0.79518  0.09594  0.04429  Biso   1.000  C
  C640     1.0000 0.48998  0.76736  0.44498  Biso   1.000  C
  C641     1.0000 0.59882  0.97084  0.74852  Biso   1.000  C
  C642     1.0000 0.28473  0.08026  0.54224  Biso   1.000  C
  C643     1.0000 0.48033  0.27311  0.13806  Biso   1.000  C
  C644     1.0000 0.39515  0.46296  0.83026  Biso   1.000  C
  C645     1.0000 0.69257  0.59286  0.05082  Biso   1.000  C
  C646     1.0000 0.00515  0.27123  0.43677  Biso   1.000  C
  C647     1.0000 0.89527  0.48524  0.75278  Biso   1.000  C
  C648     1.0000 0.20522  0.58088  0.51294  Biso   1.000  C
  C649     1.0000 0.99592  0.68611  0.44571  Biso   1.000  C
  C650     1.0000 0.39803  0.99987  0.75014  Biso   1.000  C
  C651     1.0000 0.70682  0.39001  0.01503  Biso   1.000  C
  C652     1.0000 0.49237  0.68942  0.15127  Biso   1.000  C
  C653     1.0000 0.89697  0.97028  0.83022  Biso   1.000  C
  C654     1.0000 0.20255  0.38053  0.54470  Biso   1.000  C
  C655     1.0000 0.48607  0.19012  0.43208  Biso   1.000  C
  C656     1.0000 0.09607  0.44643  0.74413  Biso   1.000  C
  C657     1.0000 0.77417  0.89041  0.02932  Biso   1.000  C
  C658     1.0000 0.02224  0.18697  0.14184  Biso   1.000  C
  C659     1.0000 0.59932  0.47866  0.83456  Biso   1.000  C
  C660     1.0000 0.28749  0.88016  0.53226  Biso   1.000  C
  C661     1.0000 0.99070  0.26680  0.63828  Biso   1.000  C
  C662     1.0000 0.59629  0.98440  0.33005  Biso   1.000  C
  C663     1.0000 0.27792  0.56881  0.04376  Biso   1.000  C
  C664     1.0000 0.50781  0.26973  0.93559  Biso   1.000  C
  C665     1.0000 0.09503  0.96941  0.25564  Biso   1.000  C
  C666     1.0000 0.78583  0.58120  0.55011  Biso   1.000  C
  C667     1.0000 0.47936  0.77146  0.64950  Biso   1.000  C
  C668     1.0000 0.89465  0.50005  0.33652  Biso   1.000  C
  C669     1.0000 0.21120  0.06933  0.05096  Biso   1.000  C
  C670     1.0000 0.97434  0.77463  0.93919  Biso   1.000  C
  C671     1.0000 0.38834  0.45951  0.24461  Biso   1.000  C
  C672     1.0000 0.70311  0.08616  0.54201  Biso   1.000  C
  C673     1.0000 0.19330  0.98703  0.84951  Biso   1.000  C
  C674     1.0000 0.81361  0.18801  0.03980  Biso   1.000  C
  C675     1.0000 0.99881  0.78444  0.23671  Biso   1.000  C
  C676     1.0000 0.69458  0.97837  0.73274  Biso   1.000  C
  C677     1.0000 0.29726  0.17481  0.55066  Biso   1.000  C
  C678     1.0000 0.47527  0.78579  0.35279  Biso   1.000  C
  C679     1.0000 0.29901  0.45717  0.84120  Biso   1.000  C
  C680     1.0000 0.67271  0.68249  0.03823  Biso   1.000  C
  C681     1.0000 0.48183  0.28270  0.23663  Biso   1.000  C
  C682     1.0000 0.80184  0.48544  0.74084  Biso   1.000  C
  C683     1.0000 0.19167  0.67674  0.52155  Biso   1.000  C
  C684     1.0000 0.99654  0.28328  0.34460  Biso   1.000  C
  C685     1.0000 0.79963  0.98371  0.23420  Biso   1.000  C
  C686     1.0000 0.17356  0.77238  0.05532  Biso   1.000  C
  C687     1.0000 0.98493  0.17155  0.84584  Biso   1.000  C
  C688     1.0000 0.29545  0.95697  0.35284  Biso   1.000  C
  C689     1.0000 0.69063  0.78698  0.56196  Biso   1.000  C
  C690     1.0000 0.50927  0.17758  0.73041  Biso   1.000  C
  C691     1.0000 0.69077  0.49460  0.23726  Biso   1.000  C
  C692     1.0000 0.30711  0.27529  0.02943  Biso   1.000  C
  C693     1.0000 0.47553  0.67708  0.85459  Biso   1.000  C
  C694     1.0000 0.18686  0.46373  0.34531  Biso   1.000  C
  C695     1.0000 0.79793  0.28626  0.53884  Biso   1.000  C
  C696     1.0000 0.99110  0.66704  0.74157  Biso   1.000  C
  C697     1.0000 0.69242  0.99184  0.34352  Biso   1.000  C
  C698     1.0000 0.28295  0.66359  0.05728  Biso   1.000  C
  C699     1.0000 0.98617  0.27439  0.73317  Biso   1.000  C
  C700     1.0000 0.19114  0.95878  0.24402  Biso   1.000  C
  C701     1.0000 0.79797  0.67700  0.55602  Biso   1.000  C
  C702     1.0000 0.49928  0.28730  0.84138  Biso   1.000  C
  C703     1.0000 0.79545  0.50177  0.34582  Biso   1.000  C
  C704     1.0000 0.20158  0.16301  0.04126  Biso   1.000  C
  C705     1.0000 0.48625  0.78466  0.74257  Biso   1.000  C
  C706     1.0000 0.29386  0.45509  0.23222  Biso   1.000  C
  C707     1.0000 0.68956  0.17991  0.54584  Biso   1.000  C
  C708     1.0000 0.99400  0.78188  0.84698  Biso   1.000  C
  C709     1.0000 0.30271  0.99570  0.74025  Biso   1.000  C
  C710     1.0000 0.69911  0.29437  0.03287  Biso   1.000  C
  C711     1.0000 0.00725  0.67574  0.35000  Biso   1.000  C
  C712     1.0000 0.80286  0.98254  0.84221  Biso   1.000  C
  C713     1.0000 0.19401  0.28732  0.55138  Biso   1.000  C
  C714     1.0000 0.48663  0.67414  0.24351  Biso   1.000  C
  C715     1.0000 0.19064  0.45259  0.73218  Biso   1.000  C
  C716     1.0000 0.78274  0.79424  0.03574  Biso   1.000  C
  C717     1.0000 0.48134  0.17146  0.34141  Biso   1.000  C
  C718     1.0000 0.69299  0.48857  0.84998  Biso   1.000  C
  C719     1.0000 0.29771  0.78886  0.51827  Biso   1.000  C
  C720     1.0000 0.00510  0.17630  0.23710  Biso   1.000  C
  C721     1.0000 0.48905  0.79135  0.32417  Biso   1.000  C
  C722     1.0000 0.30178  0.46965  0.81140  Biso   1.000  C
  C723     1.0000 0.77038  0.29450  0.55259  Biso   1.000  C
  C724     1.0000 0.97923  0.76008  0.23701  Biso   1.000  C
  C725     1.0000 0.77710  0.50474  0.73697  Biso   1.000  C
  C726     1.0000 0.27907  0.27723  0.01560  Biso   1.000  C
  C727     1.0000 0.98500  0.25352  0.34861  Biso   1.000  C
  C728     1.0000 0.22162  0.00065  0.85468  Biso   1.000  C
  C729     1.0000 0.72061  0.79197  0.57427  Biso   1.000  C
  C730     1.0000 0.46673  0.28846  0.26442  Biso   1.000  C
  C731     1.0000 0.72223  0.96421  0.72715  Biso   1.000  C
  C732     1.0000 0.19804  0.77362  0.03499  Biso   1.000  C
  C733     1.0000 0.49457  0.17438  0.75992  Biso   1.000  C
  C734     1.0000 0.68606  0.48221  0.26592  Biso   1.000  C
  C735     1.0000 0.18466  0.70424  0.50725  Biso   1.000  C
  C736     1.0000 0.96891  0.19859  0.85075  Biso   1.000  C
  C737     1.0000 0.20651  0.43843  0.34550  Biso   1.000  C
  C738     1.0000 0.69563  0.68409  0.06077  Biso   1.000  C
  C739     1.0000 0.01032  0.66304  0.76656  Biso   1.000  C
  C740     1.0000 0.77301  0.96630  0.23312  Biso   1.000  C
  C741     1.0000 0.27231  0.17167  0.53292  Biso   1.000  C
  C742     1.0000 0.49740  0.67548  0.83139  Biso   1.000  C
  C743     1.0000 0.30232  0.94530  0.32581  Biso   1.000  C
  C744     1.0000 0.81569  0.21719  0.05355  Biso   1.000  C
  C745     1.0000 0.01946  0.70547  0.35276  Biso   1.000  C
  C746     1.0000 0.27380  0.00740  0.73273  Biso   1.000  C
  C747     1.0000 0.72833  0.30234  0.04208  Biso   1.000  C
  C748     1.0000 0.50345  0.70250  0.24302  Biso   1.000  C
  C749     1.0000 0.80208  0.96052  0.81893  Biso   1.000  C
  C750     1.0000 0.22154  0.29128  0.56548  Biso   1.000  C
  C751     1.0000 0.49949  0.16987  0.31569  Biso   1.000  C
  C752     1.0000 0.22129  0.44463  0.72435  Biso   1.000  C
  C753     1.0000 0.75681  0.79754  0.01851  Biso   1.000  C
  C754     1.0000 0.01965  0.17056  0.26480  Biso   1.000  C
  C755     1.0000 0.69172  0.46966  0.82508  Biso   1.000  C
  C756     1.0000 0.27054  0.79042  0.53820  Biso   1.000  C
  C757     1.0000 0.97309  0.24589  0.73021  Biso   1.000  C
  C758     1.0000 0.69022  0.00771  0.31719  Biso   1.000  C
  C759     1.0000 0.25520  0.65698  0.07198  Biso   1.000  C
  C760     1.0000 0.51820  0.29300  0.81555  Biso   1.000  C
  C761     1.0000 0.21698  0.97562  0.24171  Biso   1.000  C
  C762     1.0000 0.80446  0.70633  0.54438  Biso   1.000  C
  C763     1.0000 0.46969  0.78904  0.77000  Biso   1.000  C
  C764     1.0000 0.76697  0.51730  0.34974  Biso   1.000  C
  C765     1.0000 0.22648  0.16568  0.06151  Biso   1.000  C
  C766     1.0000 0.98602  0.78452  0.81581  Biso   1.000  C
  C767     1.0000 0.29621  0.46672  0.26286  Biso   1.000  C
  C768     1.0000 0.68802  0.20446  0.52575  Biso   1.000  C
  C769     1.0000 0.45371  0.70076  0.85419  Biso   1.000  C
  C770     1.0000 0.80446  0.46859  0.76701  Biso   1.000  C
  C771     1.0000 0.68483  0.75840  0.54796  Biso   1.000  C
  C772     1.0000 0.97096  0.69114  0.74202  Biso   1.000  C
  C773     1.0000 0.27030  0.44217  0.84705  Biso   1.000  C
  C774     1.0000 0.17105  0.74677  0.07481  Biso   1.000  C
  C775     1.0000 0.99809  0.16617  0.81748  Biso   1.000  C
  C776     1.0000 0.68931  0.99501  0.75842  Biso   1.000  C
  C777     1.0000 0.80248  0.25583  0.53096  Biso   1.000  C
  C778     1.0000 0.52120  0.20675  0.72615  Biso   1.000  C
  C779     1.0000 0.18815  0.97459  0.82133  Biso   1.000  C
  C780     1.0000 0.31430  0.24729  0.04462  Biso   1.000  C
  C781     1.0000 0.49107  0.25286  0.23076  Biso   1.000  C
  C782     1.0000 0.18696  0.48100  0.31877  Biso   1.000  C
  C783     1.0000 0.30160  0.20191  0.56559  Biso   1.000  C
  C784     1.0000 0.01104  0.28695  0.31681  Biso   1.000  C
  C785     1.0000 0.71561  0.51186  0.23249  Biso   1.000  C
  C786     1.0000 0.78832  0.18335  0.02214  Biso   1.000  C
  C787     1.0000 0.02045  0.78516  0.26091  Biso   1.000  C
  C788     1.0000 0.26661  0.97105  0.35757  Biso   1.000  C
  C789     1.0000 0.21965  0.67585  0.53321  Biso   1.000  C
  C790     1.0000 0.45922  0.75721  0.35590  Biso   1.000  C
  C791     1.0000 0.80267  0.00249  0.25863  Biso   1.000  C
  C792     1.0000 0.67164  0.70635  0.01747  Biso   1.000  C
  C793     1.0000 0.46014  0.19493  0.34625  Biso   1.000  C
  C794     1.0000 0.26547  0.44253  0.22740  Biso   1.000  C
  C795     1.0000 0.18976  0.26142  0.53345  Biso   1.000  C
  C796     1.0000 0.99063  0.20414  0.23169  Biso   1.000  C
  C797     1.0000 0.79976  0.48860  0.31790  Biso   1.000  C
  C798     1.0000 0.69399  0.26288  0.02479  Biso   1.000  C
  C799     1.0000 0.99442  0.67064  0.32205  Biso   1.000  C
  C800     1.0000 0.18612  0.94020  0.26922  Biso   1.000  C
  C801     1.0000 0.30124  0.76378  0.49909  Biso   1.000  C
  C802     1.0000 0.46492  0.67165  0.26666  Biso   1.000  C
  C803     1.0000 0.71978  0.97473  0.34714  Biso   1.000  C
  C804     1.0000 0.78581  0.76784  0.05185  Biso   1.000  C
  C805     1.0000 0.49939  0.75593  0.73859  Biso   1.000  C
  C806     1.0000 0.71699  0.50829  0.85176  Biso   1.000  C
  C807     1.0000 0.77131  0.67338  0.57212  Biso   1.000  C
  C808     1.0000 0.00521  0.75277  0.85421  Biso   1.000  C
  C809     1.0000 0.18291  0.45998  0.76257  Biso   1.000  C
  C810     1.0000 0.28520  0.69172  0.04286  Biso   1.000  C
  C811     1.0000 0.00007  0.28032  0.76078  Biso   1.000  C
  C812     1.0000 0.78107  0.00646  0.83937  Biso   1.000  C
  C813     1.0000 0.71200  0.17697  0.56833  Biso   1.000  C
  C814     1.0000 0.48130  0.26087  0.84343  Biso   1.000  C
  C815     1.0000 0.30574  0.98281  0.76964  Biso   1.000  C
  C816     1.0000 0.20034  0.18468  0.01840  Biso   1.000  C
  C817     1.0000 0.96845  0.21922  0.82831  Biso   1.000  C
  C818     1.0000 0.75255  0.96715  0.25578  Biso   1.000  C
  C819     1.0000 0.21827  0.75137  0.03318  Biso   1.000  C
  C820     1.0000 0.49289  0.19536  0.78122  Biso   1.000  C
  C821     1.0000 0.28067  0.94353  0.30570  Biso   1.000  C
  C822     1.0000 0.74217  0.77087  0.57142  Biso   1.000  C
  C823     1.0000 0.49922  0.69740  0.81059  Biso   1.000  C
  C824     1.0000 0.70548  0.48842  0.28843  Biso   1.000  C
  C825     1.0000 0.25912  0.25488  0.01737  Biso   1.000  C
  C826     1.0000 0.01232  0.68610  0.78795  Biso   1.000  C
  C827     1.0000 0.22368  0.43212  0.32135  Biso   1.000  C
  C828     1.0000 0.74913  0.27313  0.55609  Biso   1.000  C
  C829     1.0000 0.98053  0.73966  0.25921  Biso   1.000  C
  C830     1.0000 0.24063  0.00025  0.83163  Biso   1.000  C
  C831     1.0000 0.79433  0.23781  0.05073  Biso   1.000  C
  C832     1.0000 0.48795  0.77164  0.30096  Biso   1.000  C
  C833     1.0000 0.74246  0.96553  0.74919  Biso   1.000  C
  C834     1.0000 0.25213  0.19384  0.53628  Biso   1.000  C
  C835     1.0000 0.46336  0.26678  0.28438  Biso   1.000  C
  C836     1.0000 0.28052  0.46461  0.79041  Biso   1.000  C
  C837     1.0000 0.71622  0.70593  0.05937  Biso   1.000  C
  C838     1.0000 0.98699  0.23049  0.32872  Biso   1.000  C
  C839     1.0000 0.75558  0.50607  0.75866  Biso   1.000  C
  C840     1.0000 0.20429  0.72701  0.50488  Biso   1.000  C
  C841     1.0000 0.20832  0.97615  0.79914  Biso   1.000  C
  C842     1.0000 0.76679  0.20400  0.02063  Biso   1.000  C
  C843     1.0000 0.02025  0.76536  0.28253  Biso   1.000  C
  C844     1.0000 0.71134  0.99522  0.77862  Biso   1.000  C
  C845     1.0000 0.28164  0.22442  0.56584  Biso   1.000  C
  C846     1.0000 0.46070  0.73837  0.33217  Biso   1.000  C
  C847     1.0000 0.25121  0.43773  0.82514  Biso   1.000  C
  C848     1.0000 0.69281  0.72844  0.01806  Biso   1.000  C
  C849     1.0000 0.48674  0.23140  0.25127  Biso   1.000  C
  C850     1.0000 0.78404  0.47341  0.78820  Biso   1.000  C
  C851     1.0000 0.24069  0.69688  0.52822  Biso   1.000  C
  C852     1.0000 0.01243  0.26439  0.29732  Biso   1.000  C
  C853     1.0000 0.78204  0.00358  0.27993  Biso   1.000  C
  C854     1.0000 0.19111  0.72499  0.07216  Biso   1.000  C
  C855     1.0000 0.99837  0.18805  0.79733  Biso   1.000  C
  C856     1.0000 0.24467  0.96926  0.33662  Biso   1.000  C
  C857     1.0000 0.70720  0.73783  0.54667  Biso   1.000  C
  C858     1.0000 0.51880  0.22823  0.74754  Biso   1.000  C
  C859     1.0000 0.73564  0.51577  0.25433  Biso   1.000  C
  C860     1.0000 0.29374  0.22643  0.04423  Biso   1.000  C
  C861     1.0000 0.45559  0.72043  0.83002  Biso   1.000  C
  C862     1.0000 0.20467  0.47458  0.29573  Biso   1.000  C
  C863     1.0000 0.78134  0.23446  0.53577  Biso   1.000  C
  C864     1.0000 0.97325  0.71099  0.76498  Biso   1.000  C
  C865     1.0000 0.71290  0.47284  0.80316  Biso   1.000  C
  C866     1.0000 0.78439  0.72857  0.54487  Biso   1.000  C
  C867     1.0000 0.46842  0.76859  0.79167  Biso   1.000  C
  C868     1.0000 0.24152  0.44166  0.74653  Biso   1.000  C
  C869     1.0000 0.23283  0.67761  0.07142  Biso   1.000  C
  C870     1.0000 0.98588  0.76132  0.79724  Biso   1.000  C
  C871     1.0000 0.77960  0.96031  0.79721  Biso   1.000  C
  C872     1.0000 0.71091  0.22570  0.52806  Biso   1.000  C
  C873     1.0000 0.97380  0.22580  0.75116  Biso   1.000  C
  C874     1.0000 0.25234  0.00704  0.75388  Biso   1.000  C
  C875     1.0000 0.24867  0.18544  0.05640  Biso   1.000  C
  C876     1.0000 0.51520  0.27314  0.79318  Biso   1.000  C
  C877     1.0000 0.27204  0.46530  0.28269  Biso   1.000  C
  C878     1.0000 0.24167  0.26870  0.56410  Biso   1.000  C
  C879     1.0000 0.49814  0.19324  0.29722  Biso   1.000  C
  C880     1.0000 0.74623  0.52051  0.32922  Biso   1.000  C
  C881     1.0000 0.75038  0.28143  0.04515  Biso   1.000  C
  C882     1.0000 0.01484  0.19060  0.28609  Biso   1.000  C
  C883     1.0000 0.23615  0.97355  0.26385  Biso   1.000  C
  C884     1.0000 0.25024  0.76861  0.53504  Biso   1.000  C
  C885     1.0000 0.01679  0.72536  0.33054  Biso   1.000  C
  C886     1.0000 0.71158  0.00727  0.29616  Biso   1.000  C
  C887     1.0000 0.73511  0.77491  0.02045  Biso   1.000  C
  C888     1.0000 0.49903  0.72355  0.26343  Biso   1.000  C
  C889     1.0000 0.74099  0.97412  0.32553  Biso   1.000  C
  C890     1.0000 0.26196  0.71056  0.04108  Biso   1.000  C
  C891     1.0000 0.99739  0.26170  0.78361  Biso   1.000  C
  C892     1.0000 0.20517  0.94005  0.29171  Biso   1.000  C
  C893     1.0000 0.75130  0.69578  0.57192  Biso   1.000  C
  C894     1.0000 0.48231  0.24141  0.82082  Biso   1.000  C
  C895     1.0000 0.77857  0.49285  0.29660  Biso   1.000  C
  C896     1.0000 0.22082  0.20705  0.01658  Biso   1.000  C
  C897     1.0000 0.49859  0.73558  0.76216  Biso   1.000  C
  C898     1.0000 0.24326  0.44207  0.24729  Biso   1.000  C
  C899     1.0000 0.73274  0.19992  0.56972  Biso   1.000  C
  C900     1.0000 0.00543  0.73116  0.83406  Biso   1.000  C
  C901     1.0000 0.28237  0.98169  0.78950  Biso   1.000  C
  C902     1.0000 0.71667  0.24307  0.02966  Biso   1.000  C
  C903     1.0000 0.99170  0.69151  0.30133  Biso   1.000  C
  C904     1.0000 0.76030  0.00538  0.81711  Biso   1.000  C
  C905     1.0000 0.21088  0.24052  0.53399  Biso   1.000  C
  C906     1.0000 0.45968  0.69525  0.28464  Biso   1.000  C
  C907     1.0000 0.20355  0.45827  0.78269  Biso   1.000  C
  C908     1.0000 0.76485  0.74499  0.05181  Biso   1.000  C
  C909     1.0000 0.45750  0.21723  0.32539  Biso   1.000  C
  C910     1.0000 0.73841  0.50977  0.83062  Biso   1.000  C
  C911     1.0000 0.27905  0.74211  0.50017  Biso   1.000  C
  C912     1.0000 0.98819  0.22402  0.25288  Biso   1.000  C
  C913     1.0000 0.76059  0.49137  0.78406  Biso   1.000  C
  C914     1.0000 0.73489  0.74550  0.55776  Biso   1.000  C
  C915     1.0000 0.47940  0.72010  0.80916  Biso   1.000  C
  C916     1.0000 0.25512  0.44864  0.79713  Biso   1.000  C
  C917     1.0000 0.21356  0.72654  0.05174  Biso   1.000  C
  C918     1.0000 0.99440  0.70956  0.78647  Biso   1.000  C
  C919     1.0000 0.73780  0.98066  0.77458  Biso   1.000  C
  C920     1.0000 0.75476  0.24348  0.54819  Biso   1.000  C
  C921     1.0000 0.98358  0.21431  0.80287  Biso   1.000  C
  C922     1.0000 0.23420  0.99039  0.80472  Biso   1.000  C
  C923     1.0000 0.26677  0.22972  0.03188  Biso   1.000  C
  C924     1.0000 0.50465  0.22308  0.77418  Biso   1.000  C
  C925     1.0000 0.22319  0.45191  0.29762  Biso   1.000  C
  C926     1.0000 0.25571  0.21887  0.55159  Biso   1.000  C
  C927     1.0000 0.47345  0.23800  0.27749  Biso   1.000  C
  C928     1.0000 0.73017  0.50352  0.28094  Biso   1.000  C
  C929     1.0000 0.76861  0.23037  0.03553  Biso   1.000  C
  C930     1.0000 0.00056  0.23744  0.30350  Biso   1.000  C
  C931     1.0000 0.25314  0.95538  0.31129  Biso   1.000  C
  C932     1.0000 0.23297  0.72267  0.51364  Biso   1.000  C
  C933     1.0000 0.00068  0.74268  0.28259  Biso   1.000  C
  C934     1.0000 0.75746  0.98659  0.27830  Biso   1.000  C
  C935     1.0000 0.71522  0.72861  0.03945  Biso   1.000  C
  C936     1.0000 0.47516  0.74494  0.30569  Biso   1.000  C
  C937     1.0000 0.74453  0.25249  0.03767  Biso   1.000  C
  C938     1.0000 0.00358  0.71924  0.30464  Biso   1.000  C
  C939     1.0000 0.25680  0.99487  0.78170  Biso   1.000  C
  C940     1.0000 0.23670  0.24321  0.54819  Biso   1.000  C
  C941     1.0000 0.47827  0.72066  0.28420  Biso   1.000  C
  C942     1.0000 0.75949  0.98266  0.79670  Biso   1.000  C
  C943     1.0000 0.73929  0.74932  0.03612  Biso   1.000  C
  C944     1.0000 0.47714  0.21702  0.30106  Biso   1.000  C
  C945     1.0000 0.23181  0.44810  0.77439  Biso   1.000  C
  C946     1.0000 0.25405  0.74705  0.51477  Biso   1.000  C
  C947     1.0000 0.00030  0.21612  0.28017  Biso   1.000  C
  C948     1.0000 0.73640  0.49139  0.80633  Biso   1.000  C
  C949     1.0000 0.23520  0.70439  0.05490  Biso   1.000  C
  C950     1.0000 0.98406  0.23490  0.77938  Biso   1.000  C
  C951     1.0000 0.73633  0.99074  0.30069  Biso   1.000  C
  C952     1.0000 0.75720  0.72246  0.55792  Biso   1.000  C
  C953     1.0000 0.49943  0.24678  0.79651  Biso   1.000  C
  C954     1.0000 0.23067  0.95654  0.28890  Biso   1.000  C
  C955     1.0000 0.24511  0.20656  0.03465  Biso   1.000  C
  C956     1.0000 0.48408  0.74264  0.78815  Biso   1.000  C
  C957     1.0000 0.75184  0.50681  0.30322  Biso   1.000  C
  C958     1.0000 0.73098  0.22308  0.55054  Biso   1.000  C
  C959     1.0000 0.99566  0.73393  0.80610  Biso   1.000  C
  C960     1.0000 0.24568  0.45187  0.27523  Biso   1.000  C
  Cu1      1.0000 0.99631  0.47243  0.69436  Biso   1.000  Cu
  Cu2      1.0000 0.65000  0.98090  0.53865  Biso   1.000  Cu
  Cu3      1.0000 0.48194  0.63236  0.04827  Biso   1.000  Cu
  Cu4      1.0000 0.49620  0.47740  0.88718  Biso   1.000  Cu
  Cu5      1.0000 0.15262  0.97124  0.04718  Biso   1.000  Cu
  Cu6      1.0000 0.99389  0.62879  0.54633  Biso   1.000  Cu
  Cu7      1.0000 0.49971  0.97892  0.69239  Biso   1.000  Cu
  Cu8      1.0000 0.84015  0.48181  0.54233  Biso   1.000  Cu
  Cu9      1.0000 0.00300  0.13125  0.04011  Biso   1.000  Cu
  Cu10     1.0000 0.99825  0.97746  0.89011  Biso   1.000  Cu
  Cu11     1.0000 0.33688  0.47102  0.03651  Biso   1.000  Cu
  Cu12     1.0000 0.49238  0.13773  0.53348  Biso   1.000  Cu
  Cu13     1.0000 0.99128  0.47756  0.39156  Biso   1.000  Cu
  Cu14     1.0000 0.34333  0.97988  0.54451  Biso   1.000  Cu
  Cu15     1.0000 0.50088  0.32777  0.03777  Biso   1.000  Cu
  Cu16     1.0000 0.49484  0.47673  0.19543  Biso   1.000  Cu
  Cu17     1.0000 0.84039  0.98791  0.03755  Biso   1.000  Cu
  Cu18     1.0000 0.99576  0.32419  0.53957  Biso   1.000  Cu
  Cu19     1.0000 0.49692  0.98041  0.39297  Biso   1.000  Cu
  Cu20     1.0000 0.15162  0.48092  0.53943  Biso   1.000  Cu
  Cu21     1.0000 0.98255  0.82461  0.04475  Biso   1.000  Cu
  Cu22     1.0000 0.99465  0.97715  0.19417  Biso   1.000  Cu
  Cu23     1.0000 0.64734  0.48639  0.04503  Biso   1.000  Cu
  Cu24     1.0000 0.49611  0.82639  0.54509  Biso   1.000  Cu
  Cu25     1.0000 0.20764  0.96560  0.04541  Biso   1.000  Cu
  Cu26     1.0000 0.00996  0.18685  0.03744  Biso   1.000  Cu
  Cu27     1.0000 0.99474  0.97956  0.24987  Biso   1.000  Cu
  Cu28     1.0000 0.70331  0.98300  0.53704  Biso   1.000  Cu
  Cu29     1.0000 0.49150  0.19174  0.53391  Biso   1.000  Cu
  Cu30     1.0000 0.49363  0.97539  0.34015  Biso   1.000  Cu
  Cu31     1.0000 0.28111  0.47057  0.03708  Biso   1.000  Cu
  Cu32     1.0000 0.47964  0.68739  0.05097  Biso   1.000  Cu
  Cu33     1.0000 0.49189  0.47706  0.25065  Biso   1.000  Cu
  Cu34     1.0000 0.78783  0.47930  0.54372  Biso   1.000  Cu
  Cu35     1.0000 0.99750  0.68184  0.54699  Biso   1.000  Cu
  Cu36     1.0000 0.99351  0.48052  0.33703  Biso   1.000  Cu
  Cu37     1.0000 0.78767  0.99407  0.03498  Biso   1.000  Cu
  Cu38     1.0000 0.97849  0.77273  0.04284  Biso   1.000  Cu
  Cu39     1.0000 0.00391  0.97613  0.83355  Biso   1.000  Cu
  Cu40     1.0000 0.28891  0.97982  0.54706  Biso   1.000  Cu
  Cu41     1.0000 0.49324  0.77060  0.54687  Biso   1.000  Cu
  Cu42     1.0000 0.49857  0.98376  0.74672  Biso   1.000  Cu
  Cu43     1.0000 0.70045  0.49207  0.04295  Biso   1.000  Cu
  Cu44     1.0000 0.50444  0.27491  0.03956  Biso   1.000  Cu
  Cu45     1.0000 0.49637  0.48230  0.83406  Biso   1.000  Cu
  Cu46     1.0000 0.20517  0.47892  0.54048  Biso   1.000  Cu
  Cu47     1.0000 0.99685  0.27026  0.53816  Biso   1.000  Cu
  Cu48     1.0000 0.99727  0.46998  0.75048  Biso   1.000  Cu
  H1       1.0000 0.23067  0.76851  0.54779  Biso   1.000  H
  H2       1.0000 0.53080  0.27387  0.77491  Biso   1.000  H
  H3       1.0000 0.72548  0.52936  0.33467  Biso   1.000  H
  H4       1.0000 0.71445  0.77774  0.01025  Biso   1.000  H
  H5       1.0000 0.96304  0.20469  0.74846  Biso   1.000  H
  H6       1.0000 0.27463  0.47708  0.30393  Biso   1.000  H
  H7       1.0000 0.26283  0.27208  0.57302  Biso   1.000  H
  H8       1.0000 0.97829  0.76479  0.77430  Biso   1.000  H
  H9       1.0000 0.70870  0.02054  0.27672  Biso   1.000  H
  H10      1.0000 0.77309  0.28913  0.04816  Biso   1.000  H
  H11      1.0000 0.45485  0.77536  0.81132  Biso   1.000  H
  H12      1.0000 0.25815  0.98446  0.26154  Biso   1.000  H
  H13      1.0000 0.70929  0.24508  0.51554  Biso   1.000  H
  H14      1.0000 0.51351  0.74252  0.26115  Biso   1.000  H
  H15      1.0000 0.26244  0.43176  0.73982  Biso   1.000  H
  H16      1.0000 0.26552  0.18320  0.07256  Biso   1.000  H
  H17      1.0000 0.02600  0.74554  0.33298  Biso   1.000  H
  H18      1.0000 0.71311  0.45659  0.78500  Biso   1.000  H
  H19      1.0000 0.78853  0.75027  0.53566  Biso   1.000  H
  H20      1.0000 0.02227  0.18548  0.30859  Biso   1.000  H
  H21      1.0000 0.23223  0.01776  0.74712  Biso   1.000  H
  H22      1.0000 0.21075  0.67106  0.07951  Biso   1.000  H
  H23      1.0000 0.51314  0.19523  0.27943  Biso   1.000  H
  H24      1.0000 0.77922  0.94257  0.78155  Biso   1.000  H
  H25      1.0000 0.26446  0.00623  0.83726  Biso   1.000  H
  H26      1.0000 0.79592  0.25751  0.06383  Biso   1.000  H
  H27      1.0000 0.96230  0.72345  0.25952  Biso   1.000  H
  H28      1.0000 0.76293  0.95476  0.74411  Biso   1.000  H
  H29      1.0000 0.23282  0.19000  0.52391  Biso   1.000  H
  H30      1.0000 0.49724  0.77670  0.28010  Biso   1.000  H
  H31      1.0000 0.28509  0.47120  0.76790  Biso   1.000  H
  H32      1.0000 0.73203  0.70540  0.07684  Biso   1.000  H
  H33      1.0000 0.45204  0.27116  0.30500  Biso   1.000  H
  H34      1.0000 0.73726  0.52120  0.75786  Biso   1.000  H
  H35      1.0000 0.19984  0.74661  0.49292  Biso   1.000  H
  H36      1.0000 0.97508  0.21083  0.33161  Biso   1.000  H
  H37      1.0000 0.73251  0.95505  0.25622  Biso   1.000  H
  H38      1.0000 0.23776  0.75453  0.01759  Biso   1.000  H
  H39      1.0000 0.95567  0.23978  0.83233  Biso   1.000  H
  H40      1.0000 0.28428  0.93231  0.28607  Biso   1.000  H
  H41      1.0000 0.76361  0.77251  0.58090  Biso   1.000  H
  H42      1.0000 0.48122  0.18893  0.80114  Biso   1.000  H
  H43      1.0000 0.70241  0.47679  0.30926  Biso   1.000  H
  H44      1.0000 0.23830  0.26041  0.00706  Biso   1.000  H
  H45      1.0000 0.51767  0.69433  0.79700  Biso   1.000  H
  H46      1.0000 0.23446  0.41086  0.32333  Biso   1.000  H
  H47      1.0000 0.72820  0.27874  0.56720  Biso   1.000  H
  H48      1.0000 0.03019  0.68520  0.80315  Biso   1.000  H
  H49      1.0000 0.20433  0.48407  0.27440  Biso   1.000  H
  H50      1.0000 0.28704  0.24394  0.57855  Biso   1.000  H
  H51      1.0000 0.49001  0.20828  0.24583  Biso   1.000  H
  H52      1.0000 0.75524  0.53069  0.25152  Biso   1.000  H
  H53      1.0000 0.74921  0.20015  0.00705  Biso   1.000  H
  H54      1.0000 0.02130  0.27049  0.27677  Biso   1.000  H
  H55      1.0000 0.22363  0.97859  0.33923  Biso   1.000  H
  H56      1.0000 0.26121  0.69436  0.53981  Biso   1.000  H
  H57      1.0000 0.03789  0.76540  0.29929  Biso   1.000  H
  H58      1.0000 0.78608  0.01909  0.29768  Biso   1.000  H
  H59      1.0000 0.68995  0.74654  0.00322  Biso   1.000  H
  H60      1.0000 0.45139  0.71718  0.33366  Biso   1.000  H
  H61      1.0000 0.78880  0.46226  0.80955  Biso   1.000  H
  H62      1.0000 0.70371  0.71762  0.53459  Biso   1.000  H
  H63      1.0000 0.43621  0.73357  0.82771  Biso   1.000  H
  H64      1.0000 0.23209  0.42528  0.83337  Biso   1.000  H
  H65      1.0000 0.19130  0.70834  0.08878  Biso   1.000  H
  H66      1.0000 0.95962  0.73148  0.76185  Biso   1.000  H
  H67      1.0000 0.70475  0.00504  0.79832  Biso   1.000  H
  H68      1.0000 0.78180  0.21221  0.52760  Biso   1.000  H
  H69      1.0000 0.00923  0.18462  0.77636  Biso   1.000  H
  H70      1.0000 0.20051  0.96888  0.77840  Biso   1.000  H
  H71      1.0000 0.29632  0.20678  0.05867  Biso   1.000  H
  H72      1.0000 0.52811  0.24916  0.74156  Biso   1.000  H
  H73      1.0000 0.75754  0.52310  0.83530  Biso   1.000  H
  H74      1.0000 0.72847  0.69097  0.58179  Biso   1.000  H
  H75      1.0000 0.50660  0.71320  0.75687  Biso   1.000  H
  H76      1.0000 0.19912  0.46411  0.80588  Biso   1.000  H
  H77      1.0000 0.26576  0.73002  0.02897  Biso   1.000  H
  H78      1.0000 0.01545  0.70949  0.84043  Biso   1.000  H
  H79      1.0000 0.74498  0.02133  0.81556  Biso   1.000  H
  H80      1.0000 0.75127  0.19727  0.58524  Biso   1.000  H
  H81      1.0000 0.00647  0.26687  0.80408  Biso   1.000  H
  H82      1.0000 0.28446  0.97568  0.81158  Biso   1.000  H
  H83      1.0000 0.22029  0.22110  0.99695  Biso   1.000  H
  H84      1.0000 0.46745  0.22348  0.82081  Biso   1.000  H
  H85      1.0000 0.22236  0.43102  0.24328  Biso   1.000  H
  H86      1.0000 0.20823  0.22064  0.52317  Biso   1.000  H
  H87      1.0000 0.44236  0.23679  0.33138  Biso   1.000  H
  H88      1.0000 0.78413  0.48533  0.27511  Biso   1.000  H
  H89      1.0000 0.71144  0.22087  0.02403  Biso   1.000  H
  H90      1.0000 0.97660  0.24409  0.24786  Biso   1.000  H
  H91      1.0000 0.19876  0.92998  0.31151  Biso   1.000  H
  H92      1.0000 0.28052  0.72637  0.48295  Biso   1.000  H
  H93      1.0000 0.98414  0.68491  0.28110  Biso   1.000  H
  H94      1.0000 0.75861  0.96063  0.33038  Biso   1.000  H
  H95      1.0000 0.76561  0.72539  0.06471  Biso   1.000  H
  H96      1.0000 0.44084  0.69482  0.29945  Biso   1.000  H
  H97      1.0000 0.86646  0.98958  0.94783  Biso   1.000  H
  H98      1.0000 0.88764  0.85638  0.04402  Biso   1.000  H
  H99      1.0000 0.00078  0.89164  0.90632  Biso   1.000  H
  H100     1.0000 0.36606  0.98569  0.63497  Biso   1.000  H
  H101     1.0000 0.40488  0.84969  0.53195  Biso   1.000  H
  H102     1.0000 0.48606  0.89016  0.67924  Biso   1.000  H
  H103     1.0000 0.62278  0.48941  0.95306  Biso   1.000  H
  H104     1.0000 0.59505  0.35748  0.04238  Biso   1.000  H
  H105     1.0000 0.49003  0.38893  0.90659  Biso   1.000  H
  H106     1.0000 0.12956  0.48816  0.63272  Biso   1.000  H
  H107     1.0000 0.08761  0.34912  0.55153  Biso   1.000  H
  H108     1.0000 0.98459  0.38136  0.67474  Biso   1.000  H
  H109     1.0000 0.13013  0.96315  0.13917  Biso   1.000  H
  H110     1.0000 0.09005  0.10516  0.04162  Biso   1.000  H
  H111     1.0000 0.00168  0.07143  0.17032  Biso   1.000  H
  H112     1.0000 0.62685  0.98123  0.44730  Biso   1.000  H
  H113     1.0000 0.58451  0.11576  0.53042  Biso   1.000  H
  H114     1.0000 0.49684  0.06930  0.40722  Biso   1.000  H
  H115     1.0000 0.35870  0.47018  0.13028  Biso   1.000  H
  H116     1.0000 0.39199  0.60843  0.05428  Biso   1.000  H
  H117     1.0000 0.48992  0.57223  0.17858  Biso   1.000  H
  H118     1.0000 0.85804  0.50161  0.45255  Biso   1.000  H
  H119     1.0000 0.90192  0.61528  0.53631  Biso   1.000  H
  H120     1.0000 0.99998  0.57177  0.41292  Biso   1.000  H
  H121     1.0000 0.08347  0.98559  0.91329  Biso   1.000  H
  H122     1.0000 0.87032  0.07895  0.04413  Biso   1.000  H
  H123     1.0000 0.98128  0.84670  0.13608  Biso   1.000  H
  H124     1.0000 0.58678  0.97740  0.67632  Biso   1.000  H
  H125     1.0000 0.36047  0.06910  0.53980  Biso   1.000  H
  H126     1.0000 0.50487  0.84182  0.45712  Biso   1.000  H
  H127     1.0000 0.40047  0.47844  0.90368  Biso   1.000  H
  H128     1.0000 0.62050  0.57414  0.06127  Biso   1.000  H
  H129     1.0000 0.49322  0.34761  0.13059  Biso   1.000  H
  H130     1.0000 0.90567  0.48483  0.67407  Biso   1.000  H
  H131     1.0000 0.12945  0.57127  0.51468  Biso   1.000  H
  H132     1.0000 0.00133  0.34618  0.44982  Biso   1.000  H
  H133     1.0000 0.90117  0.96955  0.17014  Biso   1.000  H
  H134     1.0000 0.12304  0.88433  0.04927  Biso   1.000  H
  H135     1.0000 0.99037  0.10833  0.94973  Biso   1.000  H
  H136     1.0000 0.40096  0.96725  0.41517  Biso   1.000  H
  H137     1.0000 0.62814  0.89239  0.55486  Biso   1.000  H
  H138     1.0000 0.50859  0.11764  0.62254  Biso   1.000  H
  H139     1.0000 0.58470  0.47456  0.17896  Biso   1.000  H
  H140     1.0000 0.36601  0.38357  0.02577  Biso   1.000  H
  H141     1.0000 0.47746  0.61622  0.95999  Biso   1.000  H
  H142     1.0000 0.08253  0.47765  0.40968  Biso   1.000  H
  H143     1.0000 0.86364  0.38747  0.52787  Biso   1.000  H
  H144     1.0000 0.00309  0.60456  0.63929  Biso   1.000  H
  H145     1.0000 0.58511  0.48370  0.90902  Biso   1.000  H
  H146     1.0000 0.85888  0.57040  0.55205  Biso   1.000  H
  H147     1.0000 0.49133  0.84530  0.63479  Biso   1.000  H
  H148     1.0000 0.08610  0.47065  0.67337  Biso   1.000  H
  H149     1.0000 0.35653  0.56403  0.04658  Biso   1.000  H
  H150     1.0000 0.98838  0.84901  0.94900  Biso   1.000  H
  H151     1.0000 0.90705  0.97902  0.90536  Biso   1.000  H
  H152     1.0000 0.62945  0.07546  0.53212  Biso   1.000  H
  H153     1.0000 0.97701  0.34256  0.63112  Biso   1.000  H
  H154     1.0000 0.40863  0.99685  0.67416  Biso   1.000  H
  H155     1.0000 0.13358  0.06205  0.05473  Biso   1.000  H
  H156     1.0000 0.49940  0.34796  0.95037  Biso   1.000  H
  H157     1.0000 0.39955  0.47382  0.17081  Biso   1.000  H
  H158     1.0000 0.12713  0.38916  0.55029  Biso   1.000  H
  H159     1.0000 0.49574  0.11552  0.44771  Biso   1.000  H
  H160     1.0000 0.89976  0.49308  0.41063  Biso   1.000  H
  H161     1.0000 0.63316  0.39766  0.03191  Biso   1.000  H
  H162     1.0000 0.01106  0.11230  0.13059  Biso   1.000  H
  H163     1.0000 0.09044  0.97101  0.18064  Biso   1.000  H
  H164     1.0000 0.36268  0.89343  0.53783  Biso   1.000  H
  H165     1.0000 0.99597  0.60744  0.45078  Biso   1.000  H
  H166     1.0000 0.58581  0.98124  0.40681  Biso   1.000  H
  H167     1.0000 0.85025  0.89884  0.03118  Biso   1.000  H
  H168     1.0000 0.49393  0.61531  0.13742  Biso   1.000  H
  H169     1.0000 0.98440  0.06710  0.91049  Biso   1.000  H
  H170     1.0000 0.85979  0.98804  0.12647  Biso   1.000  H
  H171     1.0000 0.07393  0.84182  0.04496  Biso   1.000  H
  H172     1.0000 0.50822  0.07331  0.66553  Biso   1.000  H
  H173     1.0000 0.36094  0.96572  0.45626  Biso   1.000  H
  H174     1.0000 0.58141  0.84848  0.56444  Biso   1.000  H
  H175     1.0000 0.49048  0.57407  0.91663  Biso   1.000  H
  H176     1.0000 0.63000  0.46569  0.13476  Biso   1.000  H
  H177     1.0000 0.41084  0.34538  0.02633  Biso   1.000  H
  H178     1.0000 0.00002  0.56283  0.67872  Biso   1.000  H
  H179     1.0000 0.12992  0.47330  0.45404  Biso   1.000  H
  H180     1.0000 0.90619  0.34548  0.53503  Biso   1.000  H
  H181     1.0000 0.99173  0.88811  0.17699  Biso   1.000  H
  H182     1.0000 0.13228  0.98482  0.95749  Biso   1.000  H
  H183     1.0000 0.91665  0.12277  0.04898  Biso   1.000  H
  H184     1.0000 0.49247  0.88808  0.41708  Biso   1.000  H
  H185     1.0000 0.62883  0.97352  0.63232  Biso   1.000  H
  H186     1.0000 0.40326  0.11198  0.54723  Biso   1.000  H
  H187     1.0000 0.49360  0.38831  0.17660  Biso   1.000  H
  H188     1.0000 0.35611  0.47752  0.94737  Biso   1.000  H
  H189     1.0000 0.57117  0.61235  0.04371  Biso   1.000  H
  H190     1.0000 0.98646  0.39009  0.40918  Biso   1.000  H
  H191     1.0000 0.86218  0.47783  0.63261  Biso   1.000  H
  H192     1.0000 0.08932  0.60779  0.53358  Biso   1.000  H
  H193     1.0000 0.26744  0.84054  0.51693  Biso   1.000  H
  H194     1.0000 0.50906  0.25059  0.89288  Biso   1.000  H
  H195     1.0000 0.85374  0.50689  0.31424  Biso   1.000  H
  H196     1.0000 0.75128  0.84784  0.03103  Biso   1.000  H
  H197     1.0000 0.99614  0.24215  0.67749  Biso   1.000  H
  H198     1.0000 0.34819  0.44806  0.26312  Biso   1.000  H
  H199     1.0000 0.22572  0.33848  0.54680  Biso   1.000  H
  H200     1.0000 0.97815  0.75064  0.90040  Biso   1.000  H
  H201     1.0000 0.63707  0.98595  0.30647  Biso   1.000  H
  H202     1.0000 0.72383  0.34550  0.00708  Biso   1.000  H
  H203     1.0000 0.47486  0.75278  0.69230  Biso   1.000  H
  H204     1.0000 0.13503  0.96266  0.27910  Biso   1.000  H
  H205     1.0000 0.72402  0.12849  0.54733  Biso   1.000  H
  H206     1.0000 0.49094  0.71139  0.19310  Biso   1.000  H
  H207     1.0000 0.13811  0.43144  0.76021  Biso   1.000  H
  H208     1.0000 0.23235  0.11305  0.04720  Biso   1.000  H
  H209     1.0000 0.00290  0.70766  0.40470  Biso   1.000  H
  H210     1.0000 0.64113  0.48285  0.81240  Biso   1.000  H
  H211     1.0000 0.76193  0.62244  0.55660  Biso   1.000  H
  H212     1.0000 0.01886  0.20863  0.18533  Biso   1.000  H
  H213     1.0000 0.35682  0.99846  0.77331  Biso   1.000  H
  H214     1.0000 0.25519  0.60961  0.04650  Biso   1.000  H
  H215     1.0000 0.48442  0.20662  0.38692  Biso   1.000  H
  H216     1.0000 0.85494  0.97445  0.80956  Biso   1.000  H
  H217     1.0000 0.22220  0.45734  0.39408  Biso   1.000  H
  H218     1.0000 0.34744  0.20918  0.54514  Biso   1.000  H
  H219     1.0000 0.49062  0.33096  0.26870  Biso   1.000  H
  H220     1.0000 0.72539  0.48210  0.18623  Biso   1.000  H
  H221     1.0000 0.86702  0.21851  0.03924  Biso   1.000  H
  H222     1.0000 0.98455  0.33685  0.31083  Biso   1.000  H
  H223     1.0000 0.26613  0.94241  0.40610  Biso   1.000  H
  H224     1.0000 0.13883  0.71091  0.53338  Biso   1.000  H
  H225     1.0000 0.00024  0.83339  0.27167  Biso   1.000  H
  H226     1.0000 0.76344  0.98796  0.18322  Biso   1.000  H
  H227     1.0000 0.61762  0.71216  0.03247  Biso   1.000  H
  H228     1.0000 0.46207  0.83903  0.32268  Biso   1.000  H
  H229     1.0000 0.76547  0.47972  0.68705  Biso   1.000  H
  H230     1.0000 0.63840  0.75389  0.57316  Biso   1.000  H
  H231     1.0000 0.47478  0.62403  0.81976  Biso   1.000  H
  H232     1.0000 0.26352  0.46263  0.89218  Biso   1.000  H
  H233     1.0000 0.11868  0.74195  0.05775  Biso   1.000  H
  H234     1.0000 0.98860  0.61465  0.77735  Biso   1.000  H
  H235     1.0000 0.72662  0.98141  0.68144  Biso   1.000  H
  H236     1.0000 0.85169  0.24977  0.54594  Biso   1.000  H
  H237     1.0000 0.97261  0.11760  0.81049  Biso   1.000  H
  H238     1.0000 0.23051  0.97805  0.90193  Biso   1.000  H
  H239     1.0000 0.36273  0.24501  0.02010  Biso   1.000  H
  H240     1.0000 0.51311  0.12978  0.75918  Biso   1.000  H
  H241     1.0000 0.72519  0.48668  0.90204  Biso   1.000  H
  H242     1.0000 0.84989  0.70932  0.57082  Biso   1.000  H
  H243     1.0000 0.49754  0.83640  0.77529  Biso   1.000  H
  H244     1.0000 0.22496  0.47214  0.68127  Biso   1.000  H
  H245     1.0000 0.33365  0.69967  0.06352  Biso   1.000  H
  H246     1.0000 0.01239  0.83368  0.81159  Biso   1.000  H
  H247     1.0000 0.77094  0.00077  0.89373  Biso   1.000  H
  H248     1.0000 0.63828  0.21405  0.54793  Biso   1.000  H
  H249     1.0000 0.97464  0.32692  0.76789  Biso   1.000  H
  H250     1.0000 0.26906  0.98390  0.68953  Biso   1.000  H
  H251     1.0000 0.15252  0.19952  0.03198  Biso   1.000  H
  H252     1.0000 0.48508  0.33611  0.81006  Biso   1.000  H
  H253     1.0000 0.25776  0.46547  0.17964  Biso   1.000  H
  H254     1.0000 0.14026  0.25016  0.54772  Biso   1.000  H
  H255     1.0000 0.49227  0.11589  0.30829  Biso   1.000  H
  H256     1.0000 0.76253  0.49349  0.39712  Biso   1.000  H
  H257     1.0000 0.65238  0.26490  0.05393  Biso   1.000  H
  H258     1.0000 0.99119  0.12184  0.27133  Biso   1.000  H
  H259     1.0000 0.22799  0.95188  0.19253  Biso   1.000  H
  H260     1.0000 0.35172  0.75217  0.51631  Biso   1.000  H
  H261     1.0000 0.01894  0.62164  0.31677  Biso   1.000  H
  H262     1.0000 0.72195  0.00251  0.39199  Biso   1.000  H
  H263     1.0000 0.83481  0.75827  0.03898  Biso   1.000  H
  H264     1.0000 0.48553  0.62078  0.27833  Biso   1.000  H
  H265     1.0000 0.99654  0.20529  0.89627  Biso   1.000  H
  H266     1.0000 0.84894  0.97810  0.26658  Biso   1.000  H
  H267     1.0000 0.21268  0.82069  0.05677  Biso   1.000  H
  H268     1.0000 0.49531  0.21194  0.68008  Biso   1.000  H
  H269     1.0000 0.34772  0.97128  0.31844  Biso   1.000  H
  H270     1.0000 0.72283  0.83732  0.54879  Biso   1.000  H
  H271     1.0000 0.46361  0.71268  0.90704  Biso   1.000  H
  H272     1.0000 0.63935  0.49784  0.27059  Biso   1.000  H
  H273     1.0000 0.27154  0.32486  0.03731  Biso   1.000  H
  H274     1.0000 0.98204  0.69993  0.69322  Biso   1.000  H
  H275     1.0000 0.13430  0.46725  0.31341  Biso   1.000  H
  H276     1.0000 0.76494  0.33934  0.53116  Biso   1.000  H
  H277     1.0000 0.99261  0.74772  0.18935  Biso   1.000  H
  H278     1.0000 0.14291  0.00086  0.81898  Biso   1.000  H
  H279     1.0000 0.77506  0.13793  0.04432  Biso   1.000  H
  H280     1.0000 0.47840  0.74828  0.40382  Biso   1.000  H
  H281     1.0000 0.64177  0.96872  0.76901  Biso   1.000  H
  H282     1.0000 0.26343  0.12141  0.55271  Biso   1.000  H
  H283     1.0000 0.47427  0.25104  0.17972  Biso   1.000  H
  H284     1.0000 0.35535  0.45082  0.80877  Biso   1.000  H
  H285     1.0000 0.70688  0.63697  0.04182  Biso   1.000  H
  H286     1.0000 0.00628  0.25104  0.39627  Biso   1.000  H
  H287     1.0000 0.85277  0.48594  0.77417  Biso   1.000  H
  H288     1.0000 0.22498  0.62366  0.50891  Biso   1.000  H
  H289     1.0000 0.09860  0.19813  0.01979  Biso   1.000  H
  H290     1.0000 0.98614  0.06963  0.26610  Biso   1.000  H
  H291     1.0000 0.22521  0.95521  0.13667  Biso   1.000  H
  H292     1.0000 0.58373  0.21412  0.53770  Biso   1.000  H
  H293     1.0000 0.49321  0.06163  0.31226  Biso   1.000  H
  H294     1.0000 0.72150  0.99735  0.44985  Biso   1.000  H
  H295     1.0000 0.38848  0.70196  0.05990  Biso   1.000  H
  H296     1.0000 0.48422  0.56459  0.27477  Biso   1.000  H
  H297     1.0000 0.26061  0.47123  0.12688  Biso   1.000  H
  H298     1.0000 0.90594  0.70752  0.56199  Biso   1.000  H
  H299     1.0000 0.01375  0.57073  0.31649  Biso   1.000  H
  H300     1.0000 0.76404  0.49141  0.45409  Biso   1.000  H
  H301     1.0000 0.89025  0.76023  0.03688  Biso   1.000  H
  H302     1.0000 0.01521  0.88654  0.81387  Biso   1.000  H
  H303     1.0000 0.77083  0.00976  0.94745  Biso   1.000  H
  H304     1.0000 0.40702  0.75436  0.52097  Biso   1.000  H
  H305     1.0000 0.49660  0.88990  0.77514  Biso   1.000  H
  H306     1.0000 0.26962  0.98112  0.63428  Biso   1.000  H
  H307     1.0000 0.59551  0.26675  0.06868  Biso   1.000  H
  H308     1.0000 0.48006  0.39286  0.81336  Biso   1.000  H
  H309     1.0000 0.72117  0.49337  0.95491  Biso   1.000  H
  H310     1.0000 0.08735  0.25184  0.54600  Biso   1.000  H
  H311     1.0000 0.97240  0.38255  0.76782  Biso   1.000  H
  H312     1.0000 0.22476  0.49082  0.63099  Biso   1.000  H
  H313     1.0000 0.22639  0.97794  0.95530  Biso   1.000  H
  H314     1.0000 0.92035  0.21997  0.04513  Biso   1.000  H
  H315     1.0000 0.99522  0.88784  0.27199  Biso   1.000  H
  H316     1.0000 0.72610  0.97961  0.62842  Biso   1.000  H
  H317     1.0000 0.40282  0.20893  0.54296  Biso   1.000  H
  H318     1.0000 0.47365  0.89167  0.32419  Biso   1.000  H
  H319     1.0000 0.26181  0.46621  0.94420  Biso   1.000  H
  H320     1.0000 0.56817  0.71134  0.03157  Biso   1.000  H
  H321     1.0000 0.49574  0.38838  0.27042  Biso   1.000  H
  H322     1.0000 0.76597  0.47209  0.63508  Biso   1.000  H
  H323     1.0000 0.08607  0.70588  0.54096  Biso   1.000  H
  H324     1.0000 0.97857  0.38905  0.31519  Biso   1.000  H
  H325     1.0000 0.76387  0.98772  0.12953  Biso   1.000  H
  H326     1.0000 0.06637  0.74438  0.05131  Biso   1.000  H
  H327     1.0000 0.97331  0.06328  0.81424  Biso   1.000  H
  H328     1.0000 0.26942  0.94559  0.46285  Biso   1.000  H
  H329     1.0000 0.58203  0.75469  0.57696  Biso   1.000  H
  H330     1.0000 0.51990  0.07338  0.76005  Biso   1.000  H
  H331     1.0000 0.72647  0.46681  0.13227  Biso   1.000  H
  H332     1.0000 0.41563  0.24643  0.01947  Biso   1.000  H
  H333     1.0000 0.48818  0.57259  0.81887  Biso   1.000  H
  H334     1.0000 0.22429  0.46018  0.44971  Biso   1.000  H
  H335     1.0000 0.90305  0.24977  0.54624  Biso   1.000  H
  H336     1.0000 0.99449  0.56220  0.77522  Biso   1.000  H
  H337     1.0000 0.99650  0.20389  0.95153  Biso   1.000  H
  H338     1.0000 0.90311  0.97070  0.26443  Biso   1.000  H
  H339     1.0000 0.21617  0.87282  0.05419  Biso   1.000  H
  H340     1.0000 0.49573  0.21343  0.62553  Biso   1.000  H
  H341     1.0000 0.40284  0.98364  0.32399  Biso   1.000  H
  H342     1.0000 0.72440  0.88513  0.53644  Biso   1.000  H
  H343     1.0000 0.46206  0.70886  0.96114  Biso   1.000  H
  H344     1.0000 0.58598  0.48971  0.27208  Biso   1.000  H
  H345     1.0000 0.26962  0.38124  0.04169  Biso   1.000  H
  H346     1.0000 0.98266  0.70094  0.63736  Biso   1.000  H
  H347     1.0000 0.08475  0.47368  0.31379  Biso   1.000  H
  H348     1.0000 0.76926  0.39581  0.52819  Biso   1.000  H
  H349     1.0000 0.98432  0.74962  0.13285  Biso   1.000  H
  H350     1.0000 0.09011  0.00773  0.81788  Biso   1.000  H
  H351     1.0000 0.77418  0.08451  0.04184  Biso   1.000  H
  H352     1.0000 0.48831  0.74567  0.45474  Biso   1.000  H
  H353     1.0000 0.58734  0.96733  0.76830  Biso   1.000  H
  H354     1.0000 0.26328  0.06924  0.54181  Biso   1.000  H
  H355     1.0000 0.47680  0.25305  0.12492  Biso   1.000  H
  H356     1.0000 0.40898  0.46082  0.81109  Biso   1.000  H
  H357     1.0000 0.71534  0.58590  0.04921  Biso   1.000  H
  H358     1.0000 0.00955  0.25005  0.44844  Biso   1.000  H
  H359     1.0000 0.90423  0.48257  0.77527  Biso   1.000  H
  H360     1.0000 0.22564  0.56993  0.50889  Biso   1.000  H
  H361     1.0000 0.99829  0.70529  0.45905  Biso   1.000  H
  H362     1.0000 0.41129  0.00154  0.76965  Biso   1.000  H
  H363     1.0000 0.72573  0.40082  0.00644  Biso   1.000  H
  H364     1.0000 0.49243  0.71069  0.14106  Biso   1.000  H
  H365     1.0000 0.90915  0.96451  0.81054  Biso   1.000  H
  H366     1.0000 0.22141  0.39271  0.54242  Biso   1.000  H
  H367     1.0000 0.48754  0.20995  0.44379  Biso   1.000  H
  H368     1.0000 0.08493  0.43808  0.76377  Biso   1.000  H
  H369     1.0000 0.75294  0.90244  0.02457  Biso   1.000  H
  H370     1.0000 0.02749  0.20714  0.13104  Biso   1.000  H
  H371     1.0000 0.58942  0.47733  0.81314  Biso   1.000  H
  H372     1.0000 0.26727  0.89153  0.53499  Biso   1.000  H
  H373     1.0000 0.99371  0.24607  0.62645  Biso   1.000  H
  H374     1.0000 0.58421  0.99092  0.31075  Biso   1.000  H
  H375     1.0000 0.25865  0.55572  0.03826  Biso   1.000  H
  H376     1.0000 0.51428  0.24941  0.94435  Biso   1.000  H
  H377     1.0000 0.08413  0.97426  0.27563  Biso   1.000  H
  H378     1.0000 0.76490  0.56896  0.54916  Biso   1.000  H
  H379     1.0000 0.47866  0.74984  0.63897  Biso   1.000  H
  H380     1.0000 0.90711  0.50152  0.31661  Biso   1.000  H
  H381     1.0000 0.23064  0.05726  0.04823  Biso   1.000  H
  H382     1.0000 0.97054  0.75537  0.95178  Biso   1.000  H
  H383     1.0000 0.40172  0.45696  0.26348  Biso   1.000  H
  H384     1.0000 0.72448  0.07632  0.54409  Biso   1.000  H
  H385     1.0000 0.20518  0.42358  0.36345  Biso   1.000  H
  H386     1.0000 0.26783  0.15467  0.51685  Biso   1.000  H
  H387     1.0000 0.45768  0.30883  0.27014  Biso   1.000  H
  H388     1.0000 0.66850  0.46806  0.27122  Biso   1.000  H
  H389     1.0000 0.83446  0.22386  0.06811  Biso   1.000  H
  H390     1.0000 0.97275  0.25004  0.36977  Biso   1.000  H
  H391     1.0000 0.32259  0.93383  0.32129  Biso   1.000  H
  H392     1.0000 0.16350  0.70432  0.49665  Biso   1.000  H
  H393     1.0000 0.96132  0.75655  0.22147  Biso   1.000  H
  H394     1.0000 0.77111  0.95190  0.21490  Biso   1.000  H
  H395     1.0000 0.69710  0.66845  0.07832  Biso   1.000  H
  H396     1.0000 0.50214  0.81162  0.32159  Biso   1.000  H
  H397     1.0000 0.77423  0.51865  0.71765  Biso   1.000  H
  H398     1.0000 0.72088  0.81125  0.58675  Biso   1.000  H
  H399     1.0000 0.51348  0.65919  0.83169  Biso   1.000  H
  H400     1.0000 0.32138  0.48284  0.80654  Biso   1.000  H
  H401     1.0000 0.20092  0.79300  0.02066  Biso   1.000  H
  H402     1.0000 0.02427  0.64418  0.76728  Biso   1.000  H
  H403     1.0000 0.72571  0.94983  0.70857  Biso   1.000  H
  H404     1.0000 0.76685  0.31511  0.56228  Biso   1.000  H
  H405     1.0000 0.95554  0.20072  0.87047  Biso   1.000  H
  H406     1.0000 0.22793  0.01052  0.87577  Biso   1.000  H
  H407     1.0000 0.27227  0.29575  0.00191  Biso   1.000  H
  H408     1.0000 0.48177  0.15388  0.76524  Biso   1.000  H
  H409     1.0000 0.25918  0.43092  0.20757  Biso   1.000  H
  H410     1.0000 0.17232  0.25920  0.51721  Biso   1.000  H
  H411     1.0000 0.44407  0.19701  0.36376  Biso   1.000  H
  H412     1.0000 0.81917  0.47472  0.31264  Biso   1.000  H
  H413     1.0000 0.67380  0.25541  0.01685  Biso   1.000  H
  H414     1.0000 0.97980  0.21097  0.21158  Biso   1.000  H
  H415     1.0000 0.16628  0.92832  0.26738  Biso   1.000  H
  H416     1.0000 0.31868  0.76145  0.48331  Biso   1.000  H
  H417     1.0000 0.98730  0.64949  0.31615  Biso   1.000  H
  H418     1.0000 0.72383  0.96015  0.36546  Biso   1.000  H
  H419     1.0000 0.80471  0.76598  0.06673  Biso   1.000  H
  H420     1.0000 0.44974  0.65395  0.26710  Biso   1.000  H
  H421     1.0000 0.71815  0.52556  0.86897  Biso   1.000  H
  H422     1.0000 0.76688  0.65249  0.58418  Biso   1.000  H
  H423     1.0000 0.51235  0.75041  0.71950  Biso   1.000  H
  H424     1.0000 0.16214  0.46841  0.76997  Biso   1.000  H
  H425     1.0000 0.30482  0.69979  0.03183  Biso   1.000  H
  H426     1.0000 0.01627  0.74925  0.87522  Biso   1.000  H
  H427     1.0000 0.78342  0.02413  0.85606  Biso   1.000  H
  H428     1.0000 0.71210  0.15862  0.58539  Biso   1.000  H
  H429     1.0000 0.01122  0.30177  0.76284  Biso   1.000  H
  H430     1.0000 0.32566  0.97274  0.77877  Biso   1.000  H
  H431     1.0000 0.18412  0.18539  0.00244  Biso   1.000  H
  H432     1.0000 0.46673  0.25862  0.86204  Biso   1.000  H
  H433     1.0000 0.26794  0.02010  0.71261  Biso   1.000  H
  H434     1.0000 0.73454  0.32490  0.04726  Biso   1.000  H
  H435     1.0000 0.03320  0.71002  0.37033  Biso   1.000  H
  H436     1.0000 0.81961  0.94430  0.81600  Biso   1.000  H
  H437     1.0000 0.22280  0.31149  0.57692  Biso   1.000  H
  H438     1.0000 0.52068  0.70552  0.22577  Biso   1.000  H
  H439     1.0000 0.22640  0.43913  0.70193  Biso   1.000  H
  H440     1.0000 0.75518  0.81638  0.00180  Biso   1.000  H
  H441     1.0000 0.51391  0.15273  0.31199  Biso   1.000  H
  H442     1.0000 0.67273  0.45592  0.82171  Biso   1.000  H
  H443     1.0000 0.26813  0.80714  0.55613  Biso   1.000  H
  H444     1.0000 0.03279  0.15012  0.26565  Biso   1.000  H
  H445     1.0000 0.66952  0.01959  0.31171  Biso   1.000  H
  H446     1.0000 0.25122  0.63816  0.08529  Biso   1.000  H
  H447     1.0000 0.96002  0.24280  0.71143  Biso   1.000  H
  H448     1.0000 0.22197  0.98942  0.22296  Biso   1.000  H
  H449     1.0000 0.82625  0.71102  0.53441  Biso   1.000  H
  H450     1.0000 0.53194  0.31199  0.81613  Biso   1.000  H
  H451     1.0000 0.76133  0.52869  0.37141  Biso   1.000  H
  H452     1.0000 0.23062  0.14937  0.07711  Biso   1.000  H
  H453     1.0000 0.45724  0.80866  0.77422  Biso   1.000  H
  H454     1.0000 0.31615  0.47837  0.27083  Biso   1.000  H
  H455     1.0000 0.67167  0.20603  0.50984  Biso   1.000  H
  H456     1.0000 0.97796  0.80451  0.80575  Biso   1.000  H
  H457     1.0000 0.66444  0.75332  0.53528  Biso   1.000  H
  H458     1.0000 0.43658  0.70106  0.87040  Biso   1.000  H
  H459     1.0000 0.81953  0.45058  0.77333  Biso   1.000  H
  H460     1.0000 0.15563  0.74570  0.09305  Biso   1.000  H
  H461     1.0000 0.95451  0.69589  0.72436  Biso   1.000  H
  H462     1.0000 0.26585  0.43205  0.86772  Biso   1.000  H
  H463     1.0000 0.82298  0.24748  0.52196  Biso   1.000  H
  H464     1.0000 0.01010  0.14616  0.81057  Biso   1.000  H
  H465     1.0000 0.66961  0.00579  0.76545  Biso   1.000  H
  H466     1.0000 0.33473  0.24299  0.05558  Biso   1.000  H
  H467     1.0000 0.53122  0.21249  0.70646  Biso   1.000  H
  H468     1.0000 0.16746  0.96268  0.81487  Biso   1.000  H
  H469     1.0000 0.32035  0.20541  0.58061  Biso   1.000  H
  H470     1.0000 0.50224  0.24585  0.21140  Biso   1.000  H
  H471     1.0000 0.17201  0.49941  0.31576  Biso   1.000  H
  H472     1.0000 0.78375  0.16251  0.01051  Biso   1.000  H
  H473     1.0000 0.02154  0.30673  0.31224  Biso   1.000  H
  H474     1.0000 0.71749  0.52266  0.21225  Biso   1.000  H
  H475     1.0000 0.22462  0.65814  0.54801  Biso   1.000  H
  H476     1.0000 0.03735  0.80111  0.26182  Biso   1.000  H
  H477     1.0000 0.25920  0.98203  0.37663  Biso   1.000  H
  H478     1.0000 0.65383  0.70997  0.00251  Biso   1.000  H
  H479     1.0000 0.44602  0.75148  0.37497  Biso   1.000  H
  H480     1.0000 0.81938  0.01753  0.26216  Biso   1.000  H
  N1       1.0000 0.66976  0.15932  0.54404  Biso   1.000  N
  N2       1.0000 0.48896  0.65547  0.22448  Biso   1.000  N
  N3       1.0000 0.17264  0.45509  0.71179  Biso   1.000  N
  N4       1.0000 0.18108  0.14481  0.04235  Biso   1.000  N
  N5       1.0000 0.00656  0.65525  0.36949  Biso   1.000  N
  N6       1.0000 0.67221  0.48733  0.86902  Biso   1.000  N
  N7       1.0000 0.81635  0.65642  0.55454  Biso   1.000  N
  N8       1.0000 0.00569  0.15661  0.21690  Biso   1.000  N
  N9       1.0000 0.32215  0.99436  0.72105  Biso   1.000  N
  N10      1.0000 0.30421  0.64520  0.05476  Biso   1.000  N
  N11      1.0000 0.48476  0.15117  0.36041  Biso   1.000  N
  N12      1.0000 0.82230  0.98277  0.86254  Biso   1.000  N
  N13      1.0000 0.31829  0.80662  0.52184  Biso   1.000  N
  N14      1.0000 0.50010  0.30519  0.86260  Biso   1.000  N
  N15      1.0000 0.81546  0.50042  0.36520  Biso   1.000  N
  N16      1.0000 0.80278  0.81320  0.03807  Biso   1.000  N
  N17      1.0000 0.98504  0.29460  0.71464  Biso   1.000  N
  N18      1.0000 0.31408  0.45772  0.21269  Biso   1.000  N
  N19      1.0000 0.17208  0.30392  0.55127  Biso   1.000  N
  N20      1.0000 0.99364  0.80256  0.86551  Biso   1.000  N
  N21      1.0000 0.67113  0.99114  0.36197  Biso   1.000  N
  N22      1.0000 0.67938  0.31436  0.03291  Biso   1.000  N
  N23      1.0000 0.48801  0.80482  0.72259  Biso   1.000  N
  N24      1.0000 0.17149  0.96119  0.22541  Biso   1.000  N
  N25      1.0000 0.82037  0.48406  0.71986  Biso   1.000  N
  N26      1.0000 0.67082  0.80555  0.56033  Biso   1.000  N
  N27      1.0000 0.47394  0.65717  0.87383  Biso   1.000  N
  N28      1.0000 0.31851  0.46146  0.86041  Biso   1.000  N
  N29      1.0000 0.15512  0.79265  0.05527  Biso   1.000  N
  N30      1.0000 0.99206  0.64734  0.72237  Biso   1.000  N
  N31      1.0000 0.67301  0.97716  0.71457  Biso   1.000  N
  N32      1.0000 0.81877  0.30496  0.53717  Biso   1.000  N
  N33      1.0000 0.98415  0.15140  0.86568  Biso   1.000  N
  N34      1.0000 0.17357  0.98615  0.86972  Biso   1.000  N
  N35      1.0000 0.32658  0.29473  0.02934  Biso   1.000  N
  N36      1.0000 0.50942  0.15773  0.70928  Biso   1.000  N
  N37      1.0000 0.16875  0.46678  0.36580  Biso   1.000  N
  N38      1.0000 0.31611  0.15474  0.54928  Biso   1.000  N
  N39      1.0000 0.48606  0.30176  0.21705  Biso   1.000  N
  N40      1.0000 0.67314  0.48904  0.21688  Biso   1.000  N
  N41      1.0000 0.83232  0.16856  0.04268  Biso   1.000  N
  N42      1.0000 0.99408  0.30322  0.36334  Biso   1.000  N
  N43      1.0000 0.31569  0.95803  0.37128  Biso   1.000  N
  N44      1.0000 0.17246  0.65739  0.52228  Biso   1.000  N
  N45      1.0000 0.99918  0.80421  0.21786  Biso   1.000  N
  N46      1.0000 0.81688  0.98274  0.21329  Biso   1.000  N
  N47      1.0000 0.65354  0.66313  0.04069  Biso   1.000  N
  N48      1.0000 0.47916  0.80355  0.37330  Biso   1.000  N
  O1       1.0000 0.33226  0.51116  0.04162  Biso   1.000  O
  O2       1.0000 0.98686  0.32250  0.58075  Biso   1.000  O
  O3       1.0000 0.53887  0.98030  0.38729  Biso   1.000  O
  O4       1.0000 0.83751  0.52178  0.54361  Biso   1.000  O
  O5       1.0000 0.51040  0.32317  0.99763  Biso   1.000  O
  O6       1.0000 0.03648  0.97748  0.20079  Biso   1.000  O
  O7       1.0000 0.15739  0.01350  0.05186  Biso   1.000  O
  O8       1.0000 0.48702  0.82223  0.58664  Biso   1.000  O
  O9       1.0000 0.95113  0.48541  0.38872  Biso   1.000  O
  O10      1.0000 0.65384  0.02511  0.53832  Biso   1.000  O
  O11      1.0000 0.98517  0.82305  0.00121  Biso   1.000  O
  O12      1.0000 0.45050  0.47441  0.19716  Biso   1.000  O
  O13      1.0000 0.65425  0.44593  0.03592  Biso   1.000  O
  O14      1.0000 0.99373  0.63099  0.50550  Biso   1.000  O
  O15      1.0000 0.45624  0.98845  0.69496  Biso   1.000  O
  O16      1.0000 0.15335  0.44018  0.54789  Biso   1.000  O
  O17      1.0000 0.48783  0.63920  0.09032  Biso   1.000  O
  O18      1.0000 0.95651  0.97064  0.88275  Biso   1.000  O
  O19      1.0000 0.83118  0.94750  0.03366  Biso   1.000  O
  O20      1.0000 0.48486  0.13862  0.49166  Biso   1.000  O
  O21      1.0000 0.03839  0.47016  0.69558  Biso   1.000  O
  O22      1.0000 0.33944  0.93776  0.54724  Biso   1.000  O
  O23      1.0000 0.01838  0.13644  0.08024  Biso   1.000  O
  O24      1.0000 0.53721  0.47051  0.88288  Biso   1.000  O
  O25      1.0000 0.95283  0.97620  0.19351  Biso   1.000  O
  O26      1.0000 0.15301  0.92971  0.04258  Biso   1.000  O
  O27      1.0000 0.99213  0.13622  0.00072  Biso   1.000  O
  O28      1.0000 0.45375  0.97738  0.39105  Biso   1.000  O
  O29      1.0000 0.65143  0.93890  0.53932  Biso   1.000  O
  O30      1.0000 0.49786  0.14128  0.57444  Biso   1.000  O
  O31      1.0000 0.53554  0.47532  0.20105  Biso   1.000  O
  O32      1.0000 0.33790  0.43027  0.03743  Biso   1.000  O
  O33      1.0000 0.47391  0.63612  0.00960  Biso   1.000  O
  O34      1.0000 0.03379  0.47280  0.38978  Biso   1.000  O
  O35      1.0000 0.84074  0.44065  0.53162  Biso   1.000  O
  O36      1.0000 0.99583  0.62859  0.58612  Biso   1.000  O
  O37      1.0000 0.04060  0.98012  0.88687  Biso   1.000  O
  O38      1.0000 0.84210  0.03137  0.04270  Biso   1.000  O
  O39      1.0000 0.98010  0.82290  0.08618  Biso   1.000  O
  O40      1.0000 0.53971  0.97150  0.69720  Biso   1.000  O
  O41      1.0000 0.34007  0.02347  0.53604  Biso   1.000  O
  O42      1.0000 0.50613  0.81837  0.50336  Biso   1.000  O
  O43      1.0000 0.45413  0.47751  0.88321  Biso   1.000  O
  O44      1.0000 0.64804  0.52605  0.05470  Biso   1.000  O
  O45      1.0000 0.49425  0.32375  0.07953  Biso   1.000  O
  O46      1.0000 0.95382  0.47482  0.69783  Biso   1.000  O
  O47      1.0000 0.15278  0.52264  0.53051  Biso   1.000  O
  O48      1.0000 0.00640  0.32316  0.49877  Biso   1.000  O
  O49      1.0000 0.00023  0.93404  0.20169  Biso   1.000  O
  O50      1.0000 0.15714  0.96970  0.00491  Biso   1.000  O
  O51      1.0000 0.96338  0.14026  0.05347  Biso   1.000  O
  O52      1.0000 0.49762  0.93855  0.39135  Biso   1.000  O
  O53      1.0000 0.65077  0.98125  0.58166  Biso   1.000  O
  O54      1.0000 0.45056  0.13950  0.53845  Biso   1.000  O
  O55      1.0000 0.49419  0.43530  0.19944  Biso   1.000  O
  O56      1.0000 0.32888  0.47599  0.99565  Biso   1.000  O
  O57      1.0000 0.52131  0.63546  0.03833  Biso   1.000  O
  O58      1.0000 0.99078  0.43562  0.39036  Biso   1.000  O
  O59      1.0000 0.83774  0.47903  0.58422  Biso   1.000  O
  O60      1.0000 0.04069  0.63188  0.54270  Biso   1.000  O
  O61      1.0000 0.99106  0.01870  0.88651  Biso   1.000  O
  O62      1.0000 0.83664  0.98515  0.07877  Biso   1.000  O
  O63      1.0000 0.02577  0.82207  0.04621  Biso   1.000  O
  O64      1.0000 0.50723  0.02088  0.69167  Biso   1.000  O
  O65      1.0000 0.33934  0.97431  0.50515  Biso   1.000  O
  O66      1.0000 0.53552  0.82668  0.55698  Biso   1.000  O
  O67      1.0000 0.49418  0.52015  0.88832  Biso   1.000  O
  O68      1.0000 0.65221  0.47680  0.08596  Biso   1.000  O
  O69      1.0000 0.46135  0.32124  0.02983  Biso   1.000  O
  O70      1.0000 0.99794  0.51223  0.70008  Biso   1.000  O
  O71      1.0000 0.15441  0.46895  0.50093  Biso   1.000  O
  O72      1.0000 0.95606  0.32032  0.53153  Biso   1.000  O
  O73      1.0000 0.99033  0.43145  0.69825  Biso   1.000  O
  O74      1.0000 0.64983  0.98043  0.49714  Biso   1.000  O
  O75      1.0000 0.44060  0.63258  0.05803  Biso   1.000  O
  O76      1.0000 0.49582  0.43554  0.88530  Biso   1.000  O
  O77      1.0000 0.15442  0.97017  0.09068  Biso   1.000  O
  O78      1.0000 0.95117  0.63479  0.55031  Biso   1.000  O
  O79      1.0000 0.49324  0.93765  0.69795  Biso   1.000  O
  O80      1.0000 0.83499  0.49030  0.50070  Biso   1.000  O
  O81      1.0000 0.04445  0.13246  0.02653  Biso   1.000  O
  O82      1.0000 0.00325  0.93614  0.88470  Biso   1.000  O
  O83      1.0000 0.33245  0.46565  0.07771  Biso   1.000  O
  O84      1.0000 0.53489  0.14217  0.52810  Biso   1.000  O
  O85      1.0000 0.99454  0.51942  0.38878  Biso   1.000  O
  O86      1.0000 0.34122  0.98604  0.58565  Biso   1.000  O
  O87      1.0000 0.54417  0.32944  0.04610  Biso   1.000  O
  O88      1.0000 0.49742  0.52101  0.20023  Biso   1.000  O
  O89      1.0000 0.84035  0.99451  0.99560  Biso   1.000  O
  O90      1.0000 0.03830  0.32410  0.54755  Biso   1.000  O
  O91      1.0000 0.49713  0.02086  0.38992  Biso   1.000  O
  O92      1.0000 0.15199  0.48915  0.58092  Biso   1.000  O
  O93      1.0000 0.93930  0.82989  0.04421  Biso   1.000  O
  O94      1.0000 0.99667  0.02146  0.19490  Biso   1.000  O
  O95      1.0000 0.64774  0.49705  0.00314  Biso   1.000  O
  O96      1.0000 0.45498  0.82547  0.53372  Biso   1.000  O
  O97      1.0000 0.44971  0.18852  0.53820  Biso   1.000  O
  O98      1.0000 0.49570  0.43539  0.24813  Biso   1.000  O
  O99      1.0000 0.20314  0.47184  0.49869  Biso   1.000  O
  O100     1.0000 0.96847  0.18833  0.04664  Biso   1.000  O
  O101     1.0000 0.98751  0.44083  0.34184  Biso   1.000  O
  O102     1.0000 0.70041  0.48066  0.08316  Biso   1.000  O
  O103     1.0000 0.03958  0.68118  0.54659  Biso   1.000  O
  O104     1.0000 0.99658  0.93678  0.25125  Biso   1.000  O
  O105     1.0000 0.29022  0.97313  0.50651  Biso   1.000  O
  O106     1.0000 0.51802  0.68388  0.03771  Biso   1.000  O
  O107     1.0000 0.49160  0.93352  0.34212  Biso   1.000  O
  O108     1.0000 0.78747  0.98730  0.07679  Biso   1.000  O
  O109     1.0000 0.53341  0.77748  0.55891  Biso   1.000  O
  O110     1.0000 0.50044  0.52552  0.84010  Biso   1.000  O
  O111     1.0000 0.78974  0.47489  0.58581  Biso   1.000  O
  O112     1.0000 0.02035  0.77274  0.04482  Biso   1.000  O
  O113     1.0000 0.00326  0.51142  0.74784  Biso   1.000  O
  O114     1.0000 0.28099  0.47178  0.99445  Biso   1.000  O
  O115     1.0000 0.95471  0.27140  0.53671  Biso   1.000  O
  O116     1.0000 0.99541  0.01707  0.83807  Biso   1.000  O
  O117     1.0000 0.69928  0.98543  0.57787  Biso   1.000  O
  O118     1.0000 0.46202  0.27310  0.03608  Biso   1.000  O
  O119     1.0000 0.50389  0.02473  0.74046  Biso   1.000  O
  O120     1.0000 0.20449  0.97099  0.00410  Biso   1.000  O
  O121     1.0000 0.03842  0.46453  0.74499  Biso   1.000  O
  O122     1.0000 0.70303  0.02469  0.53690  Biso   1.000  O
  O123     1.0000 0.48840  0.69025  0.09339  Biso   1.000  O
  O124     1.0000 0.53922  0.48081  0.83578  Biso   1.000  O
  O125     1.0000 0.20579  0.00807  0.05133  Biso   1.000  O
  O126     1.0000 0.99814  0.67997  0.50425  Biso   1.000  O
  O127     1.0000 0.45833  0.98887  0.74315  Biso   1.000  O
  O128     1.0000 0.78894  0.52101  0.54893  Biso   1.000  O
  O129     1.0000 0.01656  0.18525  0.07972  Biso   1.000  O
  O130     1.0000 0.95923  0.97000  0.83470  Biso   1.000  O
  O131     1.0000 0.28306  0.51087  0.04043  Biso   1.000  O
  O132     1.0000 0.48841  0.18777  0.49379  Biso   1.000  O
  O133     1.0000 0.95108  0.48225  0.34078  Biso   1.000  O
  O134     1.0000 0.28924  0.93961  0.55047  Biso   1.000  O
  O135     1.0000 0.51010  0.27414  0.99725  Biso   1.000  O
  O136     1.0000 0.44829  0.47370  0.24566  Biso   1.000  O
  O137     1.0000 0.78346  0.95171  0.03083  Biso   1.000  O
  O138     1.0000 0.98895  0.27355  0.57830  Biso   1.000  O
  O139     1.0000 0.53602  0.97506  0.33786  Biso   1.000  O
  O140     1.0000 0.20154  0.43923  0.54894  Biso   1.000  O
  O141     1.0000 0.97960  0.77436  0.00068  Biso   1.000  O
  O142     1.0000 0.03604  0.98455  0.24865  Biso   1.000  O
  O143     1.0000 0.70415  0.44976  0.03416  Biso   1.000  O
  O144     1.0000 0.48236  0.77404  0.58505  Biso   1.000  O
  O145     1.0000 0.53344  0.48162  0.24875  Biso   1.000  O
  O146     1.0000 0.20120  0.52078  0.53146  Biso   1.000  O
  O147     1.0000 0.49425  0.18988  0.57703  Biso   1.000  O
  O148     1.0000 0.03456  0.47512  0.34211  Biso   1.000  O
  O149     1.0000 0.69780  0.53243  0.05183  Biso   1.000  O
  O150     1.0000 0.00047  0.18313  0.99769  Biso   1.000  O
  O151     1.0000 0.95285  0.97499  0.24154  Biso   1.000  O
  O152     1.0000 0.29138  0.02032  0.53838  Biso   1.000  O
  O153     1.0000 0.99619  0.67774  0.58821  Biso   1.000  O
  O154     1.0000 0.45005  0.97840  0.34212  Biso   1.000  O
  O155     1.0000 0.79370  0.03590  0.04072  Biso   1.000  O
  O156     1.0000 0.46950  0.68449  0.01031  Biso   1.000  O
  O157     1.0000 0.45276  0.48430  0.83444  Biso   1.000  O
  O158     1.0000 0.79181  0.43936  0.53859  Biso   1.000  O
  O159     1.0000 0.50356  0.76858  0.50400  Biso   1.000  O
  O160     1.0000 0.95573  0.47672  0.74596  Biso   1.000  O
  O161     1.0000 0.28871  0.42860  0.03689  Biso   1.000  O
  O162     1.0000 0.97845  0.77475  0.08521  Biso   1.000  O
  O163     1.0000 0.04345  0.98577  0.83658  Biso   1.000  O
  O164     1.0000 0.70081  0.93982  0.53985  Biso   1.000  O
  O165     1.0000 0.00472  0.27397  0.49754  Biso   1.000  O
  O166     1.0000 0.53948  0.97835  0.74491  Biso   1.000  O
  O167     1.0000 0.20115  0.92339  0.03985  Biso   1.000  O
  O168     1.0000 0.49286  0.27608  0.07963  Biso   1.000  O
  O169     1.0000 0.99193  0.02180  0.24261  Biso   1.000  O
  O170     1.0000 0.20215  0.95850  0.09089  Biso   1.000  O
  O171     1.0000 0.05065  0.18135  0.03058  Biso   1.000  O
  O172     1.0000 0.49094  0.01671  0.34169  Biso   1.000  O
  O173     1.0000 0.69923  0.98151  0.49744  Biso   1.000  O
  O174     1.0000 0.53409  0.19105  0.53213  Biso   1.000  O
  O175     1.0000 0.49218  0.51910  0.24942  Biso   1.000  O
  O176     1.0000 0.28336  0.47073  0.08030  Biso   1.000  O
  O177     1.0000 0.43881  0.67961  0.06164  Biso   1.000  O
  O178     1.0000 0.99719  0.52033  0.34060  Biso   1.000  O
  O179     1.0000 0.78689  0.48050  0.50312  Biso   1.000  O
  O180     1.0000 0.95491  0.68237  0.54929  Biso   1.000  O
  O181     1.0000 0.01283  0.93522  0.83659  Biso   1.000  O
  O182     1.0000 0.79224  0.99924  0.99414  Biso   1.000  O
  O183     1.0000 0.93534  0.77984  0.04682  Biso   1.000  O
  O184     1.0000 0.49439  0.94079  0.74757  Biso   1.000  O
  O185     1.0000 0.29203  0.98697  0.58737  Biso   1.000  O
  O186     1.0000 0.45304  0.77651  0.53691  Biso   1.000  O
  O187     1.0000 0.49580  0.43966  0.83732  Biso   1.000  O
  O188     1.0000 0.69691  0.50273  0.00189  Biso   1.000  O
  O189     1.0000 0.54774  0.28179  0.04328  Biso   1.000  O
  O190     1.0000 0.99114  0.42907  0.74619  Biso   1.000  O
  O191     1.0000 0.20078  0.48805  0.58042  Biso   1.000  O
  O192     1.0000 0.03779  0.27547  0.54321  Biso   1.000  O
