data_image0
_cell_length_a       47.3345
_cell_length_b       46.5705
_cell_length_c       46.524
_cell_angle_alpha    90
_cell_angle_beta     90
_cell_angle_gamma    90

_symmetry_space_group_name_H-M    "P 1"
_symmetry_int_tables_number       1

loop_
  _symmetry_equiv_pos_as_xyz
  'x, y, z'

loop_
  _atom_site_label
  _atom_site_occupancy
  _atom_site_fract_x
  _atom_site_fract_y
  _atom_site_fract_z
  _atom_site_thermal_displace_type
  _atom_site_B_iso_or_equiv
  _atom_site_type_symbol
  C1       1.0000 0.57528  0.98872  0.33866  Biso   1.000  C
  C2       1.0000 0.33447  0.54854  0.04768  Biso   1.000  C
  C3       1.0000 0.01537  0.31627  0.57367  Biso   1.000  C
  C4       1.0000 0.06845  0.99753  0.20777  Biso   1.000  C
  C5       1.0000 0.84007  0.56585  0.50696  Biso   1.000  C
  C6       1.0000 0.51466  0.31860  0.96800  Biso   1.000  C
  C7       1.0000 0.98158  0.50613  0.34049  Biso   1.000  C
  C8       1.0000 0.20192  0.04820  0.02175  Biso   1.000  C
  C9       1.0000 0.53111  0.82281  0.58623  Biso   1.000  C
  C10      1.0000 0.48119  0.48218  0.21151  Biso   1.000  C
  C11      1.0000 0.70022  0.06529  0.50323  Biso   1.000  C
  C12      1.0000 0.02831  0.81118  0.97381  Biso   1.000  C
  C13      1.0000 0.47556  0.99769  0.70596  Biso   1.000  C
  C14      1.0000 0.70246  0.42848  0.00462  Biso   1.000  C
  C15      1.0000 0.03067  0.67621  0.47555  Biso   1.000  C
  C16      1.0000 0.97654  0.98486  0.83494  Biso   1.000  C
  C17      1.0000 0.19300  0.43245  0.54106  Biso   1.000  C
  C18      1.0000 0.53726  0.66586  0.08861  Biso   1.000  C
  C19      1.0000 0.05757  0.49992  0.71071  Biso   1.000  C
  C20      1.0000 0.83723  0.92794  0.00836  Biso   1.000  C
  C21      1.0000 0.51840  0.16595  0.46925  Biso   1.000  C
  C22      1.0000 0.55547  0.50452  0.83688  Biso   1.000  C
  C23      1.0000 0.34659  0.93041  0.52745  Biso   1.000  C
  C24      1.0000 0.02248  0.17735  0.07007  Biso   1.000  C
  C25      1.0000 0.33623  0.03966  0.53009  Biso   1.000  C
  C26      1.0000 0.51121  0.30735  0.07442  Biso   1.000  C
  C27      1.0000 0.08698  0.49425  0.35552  Biso   1.000  C
  C28      1.0000 0.84069  0.03874  0.01656  Biso   1.000  C
  C29      1.0000 0.99416  0.32114  0.46777  Biso   1.000  C
  C30      1.0000 0.58706  0.48230  0.19808  Biso   1.000  C
  C31      1.0000 0.20419  0.53982  0.54440  Biso   1.000  C
  C32      1.0000 0.01895  0.81069  0.08365  Biso   1.000  C
  C33      1.0000 0.46759  0.98433  0.34338  Biso   1.000  C
  C34      1.0000 0.69274  0.53917  0.00553  Biso   1.000  C
  C35      1.0000 0.53642  0.81490  0.47608  Biso   1.000  C
  C36      1.0000 0.96000  0.00549  0.19674  Biso   1.000  C
  C37      1.0000 0.71013  0.95879  0.52447  Biso   1.000  C
  C38      1.0000 0.51186  0.67483  0.98368  Biso   1.000  C
  C39      1.0000 0.94935  0.48343  0.69808  Biso   1.000  C
  C40      1.0000 0.20051  0.94222  0.04220  Biso   1.000  C
  C41      1.0000 0.03040  0.67433  0.58419  Biso   1.000  C
  C42      1.0000 0.44832  0.50272  0.85894  Biso   1.000  C
  C43      1.0000 0.83040  0.45742  0.50391  Biso   1.000  C
  C44      1.0000 0.01564  0.17119  0.96198  Biso   1.000  C
  C45      1.0000 0.58186  0.01259  0.70050  Biso   1.000  C
  C46      1.0000 0.33731  0.44077  0.04928  Biso   1.000  C
  C47      1.0000 0.50890  0.17953  0.57524  Biso   1.000  C
  C48      1.0000 0.08680  0.98419  0.84032  Biso   1.000  C
  C49      1.0000 0.02772  0.04114  0.83415  Biso   1.000  C
  C50      1.0000 0.83633  0.98180  0.06600  Biso   1.000  C
  C51      1.0000 0.07729  0.81529  0.03600  Biso   1.000  C
  C52      1.0000 0.52089  0.05786  0.70668  Biso   1.000  C
  C53      1.0000 0.34094  0.98530  0.47311  Biso   1.000  C
  C54      1.0000 0.58508  0.82771  0.53556  Biso   1.000  C
  C55      1.0000 0.49940  0.55909  0.84881  Biso   1.000  C
  C56      1.0000 0.70397  0.48305  0.05704  Biso   1.000  C
  C57      1.0000 0.46207  0.31934  0.01819  Biso   1.000  C
  C58      1.0000 0.99438  0.54478  0.70299  Biso   1.000  C
  C59      1.0000 0.20415  0.48443  0.49151  Biso   1.000  C
  C60      1.0000 0.95194  0.32158  0.52859  Biso   1.000  C
  C61      1.0000 0.01139  0.94766  0.20760  Biso   1.000  C
  C62      1.0000 0.20450  0.98475  0.97689  Biso   1.000  C
  C63      1.0000 0.96702  0.16791  0.02003  Biso   1.000  C
  C64      1.0000 0.52363  0.93114  0.34024  Biso   1.000  C
  C65      1.0000 0.70528  0.02220  0.56855  Biso   1.000  C
  C66      1.0000 0.45681  0.17131  0.51752  Biso   1.000  C
  C67      1.0000 0.53572  0.42611  0.20529  Biso   1.000  C
  C68      1.0000 0.33197  0.49529  0.99363  Biso   1.000  C
  C69      1.0000 0.57433  0.67105  0.02469  Biso   1.000  C
  C70      1.0000 0.03013  0.44566  0.34915  Biso   1.000  C
  C71      1.0000 0.83231  0.50698  0.56121  Biso   1.000  C
  C72      1.0000 0.08578  0.67311  0.52752  Biso   1.000  C
  C73      1.0000 0.04105  0.55166  0.34565  Biso   1.000  C
  C74      1.0000 0.34473  0.98292  0.58414  Biso   1.000  C
  C75      1.0000 0.57169  0.31232  0.02172  Biso   1.000  C
  C76      1.0000 0.53120  0.53667  0.21003  Biso   1.000  C
  C77      1.0000 0.84459  0.98827  0.95538  Biso   1.000  C
  C78      1.0000 0.06115  0.31619  0.51094  Biso   1.000  C
  C79      1.0000 0.51935  0.03896  0.34253  Biso   1.000  C
  C80      1.0000 0.19454  0.48477  0.59809  Biso   1.000  C
  C81      1.0000 0.96836  0.81188  0.02641  Biso   1.000  C
  C82      1.0000 0.02062  0.05619  0.20137  Biso   1.000  C
  C83      1.0000 0.69213  0.48432  0.94883  Biso   1.000  C
  C84      1.0000 0.47817  0.81307  0.52897  Biso   1.000  C
  C85      1.0000 0.01321  0.43630  0.70676  Biso   1.000  C
  C86      1.0000 0.70441  1.00000  0.46284  Biso   1.000  C
  C87      1.0000 0.46899  0.67123  0.04999  Biso   1.000  C
  C88      1.0000 0.50474  0.44946  0.84272  Biso   1.000  C
  C89      1.0000 0.19809  0.00281  0.08443  Biso   1.000  C
  C90      1.0000 0.97866  0.67808  0.52834  Biso   1.000  C
  C91      1.0000 0.54155  0.94868  0.70804  Biso   1.000  C
  C92      1.0000 0.84062  0.51215  0.45141  Biso   1.000  C
  C93      1.0000 0.07290  0.17300  0.01156  Biso   1.000  C
  C94      1.0000 0.02851  0.93184  0.84142  Biso   1.000  C
  C95      1.0000 0.34293  0.49638  0.10093  Biso   1.000  C
  C96      1.0000 0.56347  0.18072  0.52773  Biso   1.000  C
  C97      1.0000 0.69712  0.09644  0.49960  Biso   1.000  C
  C98      1.0000 0.54582  0.66594  0.12067  Biso   1.000  C
  C99      1.0000 0.08963  0.49894  0.71524  Biso   1.000  C
  C100     1.0000 0.20286  0.07998  0.02063  Biso   1.000  C
  C101     1.0000 0.02833  0.67811  0.44388  Biso   1.000  C
  C102     1.0000 0.58601  0.49897  0.82917  Biso   1.000  C
  C103     1.0000 0.84430  0.59786  0.50760  Biso   1.000  C
  C104     1.0000 0.02237  0.18011  0.10178  Biso   1.000  C
  C105     1.0000 0.44424  0.99393  0.70800  Biso   1.000  C
  C106     1.0000 0.33639  0.58104  0.05057  Biso   1.000  C
  C107     1.0000 0.52224  0.16552  0.43690  Biso   1.000  C
  C108     1.0000 0.94469  0.98908  0.83334  Biso   1.000  C
  C109     1.0000 0.34594  0.89809  0.52863  Biso   1.000  C
  C110     1.0000 0.50890  0.31944  0.93490  Biso   1.000  C
  C111     1.0000 0.94985  0.50349  0.33381  Biso   1.000  C
  C112     1.0000 0.83728  0.89642  0.00594  Biso   1.000  C
  C113     1.0000 0.01722  0.31333  0.60526  Biso   1.000  C
  C114     1.0000 0.44936  0.48905  0.21622  Biso   1.000  C
  C115     1.0000 0.19159  0.40164  0.53270  Biso   1.000  C
  C116     1.0000 0.03105  0.80837  0.94282  Biso   1.000  C
  C117     1.0000 0.60688  0.99074  0.33704  Biso   1.000  C
  C118     1.0000 0.70239  0.39782  0.01119  Biso   1.000  C
  C119     1.0000 0.53078  0.82071  0.61889  Biso   1.000  C
  C120     1.0000 0.10053  0.99539  0.20932  Biso   1.000  C
  C121     1.0000 0.83596  0.98183  0.09863  Biso   1.000  C
  C122     1.0000 0.10880  0.81545  0.04093  Biso   1.000  C
  C123     1.0000 0.02543  0.07290  0.83388  Biso   1.000  C
  C124     1.0000 0.34166  0.98267  0.44126  Biso   1.000  C
  C125     1.0000 0.61867  0.82912  0.53493  Biso   1.000  C
  C126     1.0000 0.52053  0.09058  0.70539  Biso   1.000  C
  C127     1.0000 0.70675  0.47972  0.08897  Biso   1.000  C
  C128     1.0000 0.43023  0.32054  0.02016  Biso   1.000  C
  C129     1.0000 0.50025  0.59085  0.84984  Biso   1.000  C
  C130     1.0000 0.20735  0.48823  0.45900  Biso   1.000  C
  C131     1.0000 0.92025  0.32581  0.53109  Biso   1.000  C
  C132     1.0000 0.98672  0.57622  0.70157  Biso   1.000  C
  C133     1.0000 0.20687  0.98462  0.94489  Biso   1.000  C
  C134     1.0000 0.93523  0.16651  0.02716  Biso   1.000  C
  C135     1.0000 0.00745  0.91612  0.20823  Biso   1.000  C
  C136     1.0000 0.70615  0.02697  0.60049  Biso   1.000  C
  C137     1.0000 0.42365  0.17008  0.51482  Biso   1.000  C
  C138     1.0000 0.52782  0.89857  0.34134  Biso   1.000  C
  C139     1.0000 0.32849  0.49541  0.96209  Biso   1.000  C
  C140     1.0000 0.60738  0.67112  0.02617  Biso   1.000  C
  C141     1.0000 0.53294  0.39312  0.20511  Biso   1.000  C
  C142     1.0000 0.82739  0.49996  0.59343  Biso   1.000  C
  C143     1.0000 0.11754  0.67095  0.53399  Biso   1.000  C
  C144     1.0000 0.02778  0.41373  0.34669  Biso   1.000  C
  C145     1.0000 0.34618  0.49466  0.13127  Biso   1.000  C
  C146     1.0000 0.09258  0.31539  0.50681  Biso   1.000  C
  C147     1.0000 0.51848  0.07180  0.34151  Biso   1.000  C
  C148     1.0000 0.84450  0.51018  0.41901  Biso   1.000  C
  C149     1.0000 0.60367  0.31003  0.02153  Biso   1.000  C
  C150     1.0000 0.02085  0.08834  0.19998  Biso   1.000  C
  C151     1.0000 0.19703  0.00418  0.11641  Biso   1.000  C
  C152     1.0000 0.44563  0.80893  0.53013  Biso   1.000  C
  C153     1.0000 0.04057  0.58522  0.34592  Biso   1.000  C
  C154     1.0000 0.70539  0.99634  0.42968  Biso   1.000  C
  C155     1.0000 0.93786  0.80800  0.02253  Biso   1.000  C
  C156     1.0000 0.53269  0.56918  0.21024  Biso   1.000  C
  C157     1.0000 0.68956  0.48557  0.91691  Biso   1.000  C
  C158     1.0000 0.94675  0.68144  0.52261  Biso   1.000  C
  C159     1.0000 0.54333  0.91625  0.71030  Biso   1.000  C
  C160     1.0000 0.19222  0.48739  0.62917  Biso   1.000  C
  C161     1.0000 0.43681  0.67254  0.04875  Biso   1.000  C
  C162     1.0000 0.02820  0.89972  0.84257  Biso   1.000  C
  C163     1.0000 0.84566  0.99087  0.92354  Biso   1.000  C
  C164     1.0000 0.59599  0.18224  0.53081  Biso   1.000  C
  C165     1.0000 0.01150  0.40451  0.70523  Biso   1.000  C
  C166     1.0000 0.34702  0.98172  0.61797  Biso   1.000  C
  C167     1.0000 0.10519  0.17474  0.01137  Biso   1.000  C
  C168     1.0000 0.50786  0.41669  0.84145  Biso   1.000  C
  C169     1.0000 0.01575  0.81331  0.11622  Biso   1.000  C
  C170     1.0000 0.11930  0.98242  0.84232  Biso   1.000  C
  C171     1.0000 0.84208  0.07029  0.02181  Biso   1.000  C
  C172     1.0000 0.53994  0.81272  0.44519  Biso   1.000  C
  C173     1.0000 0.61234  0.01874  0.69919  Biso   1.000  C
  C174     1.0000 0.33522  0.07157  0.53331  Biso   1.000  C
  C175     1.0000 0.51567  0.30506  0.10509  Biso   1.000  C
  C176     1.0000 0.41756  0.49732  0.86175  Biso   1.000  C
  C177     1.0000 0.69223  0.57145  0.00264  Biso   1.000  C
  C178     1.0000 0.99733  0.32124  0.43623  Biso   1.000  C
  C179     1.0000 0.91805  0.47562  0.69243  Biso   1.000  C
  C180     1.0000 0.20766  0.57081  0.54168  Biso   1.000  C
  C181     1.0000 0.02025  0.17146  0.93053  Biso   1.000  C
  C182     1.0000 0.92692  0.00559  0.19427  Biso   1.000  C
  C183     1.0000 0.20033  0.91116  0.05226  Biso   1.000  C
  C184     1.0000 0.50900  0.18066  0.60695  Biso   1.000  C
  C185     1.0000 0.43468  0.98547  0.34182  Biso   1.000  C
  C186     1.0000 0.71085  0.92728  0.52694  Biso   1.000  C
  C187     1.0000 0.51621  0.67958  0.95155  Biso   1.000  C
  C188     1.0000 0.61932  0.48198  0.19343  Biso   1.000  C
  C189     1.0000 0.33656  0.40886  0.04984  Biso   1.000  C
  C190     1.0000 0.02917  0.67282  0.61645  Biso   1.000  C
  C191     1.0000 0.11907  0.49569  0.35837  Biso   1.000  C
  C192     1.0000 0.82976  0.42552  0.50167  Biso   1.000  C
  C193     1.0000 0.87387  0.98711  0.90948  Biso   1.000  C
  C194     1.0000 0.91908  0.83310  0.01700  Biso   1.000  C
  C195     1.0000 0.03174  0.88331  0.86931  Biso   1.000  C
  C196     1.0000 0.37399  0.98486  0.63363  Biso   1.000  C
  C197     1.0000 0.42601  0.83445  0.52825  Biso   1.000  C
  C198     1.0000 0.54039  0.89893  0.68338  Biso   1.000  C
  C199     1.0000 0.66073  0.48442  0.90215  Biso   1.000  C
  C200     1.0000 0.62114  0.33521  0.01877  Biso   1.000  C
  C201     1.0000 0.50711  0.40032  0.86763  Biso   1.000  C
  C202     1.0000 0.16331  0.49354  0.64276  Biso   1.000  C
  C203     1.0000 0.11067  0.34073  0.51424  Biso   1.000  C
  C204     1.0000 0.01194  0.39060  0.67727  Biso   1.000  C
  C205     1.0000 0.17026  0.00350  0.13191  Biso   1.000  C
  C206     1.0000 0.12186  0.14823  0.01332  Biso   1.000  C
  C207     1.0000 0.01912  0.10110  0.17310  Biso   1.000  C
  C208     1.0000 0.67785  0.99302  0.41595  Biso   1.000  C
  C209     1.0000 0.61499  0.15633  0.52321  Biso   1.000  C
  C210     1.0000 0.52091  0.08713  0.36903  Biso   1.000  C
  C211     1.0000 0.37396  0.49341  0.14539  Biso   1.000  C
  C212     1.0000 0.41913  0.64521  0.04993  Biso   1.000  C
  C213     1.0000 0.53113  0.58638  0.18312  Biso   1.000  C
  C214     1.0000 0.87321  0.51198  0.40566  Biso   1.000  C
  C215     1.0000 0.92901  0.65580  0.51958  Biso   1.000  C
  C216     1.0000 0.03472  0.60099  0.37331  Biso   1.000  C
  C217     1.0000 0.13213  0.98381  0.87068  Biso   1.000  C
  C218     1.0000 0.86938  0.08526  0.02156  Biso   1.000  C
  C219     1.0000 0.01403  0.84186  0.12889  Biso   1.000  C
  C220     1.0000 0.62748  0.01866  0.67200  Biso   1.000  C
  C221     1.0000 0.36041  0.08915  0.53015  Biso   1.000  C
  C222     1.0000 0.53616  0.83773  0.42700  Biso   1.000  C
  C223     1.0000 0.40076  0.49798  0.88797  Biso   1.000  C
  C224     1.0000 0.66625  0.58994  0.01160  Biso   1.000  C
  C225     1.0000 0.51975  0.33057  0.12411  Biso   1.000  C
  C226     1.0000 0.90542  0.47728  0.66353  Biso   1.000  C
  C227     1.0000 0.18257  0.58984  0.54102  Biso   1.000  C
  C228     1.0000 0.00365  0.34737  0.42087  Biso   1.000  C
  C229     1.0000 0.91242  0.99984  0.16608  Biso   1.000  C
  C230     1.0000 0.17240  0.89616  0.05248  Biso   1.000  C
  C231     1.0000 0.02077  0.14355  0.91525  Biso   1.000  C
  C232     1.0000 0.41875  0.98381  0.37001  Biso   1.000  C
  C233     1.0000 0.68587  0.90989  0.53241  Biso   1.000  C
  C234     1.0000 0.51062  0.15474  0.62343  Biso   1.000  C
  C235     1.0000 0.63173  0.48444  0.16417  Biso   1.000  C
  C236     1.0000 0.36357  0.39324  0.04447  Biso   1.000  C
  C237     1.0000 0.50946  0.65413  0.93288  Biso   1.000  C
  C238     1.0000 0.13237  0.49635  0.38702  Biso   1.000  C
  C239     1.0000 0.85610  0.40647  0.50518  Biso   1.000  C
  C240     1.0000 0.01859  0.64627  0.62988  Biso   1.000  C
  C241     1.0000 0.60335  0.49474  0.85606  Biso   1.000  C
  C242     1.0000 0.87294  0.61069  0.50943  Biso   1.000  C
  C243     1.0000 0.53458  0.84836  0.63610  Biso   1.000  C
  C244     1.0000 0.10859  0.49752  0.69010  Biso   1.000  C
  C245     1.0000 0.36350  0.59547  0.05379  Biso   1.000  C
  C246     1.0000 0.03303  0.83366  0.92491  Biso   1.000  C
  C247     1.0000 0.92628  0.98952  0.85979  Biso   1.000  C
  C248     1.0000 0.66989  0.11052  0.50622  Biso   1.000  C
  C249     1.0000 0.01454  0.33931  0.62190  Biso   1.000  C
  C250     1.0000 0.42835  0.99082  0.68057  Biso   1.000  C
  C251     1.0000 0.17489  0.09746  0.01898  Biso   1.000  C
  C252     1.0000 0.50757  0.34725  0.91957  Biso   1.000  C
  C253     1.0000 0.42923  0.48677  0.19166  Biso   1.000  C
  C254     1.0000 0.16373  0.38714  0.53014  Biso   1.000  C
  C255     1.0000 0.52032  0.13860  0.42115  Biso   1.000  C
  C256     1.0000 0.92969  0.50945  0.35901  Biso   1.000  C
  C257     1.0000 0.67492  0.38340  0.01264  Biso   1.000  C
  C258     1.0000 0.02151  0.15276  0.12039  Biso   1.000  C
  C259     1.0000 0.11744  0.99513  0.18304  Biso   1.000  C
  C260     1.0000 0.37283  0.88151  0.52623  Biso   1.000  C
  C261     1.0000 0.03165  0.65236  0.42801  Biso   1.000  C
  C262     1.0000 0.62470  0.99315  0.36313  Biso   1.000  C
  C263     1.0000 0.86489  0.88090  0.00739  Biso   1.000  C
  C264     1.0000 0.54195  0.63801  0.13512  Biso   1.000  C
  C265     1.0000 0.02396  0.08908  0.86106  Biso   1.000  C
  C266     1.0000 0.86084  0.98549  0.11607  Biso   1.000  C
  C267     1.0000 0.12234  0.84320  0.04602  Biso   1.000  C
  C268     1.0000 0.51785  0.10541  0.67803  Biso   1.000  C
  C269     1.0000 0.36823  0.97871  0.42380  Biso   1.000  C
  C270     1.0000 0.63410  0.85674  0.53333  Biso   1.000  C
  C271     1.0000 0.50260  0.60498  0.87827  Biso   1.000  C
  C272     1.0000 0.68053  0.48070  0.10717  Biso   1.000  C
  C273     1.0000 0.41337  0.34614  0.02890  Biso   1.000  C
  C274     1.0000 0.99459  0.59168  0.67505  Biso   1.000  C
  C275     1.0000 0.18120  0.48875  0.44170  Biso   1.000  C
  C276     1.0000 0.90490  0.35361  0.52711  Biso   1.000  C
  C277     1.0000 0.00788  0.89926  0.18083  Biso   1.000  C
  C278     1.0000 0.18137  0.98845  0.92729  Biso   1.000  C
  C279     1.0000 0.92093  0.13985  0.02541  Biso   1.000  C
  C280     1.0000 0.53113  0.88627  0.37144  Biso   1.000  C
  C281     1.0000 0.67923  0.02356  0.61580  Biso   1.000  C
  C282     1.0000 0.40842  0.14277  0.51964  Biso   1.000  C
  C283     1.0000 0.53012  0.38013  0.17678  Biso   1.000  C
  C284     1.0000 0.35198  0.49568  0.94263  Biso   1.000  C
  C285     1.0000 0.62106  0.64278  0.02381  Biso   1.000  C
  C286     1.0000 0.02155  0.39658  0.37296  Biso   1.000  C
  C287     1.0000 0.85490  0.49299  0.60985  Biso   1.000  C
  C288     1.0000 0.13241  0.64230  0.53379  Biso   1.000  C
  C289     1.0000 0.37275  0.85164  0.52976  Biso   1.000  C
  C290     1.0000 0.50538  0.34661  0.88738  Biso   1.000  C
  C291     1.0000 0.89815  0.50756  0.35435  Biso   1.000  C
  C292     1.0000 0.86519  0.84970  0.00816  Biso   1.000  C
  C293     1.0000 0.01509  0.33702  0.65487  Biso   1.000  C
  C294     1.0000 0.39784  0.48912  0.19574  Biso   1.000  C
  C295     1.0000 0.16321  0.35663  0.52392  Biso   1.000  C
  C296     1.0000 0.02842  0.83200  0.89353  Biso   1.000  C
  C297     1.0000 0.65580  0.98963  0.36252  Biso   1.000  C
  C298     1.0000 0.67525  0.35247  0.01822  Biso   1.000  C
  C299     1.0000 0.53635  0.84476  0.66722  Biso   1.000  C
  C300     1.0000 0.14865  0.99699  0.18362  Biso   1.000  C
  C301     1.0000 0.66863  0.14148  0.51418  Biso   1.000  C
  C302     1.0000 0.53895  0.64006  0.16581  Biso   1.000  C
  C303     1.0000 0.13893  0.49892  0.69386  Biso   1.000  C
  C304     1.0000 0.17414  0.12835  0.02197  Biso   1.000  C
  C305     1.0000 0.03232  0.65383  0.39730  Biso   1.000  C
  C306     1.0000 0.63393  0.49141  0.85218  Biso   1.000  C
  C307     1.0000 0.87490  0.64172  0.51415  Biso   1.000  C
  C308     1.0000 0.02253  0.15439  0.15129  Biso   1.000  C
  C309     1.0000 0.39730  0.98915  0.68468  Biso   1.000  C
  C310     1.0000 0.36468  0.62712  0.05200  Biso   1.000  C
  C311     1.0000 0.51773  0.13903  0.38936  Biso   1.000  C
  C312     1.0000 0.89585  0.99175  0.85711  Biso   1.000  C
  C313     1.0000 0.18581  0.49163  0.41090  Biso   1.000  C
  C314     1.0000 0.37785  0.14233  0.52114  Biso   1.000  C
  C315     1.0000 0.52566  0.34882  0.17799  Biso   1.000  C
  C316     1.0000 0.68340  0.48421  0.13830  Biso   1.000  C
  C317     1.0000 0.89012  0.13891  0.02630  Biso   1.000  C
  C318     1.0000 0.01766  0.36670  0.36985  Biso   1.000  C
  C319     1.0000 0.36579  0.98124  0.39242  Biso   1.000  C
  C320     1.0000 0.16411  0.64261  0.53627  Biso   1.000  C
  C321     1.0000 0.00827  0.86727  0.18295  Biso   1.000  C
  C322     1.0000 0.86010  0.99102  0.14616  Biso   1.000  C
  C323     1.0000 0.65328  0.64204  0.01961  Biso   1.000  C
  C324     1.0000 0.53423  0.85486  0.37268  Biso   1.000  C
  C325     1.0000 0.85338  0.48737  0.64065  Biso   1.000  C
  C326     1.0000 0.66551  0.85640  0.52959  Biso   1.000  C
  C327     1.0000 0.50949  0.63469  0.87912  Biso   1.000  C
  C328     1.0000 0.34846  0.49476  0.91153  Biso   1.000  C
  C329     1.0000 0.15343  0.84296  0.05239  Biso   1.000  C
  C330     1.0000 0.00258  0.62172  0.67860  Biso   1.000  C
  C331     1.0000 0.67951  0.02192  0.64723  Biso   1.000  C
  C332     1.0000 0.87296  0.35364  0.51906  Biso   1.000  C
  C333     1.0000 0.02209  0.11966  0.86181  Biso   1.000  C
  C334     1.0000 0.18327  0.98699  0.89566  Biso   1.000  C
  C335     1.0000 0.38240  0.34212  0.03084  Biso   1.000  C
  C336     1.0000 0.51341  0.13610  0.67599  Biso   1.000  C
  C337     1.0000 0.65790  0.48890  0.87195  Biso   1.000  C
  C338     1.0000 0.89820  0.66041  0.51684  Biso   1.000  C
  C339     1.0000 0.53804  0.86712  0.68826  Biso   1.000  C
  C340     1.0000 0.16273  0.49573  0.67379  Biso   1.000  C
  C341     1.0000 0.38707  0.64747  0.05165  Biso   1.000  C
  C342     1.0000 0.02640  0.85311  0.87101  Biso   1.000  C
  C343     1.0000 0.87373  0.99165  0.87820  Biso   1.000  C
  C344     1.0000 0.64614  0.16107  0.52119  Biso   1.000  C
  C345     1.0000 0.01323  0.35868  0.67594  Biso   1.000  C
  C346     1.0000 0.37440  0.98707  0.66456  Biso   1.000  C
  C347     1.0000 0.15203  0.14941  0.02035  Biso   1.000  C
  C348     1.0000 0.50407  0.36867  0.86578  Biso   1.000  C
  C349     1.0000 0.37475  0.49024  0.17541  Biso   1.000  C
  C350     1.0000 0.14152  0.33710  0.51612  Biso   1.000  C
  C351     1.0000 0.51721  0.11810  0.36755  Biso   1.000  C
  C352     1.0000 0.87523  0.50838  0.37407  Biso   1.000  C
  C353     1.0000 0.65370  0.33308  0.01967  Biso   1.000  C
  C354     1.0000 0.02170  0.13326  0.17405  Biso   1.000  C
  C355     1.0000 0.17058  0.00002  0.16268  Biso   1.000  C
  C356     1.0000 0.39547  0.83180  0.52902  Biso   1.000  C
  C357     1.0000 0.03519  0.63234  0.37492  Biso   1.000  C
  C358     1.0000 0.67827  0.98976  0.38412  Biso   1.000  C
  C359     1.0000 0.88811  0.82935  0.01262  Biso   1.000  C
  C360     1.0000 0.53505  0.61675  0.18535  Biso   1.000  C
  C361     1.0000 0.02120  0.14217  0.88332  Biso   1.000  C
  C362     1.0000 0.88142  0.99514  0.16737  Biso   1.000  C
  C363     1.0000 0.17507  0.86441  0.05507  Biso   1.000  C
  C364     1.0000 0.51089  0.15717  0.65379  Biso   1.000  C
  C365     1.0000 0.38717  0.98259  0.37073  Biso   1.000  C
  C366     1.0000 0.68733  0.87889  0.52800  Biso   1.000  C
  C367     1.0000 0.51492  0.65437  0.90260  Biso   1.000  C
  C368     1.0000 0.66344  0.48266  0.16138  Biso   1.000  C
  C369     1.0000 0.36131  0.36226  0.03913  Biso   1.000  C
  C370     1.0000 0.01390  0.64337  0.66075  Biso   1.000  C
  C371     1.0000 0.16431  0.49303  0.38838  Biso   1.000  C
  C372     1.0000 0.85252  0.37448  0.50999  Biso   1.000  C
  C373     1.0000 0.01222  0.84350  0.16232  Biso   1.000  C
  C374     1.0000 0.16361  0.98456  0.87232  Biso   1.000  C
  C375     1.0000 0.86920  0.11650  0.02470  Biso   1.000  C
  C376     1.0000 0.53777  0.83366  0.39606  Biso   1.000  C
  C377     1.0000 0.65918  0.02045  0.67107  Biso   1.000  C
  C378     1.0000 0.35819  0.12094  0.52621  Biso   1.000  C
  C379     1.0000 0.52003  0.32824  0.15569  Biso   1.000  C
  C380     1.0000 0.36924  0.49534  0.88933  Biso   1.000  C
  C381     1.0000 0.67232  0.61976  0.01315  Biso   1.000  C
  C382     1.0000 0.01149  0.34588  0.39088  Biso   1.000  C
  C383     1.0000 0.87310  0.48375  0.66299  Biso   1.000  C
  C384     1.0000 0.18545  0.62015  0.53729  Biso   1.000  C
  C385     1.0000 0.20067  0.14419  0.02602  Biso   1.000  C
  C386     1.0000 0.02229  0.18197  0.16631  Biso   1.000  C
  C387     1.0000 0.16209  0.99586  0.21126  Biso   1.000  C
  C388     1.0000 0.69502  0.15894  0.51560  Biso   1.000  C
  C389     1.0000 0.51498  0.16626  0.37522  Biso   1.000  C
  C390     1.0000 0.66900  0.99037  0.33547  Biso   1.000  C
  C391     1.0000 0.33778  0.64394  0.05289  Biso   1.000  C
  C392     1.0000 0.54257  0.66600  0.18378  Biso   1.000  C
  C393     1.0000 0.38437  0.49597  0.22256  Biso   1.000  C
  C394     1.0000 0.84955  0.66051  0.51297  Biso   1.000  C
  C395     1.0000 0.02969  0.68097  0.38304  Biso   1.000  C
  C396     1.0000 0.88604  0.50179  0.32656  Biso   1.000  C
  C397     1.0000 0.83916  0.83298  0.00919  Biso   1.000  C
  C398     1.0000 0.02319  0.80437  0.87941  Biso   1.000  C
  C399     1.0000 0.88165  0.99287  0.82868  Biso   1.000  C
  C400     1.0000 0.34684  0.83471  0.53372  Biso   1.000  C
  C401     1.0000 0.53475  0.81864  0.68273  Biso   1.000  C
  C402     1.0000 0.38200  0.98909  0.71208  Biso   1.000  C
  C403     1.0000 0.70424  0.33580  0.02089  Biso   1.000  C
  C404     1.0000 0.50499  0.31975  0.87149  Biso   1.000  C
  C405     1.0000 0.64781  0.49333  0.82333  Biso   1.000  C
  C406     1.0000 0.18929  0.33931  0.52112  Biso   1.000  C
  C407     1.0000 0.01579  0.31000  0.66973  Biso   1.000  C
  C408     1.0000 0.15212  0.50157  0.72156  Biso   1.000  C
  C409     1.0000 0.18212  0.98005  0.84701  Biso   1.000  C
  C410     1.0000 0.84083  0.13163  0.02723  Biso   1.000  C
  C411     1.0000 0.01402  0.81802  0.17947  Biso   1.000  C
  C412     1.0000 0.67577  0.01960  0.69658  Biso   1.000  C
  C413     1.0000 0.32927  0.13531  0.52797  Biso   1.000  C
  C414     1.0000 0.54163  0.80753  0.38171  Biso   1.000  C
  C415     1.0000 0.35254  0.49424  0.86280  Biso   1.000  C
  C416     1.0000 0.69910  0.63314  0.00799  Biso   1.000  C
  C417     1.0000 0.51567  0.30061  0.16847  Biso   1.000  C
  C418     1.0000 0.85597  0.47914  0.68809  Biso   1.000  C
  C419     1.0000 0.21215  0.63399  0.53490  Biso   1.000  C
  C420     1.0000 0.01326  0.31807  0.37426  Biso   1.000  C
  C421     1.0000 0.86445  0.99806  0.19322  Biso   1.000  C
  C422     1.0000 0.20194  0.84876  0.05975  Biso   1.000  C
  C423     1.0000 0.02293  0.16940  0.86713  Biso   1.000  C
  C424     1.0000 0.37095  0.98092  0.34465  Biso   1.000  C
  C425     1.0000 0.71394  0.86340  0.52387  Biso   1.000  C
  C426     1.0000 0.50697  0.18362  0.66986  Biso   1.000  C
  C427     1.0000 0.68208  0.48312  0.18611  Biso   1.000  C
  C428     1.0000 0.33568  0.34663  0.04140  Biso   1.000  C
  C429     1.0000 0.52417  0.68045  0.88840  Biso   1.000  C
  C430     1.0000 0.18062  0.49166  0.36212  Biso   1.000  C
  C431     1.0000 0.82459  0.36237  0.51250  Biso   1.000  C
  C432     1.0000 0.01968  0.66824  0.67890  Biso   1.000  C
  C433     1.0000 0.02253  0.13586  0.83423  Biso   1.000  C
  C434     1.0000 0.83242  0.99212  0.16066  Biso   1.000  C
  C435     1.0000 0.16899  0.81571  0.05619  Biso   1.000  C
  C436     1.0000 0.51000  0.15260  0.70268  Biso   1.000  C
  C437     1.0000 0.33861  0.98028  0.37712  Biso   1.000  C
  C438     1.0000 0.68230  0.83014  0.52535  Biso   1.000  C
  C439     1.0000 0.51496  0.65182  0.85342  Biso   1.000  C
  C440     1.0000 0.71219  0.48609  0.15042  Biso   1.000  C
  C441     1.0000 0.36744  0.31572  0.02849  Biso   1.000  C
  C442     1.0000 0.00366  0.63601  0.70692  Biso   1.000  C
  C443     1.0000 0.21200  0.49185  0.39609  Biso   1.000  C
  C444     1.0000 0.85597  0.32775  0.52444  Biso   1.000  C
  C445     1.0000 0.00890  0.85259  0.21086  Biso   1.000  C
  C446     1.0000 0.21150  0.98446  0.88208  Biso   1.000  C
  C447     1.0000 0.87212  0.16418  0.03031  Biso   1.000  C
  C448     1.0000 0.53640  0.83725  0.34641  Biso   1.000  C
  C449     1.0000 0.70727  0.02056  0.66245  Biso   1.000  C
  C450     1.0000 0.36065  0.16816  0.51934  Biso   1.000  C
  C451     1.0000 0.52191  0.33136  0.20379  Biso   1.000  C
  C452     1.0000 0.32067  0.49356  0.89807  Biso   1.000  C
  C453     1.0000 0.67057  0.66653  0.02202  Biso   1.000  C
  C454     1.0000 0.02263  0.35193  0.34158  Biso   1.000  C
  C455     1.0000 0.82535  0.48698  0.65427  Biso   1.000  C
  C456     1.0000 0.18011  0.66909  0.53292  Biso   1.000  C
  C457     1.0000 0.03781  0.64790  0.34869  Biso   1.000  C
  C458     1.0000 0.34817  0.98430  0.68033  Biso   1.000  C
  C459     1.0000 0.66964  0.30429  0.02339  Biso   1.000  C
  C460     1.0000 0.53787  0.63065  0.21336  Biso   1.000  C
  C461     1.0000 0.84713  0.99766  0.86114  Biso   1.000  C
  C462     1.0000 0.15624  0.30922  0.50981  Biso   1.000  C
  C463     1.0000 0.51380  0.13344  0.34070  Biso   1.000  C
  C464     1.0000 0.18815  0.49357  0.69236  Biso   1.000  C
  C465     1.0000 0.87528  0.80223  0.01574  Biso   1.000  C
  C466     1.0000 0.02115  0.14991  0.19949  Biso   1.000  C
  C467     1.0000 0.68197  0.48853  0.85399  Biso   1.000  C
  C468     1.0000 0.38158  0.80398  0.53334  Biso   1.000  C
  C469     1.0000 0.01349  0.34210  0.70141  Biso   1.000  C
  C470     1.0000 0.70441  0.99078  0.36651  Biso   1.000  C
  C471     1.0000 0.37212  0.67529  0.05199  Biso   1.000  C
  C472     1.0000 0.50464  0.35214  0.83934  Biso   1.000  C
  C473     1.0000 0.19636  0.00072  0.17898  Biso   1.000  C
  C474     1.0000 0.88488  0.68861  0.51758  Biso   1.000  C
  C475     1.0000 0.53775  0.85272  0.71551  Biso   1.000  C
  C476     1.0000 0.85015  0.50407  0.35626  Biso   1.000  C
  C477     1.0000 0.16609  0.17748  0.02313  Biso   1.000  C
  C478     1.0000 0.02214  0.83605  0.84539  Biso   1.000  C
  C479     1.0000 0.34835  0.49223  0.19299  Biso   1.000  C
  C480     1.0000 0.65957  0.18973  0.52314  Biso   1.000  C
  C481     1.0000 0.40068  0.77793  0.53459  Biso   1.000  C
  C482     1.0000 0.50686  0.36971  0.81300  Biso   1.000  C
  C483     1.0000 0.82087  0.50305  0.36898  Biso   1.000  C
  C484     1.0000 0.89382  0.77611  0.02214  Biso   1.000  C
  C485     1.0000 0.00966  0.35596  0.72924  Biso   1.000  C
  C486     1.0000 0.32080  0.49717  0.17873  Biso   1.000  C
  C487     1.0000 0.13707  0.28427  0.50035  Biso   1.000  C
  C488     1.0000 0.02201  0.85091  0.81716  Biso   1.000  C
  C489     1.0000 0.73170  0.99635  0.38127  Biso   1.000  C
  C490     1.0000 0.65050  0.27842  0.02550  Biso   1.000  C
  C491     1.0000 0.53997  0.87093  0.74110  Biso   1.000  C
  C492     1.0000 0.22493  0.00286  0.16435  Biso   1.000  C
  C493     1.0000 0.64082  0.21476  0.53110  Biso   1.000  C
  C494     1.0000 0.53653  0.61476  0.24105  Biso   1.000  C
  C495     1.0000 0.21618  0.48568  0.67813  Biso   1.000  C
  C496     1.0000 0.14914  0.20368  0.02071  Biso   1.000  C
  C497     1.0000 0.04427  0.63320  0.32179  Biso   1.000  C
  C498     1.0000 0.71238  0.48967  0.86611  Biso   1.000  C
  C499     1.0000 0.90207  0.71500  0.52280  Biso   1.000  C
  C500     1.0000 0.01719  0.13448  0.22772  Biso   1.000  C
  C501     1.0000 0.32103  0.98152  0.66490  Biso   1.000  C
  C502     1.0000 0.38887  0.70104  0.05382  Biso   1.000  C
  C503     1.0000 0.51098  0.11695  0.31349  Biso   1.000  C
  C504     1.0000 0.82113  0.00456  0.87748  Biso   1.000  C
  C505     1.0000 0.63013  0.49748  0.79722  Biso   1.000  C
  C506     1.0000 0.82238  0.64724  0.50704  Biso   1.000  C
  C507     1.0000 0.53109  0.79210  0.66621  Biso   1.000  C
  C508     1.0000 0.13301  0.50416  0.74704  Biso   1.000  C
  C509     1.0000 0.31026  0.62881  0.05175  Biso   1.000  C
  C510     1.0000 0.02014  0.77804  0.89695  Biso   1.000  C
  C511     1.0000 0.89880  0.99250  0.80287  Biso   1.000  C
  C512     1.0000 0.72174  0.14443  0.50565  Biso   1.000  C
  C513     1.0000 0.02085  0.28303  0.65157  Biso   1.000  C
  C514     1.0000 0.39917  0.99157  0.73994  Biso   1.000  C
  C515     1.0000 0.22857  0.12762  0.02972  Biso   1.000  C
  C516     1.0000 0.50435  0.29199  0.88648  Biso   1.000  C
  C517     1.0000 0.40576  0.49835  0.24918  Biso   1.000  C
  C518     1.0000 0.21784  0.35519  0.52185  Biso   1.000  C
  C519     1.0000 0.51905  0.19451  0.39046  Biso   1.000  C
  C520     1.0000 0.90513  0.49415  0.30180  Biso   1.000  C
  C521     1.0000 0.73194  0.35016  0.01691  Biso   1.000  C
  C522     1.0000 0.02407  0.20756  0.14920  Biso   1.000  C
  C523     1.0000 0.14633  0.99729  0.23822  Biso   1.000  C
  C524     1.0000 0.32042  0.85181  0.53765  Biso   1.000  C
  C525     1.0000 0.02338  0.70746  0.39975  Biso   1.000  C
  C526     1.0000 0.65221  0.98940  0.30815  Biso   1.000  C
  C527     1.0000 0.81073  0.84823  0.00635  Biso   1.000  C
  C528     1.0000 0.54594  0.69443  0.16900  Biso   1.000  C
  C529     1.0000 0.81336  0.11679  0.02770  Biso   1.000  C
  C530     1.0000 0.01579  0.79025  0.16686  Biso   1.000  C
  C531     1.0000 0.16761  0.97721  0.81904  Biso   1.000  C
  C532     1.0000 0.30386  0.11796  0.53438  Biso   1.000  C
  C533     1.0000 0.54564  0.78198  0.39927  Biso   1.000  C
  C534     1.0000 0.66171  0.01720  0.72426  Biso   1.000  C
  C535     1.0000 0.72218  0.61532  0.99742  Biso   1.000  C
  C536     1.0000 0.50989  0.27573  0.14997  Biso   1.000  C
  C537     1.0000 0.36969  0.49069  0.83671  Biso   1.000  C
  C538     1.0000 0.23869  0.61612  0.53674  Biso   1.000  C
  C539     1.0000 0.00581  0.29163  0.39051  Biso   1.000  C
  C540     1.0000 0.87057  0.47374  0.71491  Biso   1.000  C
  C541     1.0000 0.22863  0.86569  0.06529  Biso   1.000  C
  C542     1.0000 0.02507  0.19768  0.88122  Biso   1.000  C
  C543     1.0000 0.87938  0.00216  0.22067  Biso   1.000  C
  C544     1.0000 0.73985  0.88083  0.51953  Biso   1.000  C
  C545     1.0000 0.50425  0.21106  0.65296  Biso   1.000  C
  C546     1.0000 0.38516  0.98334  0.31688  Biso   1.000  C
  C547     1.0000 0.30833  0.36320  0.04723  Biso   1.000  C
  C548     1.0000 0.53201  0.70640  0.90682  Biso   1.000  C
  C549     1.0000 0.66987  0.48296  0.21604  Biso   1.000  C
  C550     1.0000 0.79948  0.38084  0.50619  Biso   1.000  C
  C551     1.0000 0.03121  0.69539  0.66658  Biso   1.000  C
  C552     1.0000 0.16671  0.49126  0.33395  Biso   1.000  C
  C553     1.0000 0.02117  0.12051  0.80723  Biso   1.000  C
  C554     1.0000 0.80595  0.98767  0.14482  Biso   1.000  C
  C555     1.0000 0.15544  0.78847  0.04852  Biso   1.000  C
  C556     1.0000 0.51412  0.13900  0.73125  Biso   1.000  C
  C557     1.0000 0.31139  0.98246  0.39485  Biso   1.000  C
  C558     1.0000 0.66581  0.80403  0.52605  Biso   1.000  C
  C559     1.0000 0.51047  0.63983  0.82500  Biso   1.000  C
  C560     1.0000 0.73852  0.48519  0.13351  Biso   1.000  C
  C561     1.0000 0.38473  0.29102  0.02070  Biso   1.000  C
  C562     1.0000 0.99276  0.62140  0.73247  Biso   1.000  C
  C563     1.0000 0.23804  0.49309  0.41371  Biso   1.000  C
  C564     1.0000 0.87096  0.30110  0.53368  Biso   1.000  C
  C565     1.0000 0.00868  0.86997  0.23763  Biso   1.000  C
  C566     1.0000 0.23794  0.98259  0.89838  Biso   1.000  C
  C567     1.0000 0.88609  0.19177  0.03235  Biso   1.000  C
  C568     1.0000 0.53418  0.84978  0.31689  Biso   1.000  C
  C569     1.0000 0.73512  0.02452  0.64707  Biso   1.000  C
  C570     1.0000 0.37525  0.19488  0.51093  Biso   1.000  C
  C571     1.0000 0.52661  0.34719  0.23143  Biso   1.000  C
  C572     1.0000 0.29641  0.49307  0.91724  Biso   1.000  C
  C573     1.0000 0.65776  0.69387  0.03005  Biso   1.000  C
  C574     1.0000 0.03242  0.36929  0.31677  Biso   1.000  C
  C575     1.0000 0.79890  0.49328  0.63991  Biso   1.000  C
  C576     1.0000 0.16420  0.69688  0.53180  Biso   1.000  C
  C577     1.0000 0.31959  0.49669  0.14752  Biso   1.000  C
  C578     1.0000 0.10566  0.28809  0.49970  Biso   1.000  C
  C579     1.0000 0.51266  0.08554  0.31446  Biso   1.000  C
  C580     1.0000 0.81863  0.50494  0.40036  Biso   1.000  C
  C581     1.0000 0.61918  0.28142  0.02469  Biso   1.000  C
  C582     1.0000 0.01894  0.10430  0.22679  Biso   1.000  C
  C583     1.0000 0.22351  0.00432  0.13357  Biso   1.000  C
  C584     1.0000 0.43249  0.78017  0.53289  Biso   1.000  C
  C585     1.0000 0.04553  0.60259  0.32077  Biso   1.000  C
  C586     1.0000 0.73172  0.99856  0.41335  Biso   1.000  C
  C587     1.0000 0.92524  0.77964  0.02591  Biso   1.000  C
  C588     1.0000 0.53300  0.58354  0.23874  Biso   1.000  C
  C589     1.0000 0.71556  0.48939  0.89777  Biso   1.000  C
  C590     1.0000 0.93376  0.71087  0.52354  Biso   1.000  C
  C591     1.0000 0.54217  0.90184  0.73897  Biso   1.000  C
  C592     1.0000 0.21783  0.48263  0.64699  Biso   1.000  C
  C593     1.0000 0.42164  0.70083  0.05328  Biso   1.000  C
  C594     1.0000 0.02423  0.88303  0.81574  Biso   1.000  C
  C595     1.0000 0.81978  0.00140  0.90858  Biso   1.000  C
  C596     1.0000 0.60902  0.21025  0.53480  Biso   1.000  C
  C597     1.0000 0.01143  0.38829  0.73152  Biso   1.000  C
  C598     1.0000 0.32051  0.98066  0.63322  Biso   1.000  C
  C599     1.0000 0.11808  0.20231  0.01699  Biso   1.000  C
  C600     1.0000 0.50797  0.40136  0.81356  Biso   1.000  C
  C601     1.0000 0.23381  0.98113  0.92946  Biso   1.000  C
  C602     1.0000 0.91746  0.19395  0.03211  Biso   1.000  C
  C603     1.0000 0.00683  0.90131  0.23637  Biso   1.000  C
  C604     1.0000 0.73370  0.02993  0.61573  Biso   1.000  C
  C605     1.0000 0.40670  0.19711  0.50973  Biso   1.000  C
  C606     1.0000 0.53084  0.88122  0.31443  Biso   1.000  C
  C607     1.0000 0.29967  0.49328  0.94879  Biso   1.000  C
  C608     1.0000 0.62603  0.69565  0.03154  Biso   1.000  C
  C609     1.0000 0.53274  0.37824  0.23328  Biso   1.000  C
  C610     1.0000 0.79955  0.49909  0.60762  Biso   1.000  C
  C611     1.0000 0.13323  0.69879  0.53632  Biso   1.000  C
  C612     1.0000 0.03637  0.40090  0.31994  Biso   1.000  C
  C613     1.0000 0.80722  0.98197  0.11385  Biso   1.000  C
  C614     1.0000 0.12575  0.78880  0.04035  Biso   1.000  C
  C615     1.0000 0.02360  0.08887  0.80717  Biso   1.000  C
  C616     1.0000 0.31398  0.98588  0.42593  Biso   1.000  C
  C617     1.0000 0.63509  0.80314  0.53192  Biso   1.000  C
  C618     1.0000 0.51979  0.10735  0.73227  Biso   1.000  C
  C619     1.0000 0.73620  0.48042  0.10221  Biso   1.000  C
  C620     1.0000 0.41529  0.29396  0.01461  Biso   1.000  C
  C621     1.0000 0.50396  0.60828  0.82320  Biso   1.000  C
  C622     1.0000 0.23560  0.48991  0.44521  Biso   1.000  C
  C623     1.0000 0.90345  0.30024  0.53528  Biso   1.000  C
  C624     1.0000 0.98516  0.59166  0.72860  Biso   1.000  C
  C625     1.0000 0.02528  0.19866  0.91280  Biso   1.000  C
  C626     1.0000 0.90952  0.00727  0.22277  Biso   1.000  C
  C627     1.0000 0.22769  0.89653  0.06064  Biso   1.000  C
  C628     1.0000 0.50619  0.20879  0.62129  Biso   1.000  C
  C629     1.0000 0.41728  0.98556  0.31536  Biso   1.000  C
  C630     1.0000 0.73854  0.91197  0.52150  Biso   1.000  C
  C631     1.0000 0.52657  0.70537  0.93798  Biso   1.000  C
  C632     1.0000 0.63861  0.48152  0.21802  Biso   1.000  C
  C633     1.0000 0.30850  0.39436  0.05160  Biso   1.000  C
  C634     1.0000 0.03489  0.69755  0.63597  Biso   1.000  C
  C635     1.0000 0.13578  0.49439  0.33218  Biso   1.000  C
  C636     1.0000 0.80183  0.41136  0.49868  Biso   1.000  C
  C637     1.0000 0.01600  0.78774  0.13553  Biso   1.000  C
  C638     1.0000 0.13571  0.97923  0.81525  Biso   1.000  C
  C639     1.0000 0.81461  0.08559  0.02549  Biso   1.000  C
  C640     1.0000 0.54462  0.78389  0.43112  Biso   1.000  C
  C641     1.0000 0.63065  0.01662  0.72566  Biso   1.000  C
  C642     1.0000 0.30619  0.08635  0.53607  Biso   1.000  C
  C643     1.0000 0.51120  0.27779  0.11835  Biso   1.000  C
  C644     1.0000 0.40111  0.49143  0.83563  Biso   1.000  C
  C645     1.0000 0.71916  0.58503  0.99406  Biso   1.000  C
  C646     1.0000 0.99837  0.29445  0.42039  Biso   1.000  C
  C647     1.0000 0.90094  0.47080  0.71806  Biso   1.000  C
  C648     1.0000 0.23635  0.58488  0.54000  Biso   1.000  C
  C649     1.0000 0.02155  0.70653  0.43126  Biso   1.000  C
  C650     1.0000 0.43080  0.99169  0.73691  Biso   1.000  C
  C651     1.0000 0.73021  0.38189  0.01462  Biso   1.000  C
  C652     1.0000 0.54841  0.69397  0.13631  Biso   1.000  C
  C653     1.0000 0.93067  0.99106  0.80342  Biso   1.000  C
  C654     1.0000 0.21812  0.38648  0.52909  Biso   1.000  C
  C655     1.0000 0.52302  0.19347  0.42273  Biso   1.000  C
  C656     1.0000 0.10159  0.50386  0.74393  Biso   1.000  C
  C657     1.0000 0.81002  0.87961  0.00467  Biso   1.000  C
  C658     1.0000 0.02244  0.20766  0.11742  Biso   1.000  C
  C659     1.0000 0.59942  0.50017  0.80033  Biso   1.000  C
  C660     1.0000 0.32044  0.88420  0.53674  Biso   1.000  C
  C661     1.0000 0.02028  0.28484  0.61980  Biso   1.000  C
  C662     1.0000 0.62141  0.99010  0.30913  Biso   1.000  C
  C663     1.0000 0.30914  0.59678  0.05104  Biso   1.000  C
  C664     1.0000 0.50750  0.29172  0.91814  Biso   1.000  C
  C665     1.0000 0.11535  0.99386  0.23717  Biso   1.000  C
  C666     1.0000 0.81810  0.61633  0.50622  Biso   1.000  C
  C667     1.0000 0.52758  0.79339  0.63469  Biso   1.000  C
  C668     1.0000 0.93711  0.49785  0.30537  Biso   1.000  C
  C669     1.0000 0.22947  0.09590  0.02697  Biso   1.000  C
  C670     1.0000 0.02360  0.78077  0.92933  Biso   1.000  C
  C671     1.0000 0.43701  0.49706  0.24509  Biso   1.000  C
  C672     1.0000 0.72283  0.11259  0.49855  Biso   1.000  C
  C673     1.0000 0.22896  0.98272  0.83679  Biso   1.000  C
  C674     1.0000 0.82648  0.17850  0.03075  Biso   1.000  C
  C675     1.0000 0.01534  0.80666  0.22680  Biso   1.000  C
  C676     1.0000 0.72527  0.02056  0.70560  Biso   1.000  C
  C677     1.0000 0.31478  0.18215  0.52308  Biso   1.000  C
  C678     1.0000 0.53976  0.78967  0.33593  Biso   1.000  C
  C679     1.0000 0.30501  0.49646  0.85066  Biso   1.000  C
  C680     1.0000 0.71750  0.67759  0.01157  Biso   1.000  C
  C681     1.0000 0.51326  0.28560  0.21587  Biso   1.000  C
  C682     1.0000 0.81038  0.48356  0.70008  Biso   1.000  C
  C683     1.0000 0.22760  0.68006  0.53567  Biso   1.000  C
  C684     1.0000 0.01938  0.30602  0.32503  Biso   1.000  C
  C685     1.0000 0.81700  0.99350  0.20749  Biso   1.000  C
  C686     1.0000 0.21535  0.80193  0.06295  Biso   1.000  C
  C687     1.0000 0.02070  0.18257  0.81930  Biso   1.000  C
  C688     1.0000 0.32319  0.98203  0.33137  Biso   1.000  C
  C689     1.0000 0.73041  0.81890  0.51844  Biso   1.000  C
  C690     1.0000 0.50213  0.19897  0.71615  Biso   1.000  C
  C691     1.0000 0.73064  0.48477  0.19795  Biso   1.000  C
  C692     1.0000 0.32178  0.29973  0.03495  Biso   1.000  C
  C693     1.0000 0.52904  0.69674  0.84159  Biso   1.000  C
  C694     1.0000 0.22870  0.49365  0.35028  Biso   1.000  C
  C695     1.0000 0.80785  0.31772  0.52106  Biso   1.000  C
  C696     1.0000 0.01394  0.67897  0.72680  Biso   1.000  C
  C697     1.0000 0.71507  0.99081  0.31952  Biso   1.000  C
  C698     1.0000 0.32462  0.69068  0.05686  Biso   1.000  C
  C699     1.0000 0.01521  0.29458  0.71464  Biso   1.000  C
  C700     1.0000 0.20743  0.99772  0.22743  Biso   1.000  C
  C701     1.0000 0.83946  0.70828  0.51161  Biso   1.000  C
  C702     1.0000 0.50400  0.30623  0.82449  Biso   1.000  C
  C703     1.0000 0.84089  0.49249  0.30907  Biso   1.000  C
  C704     1.0000 0.21343  0.19025  0.02611  Biso   1.000  C
  C705     1.0000 0.53561  0.80492  0.73007  Biso   1.000  C
  C706     1.0000 0.33987  0.49241  0.24259  Biso   1.000  C
  C707     1.0000 0.70459  0.20649  0.51985  Biso   1.000  C
  C708     1.0000 0.02050  0.78971  0.83336  Biso   1.000  C
  C709     1.0000 0.33552  0.98855  0.72856  Biso   1.000  C
  C710     1.0000 0.71722  0.28915  0.02681  Biso   1.000  C
  C711     1.0000 0.03073  0.69527  0.33569  Biso   1.000  C
  C712     1.0000 0.83396  0.00056  0.81512  Biso   1.000  C
  C713     1.0000 0.20322  0.29232  0.51352  Biso   1.000  C
  C714     1.0000 0.54285  0.67679  0.23047  Biso   1.000  C
  C715     1.0000 0.19891  0.49841  0.73810  Biso   1.000  C
  C716     1.0000 0.83013  0.78421  0.01396  Biso   1.000  C
  C717     1.0000 0.51507  0.18197  0.32826  Biso   1.000  C
  C718     1.0000 0.69420  0.49280  0.80689  Biso   1.000  C
  C719     1.0000 0.33515  0.78818  0.53680  Biso   1.000  C
  C720     1.0000 0.02191  0.19882  0.21250  Biso   1.000  C
  C721     1.0000 0.55803  0.79176  0.31091  Biso   1.000  C
  C722     1.0000 0.30746  0.51504  0.82610  Biso   1.000  C
  C723     1.0000 0.77921  0.32569  0.53195  Biso   1.000  C
  C724     1.0000 0.99852  0.80782  0.25406  Biso   1.000  C
  C725     1.0000 0.78860  0.50716  0.70083  Biso   1.000  C
  C726     1.0000 0.29127  0.30505  0.02615  Biso   1.000  C
  C727     1.0000 0.01283  0.31366  0.29495  Biso   1.000  C
  C728     1.0000 0.25128  0.00387  0.83903  Biso   1.000  C
  C729     1.0000 0.75928  0.82163  0.52963  Biso   1.000  C
  C730     1.0000 0.49712  0.28967  0.24307  Biso   1.000  C
  C731     1.0000 0.75022  0.00290  0.70335  Biso   1.000  C
  C732     1.0000 0.24490  0.80759  0.05129  Biso   1.000  C
  C733     1.0000 0.48558  0.19297  0.74091  Biso   1.000  C
  C734     1.0000 0.72895  0.46629  0.22357  Biso   1.000  C
  C735     1.0000 0.22392  0.70451  0.55193  Biso   1.000  C
  C736     1.0000 0.00102  0.20689  0.82322  Biso   1.000  C
  C737     1.0000 0.25676  0.47928  0.35611  Biso   1.000  C
  C738     1.0000 0.74896  0.67033  0.01616  Biso   1.000  C
  C739     1.0000 0.02119  0.67006  0.75562  Biso   1.000  C
  C740     1.0000 0.79801  0.96972  0.20894  Biso   1.000  C
  C741     1.0000 0.28615  0.17679  0.51057  Biso   1.000  C
  C742     1.0000 0.54387  0.68942  0.81501  Biso   1.000  C
  C743     1.0000 0.29592  0.96704  0.33534  Biso   1.000  C
  C744     1.0000 0.82799  0.20089  0.05171  Biso   1.000  C
  C745     1.0000 0.03866  0.72688  0.34107  Biso   1.000  C
  C746     1.0000 0.30871  0.00648  0.72483  Biso   1.000  C
  C747     1.0000 0.74430  0.29467  0.04169  Biso   1.000  C
  C748     1.0000 0.56495  0.69812  0.23143  Biso   1.000  C
  C749     1.0000 0.80398  0.98917  0.81873  Biso   1.000  C
  C750     1.0000 0.22485  0.29361  0.53570  Biso   1.000  C
  C751     1.0000 0.52958  0.17556  0.30117  Biso   1.000  C
  C752     1.0000 0.19364  0.48558  0.76646  Biso   1.000  C
  C753     1.0000 0.83524  0.75567  0.99921  Biso   1.000  C
  C754     1.0000 0.03674  0.19411  0.24020  Biso   1.000  C
  C755     1.0000 0.69063  0.50844  0.77729  Biso   1.000  C
  C756     1.0000 0.30672  0.78968  0.52122  Biso   1.000  C
  C757     1.0000 0.00155  0.26634  0.70661  Biso   1.000  C
  C758     1.0000 0.71209  0.01351  0.29872  Biso   1.000  C
  C759     1.0000 0.30369  0.68823  0.08030  Biso   1.000  C
  C760     1.0000 0.52546  0.28100  0.82744  Biso   1.000  C
  C761     1.0000 0.23214  0.01663  0.22823  Biso   1.000  C
  C762     1.0000 0.84540  0.73547  0.49629  Biso   1.000  C
  C763     1.0000 0.52099  0.80923  0.75789  Biso   1.000  C
  C764     1.0000 0.81753  0.47226  0.31327  Biso   1.000  C
  C765     1.0000 0.23737  0.18879  0.04654  Biso   1.000  C
  C766     1.0000 0.99759  0.78971  0.81183  Biso   1.000  C
  C767     1.0000 0.34528  0.50711  0.27069  Biso   1.000  C
  C768     1.0000 0.69545  0.23667  0.51192  Biso   1.000  C
  C769     1.0000 0.51794  0.72658  0.84541  Biso   1.000  C
  C770     1.0000 0.80505  0.46244  0.72212  Biso   1.000  C
  C771     1.0000 0.72442  0.79387  0.50070  Biso   1.000  C
  C772     1.0000 0.00663  0.70837  0.72200  Biso   1.000  C
  C773     1.0000 0.27826  0.48030  0.85371  Biso   1.000  C
  C774     1.0000 0.21126  0.77326  0.07460  Biso   1.000  C
  C775     1.0000 0.03754  0.18092  0.79199  Biso   1.000  C
  C776     1.0000 0.72170  0.03783  0.73217  Biso   1.000  C
  C777     1.0000 0.81360  0.28858  0.50997  Biso   1.000  C
  C778     1.0000 0.51524  0.22690  0.71409  Biso   1.000  C
  C779     1.0000 0.22998  0.96081  0.81363  Biso   1.000  C
  C780     1.0000 0.32711  0.27057  0.04462  Biso   1.000  C
  C781     1.0000 0.52792  0.25767  0.21171  Biso   1.000  C
  C782     1.0000 0.22548  0.51155  0.32354  Biso   1.000  C
  C783     1.0000 0.31943  0.21299  0.53555  Biso   1.000  C
  C784     1.0000 0.02745  0.27538  0.33132  Biso   1.000  C
  C785     1.0000 0.75756  0.50219  0.19494  Biso   1.000  C
  C786     1.0000 0.80227  0.17792  0.01043  Biso   1.000  C
  C787     1.0000 0.03454  0.78074  0.22525  Biso   1.000  C
  C788     1.0000 0.32534  0.00212  0.30672  Biso   1.000  C
  C789     1.0000 0.25668  0.67534  0.52334  Biso   1.000  C
  C790     1.0000 0.52442  0.76265  0.34066  Biso   1.000  C
  C791     1.0000 0.81577  0.01782  0.22802  Biso   1.000  C
  C792     1.0000 0.71191  0.70803  0.00369  Biso   1.000  C
  C793     1.0000 0.49984  0.20891  0.33272  Biso   1.000  C
  C794     1.0000 0.31099  0.47780  0.23904  Biso   1.000  C
  C795     1.0000 0.20399  0.26898  0.49325  Biso   1.000  C
  C796     1.0000 0.00609  0.22542  0.20787  Biso   1.000  C
  C797     1.0000 0.84466  0.50446  0.27890  Biso   1.000  C
  C798     1.0000 0.71407  0.26044  0.01676  Biso   1.000  C
  C799     1.0000 0.01558  0.68956  0.30828  Biso   1.000  C
  C800     1.0000 0.20699  0.97385  0.24916  Biso   1.000  C
  C801     1.0000 0.33928  0.76021  0.55362  Biso   1.000  C
  C802     1.0000 0.52281  0.67547  0.25422  Biso   1.000  C
  C803     1.0000 0.73980  0.97006  0.31806  Biso   1.000  C
  C804     1.0000 0.80022  0.78905  0.02661  Biso   1.000  C
  C805     1.0000 0.54973  0.77646  0.72690  Biso   1.000  C
  C806     1.0000 0.71849  0.47403  0.80874  Biso   1.000  C
  C807     1.0000 0.81027  0.70655  0.52433  Biso   1.000  C
  C808     1.0000 0.03943  0.76428  0.83651  Biso   1.000  C
  C809     1.0000 0.22710  0.51170  0.73677  Biso   1.000  C
  C810     1.0000 0.32248  0.71472  0.03600  Biso   1.000  C
  C811     1.0000 0.02738  0.29709  0.74384  Biso   1.000  C
  C812     1.0000 0.83855  0.01864  0.78978  Biso   1.000  C
  C813     1.0000 0.73544  0.20174  0.52970  Biso   1.000  C
  C814     1.0000 0.48265  0.30420  0.80128  Biso   1.000  C
  C815     1.0000 0.33822  0.97057  0.75395  Biso   1.000  C
  C816     1.0000 0.21110  0.21596  0.00877  Biso   1.000  C
  C817     1.0000 0.99995  0.22729  0.80277  Biso   1.000  C
  C818     1.0000 0.77519  0.97197  0.22752  Biso   1.000  C
  C819     1.0000 0.26687  0.78666  0.05605  Biso   1.000  C
  C820     1.0000 0.48660  0.21134  0.76532  Biso   1.000  C
  C821     1.0000 0.27412  0.97004  0.31410  Biso   1.000  C
  C822     1.0000 0.78133  0.80064  0.52336  Biso   1.000  C
  C823     1.0000 0.54510  0.71130  0.79368  Biso   1.000  C
  C824     1.0000 0.74940  0.46695  0.24600  Biso   1.000  C
  C825     1.0000 0.27117  0.28407  0.02464  Biso   1.000  C
  C826     1.0000 0.02164  0.68935  0.77846  Biso   1.000  C
  C827     1.0000 0.27905  0.48250  0.33671  Biso   1.000  C
  C828     1.0000 0.75847  0.30288  0.53266  Biso   1.000  C
  C829     1.0000 0.00049  0.78659  0.27532  Biso   1.000  C
  C830     1.0000 0.27144  0.00697  0.81657  Biso   1.000  C
  C831     1.0000 0.80689  0.22268  0.05133  Biso   1.000  C
  C832     1.0000 0.55912  0.76687  0.29192  Biso   1.000  C
  C833     1.0000 0.76963  0.99983  0.72558  Biso   1.000  C
  C834     1.0000 0.26533  0.19907  0.50980  Biso   1.000  C
  C835     1.0000 0.49611  0.26806  0.26368  Biso   1.000  C
  C836     1.0000 0.28541  0.51528  0.80507  Biso   1.000  C
  C837     1.0000 0.77129  0.68960  0.01584  Biso   1.000  C
  C838     1.0000 0.01082  0.29221  0.27410  Biso   1.000  C
  C839     1.0000 0.76665  0.51110  0.72118  Biso   1.000  C
  C840     1.0000 0.24498  0.72482  0.55320  Biso   1.000  C
  C841     1.0000 0.25096  0.96335  0.79159  Biso   1.000  C
  C842     1.0000 0.78372  0.20109  0.00960  Biso   1.000  C
  C843     1.0000 0.03573  0.75926  0.24694  Biso   1.000  C
  C844     1.0000 0.74206  0.03478  0.75381  Biso   1.000  C
  C845     1.0000 0.29727  0.23370  0.53379  Biso   1.000  C
  C846     1.0000 0.52453  0.74082  0.32150  Biso   1.000  C
  C847     1.0000 0.25702  0.48181  0.83306  Biso   1.000  C
  C848     1.0000 0.73489  0.72782  0.00221  Biso   1.000  C
  C849     1.0000 0.52815  0.23724  0.23331  Biso   1.000  C
  C850     1.0000 0.78076  0.46236  0.73950  Biso   1.000  C
  C851     1.0000 0.27936  0.69509  0.52550  Biso   1.000  C
  C852     1.0000 0.02318  0.25520  0.30916  Biso   1.000  C
  C853     1.0000 0.79273  0.01657  0.24743  Biso   1.000  C
  C854     1.0000 0.23393  0.75199  0.07756  Biso   1.000  C
  C855     1.0000 0.03239  0.20193  0.76962  Biso   1.000  C
  C856     1.0000 0.30240  0.00507  0.28681  Biso   1.000  C
  C857     1.0000 0.74765  0.77374  0.49521  Biso   1.000  C
  C858     1.0000 0.51492  0.24644  0.73819  Biso   1.000  C
  C859     1.0000 0.77804  0.49965  0.21651  Biso   1.000  C
  C860     1.0000 0.30531  0.25037  0.04585  Biso   1.000  C
  C861     1.0000 0.51948  0.74605  0.82348  Biso   1.000  C
  C862     1.0000 0.24936  0.51362  0.30534  Biso   1.000  C
  C863     1.0000 0.79305  0.26790  0.51074  Biso   1.000  C
  C864     1.0000 0.00894  0.72730  0.74444  Biso   1.000  C
  C865     1.0000 0.71520  0.50620  0.75797  Biso   1.000  C
  C866     1.0000 0.82530  0.75863  0.49474  Biso   1.000  C
  C867     1.0000 0.52090  0.78797  0.77942  Biso   1.000  C
  C868     1.0000 0.21363  0.48885  0.78888  Biso   1.000  C
  C869     1.0000 0.28492  0.71145  0.08548  Biso   1.000  C
  C870     1.0000 0.99797  0.76597  0.79217  Biso   1.000  C
  C871     1.0000 0.78195  0.99552  0.79874  Biso   1.000  C
  C872     1.0000 0.71599  0.25777  0.51101  Biso   1.000  C
  C873     1.0000 0.99999  0.24411  0.72710  Biso   1.000  C
  C874     1.0000 0.28659  0.00300  0.74515  Biso   1.000  C
  C875     1.0000 0.25587  0.21193  0.04965  Biso   1.000  C
  C876     1.0000 0.52300  0.25756  0.80933  Biso   1.000  C
  C877     1.0000 0.32492  0.50831  0.29394  Biso   1.000  C
  C878     1.0000 0.24593  0.27237  0.53586  Biso   1.000  C
  C879     1.0000 0.52810  0.19563  0.27925  Biso   1.000  C
  C880     1.0000 0.79698  0.46841  0.29081  Biso   1.000  C
  C881     1.0000 0.76716  0.27424  0.04194  Biso   1.000  C
  C882     1.0000 0.03534  0.21547  0.26190  Biso   1.000  C
  C883     1.0000 0.25427  0.01410  0.24995  Biso   1.000  C
  C884     1.0000 0.28621  0.76775  0.52184  Biso   1.000  C
  C885     1.0000 0.03260  0.74777  0.31900  Biso   1.000  C
  C886     1.0000 0.73238  0.01413  0.27558  Biso   1.000  C
  C887     1.0000 0.81306  0.73578  0.99864  Biso   1.000  C
  C888     1.0000 0.56408  0.71811  0.25285  Biso   1.000  C
  C889     1.0000 0.75982  0.97264  0.29492  Biso   1.000  C
  C890     1.0000 0.30294  0.73736  0.04269  Biso   1.000  C
  C891     1.0000 0.02375  0.27479  0.76295  Biso   1.000  C
  C892     1.0000 0.22983  0.97158  0.26962  Biso   1.000  C
  C893     1.0000 0.78995  0.72970  0.52144  Biso   1.000  C
  C894     1.0000 0.48303  0.28165  0.78155  Biso   1.000  C
  C895     1.0000 0.82366  0.49890  0.25683  Biso   1.000  C
  C896     1.0000 0.23211  0.23806  0.01250  Biso   1.000  C
  C897     1.0000 0.55017  0.75628  0.74931  Biso   1.000  C
  C898     1.0000 0.28959  0.48033  0.26207  Biso   1.000  C
  C899     1.0000 0.75427  0.22437  0.53066  Biso   1.000  C
  C900     1.0000 0.03735  0.74079  0.81746  Biso   1.000  C
  C901     1.0000 0.31719  0.97081  0.77427  Biso   1.000  C
  C902     1.0000 0.73592  0.24073  0.01685  Biso   1.000  C
  C903     1.0000 0.00955  0.71172  0.28808  Biso   1.000  C
  C904     1.0000 0.81577  0.02505  0.77062  Biso   1.000  C
  C905     1.0000 0.22584  0.24813  0.49522  Biso   1.000  C
  C906     1.0000 0.52244  0.69686  0.27592  Biso   1.000  C
  C907     1.0000 0.24682  0.51078  0.75868  Biso   1.000  C
  C908     1.0000 0.78052  0.76764  0.02419  Biso   1.000  C
  C909     1.0000 0.49900  0.22851  0.31040  Biso   1.000  C
  C910     1.0000 0.73744  0.46865  0.78464  Biso   1.000  C
  C911     1.0000 0.31748  0.73933  0.55351  Biso   1.000  C
  C912     1.0000 0.00677  0.24577  0.23005  Biso   1.000  C
  C913     1.0000 0.76269  0.48769  0.74016  Biso   1.000  C
  C914     1.0000 0.77520  0.77702  0.50636  Biso   1.000  C
  C915     1.0000 0.53349  0.73929  0.79751  Biso   1.000  C
  C916     1.0000 0.26086  0.49895  0.80845  Biso   1.000  C
  C917     1.0000 0.26089  0.75899  0.06610  Biso   1.000  C
  C918     1.0000 0.01676  0.71915  0.77217  Biso   1.000  C
  C919     1.0000 0.76629  0.01702  0.75050  Biso   1.000  C
  C920     1.0000 0.76518  0.27452  0.52235  Biso   1.000  C
  C921     1.0000 0.01309  0.22454  0.77611  Biso   1.000  C
  C922     1.0000 0.26986  0.98671  0.79319  Biso   1.000  C
  C923     1.0000 0.27761  0.25662  0.03553  Biso   1.000  C
  C924     1.0000 0.50175  0.23788  0.76431  Biso   1.000  C
  C925     1.0000 0.27430  0.49753  0.31116  Biso   1.000  C
  C926     1.0000 0.27084  0.22723  0.52073  Biso   1.000  C
  C927     1.0000 0.51348  0.24262  0.25969  Biso   1.000  C
  C928     1.0000 0.77471  0.48401  0.24276  Biso   1.000  C
  C929     1.0000 0.78466  0.22291  0.03119  Biso   1.000  C
  C930     1.0000 0.01701  0.26369  0.28071  Biso   1.000  C
  C931     1.0000 0.27792  0.99054  0.29083  Biso   1.000  C
  C932     1.0000 0.27148  0.72085  0.53950  Biso   1.000  C
  C933     1.0000 0.01740  0.76191  0.27120  Biso   1.000  C
  C934     1.0000 0.77183  0.99528  0.24655  Biso   1.000  C
  C935     1.0000 0.76359  0.71931  0.01046  Biso   1.000  C
  C936     1.0000 0.54285  0.74185  0.29688  Biso   1.000  C
  C937     1.0000 0.76258  0.24679  0.02941  Biso   1.000  C
  C938     1.0000 0.01881  0.73935  0.29409  Biso   1.000  C
  C939     1.0000 0.29124  0.98744  0.76958  Biso   1.000  C
  C940     1.0000 0.24699  0.24990  0.51592  Biso   1.000  C
  C941     1.0000 0.54337  0.71962  0.27446  Biso   1.000  C
  C942     1.0000 0.78815  0.01238  0.77347  Biso   1.000  C
  C943     1.0000 0.78663  0.74133  0.00999  Biso   1.000  C
  C944     1.0000 0.51282  0.22195  0.28302  Biso   1.000  C
  C945     1.0000 0.24054  0.49943  0.78538  Biso   1.000  C
  C946     1.0000 0.29184  0.74358  0.53869  Biso   1.000  C
  C947     1.0000 0.02007  0.24169  0.25755  Biso   1.000  C
  C948     1.0000 0.73703  0.48590  0.76021  Biso   1.000  C
  C949     1.0000 0.28340  0.73552  0.06657  Biso   1.000  C
  C950     1.0000 0.01059  0.24898  0.75511  Biso   1.000  C
  C951     1.0000 0.75319  0.99301  0.27219  Biso   1.000  C
  C952     1.0000 0.79766  0.75494  0.50707  Biso   1.000  C
  C953     1.0000 0.50330  0.25971  0.78621  Biso   1.000  C
  C954     1.0000 0.25283  0.99200  0.27025  Biso   1.000  C
  C955     1.0000 0.25441  0.23538  0.03252  Biso   1.000  C
  C956     1.0000 0.53520  0.76181  0.77539  Biso   1.000  C
  C957     1.0000 0.79905  0.48273  0.26341  Biso   1.000  C
  C958     1.0000 0.74394  0.25161  0.52162  Biso   1.000  C
  C959     1.0000 0.01667  0.74263  0.79434  Biso   1.000  C
  C960     1.0000 0.29700  0.49571  0.28788  Biso   1.000  C
  Cu1      1.0000 0.00736  0.49089  0.67791  Biso   1.000  Cu
  Cu2      1.0000 0.67925  0.00987  0.51706  Biso   1.000  Cu
  Cu3      1.0000 0.52199  0.64358  0.03460  Biso   1.000  Cu
  Cu4      1.0000 0.50609  0.50294  0.87430  Biso   1.000  Cu
  Cu5      1.0000 0.17492  0.99483  0.02793  Biso   1.000  Cu
  Cu6      1.0000 0.03176  0.64836  0.52809  Biso   1.000  Cu
  Cu7      1.0000 0.52755  0.00297  0.67923  Biso   1.000  Cu
  Cu8      1.0000 0.86158  0.50931  0.50893  Biso   1.000  Cu
  Cu9      1.0000 0.02146  0.14655  0.02021  Biso   1.000  Cu
  Cu10     1.0000 0.02870  0.98559  0.86676  Biso   1.000  Cu
  Cu11     1.0000 0.36411  0.49482  0.04535  Biso   1.000  Cu
  Cu12     1.0000 0.51327  0.14758  0.52302  Biso   1.000  Cu
  Cu13     1.0000 0.03085  0.50028  0.37642  Biso   1.000  Cu
  Cu14     1.0000 0.36976  0.98737  0.52807  Biso   1.000  Cu
  Cu15     1.0000 0.51740  0.34038  0.02338  Biso   1.000  Cu
  Cu16     1.0000 0.53129  0.48273  0.17887  Biso   1.000  Cu
  Cu17     1.0000 0.86813  0.98397  0.01248  Biso   1.000  Cu
  Cu18     1.0000 0.00612  0.34636  0.52179  Biso   1.000  Cu
  Cu19     1.0000 0.52137  0.98469  0.36747  Biso   1.000  Cu
  Cu20     1.0000 0.16999  0.48917  0.54172  Biso   1.000  Cu
  Cu21     1.0000 0.02132  0.83894  0.02776  Biso   1.000  Cu
  Cu22     1.0000 0.01727  0.00059  0.17696  Biso   1.000  Cu
  Cu23     1.0000 0.67165  0.48225  0.00505  Biso   1.000  Cu
  Cu24     1.0000 0.52889  0.84893  0.52897  Biso   1.000  Cu
  Cu25     1.0000 0.22950  0.99371  0.03125  Biso   1.000  Cu
  Cu26     1.0000 0.01624  0.20074  0.01627  Biso   1.000  Cu
  Cu27     1.0000 0.01063  0.00416  0.23082  Biso   1.000  Cu
  Cu28     1.0000 0.73169  0.01343  0.51545  Biso   1.000  Cu
  Cu29     1.0000 0.50867  0.20101  0.52074  Biso   1.000  Cu
  Cu30     1.0000 0.51928  0.98403  0.31411  Biso   1.000  Cu
  Cu31     1.0000 0.31097  0.49390  0.04806  Biso   1.000  Cu
  Cu32     1.0000 0.52294  0.69579  0.03887  Biso   1.000  Cu
  Cu33     1.0000 0.53767  0.48041  0.23261  Biso   1.000  Cu
  Cu34     1.0000 0.80862  0.51268  0.50427  Biso   1.000  Cu
  Cu35     1.0000 0.03079  0.70231  0.53067  Biso   1.000  Cu
  Cu36     1.0000 0.03799  0.49896  0.32217  Biso   1.000  Cu
  Cu37     1.0000 0.81246  0.98530  0.01020  Biso   1.000  Cu
  Cu38     1.0000 0.02509  0.78456  0.03054  Biso   1.000  Cu
  Cu39     1.0000 0.03225  0.98639  0.81281  Biso   1.000  Cu
  Cu40     1.0000 0.31580  0.98345  0.52821  Biso   1.000  Cu
  Cu41     1.0000 0.53629  0.79475  0.53301  Biso   1.000  Cu
  Cu42     1.0000 0.53127  0.00527  0.73226  Biso   1.000  Cu
  Cu43     1.0000 0.72426  0.48442  0.00276  Biso   1.000  Cu
  Cu44     1.0000 0.51369  0.28781  0.01861  Biso   1.000  Cu
  Cu45     1.0000 0.49634  0.50535  0.81980  Biso   1.000  Cu
  Cu46     1.0000 0.22456  0.48284  0.54738  Biso   1.000  Cu
  Cu47     1.0000 0.00531  0.29219  0.51884  Biso   1.000  Cu
  Cu48     1.0000 0.00117  0.49113  0.73174  Biso   1.000  Cu
  H1       1.0000 0.26503  0.77004  0.51216  Biso   1.000  H
  H2       1.0000 0.53906  0.23927  0.81156  Biso   1.000  H
  H3       1.0000 0.78232  0.45026  0.29336  Biso   1.000  H
  H4       1.0000 0.81751  0.71556  0.98672  Biso   1.000  H
  H5       1.0000 0.98949  0.22478  0.72084  Biso   1.000  H
  H6       1.0000 0.32964  0.51837  0.31445  Biso   1.000  H
  H7       1.0000 0.25942  0.27372  0.55538  Biso   1.000  H
  H8       1.0000 0.98040  0.76117  0.77723  Biso   1.000  H
  H9       1.0000 0.72896  0.02972  0.25944  Biso   1.000  H
  H10      1.0000 0.78812  0.27812  0.05050  Biso   1.000  H
  H11      1.0000 0.51108  0.79493  0.79960  Biso   1.000  H
  H12      1.0000 0.27102  0.03060  0.24863  Biso   1.000  H
  H13      1.0000 0.71004  0.28004  0.50341  Biso   1.000  H
  H14      1.0000 0.58134  0.73304  0.25689  Biso   1.000  H
  H15      1.0000 0.20869  0.47606  0.80921  Biso   1.000  H
  H16      1.0000 0.27280  0.21014  0.06626  Biso   1.000  H
  H17      1.0000 0.03834  0.76862  0.32265  Biso   1.000  H
  H18      1.0000 0.71265  0.51963  0.73735  Biso   1.000  H
  H19      1.0000 0.83056  0.77929  0.48477  Biso   1.000  H
  H20      1.0000 0.04799  0.21151  0.28042  Biso   1.000  H
  H21      1.0000 0.26552  0.01391  0.74343  Biso   1.000  H
  H22      1.0000 0.26940  0.70847  0.10287  Biso   1.000  H
  H23      1.0000 0.54090  0.18841  0.26008  Biso   1.000  H
  H24      1.0000 0.76128  0.98542  0.79882  Biso   1.000  H
  H25      1.0000 0.28853  0.02318  0.81708  Biso   1.000  H
  H26      1.0000 0.81116  0.23943  0.06818  Biso   1.000  H
  H27      1.0000 0.98772  0.78664  0.29452  Biso   1.000  H
  H28      1.0000 0.78861  0.98671  0.72152  Biso   1.000  H
  H29      1.0000 0.24535  0.19276  0.49888  Biso   1.000  H
  H30      1.0000 0.57228  0.76808  0.27214  Biso   1.000  H
  H31      1.0000 0.28810  0.53136  0.78719  Biso   1.000  H
  H32      1.0000 0.79400  0.68274  0.01866  Biso   1.000  H
  H33      1.0000 0.48148  0.27314  0.28261  Biso   1.000  H
  H34      1.0000 0.75291  0.52910  0.72080  Biso   1.000  H
  H35      1.0000 0.24068  0.74576  0.56470  Biso   1.000  H
  H36      1.0000 0.00463  0.29915  0.25282  Biso   1.000  H
  H37      1.0000 0.76137  0.95402  0.22975  Biso   1.000  H
  H38      1.0000 0.28851  0.79385  0.05361  Biso   1.000  H
  H39      1.0000 0.98737  0.24678  0.81008  Biso   1.000  H
  H40      1.0000 0.25484  0.95760  0.31576  Biso   1.000  H
  H41      1.0000 0.80349  0.80325  0.53005  Biso   1.000  H
  H42      1.0000 0.47496  0.20353  0.78369  Biso   1.000  H
  H43      1.0000 0.74291  0.45473  0.26500  Biso   1.000  H
  H44      1.0000 0.24823  0.29058  0.01748  Biso   1.000  H
  H45      1.0000 0.55578  0.70764  0.77314  Biso   1.000  H
  H46      1.0000 0.30022  0.47145  0.34111  Biso   1.000  H
  H47      1.0000 0.73837  0.30905  0.54350  Biso   1.000  H
  H48      1.0000 0.02409  0.67905  0.80100  Biso   1.000  H
  H49      1.0000 0.24892  0.52826  0.28661  Biso   1.000  H
  H50      1.0000 0.30189  0.25639  0.53939  Biso   1.000  H
  H51      1.0000 0.53868  0.21731  0.22944  Biso   1.000  H
  H52      1.0000 0.79629  0.51280  0.21374  Biso   1.000  H
  H53      1.0000 0.76821  0.20053  0.99248  Biso   1.000  H
  H54      1.0000 0.02669  0.23269  0.31508  Biso   1.000  H
  H55      1.0000 0.30571  0.01771  0.26779  Biso   1.000  H
  H56      1.0000 0.30035  0.69014  0.51253  Biso   1.000  H
  H57      1.0000 0.04797  0.73996  0.24294  Biso   1.000  H
  H58      1.0000 0.79191  0.03406  0.26316  Biso   1.000  H
  H59      1.0000 0.72933  0.75048  0.99730  Biso   1.000  H
  H60      1.0000 0.50988  0.72262  0.32481  Biso   1.000  H
  H61      1.0000 0.77335  0.44382  0.75124  Biso   1.000  H
  H62      1.0000 0.74700  0.75514  0.48030  Biso   1.000  H
  H63      1.0000 0.51062  0.76713  0.82633  Biso   1.000  H
  H64      1.0000 0.23750  0.46887  0.83792  Biso   1.000  H
  H65      1.0000 0.22903  0.73202  0.08747  Biso   1.000  H
  H66      1.0000 0.00492  0.75044  0.74022  Biso   1.000  H
  H67      1.0000 0.73808  0.04559  0.77351  Biso   1.000  H
  H68      1.0000 0.79543  0.24503  0.50435  Biso   1.000  H
  H69      1.0000 0.04422  0.19842  0.74952  Biso   1.000  H
  H70      1.0000 0.25171  0.94780  0.77488  Biso   1.000  H
  H71      1.0000 0.31049  0.22885  0.05381  Biso   1.000  H
  H72      1.0000 0.52749  0.26600  0.73434  Biso   1.000  H
  H73      1.0000 0.75403  0.45223  0.78649  Biso   1.000  H
  H74      1.0000 0.76906  0.72708  0.53156  Biso   1.000  H
  H75      1.0000 0.56168  0.73656  0.74405  Biso   1.000  H
  H76      1.0000 0.26699  0.52193  0.75595  Biso   1.000  H
  H77      1.0000 0.30185  0.75707  0.02881  Biso   1.000  H
  H78      1.0000 0.05094  0.72229  0.82123  Biso   1.000  H
  H79      1.0000 0.82126  0.03822  0.75179  Biso   1.000  H
  H80      1.0000 0.77528  0.22103  0.54067  Biso   1.000  H
  H81      1.0000 0.03604  0.27705  0.78325  Biso   1.000  H
  H82      1.0000 0.31899  0.95957  0.79535  Biso   1.000  H
  H83      1.0000 0.23244  0.25725  0.99911  Biso   1.000  H
  H84      1.0000 0.46694  0.27897  0.76337  Biso   1.000  H
  H85      1.0000 0.26666  0.47495  0.26030  Biso   1.000  H
  H86      1.0000 0.22656  0.23433  0.47647  Biso   1.000  H
  H87      1.0000 0.48734  0.24898  0.31731  Biso   1.000  H
  H88      1.0000 0.82806  0.50391  0.23564  Biso   1.000  H
  H89      1.0000 0.73091  0.21941  0.00874  Biso   1.000  H
  H90      1.0000 0.99312  0.26511  0.22564  Biso   1.000  H
  H91      1.0000 0.23128  0.95474  0.28343  Biso   1.000  H
  H92      1.0000 0.32109  0.72076  0.57058  Biso   1.000  H
  H93      1.0000 0.99793  0.70885  0.26874  Biso   1.000  H
  H94      1.0000 0.77775  0.95788  0.29241  Biso   1.000  H
  H95      1.0000 0.76136  0.77313  0.03647  Biso   1.000  H
  H96      1.0000 0.50311  0.69605  0.29168  Biso   1.000  H
  H97      1.0000 0.89394  0.98291  0.92166  Biso   1.000  H
  H98      1.0000 0.92448  0.85534  0.01772  Biso   1.000  H
  H99      1.0000 0.03421  0.89433  0.89074  Biso   1.000  H
  H100     1.0000 0.39478  0.98333  0.62382  Biso   1.000  H
  H101     1.0000 0.43469  0.85620  0.52436  Biso   1.000  H
  H102     1.0000 0.54153  0.90767  0.66192  Biso   1.000  H
  H103     1.0000 0.64231  0.48055  0.91589  Biso   1.000  H
  H104     1.0000 0.61124  0.35694  0.01842  Biso   1.000  H
  H105     1.0000 0.51002  0.41016  0.88919  Biso   1.000  H
  H106     1.0000 0.14273  0.49417  0.62922  Biso   1.000  H
  H107     1.0000 0.10073  0.36216  0.51858  Biso   1.000  H
  H108     1.0000 0.01311  0.40209  0.65640  Biso   1.000  H
  H109     1.0000 0.14825  0.00500  0.12256  Biso   1.000  H
  H110     1.0000 0.11409  0.12685  0.00844  Biso   1.000  H
  H111     1.0000 0.01815  0.08850  0.15290  Biso   1.000  H
  H112     1.0000 0.65813  0.99598  0.42926  Biso   1.000  H
  H113     1.0000 0.60756  0.13424  0.52054  Biso   1.000  H
  H114     1.0000 0.52394  0.07577  0.38907  Biso   1.000  H
  H115     1.0000 0.39345  0.49360  0.13322  Biso   1.000  H
  H116     1.0000 0.42950  0.62430  0.04802  Biso   1.000  H
  H117     1.0000 0.53108  0.57451  0.16077  Biso   1.000  H
  H118     1.0000 0.89297  0.51317  0.41957  Biso   1.000  H
  H119     1.0000 0.93729  0.63236  0.51755  Biso   1.000  H
  H120     1.0000 0.02914  0.58987  0.39340  Biso   1.000  H
  H121     1.0000 0.12114  0.98818  0.89132  Biso   1.000  H
  H122     1.0000 0.88887  0.07156  0.01592  Biso   1.000  H
  H123     1.0000 0.01635  0.86208  0.11680  Biso   1.000  H
  H124     1.0000 0.61526  0.01752  0.65181  Biso   1.000  H
  H125     1.0000 0.38069  0.07670  0.53158  Biso   1.000  H
  H126     1.0000 0.53152  0.86030  0.43601  Biso   1.000  H
  H127     1.0000 0.41273  0.50114  0.90846  Biso   1.000  H
  H128     1.0000 0.64629  0.57959  0.01822  Biso   1.000  H
  H129     1.0000 0.52315  0.35280  0.11519  Biso   1.000  H
  H130     1.0000 0.91951  0.47659  0.64408  Biso   1.000  H
  H131     1.0000 0.16094  0.57888  0.54095  Biso   1.000  H
  H132     1.0000 0.99977  0.36777  0.43090  Biso   1.000  H
  H133     1.0000 0.92486  0.00070  0.14468  Biso   1.000  H
  H134     1.0000 0.14933  0.90604  0.04735  Biso   1.000  H
  H135     1.0000 0.02154  0.12425  0.92825  Biso   1.000  H
  H136     1.0000 0.43151  0.98293  0.38951  Biso   1.000  H
  H137     1.0000 0.66599  0.92032  0.53698  Biso   1.000  H
  H138     1.0000 0.51743  0.13279  0.61354  Biso   1.000  H
  H139     1.0000 0.61811  0.48397  0.14403  Biso   1.000  H
  H140     1.0000 0.38573  0.40239  0.04551  Biso   1.000  H
  H141     1.0000 0.50217  0.63379  0.94192  Biso   1.000  H
  H142     1.0000 0.12071  0.49560  0.40793  Biso   1.000  H
  H143     1.0000 0.87902  0.41642  0.50172  Biso   1.000  H
  H144     1.0000 0.01232  0.62871  0.61412  Biso   1.000  H
  H145     1.0000 0.59290  0.49626  0.87773  Biso   1.000  H
  H146     1.0000 0.89159  0.59459  0.50888  Biso   1.000  H
  H147     1.0000 0.54044  0.86766  0.62665  Biso   1.000  H
  H148     1.0000 0.10072  0.49813  0.66757  Biso   1.000  H
  H149     1.0000 0.38431  0.58379  0.05333  Biso   1.000  H
  H150     1.0000 0.03803  0.85538  0.93299  Biso   1.000  H
  H151     1.0000 0.93759  0.99110  0.88124  Biso   1.000  H
  H152     1.0000 0.65087  0.09713  0.50450  Biso   1.000  H
  H153     1.0000 0.01359  0.36162  0.61250  Biso   1.000  H
  H154     1.0000 0.43826  0.98899  0.65934  Biso   1.000  H
  H155     1.0000 0.15484  0.08465  0.01306  Biso   1.000  H
  H156     1.0000 0.50319  0.36638  0.93182  Biso   1.000  H
  H157     1.0000 0.43684  0.48114  0.17041  Biso   1.000  H
  H158     1.0000 0.14374  0.40031  0.53065  Biso   1.000  H
  H159     1.0000 0.51696  0.11860  0.43138  Biso   1.000  H
  H160     1.0000 0.93607  0.51524  0.38171  Biso   1.000  H
  H161     1.0000 0.65390  0.39328  0.00614  Biso   1.000  H
  H162     1.0000 0.01904  0.13351  0.10810  Biso   1.000  H
  H163     1.0000 0.10519  0.99803  0.16135  Biso   1.000  H
  H164     1.0000 0.39255  0.89336  0.52135  Biso   1.000  H
  H165     1.0000 0.03297  0.63271  0.44101  Biso   1.000  H
  H166     1.0000 0.61335  0.99139  0.38550  Biso   1.000  H
  H167     1.0000 0.88624  0.89152  0.00729  Biso   1.000  H
  H168     1.0000 0.54289  0.61554  0.12630  Biso   1.000  H
  H169     1.0000 0.02665  0.07769  0.88255  Biso   1.000  H
  H170     1.0000 0.88090  0.98565  0.10603  Biso   1.000  H
  H171     1.0000 0.10855  0.86488  0.04303  Biso   1.000  H
  H172     1.0000 0.52128  0.09303  0.65759  Biso   1.000  H
  H173     1.0000 0.38869  0.97640  0.43332  Biso   1.000  H
  H174     1.0000 0.62473  0.87826  0.53949  Biso   1.000  H
  H175     1.0000 0.49997  0.59390  0.89915  Biso   1.000  H
  H176     1.0000 0.65948  0.47409  0.09745  Biso   1.000  H
  H177     1.0000 0.42351  0.36596  0.03584  Biso   1.000  H
  H178     1.0000 0.99562  0.58096  0.65401  Biso   1.000  H
  H179     1.0000 0.16002  0.48766  0.45262  Biso   1.000  H
  H180     1.0000 0.91845  0.37323  0.52629  Biso   1.000  H
  H181     1.0000 0.01026  0.90861  0.15989  Biso   1.000  H
  H182     1.0000 0.16037  0.98989  0.93771  Biso   1.000  H
  H183     1.0000 0.93262  0.11936  0.02031  Biso   1.000  H
  H184     1.0000 0.52968  0.90126  0.38962  Biso   1.000  H
  H185     1.0000 0.66002  0.02560  0.60354  Biso   1.000  H
  H186     1.0000 0.42167  0.12401  0.52297  Biso   1.000  H
  H187     1.0000 0.53128  0.39250  0.15653  Biso   1.000  H
  H188     1.0000 0.37409  0.49495  0.95040  Biso   1.000  H
  H189     1.0000 0.60888  0.62278  0.02071  Biso   1.000  H
  H190     1.0000 0.02168  0.40558  0.39452  Biso   1.000  H
  H191     1.0000 0.87697  0.49199  0.59935  Biso   1.000  H
  H192     1.0000 0.11908  0.62289  0.53163  Biso   1.000  H
  H193     1.0000 0.29975  0.84171  0.54334  Biso   1.000  H
  H194     1.0000 0.50182  0.27000  0.87760  Biso   1.000  H
  H195     1.0000 0.89994  0.48413  0.28050  Biso   1.000  H
  H196     1.0000 0.79162  0.83559  0.00695  Biso   1.000  H
  H197     1.0000 0.02557  0.26185  0.65964  Biso   1.000  H
  H198     1.0000 0.39880  0.49767  0.27097  Biso   1.000  H
  H199     1.0000 0.23787  0.34397  0.51708  Biso   1.000  H
  H200     1.0000 0.01288  0.75883  0.88576  Biso   1.000  H
  H201     1.0000 0.66104  0.98785  0.28771  Biso   1.000  H
  H202     1.0000 0.75191  0.33805  0.01623  Biso   1.000  H
  H203     1.0000 0.52713  0.77145  0.67624  Biso   1.000  H
  H204     1.0000 0.15749  0.99451  0.25779  Biso   1.000  H
  H205     1.0000 0.74084  0.15725  0.50189  Biso   1.000  H
  H206     1.0000 0.54919  0.71547  0.17960  Biso   1.000  H
  H207     1.0000 0.14001  0.50976  0.76867  Biso   1.000  H
  H208     1.0000 0.24682  0.13830  0.03590  Biso   1.000  H
  H209     1.0000 0.01863  0.72852  0.38781  Biso   1.000  H
  H210     1.0000 0.63879  0.49632  0.77512  Biso   1.000  H
  H211     1.0000 0.80407  0.66098  0.50248  Biso   1.000  H
  H212     1.0000 0.02752  0.22939  0.15780  Biso   1.000  H
  H213     1.0000 0.38903  0.99291  0.76054  Biso   1.000  H
  H214     1.0000 0.29158  0.64257  0.05527  Biso   1.000  H
  H215     1.0000 0.52039  0.21534  0.37860  Biso   1.000  H
  H216     1.0000 0.88870  0.99200  0.78159  Biso   1.000  H
  H217     1.0000 0.25836  0.49762  0.40494  Biso   1.000  H
  H218     1.0000 0.36173  0.21464  0.50651  Biso   1.000  H
  H219     1.0000 0.52696  0.33780  0.25279  Biso   1.000  H
  H220     1.0000 0.75971  0.48348  0.14449  Biso   1.000  H
  H221     1.0000 0.87530  0.21303  0.03323  Biso   1.000  H
  H222     1.0000 0.03514  0.36099  0.29511  Biso   1.000  H
  H223     1.0000 0.28896  0.98450  0.38544  Biso   1.000  H
  H224     1.0000 0.17506  0.71736  0.53132  Biso   1.000  H
  H225     1.0000 0.00990  0.86042  0.25972  Biso   1.000  H
  H226     1.0000 0.78423  0.98757  0.15296  Biso   1.000  H
  H227     1.0000 0.67051  0.71432  0.03383  Biso   1.000  H
  H228     1.0000 0.53292  0.83800  0.29739  Biso   1.000  H
  H229     1.0000 0.77628  0.49241  0.65008  Biso   1.000  H
  H230     1.0000 0.67674  0.78392  0.52255  Biso   1.000  H
  H231     1.0000 0.50970  0.65444  0.80644  Biso   1.000  H
  H232     1.0000 0.27437  0.49265  0.90793  Biso   1.000  H
  H233     1.0000 0.16773  0.76670  0.04757  Biso   1.000  H
  H234     1.0000 0.99069  0.62860  0.75381  Biso   1.000  H
  H235     1.0000 0.75475  0.02867  0.65969  Biso   1.000  H
  H236     1.0000 0.85938  0.28237  0.53961  Biso   1.000  H
  H237     1.0000 0.01968  0.13100  0.78667  Biso   1.000  H
  H238     1.0000 0.25877  0.97964  0.88734  Biso   1.000  H
  H239     1.0000 0.37580  0.26881  0.01693  Biso   1.000  H
  H240     1.0000 0.51696  0.14991  0.75308  Biso   1.000  H
  H241     1.0000 0.73164  0.49313  0.85450  Biso   1.000  H
  H242     1.0000 0.88777  0.73491  0.52421  Biso   1.000  H
  H243     1.0000 0.53766  0.86014  0.76130  Biso   1.000  H
  H244     1.0000 0.23810  0.48249  0.68825  Biso   1.000  H
  H245     1.0000 0.37898  0.72101  0.05798  Biso   1.000  H
  H246     1.0000 0.02150  0.84053  0.79747  Biso   1.000  H
  H247     1.0000 0.80140  0.01406  0.86727  Biso   1.000  H
  H248     1.0000 0.65044  0.23598  0.53846  Biso   1.000  H
  H249     1.0000 0.00895  0.34356  0.75007  Biso   1.000  H
  H250     1.0000 0.30061  0.97919  0.67694  Biso   1.000  H
  H251     1.0000 0.15855  0.22403  0.02088  Biso   1.000  H
  H252     1.0000 0.50547  0.35960  0.79212  Biso   1.000  H
  H253     1.0000 0.29992  0.50176  0.18953  Biso   1.000  H
  H254     1.0000 0.14633  0.26182  0.49685  Biso   1.000  H
  H255     1.0000 0.50482  0.12568  0.29307  Biso   1.000  H
  H256     1.0000 0.80148  0.49840  0.35768  Biso   1.000  H
  H257     1.0000 0.65943  0.25716  0.02763  Biso   1.000  H
  H258     1.0000 0.01771  0.14697  0.24840  Biso   1.000  H
  H259     1.0000 0.24564  0.00374  0.17501  Biso   1.000  H
  H260     1.0000 0.39302  0.75601  0.53298  Biso   1.000  H
  H261     1.0000 0.04930  0.64678  0.30332  Biso   1.000  H
  H262     1.0000 0.75116  0.99737  0.36770  Biso   1.000  H
  H263     1.0000 0.88420  0.75456  0.02222  Biso   1.000  H
  H264     1.0000 0.53796  0.62534  0.26194  Biso   1.000  H
  H265     1.0000 0.02393  0.21955  0.87135  Biso   1.000  H
  H266     1.0000 0.86584  0.00336  0.24109  Biso   1.000  H
  H267     1.0000 0.24733  0.85450  0.07434  Biso   1.000  H
  H268     1.0000 0.50147  0.23306  0.66093  Biso   1.000  H
  H269     1.0000 0.37457  0.98130  0.29638  Biso   1.000  H
  H270     1.0000 0.76053  0.87043  0.51192  Biso   1.000  H
  H271     1.0000 0.53996  0.72580  0.89603  Biso   1.000  H
  H272     1.0000 0.68449  0.48407  0.23469  Biso   1.000  H
  H273     1.0000 0.28740  0.35410  0.04963  Biso   1.000  H
  H274     1.0000 0.03739  0.71428  0.67952  Biso   1.000  H
  H275     1.0000 0.18011  0.48545  0.31573  Biso   1.000  H
  H276     1.0000 0.77870  0.37034  0.50282  Biso   1.000  H
  H277     1.0000 0.01760  0.77114  0.18052  Biso   1.000  H
  H278     1.0000 0.18167  0.97794  0.80017  Biso   1.000  H
  H279     1.0000 0.79426  0.12949  0.02856  Biso   1.000  H
  H280     1.0000 0.55144  0.76086  0.39044  Biso   1.000  H
  H281     1.0000 0.67307  0.01487  0.74394  Biso   1.000  H
  H282     1.0000 0.28223  0.12774  0.53850  Biso   1.000  H
  H283     1.0000 0.50551  0.25624  0.16059  Biso   1.000  H
  H284     1.0000 0.35875  0.48875  0.81600  Biso   1.000  H
  H285     1.0000 0.73972  0.62681  0.98822  Biso   1.000  H
  H286     1.0000 0.00401  0.26864  0.38158  Biso   1.000  H
  H287     1.0000 0.85836  0.47021  0.73574  Biso   1.000  H
  H288     1.0000 0.26111  0.62255  0.53360  Biso   1.000  H
  H289     1.0000 0.10475  0.22272  0.01712  Biso   1.000  H
  H290     1.0000 0.01553  0.08952  0.24572  Biso   1.000  H
  H291     1.0000 0.24316  0.00957  0.12321  Biso   1.000  H
  H292     1.0000 0.59414  0.22960  0.53903  Biso   1.000  H
  H293     1.0000 0.51385  0.07314  0.29485  Biso   1.000  H
  H294     1.0000 0.75277  0.00246  0.42513  Biso   1.000  H
  H295     1.0000 0.43446  0.71906  0.05603  Biso   1.000  H
  H296     1.0000 0.53422  0.57200  0.25933  Biso   1.000  H
  H297     1.0000 0.29867  0.49843  0.13572  Biso   1.000  H
  H298     1.0000 0.94697  0.72951  0.52213  Biso   1.000  H
  H299     1.0000 0.05032  0.59161  0.29990  Biso   1.000  H
  H300     1.0000 0.79715  0.50339  0.41076  Biso   1.000  H
  H301     1.0000 0.93781  0.76092  0.03321  Biso   1.000  H
  H302     1.0000 0.02413  0.89315  0.79479  Biso   1.000  H
  H303     1.0000 0.80067  0.00542  0.92112  Biso   1.000  H
  H304     1.0000 0.44626  0.76126  0.53384  Biso   1.000  H
  H305     1.0000 0.54227  0.91624  0.75861  Biso   1.000  H
  H306     1.0000 0.29962  0.98105  0.62134  Biso   1.000  H
  H307     1.0000 0.60509  0.26268  0.02899  Biso   1.000  H
  H308     1.0000 0.51086  0.41197  0.79288  Biso   1.000  H
  H309     1.0000 0.73673  0.49040  0.90780  Biso   1.000  H
  H310     1.0000 0.09165  0.26942  0.49539  Biso   1.000  H
  H311     1.0000 0.01303  0.39700  0.75250  Biso   1.000  H
  H312     1.0000 0.23776  0.47615  0.63610  Biso   1.000  H
  H313     1.0000 0.25237  0.97815  0.94338  Biso   1.000  H
  H314     1.0000 0.92847  0.21383  0.03476  Biso   1.000  H
  H315     1.0000 0.00474  0.91537  0.25566  Biso   1.000  H
  H316     1.0000 0.75332  0.03411  0.60316  Biso   1.000  H
  H317     1.0000 0.41836  0.21854  0.50705  Biso   1.000  H
  H318     1.0000 0.52863  0.89232  0.29300  Biso   1.000  H
  H319     1.0000 0.27985  0.49532  0.96034  Biso   1.000  H
  H320     1.0000 0.61752  0.71699  0.03690  Biso   1.000  H
  H321     1.0000 0.53759  0.38880  0.25437  Biso   1.000  H
  H322     1.0000 0.77829  0.50111  0.59638  Biso   1.000  H
  H323     1.0000 0.12082  0.71813  0.53596  Biso   1.000  H
  H324     1.0000 0.04212  0.41259  0.30075  Biso   1.000  H
  H325     1.0000 0.78562  0.97998  0.10343  Biso   1.000  H
  H326     1.0000 0.11700  0.76802  0.03480  Biso   1.000  H
  H327     1.0000 0.02494  0.07514  0.78708  Biso   1.000  H
  H328     1.0000 0.29340  0.98738  0.43718  Biso   1.000  H
  H329     1.0000 0.62498  0.78264  0.53409  Biso   1.000  H
  H330     1.0000 0.52673  0.09707  0.75218  Biso   1.000  H
  H331     1.0000 0.75593  0.47679  0.08846  Biso   1.000  H
  H332     1.0000 0.42691  0.27486  0.00675  Biso   1.000  H
  H333     1.0000 0.50074  0.59714  0.80146  Biso   1.000  H
  H334     1.0000 0.25400  0.48666  0.45919  Biso   1.000  H
  H335     1.0000 0.91298  0.27790  0.54026  Biso   1.000  H
  H336     1.0000 0.97502  0.57809  0.74662  Biso   1.000  H
  H337     1.0000 0.02580  0.21932  0.92336  Biso   1.000  H
  H338     1.0000 0.91914  0.01476  0.24379  Biso   1.000  H
  H339     1.0000 0.24578  0.91094  0.06098  Biso   1.000  H
  H340     1.0000 0.50175  0.22798  0.60672  Biso   1.000  H
  H341     1.0000 0.42706  0.98850  0.29427  Biso   1.000  H
  H342     1.0000 0.75692  0.92508  0.51680  Biso   1.000  H
  H343     1.0000 0.53136  0.72409  0.95115  Biso   1.000  H
  H344     1.0000 0.62984  0.48193  0.24008  Biso   1.000  H
  H345     1.0000 0.28765  0.40568  0.05257  Biso   1.000  H
  H346     1.0000 0.04418  0.71991  0.63061  Biso   1.000  H
  H347     1.0000 0.12462  0.49406  0.31008  Biso   1.000  H
  H348     1.0000 0.78295  0.42523  0.49330  Biso   1.000  H
  H349     1.0000 0.01614  0.76477  0.12803  Biso   1.000  H
  H350     1.0000 0.12651  0.98196  0.79415  Biso   1.000  H
  H351     1.0000 0.79630  0.07239  0.02448  Biso   1.000  H
  H352     1.0000 0.54666  0.76343  0.44230  Biso   1.000  H
  H353     1.0000 0.62083  0.01812  0.74656  Biso   1.000  H
  H354     1.0000 0.28754  0.07457  0.54348  Biso   1.000  H
  H355     1.0000 0.50896  0.25743  0.10619  Biso   1.000  H
  H356     1.0000 0.41088  0.49113  0.81417  Biso   1.000  H
  H357     1.0000 0.73957  0.57239  0.98726  Biso   1.000  H
  H358     1.0000 0.99180  0.27417  0.43051  Biso   1.000  H
  H359     1.0000 0.91058  0.46511  0.73789  Biso   1.000  H
  H360     1.0000 0.25609  0.57144  0.53879  Biso   1.000  H
  H361     1.0000 0.01876  0.72536  0.44639  Biso   1.000  H
  H362     1.0000 0.44375  0.99043  0.75677  Biso   1.000  H
  H363     1.0000 0.75049  0.39210  0.01313  Biso   1.000  H
  H364     1.0000 0.55180  0.71485  0.12681  Biso   1.000  H
  H365     1.0000 0.94472  0.99315  0.78405  Biso   1.000  H
  H366     1.0000 0.23934  0.39722  0.53031  Biso   1.000  H
  H367     1.0000 0.52660  0.21400  0.43339  Biso   1.000  H
  H368     1.0000 0.08795  0.50852  0.76338  Biso   1.000  H
  H369     1.0000 0.78820  0.89045  0.00205  Biso   1.000  H
  H370     1.0000 0.02156  0.22854  0.10594  Biso   1.000  H
  H371     1.0000 0.58751  0.50754  0.78243  Biso   1.000  H
  H372     1.0000 0.30213  0.89793  0.54224  Biso   1.000  H
  H373     1.0000 0.02305  0.26521  0.60619  Biso   1.000  H
  H374     1.0000 0.60721  0.99006  0.29017  Biso   1.000  H
  H375     1.0000 0.28998  0.58542  0.04884  Biso   1.000  H
  H376     1.0000 0.51083  0.27036  0.92914  Biso   1.000  H
  H377     1.0000 0.10184  0.99446  0.25682  Biso   1.000  H
  H378     1.0000 0.79677  0.60865  0.50033  Biso   1.000  H
  H379     1.0000 0.52499  0.77306  0.62286  Biso   1.000  H
  H380     1.0000 0.95006  0.49289  0.28495  Biso   1.000  H
  H381     1.0000 0.24969  0.08518  0.03212  Biso   1.000  H
  H382     1.0000 0.01813  0.76301  0.94267  Biso   1.000  H
  H383     1.0000 0.45168  0.49978  0.26359  Biso   1.000  H
  H384     1.0000 0.74413  0.10328  0.49525  Biso   1.000  H
  H385     1.0000 0.26042  0.46496  0.37454  Biso   1.000  H
  H386     1.0000 0.28279  0.15519  0.50053  Biso   1.000  H
  H387     1.0000 0.48435  0.30798  0.24655  Biso   1.000  H
  H388     1.0000 0.71152  0.45156  0.22639  Biso   1.000  H
  H389     1.0000 0.84606  0.19932  0.06632  Biso   1.000  H
  H390     1.0000 0.00585  0.33501  0.28823  Biso   1.000  H
  H391     1.0000 0.29478  0.95212  0.35309  Biso   1.000  H
  H392     1.0000 0.20379  0.71006  0.56382  Biso   1.000  H
  H393     1.0000 0.98046  0.82517  0.25591  Biso   1.000  H
  H394     1.0000 0.79956  0.95054  0.19537  Biso   1.000  H
  H395     1.0000 0.75601  0.64800  0.02173  Biso   1.000  H
  H396     1.0000 0.57049  0.81073  0.30651  Biso   1.000  H
  H397     1.0000 0.79084  0.52561  0.68620  Biso   1.000  H
  H398     1.0000 0.76430  0.83794  0.54381  Biso   1.000  H
  H399     1.0000 0.55451  0.66835  0.81257  Biso   1.000  H
  H400     1.0000 0.32645  0.52770  0.82340  Biso   1.000  H
  H401     1.0000 0.25086  0.82732  0.03997  Biso   1.000  H
  H402     1.0000 0.02812  0.64886  0.76133  Biso   1.000  H
  H403     1.0000 0.75375  0.98731  0.68671  Biso   1.000  H
  H404     1.0000 0.77324  0.34846  0.53514  Biso   1.000  H
  H405     1.0000 0.98720  0.20992  0.84242  Biso   1.000  H
  H406     1.0000 0.25006  0.01857  0.85760  Biso   1.000  H
  H407     1.0000 0.28570  0.32545  0.01675  Biso   1.000  H
  H408     1.0000 0.47463  0.17368  0.74090  Biso   1.000  H
  H409     1.0000 0.30563  0.46710  0.21871  Biso   1.000  H
  H410     1.0000 0.18765  0.26429  0.47502  Biso   1.000  H
  H411     1.0000 0.48771  0.21628  0.35264  Biso   1.000  H
  H412     1.0000 0.86251  0.52011  0.27350  Biso   1.000  H
  H413     1.0000 0.69510  0.25534  0.00332  Biso   1.000  H
  H414     1.0000 0.99131  0.22620  0.18857  Biso   1.000  H
  H415     1.0000 0.19113  0.95651  0.24641  Biso   1.000  H
  H416     1.0000 0.35961  0.75492  0.56311  Biso   1.000  H
  H417     1.0000 0.00795  0.66802  0.30412  Biso   1.000  H
  H418     1.0000 0.73896  0.95382  0.33449  Biso   1.000  H
  H419     1.0000 0.79583  0.80837  0.04017  Biso   1.000  H
  H420     1.0000 0.50514  0.66093  0.25453  Biso   1.000  H
  H421     1.0000 0.72169  0.45965  0.82885  Biso   1.000  H
  H422     1.0000 0.80395  0.68725  0.53683  Biso   1.000  H
  H423     1.0000 0.56080  0.77089  0.70737  Biso   1.000  H
  H424     1.0000 0.23479  0.52257  0.71640  Biso   1.000  H
  H425     1.0000 0.33711  0.71428  0.01773  Biso   1.000  H
  H426     1.0000 0.05603  0.76385  0.85291  Biso   1.000  H
  H427     1.0000 0.85962  0.03043  0.78764  Biso   1.000  H
  H428     1.0000 0.74298  0.18111  0.53795  Biso   1.000  H
  H429     1.0000 0.04033  0.31561  0.75220  Biso   1.000  H
  H430     1.0000 0.35656  0.95652  0.75798  Biso   1.000  H
  H431     1.0000 0.19513  0.21831  0.99297  Biso   1.000  H
  H432     1.0000 0.46671  0.32242  0.79944  Biso   1.000  H
  H433     1.0000 0.30549  0.02263  0.70666  Biso   1.000  H
  H434     1.0000 0.74655  0.31621  0.05104  Biso   1.000  H
  H435     1.0000 0.05052  0.73238  0.35998  Biso   1.000  H
  H436     1.0000 0.79918  0.97653  0.83881  Biso   1.000  H
  H437     1.0000 0.22078  0.30848  0.55239  Biso   1.000  H
  H438     1.0000 0.58202  0.69793  0.21554  Biso   1.000  H
  H439     1.0000 0.17385  0.47518  0.76999  Biso   1.000  H
  H440     1.0000 0.85568  0.74995  0.98847  Biso   1.000  H
  H441     1.0000 0.54188  0.15614  0.29988  Biso   1.000  H
  H442     1.0000 0.67343  0.52399  0.77190  Biso   1.000  H
  H443     1.0000 0.30009  0.80697  0.50678  Biso   1.000  H
  H444     1.0000 0.04845  0.17374  0.24406  Biso   1.000  H
  H445     1.0000 0.69471  0.02998  0.29744  Biso   1.000  H
  H446     1.0000 0.30369  0.67117  0.09599  Biso   1.000  H
  H447     1.0000 0.99122  0.26264  0.68569  Biso   1.000  H
  H448     1.0000 0.23505  0.03339  0.21199  Biso   1.000  H
  H449     1.0000 0.86611  0.73713  0.48777  Biso   1.000  H
  H450     1.0000 0.54207  0.28142  0.84532  Biso   1.000  H
  H451     1.0000 0.81749  0.45931  0.33342  Biso   1.000  H
  H452     1.0000 0.23702  0.17225  0.06403  Biso   1.000  H
  H453     1.0000 0.51018  0.82947  0.76333  Biso   1.000  H
  H454     1.0000 0.36294  0.52128  0.27172  Biso   1.000  H
  H455     1.0000 0.67413  0.23890  0.50343  Biso   1.000  H
  H456     1.0000 0.97933  0.80585  0.81347  Biso   1.000  H
  H457     1.0000 0.70291  0.79250  0.49065  Biso   1.000  H
  H458     1.0000 0.50627  0.73418  0.86545  Biso   1.000  H
  H459     1.0000 0.82026  0.44465  0.72412  Biso   1.000  H
  H460     1.0000 0.18898  0.76938  0.08389  Biso   1.000  H
  H461     1.0000 0.00057  0.71540  0.69974  Biso   1.000  H
  H462     1.0000 0.27430  0.46684  0.87167  Biso   1.000  H
  H463     1.0000 0.83365  0.28118  0.49814  Biso   1.000  H
  H464     1.0000 0.05297  0.16322  0.78517  Biso   1.000  H
  H465     1.0000 0.70290  0.05290  0.73610  Biso   1.000  H
  H466     1.0000 0.34835  0.26599  0.05387  Biso   1.000  H
  H467     1.0000 0.52703  0.23395  0.69537  Biso   1.000  H
  H468     1.0000 0.21495  0.94342  0.81319  Biso   1.000  H
  H469     1.0000 0.33865  0.21647  0.54914  Biso   1.000  H
  H470     1.0000 0.54070  0.25449  0.19310  Biso   1.000  H
  H471     1.0000 0.20534  0.52279  0.31934  Biso   1.000  H
  H472     1.0000 0.80059  0.15861  0.99600  Biso   1.000  H
  H473     1.0000 0.03666  0.26809  0.35146  Biso   1.000  H
  H474     1.0000 0.76011  0.51820  0.17849  Biso   1.000  H
  H475     1.0000 0.26135  0.65653  0.50976  Biso   1.000  H
  H476     1.0000 0.05033  0.77664  0.20742  Biso   1.000  H
  H477     1.0000 0.34538  0.01345  0.30486  Biso   1.000  H
  H478     1.0000 0.69034  0.71926  0.99965  Biso   1.000  H
  H479     1.0000 0.51056  0.75866  0.35981  Biso   1.000  H
  H480     1.0000 0.83197  0.03393  0.23141  Biso   1.000  H
  N1       1.0000 0.68680  0.18520  0.52025  Biso   1.000  N
  N2       1.0000 0.54251  0.65829  0.21049  Biso   1.000  N
  N3       1.0000 0.18057  0.49818  0.71813  Biso   1.000  N
  N4       1.0000 0.19333  0.17129  0.02575  Biso   1.000  N
  N5       1.0000 0.03366  0.67613  0.35562  Biso   1.000  N
  N6       1.0000 0.67558  0.49028  0.82674  Biso   1.000  N
  N7       1.0000 0.85769  0.68735  0.51425  Biso   1.000  N
  N8       1.0000 0.02299  0.17823  0.19358  Biso   1.000  N
  N9       1.0000 0.35408  0.98759  0.70764  Biso   1.000  N
  N10      1.0000 0.34399  0.67078  0.05324  Biso   1.000  N
  N11      1.0000 0.51505  0.16165  0.34697  Biso   1.000  N
  N12      1.0000 0.85443  0.99725  0.83408  Biso   1.000  N
  N13      1.0000 0.35357  0.80729  0.53497  Biso   1.000  N
  N14      1.0000 0.50360  0.32483  0.84400  Biso   1.000  N
  N15      1.0000 0.85785  0.49907  0.32997  Biso   1.000  N
  N16      1.0000 0.84714  0.80555  0.01259  Biso   1.000  N
  N17      1.0000 0.01409  0.31504  0.69664  Biso   1.000  N
  N18      1.0000 0.35627  0.49571  0.22003  Biso   1.000  N
  N19      1.0000 0.18381  0.31268  0.51387  Biso   1.000  N
  N20      1.0000 0.02209  0.80964  0.85292  Biso   1.000  N
  N21      1.0000 0.69647  0.98902  0.33938  Biso   1.000  N
  N22      1.0000 0.69737  0.30846  0.02440  Biso   1.000  N
  N23      1.0000 0.53542  0.82466  0.71091  Biso   1.000  N
  N24      1.0000 0.18949  0.99794  0.20621  Biso   1.000  N
  N25      1.0000 0.82946  0.48199  0.68132  Biso   1.000  N
  N26      1.0000 0.70933  0.83606  0.52213  Biso   1.000  N
  N27      1.0000 0.52396  0.67697  0.86029  Biso   1.000  N
  N28      1.0000 0.32504  0.49526  0.86974  Biso   1.000  N
  N29      1.0000 0.19615  0.82130  0.06109  Biso   1.000  N
  N30      1.0000 0.01304  0.66202  0.70503  Biso   1.000  N
  N31      1.0000 0.70280  0.01976  0.68955  Biso   1.000  N
  N32      1.0000 0.82786  0.33557  0.51991  Biso   1.000  N
  N33      1.0000 0.02160  0.16384  0.83945  Biso   1.000  N
  N34      1.0000 0.20841  0.98278  0.85500  Biso   1.000  N
  N35      1.0000 0.34012  0.32044  0.03428  Biso   1.000  N
  N36      1.0000 0.50640  0.17903  0.69703  Biso   1.000  N
  N37      1.0000 0.20779  0.49255  0.36854  Biso   1.000  N
  N38      1.0000 0.33433  0.16236  0.52468  Biso   1.000  N
  N39      1.0000 0.51740  0.30487  0.19601  Biso   1.000  N
  N40      1.0000 0.70999  0.48364  0.17881  Biso   1.000  N
  N41      1.0000 0.84535  0.15880  0.02980  Biso   1.000  N
  N42      1.0000 0.01890  0.32480  0.34670  Biso   1.000  N
  N43      1.0000 0.34344  0.98049  0.34963  Biso   1.000  N
  N44      1.0000 0.20710  0.66194  0.53426  Biso   1.000  N
  N45      1.0000 0.01232  0.82533  0.20647  Biso   1.000  N
  N46      1.0000 0.83647  0.99389  0.18792  Biso   1.000  N
  N47      1.0000 0.69696  0.66000  0.01409  Biso   1.000  N
  N48      1.0000 0.53913  0.81109  0.35388  Biso   1.000  N
  O1       1.0000 0.35895  0.53632  0.04425  Biso   1.000  O
  O2       1.0000 0.01251  0.34199  0.56376  Biso   1.000  O
  O3       1.0000 0.56377  0.98645  0.36386  Biso   1.000  O
  O4       1.0000 0.86310  0.55086  0.51032  Biso   1.000  O
  O5       1.0000 0.51648  0.34187  0.98138  Biso   1.000  O
  O6       1.0000 0.05792  0.99689  0.18288  Biso   1.000  O
  O7       1.0000 0.17742  0.03557  0.01993  Biso   1.000  O
  O8       1.0000 0.53082  0.84704  0.57355  Biso   1.000  O
  O9       1.0000 0.99009  0.50343  0.36636  Biso   1.000  O
  O10      1.0000 0.67715  0.05041  0.50550  Biso   1.000  O
  O11      1.0000 0.02813  0.83575  0.98425  Biso   1.000  O
  O12      1.0000 0.49088  0.47743  0.18517  Biso   1.000  O
  O13      1.0000 0.67758  0.44084  0.00157  Biso   1.000  O
  O14      1.0000 0.03099  0.65146  0.48658  Biso   1.000  O
  O15      1.0000 0.48643  0.99622  0.68091  Biso   1.000  O
  O16      1.0000 0.16984  0.44674  0.54026  Biso   1.000  O
  O17      1.0000 0.53193  0.64226  0.07584  Biso   1.000  O
  O18      1.0000 0.98768  0.98532  0.85952  Biso   1.000  O
  O19      1.0000 0.86141  0.94106  0.01029  Biso   1.000  O
  O20      1.0000 0.51865  0.14264  0.48229  Biso   1.000  O
  O21      1.0000 0.04734  0.49724  0.68582  Biso   1.000  O
  O22      1.0000 0.37008  0.94463  0.52721  Biso   1.000  O
  O23      1.0000 0.02099  0.15146  0.05959  Biso   1.000  O
  O24      1.0000 0.54651  0.50358  0.86344  Biso   1.000  O
  O25      1.0000 0.97478  0.00499  0.17406  Biso   1.000  O
  O26      1.0000 0.17524  0.95408  0.03705  Biso   1.000  O
  O27      1.0000 0.01945  0.14803  0.97593  Biso   1.000  O
  O28      1.0000 0.48050  0.98645  0.36798  Biso   1.000  O
  O29      1.0000 0.68428  0.96812  0.52368  Biso   1.000  O
  O30      1.0000 0.50920  0.15461  0.56398  Biso   1.000  O
  O31      1.0000 0.57122  0.48629  0.17519  Biso   1.000  O
  O32      1.0000 0.36220  0.45180  0.04746  Biso   1.000  O
  O33      1.0000 0.51446  0.64982  0.99414  Biso   1.000  O
  O34      1.0000 0.07367  0.49862  0.37851  Biso   1.000  O
  O35      1.0000 0.85549  0.46854  0.50678  Biso   1.000  O
  O36      1.0000 0.02916  0.65060  0.57001  Biso   1.000  O
  O37      1.0000 0.07363  0.98322  0.86355  Biso   1.000  O
  O38      1.0000 0.86473  0.02563  0.01390  Biso   1.000  O
  O39      1.0000 0.01659  0.83465  0.07026  Biso   1.000  O
  O40      1.0000 0.56751  0.00924  0.67739  Biso   1.000  O
  O41      1.0000 0.36193  0.02909  0.53077  Biso   1.000  O
  O42      1.0000 0.53194  0.84020  0.48701  Biso   1.000  O
  O43      1.0000 0.46467  0.50233  0.87995  Biso   1.000  O
  O44      1.0000 0.66947  0.52677  0.00963  Biso   1.000  O
  O45      1.0000 0.51380  0.33277  0.06416  Biso   1.000  O
  O46      1.0000 0.96547  0.48240  0.67546  Biso   1.000  O
  O47      1.0000 0.17924  0.53119  0.54121  Biso   1.000  O
  O48      1.0000 0.99592  0.34530  0.48019  Biso   1.000  O
  O49      1.0000 0.01448  0.95746  0.18231  Biso   1.000  O
  O50      1.0000 0.17931  0.98654  0.98747  Biso   1.000  O
  O51      1.0000 0.98129  0.14486  0.02065  Biso   1.000  O
  O52      1.0000 0.51731  0.94472  0.36377  Biso   1.000  O
  O53      1.0000 0.68071  0.01817  0.55659  Biso   1.000  O
  O54      1.0000 0.47171  0.14808  0.52022  Biso   1.000  O
  O55      1.0000 0.53605  0.43880  0.18051  Biso   1.000  O
  O56      1.0000 0.35762  0.49430  0.00431  Biso   1.000  O
  O57      1.0000 0.56153  0.64717  0.02700  Biso   1.000  O
  O58      1.0000 0.03006  0.45760  0.37382  Biso   1.000  O
  O59      1.0000 0.85694  0.50643  0.54991  Biso   1.000  O
  O60      1.0000 0.07239  0.64915  0.52762  Biso   1.000  O
  O61      1.0000 0.02534  0.02680  0.85821  Biso   1.000  O
  O62      1.0000 0.86129  0.98188  0.05380  Biso   1.000  O
  O63      1.0000 0.06397  0.83947  0.03330  Biso   1.000  O
  O64      1.0000 0.51913  0.04432  0.68300  Biso   1.000  O
  O65      1.0000 0.36566  0.98465  0.48435  Biso   1.000  O
  O66      1.0000 0.57020  0.85128  0.53495  Biso   1.000  O
  O67      1.0000 0.49950  0.54431  0.87217  Biso   1.000  O
  O68      1.0000 0.67999  0.48110  0.04566  Biso   1.000  O
  O69      1.0000 0.47556  0.34324  0.02125  Biso   1.000  O
  O70      1.0000 0.00256  0.53329  0.67945  Biso   1.000  O
  O71      1.0000 0.17892  0.48604  0.50147  Biso   1.000  O
  O72      1.0000 0.96552  0.34637  0.52897  Biso   1.000  O
  O73      1.0000 0.01512  0.44829  0.68253  Biso   1.000  O
  O74      1.0000 0.68001  0.99966  0.47553  Biso   1.000  O
  O75      1.0000 0.48103  0.64624  0.04497  Biso   1.000  O
  O76      1.0000 0.51177  0.46168  0.86660  Biso   1.000  O
  O77      1.0000 0.17488  0.00276  0.07016  Biso   1.000  O
  O78      1.0000 0.99025  0.65231  0.52619  Biso   1.000  O
  O79      1.0000 0.54232  0.95994  0.68261  Biso   1.000  O
  O80      1.0000 0.86347  0.50879  0.46600  Biso   1.000  O
  O81      1.0000 0.06236  0.14919  0.01727  Biso   1.000  O
  O82      1.0000 0.03160  0.94450  0.86601  Biso   1.000  O
  O83      1.0000 0.36677  0.49703  0.08765  Biso   1.000  O
  O84      1.0000 0.55484  0.15384  0.52695  Biso   1.000  O
  O85      1.0000 0.03565  0.53975  0.36980  Biso   1.000  O
  O86      1.0000 0.36837  0.98640  0.57003  Biso   1.000  O
  O87      1.0000 0.56065  0.33724  0.02387  Biso   1.000  O
  O88      1.0000 0.52822  0.52651  0.18437  Biso   1.000  O
  O89      1.0000 0.86819  0.98435  0.96918  Biso   1.000  O
  O90      1.0000 0.04731  0.34101  0.51356  Biso   1.000  O
  O91      1.0000 0.52647  0.02729  0.36680  Biso   1.000  O
  O92      1.0000 0.17080  0.48631  0.58443  Biso   1.000  O
  O93      1.0000 0.97962  0.83712  0.02261  Biso   1.000  O
  O94      1.0000 0.02028  0.04094  0.17843  Biso   1.000  O
  O95      1.0000 0.66949  0.48300  0.96343  Biso   1.000  O
  O96      1.0000 0.48739  0.83829  0.52736  Biso   1.000  O
  O97      1.0000 0.46876  0.19586  0.51560  Biso   1.000  O
  O98      1.0000 0.53791  0.43858  0.22951  Biso   1.000  O
  O99      1.0000 0.22722  0.48318  0.50556  Biso   1.000  O
  O100     1.0000 0.97640  0.19381  0.01779  Biso   1.000  O
  O101     1.0000 0.03014  0.45731  0.32510  Biso   1.000  O
  O102     1.0000 0.72811  0.48410  0.04414  Biso   1.000  O
  O103     1.0000 0.07287  0.69774  0.53001  Biso   1.000  O
  O104     1.0000 0.00945  0.96181  0.23129  Biso   1.000  O
  O105     1.0000 0.31661  0.98732  0.48703  Biso   1.000  O
  O106     1.0000 0.56255  0.69486  0.02506  Biso   1.000  O
  O107     1.0000 0.52601  0.94298  0.31506  Biso   1.000  O
  O108     1.0000 0.81241  0.98088  0.05315  Biso   1.000  O
  O109     1.0000 0.57540  0.80261  0.53877  Biso   1.000  O
  O110     1.0000 0.49382  0.54792  0.82429  Biso   1.000  O
  O111     1.0000 0.80975  0.51148  0.54509  Biso   1.000  O
  O112     1.0000 0.06608  0.79038  0.03454  Biso   1.000  O
  O113     1.0000 0.99363  0.53312  0.72778  Biso   1.000  O
  O114     1.0000 0.30807  0.49350  0.00633  Biso   1.000  O
  O115     1.0000 0.96222  0.29563  0.52860  Biso   1.000  O
  O116     1.0000 0.03048  0.02831  0.81049  Biso   1.000  O
  O117     1.0000 0.73030  0.02188  0.55501  Biso   1.000  O
  O118     1.0000 0.47356  0.29417  0.01631  Biso   1.000  O
  O119     1.0000 0.52415  0.04712  0.73180  Biso   1.000  O
  O120     1.0000 0.22773  0.98599  0.99052  Biso   1.000  O
  O121     1.0000 0.04244  0.49812  0.73369  Biso   1.000  O
  O122     1.0000 0.72509  0.05411  0.50409  Biso   1.000  O
  O123     1.0000 0.53512  0.69115  0.07791  Biso   1.000  O
  O124     1.0000 0.53741  0.50678  0.81722  Biso   1.000  O
  O125     1.0000 0.22677  0.03604  0.02407  Biso   1.000  O
  O126     1.0000 0.03196  0.70026  0.48937  Biso   1.000  O
  O127     1.0000 0.48866  0.00001  0.72935  Biso   1.000  O
  O128     1.0000 0.81507  0.55548  0.50708  Biso   1.000  O
  O129     1.0000 0.02282  0.20222  0.05686  Biso   1.000  O
  O130     1.0000 0.99075  0.98676  0.81067  Biso   1.000  O
  O131     1.0000 0.31034  0.53552  0.05054  Biso   1.000  O
  O132     1.0000 0.51541  0.19090  0.47848  Biso   1.000  O
  O133     1.0000 0.99838  0.50686  0.31809  Biso   1.000  O
  O134     1.0000 0.32173  0.94247  0.52649  Biso   1.000  O
  O135     1.0000 0.51744  0.29404  0.97858  Biso   1.000  O
  O136     1.0000 0.49592  0.47940  0.23381  Biso   1.000  O
  O137     1.0000 0.81320  0.94187  0.00922  Biso   1.000  O
  O138     1.0000 0.01583  0.29251  0.56000  Biso   1.000  O
  O139     1.0000 0.56053  0.98670  0.31662  Biso   1.000  O
  O140     1.0000 0.21775  0.44116  0.54587  Biso   1.000  O
  O141     1.0000 0.02646  0.78701  0.98776  Biso   1.000  O
  O142     1.0000 0.05511  0.00160  0.23085  Biso   1.000  O
  O143     1.0000 0.72731  0.44010  0.00162  Biso   1.000  O
  O144     1.0000 0.53211  0.79792  0.57471  Biso   1.000  O
  O145     1.0000 0.57810  0.48121  0.22356  Biso   1.000  O
  O146     1.0000 0.22557  0.52416  0.54917  Biso   1.000  O
  O147     1.0000 0.50863  0.20292  0.56114  Biso   1.000  O
  O148     1.0000 0.07792  0.48992  0.33048  Biso   1.000  O
  O149     1.0000 0.71517  0.52530  0.00188  Biso   1.000  O
  O150     1.0000 0.01257  0.19664  0.97287  Biso   1.000  O
  O151     1.0000 0.96918  0.00620  0.22264  Biso   1.000  O
  O152     1.0000 0.31289  0.02666  0.52794  Biso   1.000  O
  O153     1.0000 0.03272  0.69901  0.57303  Biso   1.000  O
  O154     1.0000 0.47832  0.97728  0.31914  Biso   1.000  O
  O155     1.0000 0.81568  0.02623  0.01739  Biso   1.000  O
  O156     1.0000 0.50846  0.69835  0.99770  Biso   1.000  O
  O157     1.0000 0.45709  0.50441  0.83319  Biso   1.000  O
  O158     1.0000 0.80685  0.47080  0.50070  Biso   1.000  O
  O159     1.0000 0.54132  0.79284  0.49152  Biso   1.000  O
  O160     1.0000 0.95922  0.48749  0.72348  Biso   1.000  O
  O161     1.0000 0.31278  0.45335  0.04893  Biso   1.000  O
  O162     1.0000 0.02303  0.78611  0.07364  Biso   1.000  O
  O163     1.0000 0.07458  0.98632  0.81546  Biso   1.000  O
  O164     1.0000 0.73390  0.97231  0.52230  Biso   1.000  O
  O165     1.0000 0.99261  0.29703  0.47960  Biso   1.000  O
  O166     1.0000 0.57117  0.01266  0.72604  Biso   1.000  O
  O167     1.0000 0.22556  0.95418  0.03868  Biso   1.000  O
  O168     1.0000 0.50836  0.28440  0.05889  Biso   1.000  O
  O169     1.0000 0.01674  0.04528  0.22603  Biso   1.000  O
  O170     1.0000 0.22197  0.00054  0.07333  Biso   1.000  O
  O171     1.0000 0.05752  0.19714  0.01060  Biso   1.000  O
  O172     1.0000 0.51316  0.02768  0.31836  Biso   1.000  O
  O173     1.0000 0.72829  0.00322  0.47554  Biso   1.000  O
  O174     1.0000 0.54913  0.20381  0.52413  Biso   1.000  O
  O175     1.0000 0.53213  0.52084  0.23253  Biso   1.000  O
  O176     1.0000 0.31796  0.49672  0.08941  Biso   1.000  O
  O177     1.0000 0.48258  0.69480  0.05253  Biso   1.000  O
  O178     1.0000 0.04454  0.53834  0.32143  Biso   1.000  O
  O179     1.0000 0.81610  0.51554  0.46109  Biso   1.000  O
  O180     1.0000 0.99055  0.70215  0.53272  Biso   1.000  O
  O181     1.0000 0.02754  0.94444  0.81682  Biso   1.000  O
  O182     1.0000 0.81851  0.99138  0.96756  Biso   1.000  O
  O183     1.0000 0.98292  0.78868  0.03331  Biso   1.000  O
  O184     1.0000 0.53875  0.96309  0.73149  Biso   1.000  O
  O185     1.0000 0.32039  0.98138  0.57208  Biso   1.000  O
  O186     1.0000 0.49392  0.79072  0.53012  Biso   1.000  O
  O187     1.0000 0.49795  0.46238  0.81850  Biso   1.000  O
  O188     1.0000 0.71850  0.48378  0.95889  Biso   1.000  O
  O189     1.0000 0.55794  0.28879  0.02154  Biso   1.000  O
  O190     1.0000 0.00891  0.44947  0.73185  Biso   1.000  O
  O191     1.0000 0.21907  0.47989  0.58732  Biso   1.000  O
  O192     1.0000 0.04832  0.29258  0.51181  Biso   1.000  O
