data_image0
_cell_length_a       47.1241
_cell_length_b       46.599
_cell_length_c       46.6266
_cell_angle_alpha    90
_cell_angle_beta     90
_cell_angle_gamma    90

_symmetry_space_group_name_H-M    "P 1"
_symmetry_int_tables_number       1

loop_
  _symmetry_equiv_pos_as_xyz
  'x, y, z'

loop_
  _atom_site_label
  _atom_site_occupancy
  _atom_site_fract_x
  _atom_site_fract_y
  _atom_site_fract_z
  _atom_site_thermal_displace_type
  _atom_site_B_iso_or_equiv
  _atom_site_type_symbol
  C1       1.0000 0.54275  0.00466  0.31452  Biso   1.000  C
  C2       1.0000 0.30999  0.55790  0.02393  Biso   1.000  C
  C3       1.0000 0.99636  0.32335  0.56377  Biso   1.000  C
  C4       1.0000 0.03727  0.00970  0.18535  Biso   1.000  C
  C5       1.0000 0.81824  0.55326  0.49918  Biso   1.000  C
  C6       1.0000 0.49130  0.31546  0.94993  Biso   1.000  C
  C7       1.0000 0.95253  0.49684  0.32659  Biso   1.000  C
  C8       1.0000 0.17737  0.05930  0.00174  Biso   1.000  C
  C9       1.0000 0.48977  0.81308  0.55406  Biso   1.000  C
  C10      1.0000 0.45045  0.48756  0.18302  Biso   1.000  C
  C11      1.0000 0.67944  0.05162  0.49040  Biso   1.000  C
  C12      1.0000 0.00413  0.82600  0.94577  Biso   1.000  C
  C13      1.0000 0.44566  0.98713  0.68454  Biso   1.000  C
  C14      1.0000 0.66882  0.43792  0.00343  Biso   1.000  C
  C15      1.0000 0.99200  0.68134  0.44955  Biso   1.000  C
  C16      1.0000 0.94606  0.01531  0.81517  Biso   1.000  C
  C17      1.0000 0.18375  0.45268  0.51234  Biso   1.000  C
  C18      1.0000 0.49733  0.67925  0.06140  Biso   1.000  C
  C19      1.0000 0.04521  0.50860  0.68657  Biso   1.000  C
  C20      1.0000 0.81503  0.94039  0.99064  Biso   1.000  C
  C21      1.0000 0.49735  0.18324  0.44892  Biso   1.000  C
  C22      1.0000 0.54493  0.49615  0.82388  Biso   1.000  C
  C23      1.0000 0.31258  0.95183  0.50060  Biso   1.000  C
  C24      1.0000 0.98139  0.17598  0.05889  Biso   1.000  C
  C25      1.0000 0.31968  0.06033  0.50804  Biso   1.000  C
  C26      1.0000 0.47465  0.31666  0.05523  Biso   1.000  C
  C27      1.0000 0.06198  0.49333  0.32727  Biso   1.000  C
  C28      1.0000 0.81218  0.04982  0.98343  Biso   1.000  C
  C29      1.0000 0.00527  0.31561  0.45456  Biso   1.000  C
  C30      1.0000 0.55754  0.50264  0.18266  Biso   1.000  C
  C31      1.0000 0.18541  0.56000  0.51074  Biso   1.000  C
  C32      1.0000 0.99490  0.81721  0.05359  Biso   1.000  C
  C33      1.0000 0.43453  0.00100  0.31699  Biso   1.000  C
  C34      1.0000 0.67313  0.54693  0.99877  Biso   1.000  C
  C35      1.0000 0.49756  0.82643  0.44812  Biso   1.000  C
  C36      1.0000 0.93052  0.98748  0.17834  Biso   1.000  C
  C37      1.0000 0.67908  0.94150  0.49008  Biso   1.000  C
  C38      1.0000 0.50018  0.68221  0.95528  Biso   1.000  C
  C39      1.0000 0.93515  0.51303  0.68676  Biso   1.000  C
  C40      1.0000 0.17697  0.95175  0.01205  Biso   1.000  C
  C41      1.0000 0.00313  0.68577  0.55487  Biso   1.000  C
  C42      1.0000 0.43473  0.49780  0.82514  Biso   1.000  C
  C43      1.0000 0.81877  0.44507  0.50191  Biso   1.000  C
  C44      1.0000 0.99074  0.18585  0.94968  Biso   1.000  C
  C45      1.0000 0.55237  0.99617  0.67775  Biso   1.000  C
  C46      1.0000 0.31041  0.45062  0.99702  Biso   1.000  C
  C47      1.0000 0.51006  0.17785  0.55826  Biso   1.000  C
  C48      1.0000 0.05452  0.00536  0.82357  Biso   1.000  C
  C49      1.0000 0.00487  0.06415  0.81859  Biso   1.000  C
  C50      1.0000 0.81124  0.99658  0.04089  Biso   1.000  C
  C51      1.0000 0.05309  0.82539  0.00137  Biso   1.000  C
  C52      1.0000 0.49504  0.04503  0.68312  Biso   1.000  C
  C53      1.0000 0.31236  0.00983  0.45086  Biso   1.000  C
  C54      1.0000 0.54845  0.81858  0.50144  Biso   1.000  C
  C55      1.0000 0.48920  0.55200  0.82820  Biso   1.000  C
  C56      1.0000 0.67837  0.49351  0.05607  Biso   1.000  C
  C57      1.0000 0.43129  0.31752  0.99256  Biso   1.000  C
  C58      1.0000 0.99257  0.56434  0.68375  Biso   1.000  C
  C59      1.0000 0.18258  0.50803  0.45709  Biso   1.000  C
  C60      1.0000 0.94540  0.31495  0.50594  Biso   1.000  C
  C61      1.0000 0.99016  0.94330  0.18407  Biso   1.000  C
  C62      1.0000 0.18122  0.99497  0.95137  Biso   1.000  C
  C63      1.0000 0.93094  0.17794  0.99984  Biso   1.000  C
  C64      1.0000 0.49369  0.94943  0.31362  Biso   1.000  C
  C65      1.0000 0.67847  0.00125  0.54496  Biso   1.000  C
  C66      1.0000 0.45126  0.18167  0.50893  Biso   1.000  C
  C67      1.0000 0.50712  0.44145  0.18146  Biso   1.000  C
  C68      1.0000 0.31569  0.51952  0.96019  Biso   1.000  C
  C69      1.0000 0.55448  0.68248  0.00865  Biso   1.000  C
  C70      1.0000 0.00880  0.44352  0.32963  Biso   1.000  C
  C71      1.0000 0.81693  0.49847  0.55324  Biso   1.000  C
  C72      1.0000 0.05249  0.68202  0.49695  Biso   1.000  C
  C73      1.0000 0.01319  0.55180  0.32312  Biso   1.000  C
  C74      1.0000 0.31974  0.00417  0.56088  Biso   1.000  C
  C75      1.0000 0.53631  0.31771  0.01254  Biso   1.000  C
  C76      1.0000 0.49553  0.54979  0.18782  Biso   1.000  C
  C77      1.0000 0.81424  0.99205  0.93136  Biso   1.000  C
  C78      1.0000 0.05560  0.32528  0.50978  Biso   1.000  C
  C79      1.0000 0.48446  0.05852  0.31900  Biso   1.000  C
  C80      1.0000 0.17806  0.50657  0.56592  Biso   1.000  C
  C81      1.0000 0.94320  0.81756  0.99499  Biso   1.000  C
  C82      1.0000 0.97570  0.05343  0.18639  Biso   1.000  C
  C83      1.0000 0.66821  0.49266  0.94852  Biso   1.000  C
  C84      1.0000 0.43928  0.82184  0.50118  Biso   1.000  C
  C85      1.0000 0.98697  0.45550  0.68791  Biso   1.000  C
  C86      1.0000 0.67322  0.99322  0.43632  Biso   1.000  C
  C87      1.0000 0.44401  0.68018  0.00592  Biso   1.000  C
  C88      1.0000 0.48842  0.44230  0.81898  Biso   1.000  C
  C89      1.0000 0.17228  0.00891  0.05870  Biso   1.000  C
  C90      1.0000 0.94119  0.68656  0.50828  Biso   1.000  C
  C91      1.0000 0.50172  0.93707  0.67928  Biso   1.000  C
  C92      1.0000 0.82067  0.49437  0.44604  Biso   1.000  C
  C93      1.0000 0.04233  0.18041  0.00940  Biso   1.000  C
  C94      1.0000 0.99788  0.95675  0.81985  Biso   1.000  C
  C95      1.0000 0.31304  0.48825  0.06391  Biso   1.000  C
  C96      1.0000 0.55901  0.18396  0.49520  Biso   1.000  C
  C97      1.0000 0.67878  0.08424  0.48971  Biso   1.000  C
  C98      1.0000 0.49979  0.67876  0.09343  Biso   1.000  C
  C99      1.0000 0.07742  0.51730  0.68755  Biso   1.000  C
  C100     1.0000 0.17798  0.09121  0.00225  Biso   1.000  C
  C101     1.0000 0.98887  0.67927  0.41810  Biso   1.000  C
  C102     1.0000 0.57557  0.49670  0.82113  Biso   1.000  C
  C103     1.0000 0.81742  0.58551  0.49911  Biso   1.000  C
  C104     1.0000 0.97455  0.17608  0.09014  Biso   1.000  C
  C105     1.0000 0.41444  0.99582  0.68550  Biso   1.000  C
  C106     1.0000 0.31171  0.59041  0.02438  Biso   1.000  C
  C107     1.0000 0.49596  0.18429  0.41720  Biso   1.000  C
  C108     1.0000 0.91419  0.01967  0.81260  Biso   1.000  C
  C109     1.0000 0.31381  0.91997  0.49606  Biso   1.000  C
  C110     1.0000 0.48949  0.31467  0.91757  Biso   1.000  C
  C111     1.0000 0.92029  0.49603  0.32465  Biso   1.000  C
  C112     1.0000 0.81504  0.90934  0.99078  Biso   1.000  C
  C113     1.0000 0.99559  0.32483  0.59611  Biso   1.000  C
  C114     1.0000 0.41842  0.48456  0.18415  Biso   1.000  C
  C115     1.0000 0.18303  0.41929  0.51709  Biso   1.000  C
  C116     1.0000 0.99988  0.82757  0.91400  Biso   1.000  C
  C117     1.0000 0.57476  0.00350  0.31312  Biso   1.000  C
  C118     1.0000 0.66786  0.40574  0.00195  Biso   1.000  C
  C119     1.0000 0.49063  0.81028  0.58563  Biso   1.000  C
  C120     1.0000 0.06939  0.01422  0.18559  Biso   1.000  C
  C121     1.0000 0.80892  0.99563  0.07435  Biso   1.000  C
  C122     1.0000 0.08525  0.82697  0.00029  Biso   1.000  C
  C123     1.0000 0.00560  0.09610  0.81810  Biso   1.000  C
  C124     1.0000 0.31094  0.01078  0.41794  Biso   1.000  C
  C125     1.0000 0.58060  0.81664  0.49890  Biso   1.000  C
  C126     1.0000 0.49852  0.07773  0.68419  Biso   1.000  C
  C127     1.0000 0.67999  0.49160  0.08791  Biso   1.000  C
  C128     1.0000 0.40088  0.32017  0.99689  Biso   1.000  C
  C129     1.0000 0.49185  0.58391  0.82739  Biso   1.000  C
  C130     1.0000 0.18519  0.50447  0.42534  Biso   1.000  C
  C131     1.0000 0.91318  0.31578  0.50884  Biso   1.000  C
  C132     1.0000 0.99664  0.59612  0.68138  Biso   1.000  C
  C133     1.0000 0.18216  0.99212  0.91964  Biso   1.000  C
  C134     1.0000 0.89986  0.17765  0.99391  Biso   1.000  C
  C135     1.0000 0.99029  0.91132  0.18379  Biso   1.000  C
  C136     1.0000 0.67740  0.00484  0.57702  Biso   1.000  C
  C137     1.0000 0.41867  0.18389  0.50788  Biso   1.000  C
  C138     1.0000 0.49092  0.91734  0.31385  Biso   1.000  C
  C139     1.0000 0.31496  0.52155  0.92732  Biso   1.000  C
  C140     1.0000 0.58587  0.68078  0.01406  Biso   1.000  C
  C141     1.0000 0.50612  0.40940  0.17970  Biso   1.000  C
  C142     1.0000 0.81456  0.49973  0.58506  Biso   1.000  C
  C143     1.0000 0.08387  0.68442  0.50089  Biso   1.000  C
  C144     1.0000 0.00721  0.41161  0.33014  Biso   1.000  C
  C145     1.0000 0.31519  0.48607  0.09574  Biso   1.000  C
  C146     1.0000 0.08699  0.32620  0.50770  Biso   1.000  C
  C147     1.0000 0.48383  0.08989  0.32056  Biso   1.000  C
  C148     1.0000 0.82295  0.49281  0.41382  Biso   1.000  C
  C149     1.0000 0.56899  0.31588  0.00453  Biso   1.000  C
  C150     1.0000 0.97039  0.08515  0.18776  Biso   1.000  C
  C151     1.0000 0.16958  0.00844  0.09218  Biso   1.000  C
  C152     1.0000 0.40774  0.82369  0.49921  Biso   1.000  C
  C153     1.0000 0.01188  0.58412  0.32210  Biso   1.000  C
  C154     1.0000 0.67199  0.99646  0.40434  Biso   1.000  C
  C155     1.0000 0.91069  0.81524  0.99320  Biso   1.000  C
  C156     1.0000 0.49885  0.58352  0.18934  Biso   1.000  C
  C157     1.0000 0.66830  0.49631  0.91728  Biso   1.000  C
  C158     1.0000 0.90836  0.68459  0.51377  Biso   1.000  C
  C159     1.0000 0.49853  0.90544  0.68068  Biso   1.000  C
  C160     1.0000 0.17604  0.50730  0.59772  Biso   1.000  C
  C161     1.0000 0.41164  0.67964  0.01174  Biso   1.000  C
  C162     1.0000 0.00231  0.92485  0.82074  Biso   1.000  C
  C163     1.0000 0.81373  0.99244  0.89969  Biso   1.000  C
  C164     1.0000 0.59026  0.18288  0.48379  Biso   1.000  C
  C165     1.0000 0.98852  0.42331  0.68910  Biso   1.000  C
  C166     1.0000 0.32012  0.00740  0.59320  Biso   1.000  C
  C167     1.0000 0.07473  0.18053  0.01282  Biso   1.000  C
  C168     1.0000 0.48730  0.40952  0.82075  Biso   1.000  C
  C169     1.0000 0.99684  0.81704  0.08620  Biso   1.000  C
  C170     1.0000 0.08679  0.00389  0.82393  Biso   1.000  C
  C171     1.0000 0.80953  0.08004  0.97459  Biso   1.000  C
  C172     1.0000 0.49942  0.82942  0.41455  Biso   1.000  C
  C173     1.0000 0.58383  0.00163  0.67503  Biso   1.000  C
  C174     1.0000 0.31981  0.09315  0.50938  Biso   1.000  C
  C175     1.0000 0.48370  0.31481  0.08688  Biso   1.000  C
  C176     1.0000 0.40258  0.50086  0.82699  Biso   1.000  C
  C177     1.0000 0.67485  0.58009  0.00233  Biso   1.000  C
  C178     1.0000 0.00475  0.31579  0.42259  Biso   1.000  C
  C179     1.0000 0.90263  0.51372  0.68540  Biso   1.000  C
  C180     1.0000 0.18308  0.59038  0.50345  Biso   1.000  C
  C181     1.0000 0.99286  0.18795  0.91738  Biso   1.000  C
  C182     1.0000 0.89973  0.98795  0.17490  Biso   1.000  C
  C183     1.0000 0.17590  0.91964  0.01338  Biso   1.000  C
  C184     1.0000 0.50992  0.17436  0.59071  Biso   1.000  C
  C185     1.0000 0.40259  0.99934  0.31981  Biso   1.000  C
  C186     1.0000 0.67787  0.90974  0.49087  Biso   1.000  C
  C187     1.0000 0.49540  0.68273  0.92278  Biso   1.000  C
  C188     1.0000 0.58878  0.50636  0.18408  Biso   1.000  C
  C189     1.0000 0.30926  0.42004  0.99031  Biso   1.000  C
  C190     1.0000 0.00211  0.68740  0.58657  Biso   1.000  C
  C191     1.0000 0.09378  0.48631  0.32960  Biso   1.000  C
  C192     1.0000 0.81748  0.41326  0.50647  Biso   1.000  C
  C193     1.0000 0.84215  0.00070  0.88405  Biso   1.000  C
  C194     1.0000 0.89458  0.84271  0.99280  Biso   1.000  C
  C195     1.0000 0.00067  0.91014  0.84884  Biso   1.000  C
  C196     1.0000 0.34830  0.00638  0.60793  Biso   1.000  C
  C197     1.0000 0.39172  0.85084  0.49516  Biso   1.000  C
  C198     1.0000 0.49784  0.89060  0.65225  Biso   1.000  C
  C199     1.0000 0.64294  0.49966  0.89911  Biso   1.000  C
  C200     1.0000 0.58559  0.34282  0.00710  Biso   1.000  C
  C201     1.0000 0.48337  0.39455  0.84824  Biso   1.000  C
  C202     1.0000 0.14837  0.50706  0.61293  Biso   1.000  C
  C203     1.0000 0.10188  0.35236  0.51122  Biso   1.000  C
  C204     1.0000 0.99118  0.40749  0.66214  Biso   1.000  C
  C205     1.0000 0.14275  0.00988  0.10671  Biso   1.000  C
  C206     1.0000 0.09374  0.15569  0.00753  Biso   1.000  C
  C207     1.0000 0.96954  0.09964  0.15993  Biso   1.000  C
  C208     1.0000 0.64507  0.99543  0.38913  Biso   1.000  C
  C209     1.0000 0.60391  0.15499  0.48571  Biso   1.000  C
  C210     1.0000 0.48523  0.10516  0.34907  Biso   1.000  C
  C211     1.0000 0.34334  0.48152  0.11057  Biso   1.000  C
  C212     1.0000 0.39447  0.65293  0.01309  Biso   1.000  C
  C213     1.0000 0.50128  0.59807  0.16139  Biso   1.000  C
  C214     1.0000 0.84990  0.49475  0.39837  Biso   1.000  C
  C215     1.0000 0.89460  0.65744  0.51262  Biso   1.000  C
  C216     1.0000 0.00619  0.60100  0.34900  Biso   1.000  C
  C217     1.0000 0.10201  0.99929  0.84951  Biso   1.000  C
  C218     1.0000 0.83690  0.09743  0.97359  Biso   1.000  C
  C219     1.0000 0.99460  0.84472  0.10201  Biso   1.000  C
  C220     1.0000 0.59893  0.00092  0.64754  Biso   1.000  C
  C221     1.0000 0.34736  0.10758  0.50880  Biso   1.000  C
  C222     1.0000 0.49616  0.85467  0.39771  Biso   1.000  C
  C223     1.0000 0.38810  0.50373  0.85620  Biso   1.000  C
  C224     1.0000 0.64874  0.59820  0.00453  Biso   1.000  C
  C225     1.0000 0.48767  0.34108  0.10187  Biso   1.000  C
  C226     1.0000 0.88702  0.51077  0.65921  Biso   1.000  C
  C227     1.0000 0.15535  0.60638  0.50424  Biso   1.000  C
  C228     1.0000 0.00865  0.34233  0.40591  Biso   1.000  C
  C229     1.0000 0.88742  0.98807  0.14627  Biso   1.000  C
  C230     1.0000 0.15001  0.90227  0.00809  Biso   1.000  C
  C231     1.0000 0.99639  0.16146  0.90103  Biso   1.000  C
  C232     1.0000 0.38911  0.00266  0.34865  Biso   1.000  C
  C233     1.0000 0.65074  0.89402  0.48841  Biso   1.000  C
  C234     1.0000 0.51046  0.14484  0.60433  Biso   1.000  C
  C235     1.0000 0.60684  0.50731  0.15769  Biso   1.000  C
  C236     1.0000 0.33508  0.40298  0.99068  Biso   1.000  C
  C237     1.0000 0.49375  0.65329  0.90600  Biso   1.000  C
  C238     1.0000 0.10804  0.49101  0.35703  Biso   1.000  C
  C239     1.0000 0.84436  0.39807  0.51021  Biso   1.000  C
  C240     1.0000 0.00342  0.66023  0.60078  Biso   1.000  C
  C241     1.0000 0.59328  0.49665  0.84755  Biso   1.000  C
  C242     1.0000 0.84489  0.60257  0.50542  Biso   1.000  C
  C243     1.0000 0.49134  0.83680  0.60260  Biso   1.000  C
  C244     1.0000 0.09469  0.51419  0.66132  Biso   1.000  C
  C245     1.0000 0.33957  0.60356  0.02341  Biso   1.000  C
  C246     1.0000 0.00051  0.85631  0.89905  Biso   1.000  C
  C247     1.0000 0.89610  0.01167  0.83881  Biso   1.000  C
  C248     1.0000 0.65300  0.10211  0.48982  Biso   1.000  C
  C249     1.0000 0.99452  0.35241  0.61154  Biso   1.000  C
  C250     1.0000 0.39965  0.99812  0.65873  Biso   1.000  C
  C251     1.0000 0.14998  0.10686  0.00417  Biso   1.000  C
  C252     1.0000 0.48684  0.34177  0.90102  Biso   1.000  C
  C253     1.0000 0.40007  0.48213  0.15672  Biso   1.000  C
  C254     1.0000 0.15565  0.40303  0.51663  Biso   1.000  C
  C255     1.0000 0.48937  0.15825  0.40321  Biso   1.000  C
  C256     1.0000 0.90292  0.49880  0.35111  Biso   1.000  C
  C257     1.0000 0.63926  0.39230  0.00268  Biso   1.000  C
  C258     1.0000 0.97473  0.14874  0.10615  Biso   1.000  C
  C259     1.0000 0.08636  0.01368  0.15704  Biso   1.000  C
  C260     1.0000 0.34093  0.90308  0.49377  Biso   1.000  C
  C261     1.0000 0.99472  0.65215  0.40257  Biso   1.000  C
  C262     1.0000 0.59175  0.00039  0.33987  Biso   1.000  C
  C263     1.0000 0.84223  0.89429  0.99126  Biso   1.000  C
  C264     1.0000 0.50152  0.65087  0.10757  Biso   1.000  C
  C265     1.0000 0.00033  0.11046  0.84576  Biso   1.000  C
  C266     1.0000 0.83676  0.99359  0.09041  Biso   1.000  C
  C267     1.0000 0.10175  0.85319  0.00235  Biso   1.000  C
  C268     1.0000 0.50296  0.09215  0.65604  Biso   1.000  C
  C269     1.0000 0.33830  0.00924  0.40159  Biso   1.000  C
  C270     1.0000 0.59635  0.84368  0.49409  Biso   1.000  C
  C271     1.0000 0.49412  0.59930  0.85377  Biso   1.000  C
  C272     1.0000 0.65449  0.49802  0.10484  Biso   1.000  C
  C273     1.0000 0.38665  0.34849  0.99751  Biso   1.000  C
  C274     1.0000 0.99870  0.60976  0.65361  Biso   1.000  C
  C275     1.0000 0.15851  0.49938  0.40891  Biso   1.000  C
  C276     1.0000 0.89794  0.34454  0.50950  Biso   1.000  C
  C277     1.0000 0.99447  0.89632  0.15634  Biso   1.000  C
  C278     1.0000 0.15429  0.99116  0.90285  Biso   1.000  C
  C279     1.0000 0.88494  0.15037  0.98669  Biso   1.000  C
  C280     1.0000 0.49116  0.90244  0.34173  Biso   1.000  C
  C281     1.0000 0.65025  0.00024  0.59295  Biso   1.000  C
  C282     1.0000 0.40254  0.15695  0.50953  Biso   1.000  C
  C283     1.0000 0.50281  0.39345  0.15268  Biso   1.000  C
  C284     1.0000 0.34004  0.51355  0.91091  Biso   1.000  C
  C285     1.0000 0.59987  0.65351  0.00909  Biso   1.000  C
  C286     1.0000 0.01151  0.39524  0.35698  Biso   1.000  C
  C287     1.0000 0.83840  0.50493  0.60424  Biso   1.000  C
  C288     1.0000 0.10133  0.65773  0.50019  Biso   1.000  C
  C289     1.0000 0.33841  0.87088  0.49337  Biso   1.000  C
  C290     1.0000 0.48959  0.34163  0.86985  Biso   1.000  C
  C291     1.0000 0.87167  0.49729  0.34762  Biso   1.000  C
  C292     1.0000 0.84175  0.86200  0.99304  Biso   1.000  C
  C293     1.0000 0.99222  0.35236  0.64264  Biso   1.000  C
  C294     1.0000 0.36963  0.48103  0.16060  Biso   1.000  C
  C295     1.0000 0.15413  0.37110  0.51752  Biso   1.000  C
  C296     1.0000 0.00252  0.85547  0.86808  Biso   1.000  C
  C297     1.0000 0.62255  0.00033  0.33780  Biso   1.000  C
  C298     1.0000 0.63930  0.36096  0.00175  Biso   1.000  C
  C299     1.0000 0.49382  0.83748  0.63347  Biso   1.000  C
  C300     1.0000 0.11816  0.01027  0.15718  Biso   1.000  C
  C301     1.0000 0.65696  0.13272  0.48611  Biso   1.000  C
  C302     1.0000 0.50486  0.64990  0.13829  Biso   1.000  C
  C303     1.0000 0.12515  0.51702  0.66410  Biso   1.000  C
  C304     1.0000 0.14867  0.13759  0.00840  Biso   1.000  C
  C305     1.0000 0.99672  0.65304  0.37030  Biso   1.000  C
  C306     1.0000 0.62400  0.49504  0.84680  Biso   1.000  C
  C307     1.0000 0.84300  0.63382  0.50570  Biso   1.000  C
  C308     1.0000 0.97177  0.15172  0.13871  Biso   1.000  C
  C309     1.0000 0.36728  0.00161  0.65942  Biso   1.000  C
  C310     1.0000 0.34196  0.63383  0.01997  Biso   1.000  C
  C311     1.0000 0.48897  0.15730  0.37181  Biso   1.000  C
  C312     1.0000 0.86519  0.01347  0.83459  Biso   1.000  C
  C313     1.0000 0.16001  0.49787  0.37902  Biso   1.000  C
  C314     1.0000 0.37116  0.16007  0.51041  Biso   1.000  C
  C315     1.0000 0.49735  0.36208  0.15265  Biso   1.000  C
  C316     1.0000 0.65652  0.49822  0.13648  Biso   1.000  C
  C317     1.0000 0.85367  0.15073  0.98353  Biso   1.000  C
  C318     1.0000 0.00627  0.36432  0.35525  Biso   1.000  C
  C319     1.0000 0.33579  0.00531  0.37045  Biso   1.000  C
  C320     1.0000 0.13233  0.65798  0.50302  Biso   1.000  C
  C321     1.0000 0.99493  0.86430  0.15621  Biso   1.000  C
  C322     1.0000 0.83418  0.99259  0.12182  Biso   1.000  C
  C323     1.0000 0.63073  0.65222  0.00453  Biso   1.000  C
  C324     1.0000 0.49693  0.87151  0.34336  Biso   1.000  C
  C325     1.0000 0.83547  0.50396  0.63600  Biso   1.000  C
  C326     1.0000 0.62723  0.84154  0.49407  Biso   1.000  C
  C327     1.0000 0.49367  0.63148  0.85277  Biso   1.000  C
  C328     1.0000 0.33661  0.51293  0.87970  Biso   1.000  C
  C329     1.0000 0.13281  0.85067  0.00506  Biso   1.000  C
  C330     1.0000 0.00373  0.64114  0.65468  Biso   1.000  C
  C331     1.0000 0.65111  0.00043  0.62497  Biso   1.000  C
  C332     1.0000 0.86588  0.34541  0.50782  Biso   1.000  C
  C333     1.0000 0.99569  0.14143  0.84722  Biso   1.000  C
  C334     1.0000 0.15509  0.99686  0.87279  Biso   1.000  C
  C335     1.0000 0.35419  0.34891  0.99481  Biso   1.000  C
  C336     1.0000 0.50503  0.12327  0.65634  Biso   1.000  C
  C337     1.0000 0.64612  0.49491  0.86808  Biso   1.000  C
  C338     1.0000 0.86392  0.65642  0.51096  Biso   1.000  C
  C339     1.0000 0.49570  0.86011  0.65437  Biso   1.000  C
  C340     1.0000 0.14754  0.51302  0.64367  Biso   1.000  C
  C341     1.0000 0.36310  0.65566  0.01589  Biso   1.000  C
  C342     1.0000 0.00220  0.87783  0.84719  Biso   1.000  C
  C343     1.0000 0.84270  0.00849  0.85406  Biso   1.000  C
  C344     1.0000 0.63521  0.15478  0.48424  Biso   1.000  C
  C345     1.0000 0.99002  0.37556  0.66250  Biso   1.000  C
  C346     1.0000 0.34538  0.00314  0.63939  Biso   1.000  C
  C347     1.0000 0.12536  0.15776  0.00854  Biso   1.000  C
  C348     1.0000 0.48756  0.36253  0.84823  Biso   1.000  C
  C349     1.0000 0.34504  0.48141  0.14113  Biso   1.000  C
  C350     1.0000 0.13315  0.34966  0.51394  Biso   1.000  C
  C351     1.0000 0.48638  0.13615  0.34963  Biso   1.000  C
  C352     1.0000 0.85053  0.49691  0.36805  Biso   1.000  C
  C353     1.0000 0.61676  0.34073  0.00331  Biso   1.000  C
  C354     1.0000 0.97148  0.13089  0.16029  Biso   1.000  C
  C355     1.0000 0.14097  0.00916  0.13803  Biso   1.000  C
  C356     1.0000 0.35988  0.84986  0.49524  Biso   1.000  C
  C357     1.0000 0.00096  0.63223  0.34724  Biso   1.000  C
  C358     1.0000 0.64460  0.99856  0.35853  Biso   1.000  C
  C359     1.0000 0.86407  0.84085  0.99475  Biso   1.000  C
  C360     1.0000 0.50342  0.62977  0.15971  Biso   1.000  C
  C361     1.0000 0.99437  0.16234  0.87022  Biso   1.000  C
  C362     1.0000 0.85499  0.99188  0.14417  Biso   1.000  C
  C363     1.0000 0.15308  0.87228  0.00864  Biso   1.000  C
  C364     1.0000 0.51017  0.14500  0.63532  Biso   1.000  C
  C365     1.0000 0.35801  0.00377  0.34961  Biso   1.000  C
  C366     1.0000 0.64885  0.86333  0.49305  Biso   1.000  C
  C367     1.0000 0.49387  0.65339  0.87502  Biso   1.000  C
  C368     1.0000 0.63653  0.49966  0.15959  Biso   1.000  C
  C369     1.0000 0.33446  0.37205  0.99234  Biso   1.000  C
  C370     1.0000 0.00285  0.66232  0.63233  Biso   1.000  C
  C371     1.0000 0.14005  0.49406  0.35674  Biso   1.000  C
  C372     1.0000 0.84418  0.36703  0.50906  Biso   1.000  C
  C373     1.0000 0.99575  0.84252  0.13404  Biso   1.000  C
  C374     1.0000 0.13347  0.00038  0.85044  Biso   1.000  C
  C375     1.0000 0.83432  0.12878  0.97842  Biso   1.000  C
  C376     1.0000 0.49827  0.85229  0.36669  Biso   1.000  C
  C377     1.0000 0.63059  0.00113  0.64705  Biso   1.000  C
  C378     1.0000 0.34916  0.13893  0.50900  Biso   1.000  C
  C379     1.0000 0.49214  0.34021  0.13245  Biso   1.000  C
  C380     1.0000 0.35596  0.50802  0.85704  Biso   1.000  C
  C381     1.0000 0.65062  0.62944  0.00390  Biso   1.000  C
  C382     1.0000 0.00436  0.34214  0.37547  Biso   1.000  C
  C383     1.0000 0.85560  0.50554  0.65842  Biso   1.000  C
  C384     1.0000 0.15532  0.63724  0.50397  Biso   1.000  C
  C385     1.0000 0.17431  0.15451  0.01098  Biso   1.000  C
  C386     1.0000 0.97054  0.18014  0.15319  Biso   1.000  C
  C387     1.0000 0.13188  0.00768  0.18533  Biso   1.000  C
  C388     1.0000 0.68445  0.14649  0.48544  Biso   1.000  C
  C389     1.0000 0.49350  0.18446  0.35659  Biso   1.000  C
  C390     1.0000 0.63657  0.00483  0.31106  Biso   1.000  C
  C391     1.0000 0.31527  0.65153  0.02239  Biso   1.000  C
  C392     1.0000 0.50660  0.67783  0.15430  Biso   1.000  C
  C393     1.0000 0.35674  0.48302  0.18963  Biso   1.000  C
  C394     1.0000 0.81556  0.64943  0.50193  Biso   1.000  C
  C395     1.0000 0.99230  0.67932  0.35441  Biso   1.000  C
  C396     1.0000 0.85785  0.49778  0.32021  Biso   1.000  C
  C397     1.0000 0.81397  0.84713  0.99338  Biso   1.000  C
  C398     1.0000 0.00500  0.82932  0.85161  Biso   1.000  C
  C399     1.0000 0.84996  0.02124  0.80781  Biso   1.000  C
  C400     1.0000 0.31109  0.85639  0.49301  Biso   1.000  C
  C401     1.0000 0.49504  0.81096  0.64853  Biso   1.000  C
  C402     1.0000 0.35234  0.00166  0.68809  Biso   1.000  C
  C403     1.0000 0.66513  0.34372  0.99935  Biso   1.000  C
  C404     1.0000 0.49685  0.31541  0.85391  Biso   1.000  C
  C405     1.0000 0.64064  0.49303  0.82008  Biso   1.000  C
  C406     1.0000 0.18142  0.35576  0.51796  Biso   1.000  C
  C407     1.0000 0.98684  0.32632  0.65869  Biso   1.000  C
  C408     1.0000 0.13977  0.52347  0.69115  Biso   1.000  C
  C409     1.0000 0.15045  0.00463  0.82459  Biso   1.000  C
  C410     1.0000 0.80622  0.14270  0.98156  Biso   1.000  C
  C411     1.0000 0.99481  0.81567  0.15036  Biso   1.000  C
  C412     1.0000 0.64601  0.00280  0.67320  Biso   1.000  C
  C413     1.0000 0.32246  0.15623  0.50994  Biso   1.000  C
  C414     1.0000 0.50384  0.82435  0.35252  Biso   1.000  C
  C415     1.0000 0.33919  0.51087  0.83157  Biso   1.000  C
  C416     1.0000 0.67883  0.64300  0.00127  Biso   1.000  C
  C417     1.0000 0.49125  0.31351  0.14879  Biso   1.000  C
  C418     1.0000 0.83992  0.50172  0.68407  Biso   1.000  C
  C419     1.0000 0.18227  0.65486  0.50520  Biso   1.000  C
  C420     1.0000 0.99699  0.31487  0.36044  Biso   1.000  C
  C421     1.0000 0.83638  0.99394  0.17066  Biso   1.000  C
  C422     1.0000 0.17968  0.85711  0.01173  Biso   1.000  C
  C423     1.0000 0.99319  0.18985  0.85523  Biso   1.000  C
  C424     1.0000 0.34039  0.00029  0.32398  Biso   1.000  C
  C425     1.0000 0.67400  0.84686  0.49819  Biso   1.000  C
  C426     1.0000 0.51095  0.17181  0.65131  Biso   1.000  C
  C427     1.0000 0.65259  0.49653  0.18614  Biso   1.000  C
  C428     1.0000 0.30569  0.35821  0.99419  Biso   1.000  C
  C429     1.0000 0.49413  0.68041  0.85848  Biso   1.000  C
  C430     1.0000 0.15648  0.49242  0.33121  Biso   1.000  C
  C431     1.0000 0.81737  0.35207  0.50626  Biso   1.000  C
  C432     1.0000 0.00413  0.68938  0.64812  Biso   1.000  C
  C433     1.0000 0.99588  0.15862  0.82188  Biso   1.000  C
  C434     1.0000 0.80572  0.99358  0.13669  Biso   1.000  C
  C435     1.0000 0.14838  0.82342  0.00545  Biso   1.000  C
  C436     1.0000 0.50472  0.13955  0.68319  Biso   1.000  C
  C437     1.0000 0.30911  0.00305  0.35574  Biso   1.000  C
  C438     1.0000 0.64195  0.81509  0.49931  Biso   1.000  C
  C439     1.0000 0.49474  0.64723  0.82558  Biso   1.000  C
  C440     1.0000 0.68284  0.49204  0.15150  Biso   1.000  C
  C441     1.0000 0.33803  0.32308  0.99616  Biso   1.000  C
  C442     1.0000 0.00358  0.65721  0.68164  Biso   1.000  C
  C443     1.0000 0.18750  0.49952  0.36265  Biso   1.000  C
  C444     1.0000 0.84996  0.31833  0.50572  Biso   1.000  C
  C445     1.0000 0.99240  0.84871  0.18327  Biso   1.000  C
  C446     1.0000 0.18276  0.99966  0.85872  Biso   1.000  C
  C447     1.0000 0.83587  0.17631  0.98548  Biso   1.000  C
  C448     1.0000 0.50209  0.85429  0.31778  Biso   1.000  C
  C449     1.0000 0.67897  0.00572  0.63954  Biso   1.000  C
  C450     1.0000 0.35573  0.18659  0.50886  Biso   1.000  C
  C451     1.0000 0.49591  0.34820  0.17944  Biso   1.000  C
  C452     1.0000 0.30913  0.51906  0.86534  Biso   1.000  C
  C453     1.0000 0.64843  0.67737  0.00345  Biso   1.000  C
  C454     1.0000 0.99818  0.34881  0.32909  Biso   1.000  C
  C455     1.0000 0.80758  0.49715  0.64944  Biso   1.000  C
  C456     1.0000 0.14728  0.68599  0.50570  Biso   1.000  C
  C457     1.0000 0.99936  0.64739  0.32163  Biso   1.000  C
  C458     1.0000 0.31857  0.00204  0.65515  Biso   1.000  C
  C459     1.0000 0.63106  0.31229  0.00075  Biso   1.000  C
  C460     1.0000 0.50346  0.64588  0.18586  Biso   1.000  C
  C461     1.0000 0.81499  0.01018  0.83865  Biso   1.000  C
  C462     1.0000 0.14871  0.32260  0.51523  Biso   1.000  C
  C463     1.0000 0.49023  0.15257  0.32361  Biso   1.000  C
  C464     1.0000 0.17378  0.51775  0.66045  Biso   1.000  C
  C465     1.0000 0.84868  0.81376  0.99351  Biso   1.000  C
  C466     1.0000 0.97210  0.14815  0.18746  Biso   1.000  C
  C467     1.0000 0.67276  0.48942  0.85303  Biso   1.000  C
  C468     1.0000 0.34452  0.82287  0.49619  Biso   1.000  C
  C469     1.0000 0.98662  0.36133  0.69056  Biso   1.000  C
  C470     1.0000 0.67103  0.00224  0.34254  Biso   1.000  C
  C471     1.0000 0.34835  0.68306  0.01607  Biso   1.000  C
  C472     1.0000 0.49471  0.34671  0.82161  Biso   1.000  C
  C473     1.0000 0.16683  0.00802  0.15519  Biso   1.000  C
  C474     1.0000 0.84548  0.68206  0.51178  Biso   1.000  C
  C475     1.0000 0.49739  0.84485  0.68188  Biso   1.000  C
  C476     1.0000 0.82363  0.49440  0.35156  Biso   1.000  C
  C477     1.0000 0.13889  0.18533  0.01211  Biso   1.000  C
  C478     1.0000 0.00678  0.86273  0.81985  Biso   1.000  C
  C479     1.0000 0.31932  0.48435  0.16009  Biso   1.000  C
  C480     1.0000 0.65163  0.18006  0.48050  Biso   1.000  C
  C481     1.0000 0.36013  0.79623  0.49991  Biso   1.000  C
  C482     1.0000 0.49748  0.36355  0.79356  Biso   1.000  C
  C483     1.0000 0.79708  0.49228  0.36666  Biso   1.000  C
  C484     1.0000 0.86475  0.78739  0.99018  Biso   1.000  C
  C485     1.0000 0.98396  0.37829  0.71765  Biso   1.000  C
  C486     1.0000 0.28990  0.48613  0.14707  Biso   1.000  C
  C487     1.0000 0.13324  0.29569  0.51413  Biso   1.000  C
  C488     1.0000 0.00818  0.87840  0.79264  Biso   1.000  C
  C489     1.0000 0.69837  0.00458  0.35776  Biso   1.000  C
  C490     1.0000 0.61481  0.28580  0.99756  Biso   1.000  C
  C491     1.0000 0.50167  0.86029  0.70976  Biso   1.000  C
  C492     1.0000 0.19516  0.00581  0.14034  Biso   1.000  C
  C493     1.0000 0.63815  0.20930  0.47832  Biso   1.000  C
  C494     1.0000 0.50285  0.63277  0.21356  Biso   1.000  C
  C495     1.0000 0.20139  0.51786  0.64482  Biso   1.000  C
  C496     1.0000 0.12121  0.21131  0.01797  Biso   1.000  C
  C497     1.0000 0.00781  0.63103  0.29448  Biso   1.000  C
  C498     1.0000 0.69753  0.48429  0.87230  Biso   1.000  C
  C499     1.0000 0.85952  0.70838  0.51815  Biso   1.000  C
  C500     1.0000 0.97025  0.13290  0.21433  Biso   1.000  C
  C501     1.0000 0.29067  0.00236  0.63982  Biso   1.000  C
  C502     1.0000 0.36491  0.71001  0.01859  Biso   1.000  C
  C503     1.0000 0.48862  0.13758  0.29571  Biso   1.000  C
  C504     1.0000 0.78836  0.00143  0.85187  Biso   1.000  C
  C505     1.0000 0.62398  0.49559  0.79361  Biso   1.000  C
  C506     1.0000 0.78983  0.63236  0.49648  Biso   1.000  C
  C507     1.0000 0.49122  0.78313  0.63282  Biso   1.000  C
  C508     1.0000 0.12252  0.52928  0.71699  Biso   1.000  C
  C509     1.0000 0.28623  0.63882  0.02539  Biso   1.000  C
  C510     1.0000 0.00610  0.80105  0.86550  Biso   1.000  C
  C511     1.0000 0.86780  0.03210  0.78355  Biso   1.000  C
  C512     1.0000 0.71191  0.12861  0.48591  Biso   1.000  C
  C513     1.0000 0.99090  0.29837  0.64461  Biso   1.000  C
  C514     1.0000 0.36926  0.00379  0.71433  Biso   1.000  C
  C515     1.0000 0.20283  0.14035  0.00790  Biso   1.000  C
  C516     1.0000 0.50107  0.28881  0.87016  Biso   1.000  C
  C517     1.0000 0.37378  0.47724  0.21532  Biso   1.000  C
  C518     1.0000 0.20959  0.37087  0.51605  Biso   1.000  C
  C519     1.0000 0.50027  0.21041  0.37110  Biso   1.000  C
  C520     1.0000 0.87584  0.49932  0.29330  Biso   1.000  C
  C521     1.0000 0.69229  0.35774  0.99465  Biso   1.000  C
  C522     1.0000 0.97004  0.20734  0.13556  Biso   1.000  C
  C523     1.0000 0.11674  0.01021  0.21408  Biso   1.000  C
  C524     1.0000 0.28542  0.87407  0.48912  Biso   1.000  C
  C525     1.0000 0.98628  0.70640  0.36973  Biso   1.000  C
  C526     1.0000 0.62070  0.00372  0.28410  Biso   1.000  C
  C527     1.0000 0.78722  0.86335  0.99242  Biso   1.000  C
  C528     1.0000 0.50549  0.70649  0.14028  Biso   1.000  C
  C529     1.0000 0.77903  0.12724  0.97863  Biso   1.000  C
  C530     1.0000 0.99756  0.78803  0.13456  Biso   1.000  C
  C531     1.0000 0.13460  0.01247  0.79878  Biso   1.000  C
  C532     1.0000 0.29438  0.14240  0.50987  Biso   1.000  C
  C533     1.0000 0.50832  0.79923  0.36965  Biso   1.000  C
  C534     1.0000 0.63234  0.99984  0.70144  Biso   1.000  C
  C535     1.0000 0.70471  0.62504  0.99981  Biso   1.000  C
  C536     1.0000 0.48442  0.28687  0.13309  Biso   1.000  C
  C537     1.0000 0.35372  0.50560  0.80391  Biso   1.000  C
  C538     1.0000 0.21002  0.63865  0.50502  Biso   1.000  C
  C539     1.0000 0.99387  0.28871  0.37693  Biso   1.000  C
  C540     1.0000 0.85452  0.50449  0.71264  Biso   1.000  C
  C541     1.0000 0.20544  0.87383  0.02038  Biso   1.000  C
  C542     1.0000 0.99201  0.21851  0.87213  Biso   1.000  C
  C543     1.0000 0.85112  0.99250  0.19937  Biso   1.000  C
  C544     1.0000 0.70152  0.86262  0.49904  Biso   1.000  C
  C545     1.0000 0.51016  0.19953  0.63786  Biso   1.000  C
  C546     1.0000 0.35356  0.99805  0.29589  Biso   1.000  C
  C547     1.0000 0.27785  0.37493  0.99220  Biso   1.000  C
  C548     1.0000 0.49525  0.70695  0.87383  Biso   1.000  C
  C549     1.0000 0.63593  0.50076  0.21285  Biso   1.000  C
  C550     1.0000 0.79053  0.36730  0.50237  Biso   1.000  C
  C551     1.0000 0.00564  0.71707  0.63249  Biso   1.000  C
  C552     1.0000 0.14234  0.48572  0.30435  Biso   1.000  C
  C553     1.0000 0.99804  0.14458  0.79322  Biso   1.000  C
  C554     1.0000 0.77760  0.99708  0.12088  Biso   1.000  C
  C555     1.0000 0.13186  0.79740  0.00182  Biso   1.000  C
  C556     1.0000 0.50178  0.12714  0.71041  Biso   1.000  C
  C557     1.0000 0.28073  0.00682  0.37383  Biso   1.000  C
  C558     1.0000 0.62657  0.78934  0.50479  Biso   1.000  C
  C559     1.0000 0.49169  0.62967  0.79954  Biso   1.000  C
  C560     1.0000 0.70798  0.48315  0.13429  Biso   1.000  C
  C561     1.0000 0.35332  0.29435  0.99771  Biso   1.000  C
  C562     1.0000 0.00211  0.64223  0.70886  Biso   1.000  C
  C563     1.0000 0.21443  0.50477  0.37797  Biso   1.000  C
  C564     1.0000 0.86601  0.29117  0.50727  Biso   1.000  C
  C565     1.0000 0.98456  0.86399  0.21066  Biso   1.000  C
  C566     1.0000 0.21117  0.99456  0.87375  Biso   1.000  C
  C567     1.0000 0.85046  0.20405  0.99057  Biso   1.000  C
  C568     1.0000 0.50227  0.86854  0.28907  Biso   1.000  C
  C569     1.0000 0.70720  0.01196  0.62344  Biso   1.000  C
  C570     1.0000 0.37154  0.21398  0.50499  Biso   1.000  C
  C571     1.0000 0.50114  0.36332  0.20732  Biso   1.000  C
  C572     1.0000 0.28505  0.52776  0.88268  Biso   1.000  C
  C573     1.0000 0.63539  0.70555  0.01152  Biso   1.000  C
  C574     1.0000 0.99442  0.36592  0.29996  Biso   1.000  C
  C575     1.0000 0.78311  0.49170  0.63040  Biso   1.000  C
  C576     1.0000 0.12993  0.71227  0.50843  Biso   1.000  C
  C577     1.0000 0.28897  0.48838  0.11552  Biso   1.000  C
  C578     1.0000 0.10179  0.29834  0.50914  Biso   1.000  C
  C579     1.0000 0.48500  0.10645  0.29454  Biso   1.000  C
  C580     1.0000 0.79579  0.49047  0.39789  Biso   1.000  C
  C581     1.0000 0.58366  0.28719  0.00058  Biso   1.000  C
  C582     1.0000 0.96781  0.10114  0.21526  Biso   1.000  C
  C583     1.0000 0.19585  0.00727  0.10866  Biso   1.000  C
  C584     1.0000 0.39150  0.79591  0.50117  Biso   1.000  C
  C585     1.0000 0.01452  0.59974  0.29494  Biso   1.000  C
  C586     1.0000 0.69751  0.00268  0.38953  Biso   1.000  C
  C587     1.0000 0.89645  0.78636  0.99001  Biso   1.000  C
  C588     1.0000 0.50194  0.60064  0.21554  Biso   1.000  C
  C589     1.0000 0.69575  0.48826  0.90315  Biso   1.000  C
  C590     1.0000 0.89100  0.71043  0.52047  Biso   1.000  C
  C591     1.0000 0.50115  0.89065  0.70790  Biso   1.000  C
  C592     1.0000 0.20278  0.51042  0.61442  Biso   1.000  C
  C593     1.0000 0.39609  0.70696  0.01568  Biso   1.000  C
  C594     1.0000 0.00583  0.90926  0.79261  Biso   1.000  C
  C595     1.0000 0.78713  0.99378  0.88297  Biso   1.000  C
  C596     1.0000 0.60607  0.20973  0.47801  Biso   1.000  C
  C597     1.0000 0.98484  0.40946  0.71703  Biso   1.000  C
  C598     1.0000 0.29204  0.00534  0.60816  Biso   1.000  C
  C599     1.0000 0.08995  0.20805  0.01887  Biso   1.000  C
  C600     1.0000 0.49488  0.39398  0.79456  Biso   1.000  C
  C601     1.0000 0.21143  0.99165  0.90446  Biso   1.000  C
  C602     1.0000 0.88154  0.20448  0.99511  Biso   1.000  C
  C603     1.0000 0.98448  0.89584  0.21028  Biso   1.000  C
  C604     1.0000 0.70527  0.01129  0.59221  Biso   1.000  C
  C605     1.0000 0.40401  0.21220  0.50589  Biso   1.000  C
  C606     1.0000 0.49579  0.89948  0.28743  Biso   1.000  C
  C607     1.0000 0.28777  0.52995  0.91405  Biso   1.000  C
  C608     1.0000 0.60418  0.70670  0.01781  Biso   1.000  C
  C609     1.0000 0.50438  0.39401  0.20744  Biso   1.000  C
  C610     1.0000 0.78615  0.49140  0.59851  Biso   1.000  C
  C611     1.0000 0.09815  0.71089  0.50494  Biso   1.000  C
  C612     1.0000 0.99867  0.39644  0.30240  Biso   1.000  C
  C613     1.0000 0.78085  0.99697  0.08928  Biso   1.000  C
  C614     1.0000 0.10032  0.79887  0.00156  Biso   1.000  C
  C615     1.0000 0.00454  0.11251  0.79184  Biso   1.000  C
  C616     1.0000 0.28214  0.01059  0.40439  Biso   1.000  C
  C617     1.0000 0.59479  0.78937  0.50184  Biso   1.000  C
  C618     1.0000 0.49800  0.09512  0.71149  Biso   1.000  C
  C619     1.0000 0.70626  0.48478  0.10264  Biso   1.000  C
  C620     1.0000 0.38424  0.29331  0.99700  Biso   1.000  C
  C621     1.0000 0.49166  0.59867  0.79984  Biso   1.000  C
  C622     1.0000 0.21355  0.50493  0.40879  Biso   1.000  C
  C623     1.0000 0.89747  0.28950  0.50756  Biso   1.000  C
  C624     1.0000 0.00015  0.61076  0.71007  Biso   1.000  C
  C625     1.0000 0.99169  0.21618  0.90253  Biso   1.000  C
  C626     1.0000 0.88159  0.98900  0.20102  Biso   1.000  C
  C627     1.0000 0.20181  0.90467  0.02261  Biso   1.000  C
  C628     1.0000 0.51091  0.20175  0.60795  Biso   1.000  C
  C629     1.0000 0.38458  0.99777  0.29395  Biso   1.000  C
  C630     1.0000 0.70368  0.89351  0.49723  Biso   1.000  C
  C631     1.0000 0.49558  0.70856  0.90479  Biso   1.000  C
  C632     1.0000 0.60465  0.50545  0.21110  Biso   1.000  C
  C633     1.0000 0.28099  0.40532  0.98830  Biso   1.000  C
  C634     1.0000 0.00460  0.71569  0.60113  Biso   1.000  C
  C635     1.0000 0.11033  0.47942  0.30366  Biso   1.000  C
  C636     1.0000 0.79071  0.39842  0.50240  Biso   1.000  C
  C637     1.0000 0.99843  0.78944  0.10264  Biso   1.000  C
  C638     1.0000 0.10255  0.01129  0.79792  Biso   1.000  C
  C639     1.0000 0.78216  0.09556  0.97367  Biso   1.000  C
  C640     1.0000 0.50567  0.80213  0.40016  Biso   1.000  C
  C641     1.0000 0.60041  0.99928  0.70332  Biso   1.000  C
  C642     1.0000 0.29387  0.11104  0.51050  Biso   1.000  C
  C643     1.0000 0.48243  0.28686  0.10212  Biso   1.000  C
  C644     1.0000 0.38434  0.50099  0.80238  Biso   1.000  C
  C645     1.0000 0.70361  0.59268  0.99862  Biso   1.000  C
  C646     1.0000 0.99841  0.28846  0.40729  Biso   1.000  C
  C647     1.0000 0.88549  0.51137  0.71334  Biso   1.000  C
  C648     1.0000 0.20963  0.60686  0.50353  Biso   1.000  C
  C649     1.0000 0.98491  0.70649  0.40121  Biso   1.000  C
  C650     1.0000 0.40016  0.00082  0.71380  Biso   1.000  C
  C651     1.0000 0.69432  0.38886  0.99665  Biso   1.000  C
  C652     1.0000 0.50336  0.70591  0.10929  Biso   1.000  C
  C653     1.0000 0.89931  0.02867  0.78581  Biso   1.000  C
  C654     1.0000 0.20995  0.40220  0.51791  Biso   1.000  C
  C655     1.0000 0.50066  0.21110  0.40310  Biso   1.000  C
  C656     1.0000 0.09047  0.52540  0.71556  Biso   1.000  C
  C657     1.0000 0.78709  0.89508  0.99081  Biso   1.000  C
  C658     1.0000 0.97035  0.20419  0.10474  Biso   1.000  C
  C659     1.0000 0.59233  0.49416  0.79379  Biso   1.000  C
  C660     1.0000 0.28632  0.90510  0.49364  Biso   1.000  C
  C661     1.0000 0.99343  0.29814  0.61272  Biso   1.000  C
  C662     1.0000 0.58970  0.00434  0.28386  Biso   1.000  C
  C663     1.0000 0.28474  0.60723  0.02647  Biso   1.000  C
  C664     1.0000 0.49537  0.28745  0.90095  Biso   1.000  C
  C665     1.0000 0.08510  0.01264  0.21366  Biso   1.000  C
  C666     1.0000 0.79068  0.60038  0.49488  Biso   1.000  C
  C667     1.0000 0.48984  0.78279  0.60215  Biso   1.000  C
  C668     1.0000 0.90631  0.49619  0.29501  Biso   1.000  C
  C669     1.0000 0.20418  0.10813  0.00347  Biso   1.000  C
  C670     1.0000 0.00312  0.79940  0.89739  Biso   1.000  C
  C671     1.0000 0.40490  0.47998  0.21291  Biso   1.000  C
  C672     1.0000 0.70778  0.09783  0.48670  Biso   1.000  C
  C673     1.0000 0.19677  0.00786  0.81019  Biso   1.000  C
  C674     1.0000 0.78944  0.18916  0.98831  Biso   1.000  C
  C675     1.0000 0.99318  0.80365  0.19792  Biso   1.000  C
  C676     1.0000 0.69283  0.01027  0.68610  Biso   1.000  C
  C677     1.0000 0.30912  0.20280  0.50894  Biso   1.000  C
  C678     1.0000 0.50587  0.80750  0.30583  Biso   1.000  C
  C679     1.0000 0.29041  0.52045  0.81955  Biso   1.000  C
  C680     1.0000 0.69536  0.68910  0.99819  Biso   1.000  C
  C681     1.0000 0.48956  0.30458  0.19750  Biso   1.000  C
  C682     1.0000 0.79363  0.48904  0.69455  Biso   1.000  C
  C683     1.0000 0.19381  0.70158  0.50598  Biso   1.000  C
  C684     1.0000 0.98884  0.30248  0.31371  Biso   1.000  C
  C685     1.0000 0.78997  0.99910  0.18309  Biso   1.000  C
  C686     1.0000 0.19564  0.81045  0.01416  Biso   1.000  C
  C687     1.0000 0.99061  0.20546  0.80896  Biso   1.000  C
  C688     1.0000 0.29152  0.99982  0.31157  Biso   1.000  C
  C689     1.0000 0.68767  0.80048  0.50618  Biso   1.000  C
  C690     1.0000 0.50598  0.18648  0.69748  Biso   1.000  C
  C691     1.0000 0.70040  0.49163  0.19833  Biso   1.000  C
  C692     1.0000 0.28965  0.31224  0.99733  Biso   1.000  C
  C693     1.0000 0.49566  0.69524  0.81246  Biso   1.000  C
  C694     1.0000 0.20304  0.49487  0.31732  Biso   1.000  C
  C695     1.0000 0.80267  0.30590  0.50245  Biso   1.000  C
  C696     1.0000 0.00386  0.70560  0.69505  Biso   1.000  C
  C697     1.0000 0.68426  0.00395  0.29631  Biso   1.000  C
  C698     1.0000 0.30252  0.69881  0.02054  Biso   1.000  C
  C699     1.0000 0.98116  0.31332  0.70341  Biso   1.000  C
  C700     1.0000 0.17851  0.00734  0.20368  Biso   1.000  C
  C701     1.0000 0.79848  0.69666  0.50571  Biso   1.000  C
  C702     1.0000 0.49781  0.29887  0.80636  Biso   1.000  C
  C703     1.0000 0.81055  0.49645  0.30313  Biso   1.000  C
  C704     1.0000 0.18346  0.20313  0.01482  Biso   1.000  C
  C705     1.0000 0.49662  0.79749  0.69562  Biso   1.000  C
  C706     1.0000 0.31270  0.48459  0.20808  Biso   1.000  C
  C707     1.0000 0.69945  0.19208  0.48386  Biso   1.000  C
  C708     1.0000 0.00789  0.81617  0.80503  Biso   1.000  C
  C709     1.0000 0.30600  0.00366  0.70276  Biso   1.000  C
  C710     1.0000 0.67552  0.29531  0.99640  Biso   1.000  C
  C711     1.0000 0.99350  0.69432  0.30711  Biso   1.000  C
  C712     1.0000 0.80395  0.01742  0.79292  Biso   1.000  C
  C713     1.0000 0.19601  0.31010  0.51597  Biso   1.000  C
  C714     1.0000 0.50544  0.69072  0.20126  Biso   1.000  C
  C715     1.0000 0.18660  0.52379  0.70700  Biso   1.000  C
  C716     1.0000 0.80236  0.79883  0.99284  Biso   1.000  C
  C717     1.0000 0.49314  0.19765  0.30870  Biso   1.000  C
  C718     1.0000 0.68804  0.48880  0.80550  Biso   1.000  C
  C719     1.0000 0.29796  0.80942  0.49575  Biso   1.000  C
  C720     1.0000 0.97545  0.19664  0.19958  Biso   1.000  C
  C721     1.0000 0.52269  0.80811  0.28015  Biso   1.000  C
  C722     1.0000 0.29709  0.53210  0.79190  Biso   1.000  C
  C723     1.0000 0.77601  0.30511  0.51734  Biso   1.000  C
  C724     1.0000 0.97872  0.77690  0.19386  Biso   1.000  C
  C725     1.0000 0.76414  0.50059  0.69098  Biso   1.000  C
  C726     1.0000 0.26196  0.31302  0.98177  Biso   1.000  C
  C727     1.0000 0.96973  0.27812  0.31801  Biso   1.000  C
  C728     1.0000 0.22630  0.01804  0.81573  Biso   1.000  C
  C729     1.0000 0.71211  0.80557  0.52570  Biso   1.000  C
  C730     1.0000 0.47599  0.31157  0.22613  Biso   1.000  C
  C731     1.0000 0.71923  0.99422  0.68314  Biso   1.000  C
  C732     1.0000 0.22433  0.81414  0.00450  Biso   1.000  C
  C733     1.0000 0.48124  0.18883  0.71729  Biso   1.000  C
  C734     1.0000 0.69545  0.48295  0.22756  Biso   1.000  C
  C735     1.0000 0.19023  0.72615  0.48746  Biso   1.000  C
  C736     1.0000 0.96763  0.22748  0.81422  Biso   1.000  C
  C737     1.0000 0.23261  0.48058  0.32362  Biso   1.000  C
  C738     1.0000 0.72465  0.68613  0.01057  Biso   1.000  C
  C739     1.0000 0.02279  0.70316  0.72128  Biso   1.000  C
  C740     1.0000 0.76505  0.97980  0.18404  Biso   1.000  C
  C741     1.0000 0.28311  0.19954  0.49101  Biso   1.000  C
  C742     1.0000 0.51332  0.68983  0.78601  Biso   1.000  C
  C743     1.0000 0.26500  0.98371  0.31531  Biso   1.000  C
  C744     1.0000 0.79132  0.21259  0.01160  Biso   1.000  C
  C745     1.0000 0.00395  0.72278  0.31245  Biso   1.000  C
  C746     1.0000 0.28195  0.02430  0.69965  Biso   1.000  C
  C747     1.0000 0.70284  0.29929  0.01188  Biso   1.000  C
  C748     1.0000 0.52723  0.71488  0.20097  Biso   1.000  C
  C749     1.0000 0.80967  0.00209  0.76399  Biso   1.000  C
  C750     1.0000 0.22207  0.31079  0.53292  Biso   1.000  C
  C751     1.0000 0.51328  0.19535  0.28263  Biso   1.000  C
  C752     1.0000 0.20980  0.50090  0.70882  Biso   1.000  C
  C753     1.0000 0.77581  0.80163  0.97520  Biso   1.000  C
  C754     1.0000 0.99354  0.19149  0.22525  Biso   1.000  C
  C755     1.0000 0.68035  0.47403  0.77917  Biso   1.000  C
  C756     1.0000 0.27265  0.81517  0.51420  Biso   1.000  C
  C757     1.0000 0.96148  0.28953  0.69855  Biso   1.000  C
  C758     1.0000 0.68010  0.02267  0.27061  Biso   1.000  C
  C759     1.0000 0.28282  0.70152  0.04515  Biso   1.000  C
  C760     1.0000 0.51516  0.30448  0.77981  Biso   1.000  C
  C761     1.0000 0.20470  0.02284  0.20010  Biso   1.000  C
  C762     1.0000 0.80339  0.72482  0.49215  Biso   1.000  C
  C763     1.0000 0.47949  0.80164  0.72085  Biso   1.000  C
  C764     1.0000 0.78167  0.50970  0.30618  Biso   1.000  C
  C765     1.0000 0.21354  0.20195  0.02671  Biso   1.000  C
  C766     1.0000 0.98700  0.81891  0.78053  Biso   1.000  C
  C767     1.0000 0.31704  0.50276  0.23346  Biso   1.000  C
  C768     1.0000 0.70149  0.21562  0.46314  Biso   1.000  C
  C769     1.0000 0.47877  0.72283  0.81327  Biso   1.000  C
  C770     1.0000 0.79907  0.47082  0.71908  Biso   1.000  C
  C771     1.0000 0.68662  0.77225  0.49102  Biso   1.000  C
  C772     1.0000 0.98858  0.73247  0.68984  Biso   1.000  C
  C773     1.0000 0.26002  0.51326  0.82514  Biso   1.000  C
  C774     1.0000 0.19035  0.78373  0.03003  Biso   1.000  C
  C775     1.0000 0.00621  0.20611  0.78106  Biso   1.000  C
  C776     1.0000 0.69007  0.03049  0.71064  Biso   1.000  C
  C777     1.0000 0.80797  0.28265  0.48013  Biso   1.000  C
  C778     1.0000 0.52522  0.21261  0.69870  Biso   1.000  C
  C779     1.0000 0.19202  0.99901  0.78087  Biso   1.000  C
  C780     1.0000 0.29337  0.28948  0.01840  Biso   1.000  C
  C781     1.0000 0.50442  0.27669  0.19417  Biso   1.000  C
  C782     1.0000 0.19956  0.50810  0.28839  Biso   1.000  C
  C783     1.0000 0.31109  0.22892  0.52895  Biso   1.000  C
  C784     1.0000 0.00321  0.30458  0.28422  Biso   1.000  C
  C785     1.0000 0.72933  0.50009  0.19088  Biso   1.000  C
  C786     1.0000 0.76601  0.18966  0.96850  Biso   1.000  C
  C787     1.0000 0.00886  0.80853  0.22370  Biso   1.000  C
  C788     1.0000 0.29358  0.01499  0.28419  Biso   1.000  C
  C789     1.0000 0.21917  0.69986  0.52363  Biso   1.000  C
  C790     1.0000 0.48792  0.78302  0.30978  Biso   1.000  C
  C791     1.0000 0.79188  0.01974  0.20680  Biso   1.000  C
  C792     1.0000 0.69006  0.71728  0.98427  Biso   1.000  C
  C793     1.0000 0.47485  0.22475  0.31186  Biso   1.000  C
  C794     1.0000 0.28476  0.47092  0.20548  Biso   1.000  C
  C795     1.0000 0.19565  0.28653  0.49547  Biso   1.000  C
  C796     1.0000 0.95902  0.22351  0.19913  Biso   1.000  C
  C797     1.0000 0.81598  0.48329  0.27404  Biso   1.000  C
  C798     1.0000 0.67307  0.26687  0.98330  Biso   1.000  C
  C799     1.0000 0.98342  0.68756  0.27691  Biso   1.000  C
  C800     1.0000 0.17651  0.98734  0.22911  Biso   1.000  C
  C801     1.0000 0.30123  0.78039  0.48041  Biso   1.000  C
  C802     1.0000 0.48398  0.69183  0.22435  Biso   1.000  C
  C803     1.0000 0.70975  0.98795  0.29742  Biso   1.000  C
  C804     1.0000 0.80512  0.77420  0.01131  Biso   1.000  C
  C805     1.0000 0.51505  0.77149  0.69425  Biso   1.000  C
  C806     1.0000 0.71749  0.49997  0.80878  Biso   1.000  C
  C807     1.0000 0.77008  0.69051  0.51905  Biso   1.000  C
  C808     1.0000 0.02924  0.79158  0.80440  Biso   1.000  C
  C809     1.0000 0.18526  0.54696  0.72964  Biso   1.000  C
  C810     1.0000 0.30034  0.72074  0.99689  Biso   1.000  C
  C811     1.0000 0.99641  0.31613  0.73130  Biso   1.000  C
  C812     1.0000 0.77580  0.03284  0.79755  Biso   1.000  C
  C813     1.0000 0.72230  0.19178  0.50699  Biso   1.000  C
  C814     1.0000 0.48298  0.27036  0.80858  Biso   1.000  C
  C815     1.0000 0.30753  0.98471  0.72875  Biso   1.000  C
  C816     1.0000 0.17590  0.23156  0.00068  Biso   1.000  C
  C817     1.0000 0.96264  0.24785  0.79209  Biso   1.000  C
  C818     1.0000 0.74364  0.98272  0.20533  Biso   1.000  C
  C819     1.0000 0.24523  0.79250  0.00800  Biso   1.000  C
  C820     1.0000 0.47879  0.21183  0.73667  Biso   1.000  C
  C821     1.0000 0.24223  0.98438  0.29664  Biso   1.000  C
  C822     1.0000 0.73479  0.78583  0.52522  Biso   1.000  C
  C823     1.0000 0.51386  0.71055  0.76462  Biso   1.000  C
  C824     1.0000 0.71764  0.47913  0.24682  Biso   1.000  C
  C825     1.0000 0.24141  0.29301  0.98789  Biso   1.000  C
  C826     1.0000 0.02102  0.72569  0.74276  Biso   1.000  C
  C827     1.0000 0.25418  0.47935  0.30274  Biso   1.000  C
  C828     1.0000 0.75713  0.28175  0.51522  Biso   1.000  C
  C829     1.0000 0.98158  0.75524  0.21436  Biso   1.000  C
  C830     1.0000 0.24758  0.01869  0.79452  Biso   1.000  C
  C831     1.0000 0.76848  0.23294  0.01289  Biso   1.000  C
  C832     1.0000 0.52074  0.78593  0.25931  Biso   1.000  C
  C833     1.0000 0.73998  0.99797  0.70381  Biso   1.000  C
  C834     1.0000 0.26297  0.22252  0.49032  Biso   1.000  C
  C835     1.0000 0.47640  0.28924  0.24671  Biso   1.000  C
  C836     1.0000 0.27646  0.53478  0.77004  Biso   1.000  C
  C837     1.0000 0.74485  0.70879  0.00850  Biso   1.000  C
  C838     1.0000 0.96796  0.25695  0.29698  Biso   1.000  C
  C839     1.0000 0.74448  0.49894  0.71350  Biso   1.000  C
  C840     1.0000 0.21107  0.74699  0.48639  Biso   1.000  C
  C841     1.0000 0.21308  0.99886  0.75969  Biso   1.000  C
  C842     1.0000 0.74467  0.21033  0.97068  Biso   1.000  C
  C843     1.0000 0.00759  0.78583  0.24596  Biso   1.000  C
  C844     1.0000 0.71075  0.03241  0.73062  Biso   1.000  C
  C845     1.0000 0.28789  0.24810  0.53057  Biso   1.000  C
  C846     1.0000 0.48538  0.76130  0.28856  Biso   1.000  C
  C847     1.0000 0.24060  0.51620  0.80212  Biso   1.000  C
  C848     1.0000 0.71113  0.73850  0.98334  Biso   1.000  C
  C849     1.0000 0.50575  0.25553  0.21585  Biso   1.000  C
  C850     1.0000 0.77653  0.46770  0.73972  Biso   1.000  C
  C851     1.0000 0.23972  0.72228  0.52493  Biso   1.000  C
  C852     1.0000 0.99840  0.28278  0.26370  Biso   1.000  C
  C853     1.0000 0.77017  0.02103  0.22820  Biso   1.000  C
  C854     1.0000 0.21120  0.76235  0.03256  Biso   1.000  C
  C855     1.0000 0.00012  0.22738  0.76093  Biso   1.000  C
  C856     1.0000 0.27048  0.01585  0.26506  Biso   1.000  C
  C857     1.0000 0.70871  0.75224  0.49320  Biso   1.000  C
  C858     1.0000 0.52247  0.23397  0.71916  Biso   1.000  C
  C859     1.0000 0.75196  0.49690  0.21000  Biso   1.000  C
  C860     1.0000 0.27276  0.26905  0.02240  Biso   1.000  C
  C861     1.0000 0.47991  0.74274  0.78946  Biso   1.000  C
  C862     1.0000 0.22217  0.50343  0.26863  Biso   1.000  C
  C863     1.0000 0.78732  0.25990  0.47717  Biso   1.000  C
  C864     1.0000 0.98822  0.75410  0.71142  Biso   1.000  C
  C865     1.0000 0.70122  0.47201  0.75745  Biso   1.000  C
  C866     1.0000 0.78098  0.74602  0.49305  Biso   1.000  C
  C867     1.0000 0.48165  0.78283  0.74267  Biso   1.000  C
  C868     1.0000 0.22992  0.50250  0.73141  Biso   1.000  C
  C869     1.0000 0.26209  0.72353  0.04641  Biso   1.000  C
  C870     1.0000 0.98601  0.79841  0.75800  Biso   1.000  C
  C871     1.0000 0.78755  0.00274  0.74257  Biso   1.000  C
  C872     1.0000 0.72075  0.23795  0.46676  Biso   1.000  C
  C873     1.0000 0.96001  0.26717  0.71883  Biso   1.000  C
  C874     1.0000 0.26049  0.02583  0.72016  Biso   1.000  C
  C875     1.0000 0.23149  0.22505  0.02605  Biso   1.000  C
  C876     1.0000 0.51255  0.28407  0.75704  Biso   1.000  C
  C877     1.0000 0.29474  0.50567  0.25355  Biso   1.000  C
  C878     1.0000 0.24452  0.29136  0.52859  Biso   1.000  C
  C879     1.0000 0.51128  0.21595  0.26122  Biso   1.000  C
  C880     1.0000 0.76017  0.50383  0.28497  Biso   1.000  C
  C881     1.0000 0.72511  0.27851  0.01192  Biso   1.000  C
  C882     1.0000 0.99353  0.21200  0.24706  Biso   1.000  C
  C883     1.0000 0.22521  0.02151  0.22236  Biso   1.000  C
  C884     1.0000 0.25273  0.79306  0.51726  Biso   1.000  C
  C885     1.0000 0.00625  0.74318  0.28990  Biso   1.000  C
  C886     1.0000 0.70017  0.02312  0.24899  Biso   1.000  C
  C887     1.0000 0.75423  0.77987  0.97706  Biso   1.000  C
  C888     1.0000 0.52553  0.73672  0.22293  Biso   1.000  C
  C889     1.0000 0.72865  0.98775  0.27461  Biso   1.000  C
  C890     1.0000 0.27742  0.74004  0.99910  Biso   1.000  C
  C891     1.0000 0.99083  0.29540  0.75253  Biso   1.000  C
  C892     1.0000 0.19766  0.98802  0.25080  Biso   1.000  C
  C893     1.0000 0.74867  0.71149  0.51577  Biso   1.000  C
  C894     1.0000 0.48308  0.25160  0.78537  Biso   1.000  C
  C895     1.0000 0.79563  0.47883  0.25318  Biso   1.000  C
  C896     1.0000 0.19524  0.25468  0.00265  Biso   1.000  C
  C897     1.0000 0.51488  0.75096  0.71596  Biso   1.000  C
  C898     1.0000 0.26378  0.47221  0.22628  Biso   1.000  C
  C899     1.0000 0.73961  0.21586  0.50833  Biso   1.000  C
  C900     1.0000 0.02835  0.77508  0.78004  Biso   1.000  C
  C901     1.0000 0.28453  0.98653  0.74837  Biso   1.000  C
  C902     1.0000 0.69562  0.24747  0.98371  Biso   1.000  C
  C903     1.0000 0.98625  0.70781  0.25591  Biso   1.000  C
  C904     1.0000 0.75648  0.03390  0.77548  Biso   1.000  C
  C905     1.0000 0.21688  0.26549  0.49374  Biso   1.000  C
  C906     1.0000 0.48328  0.71409  0.24444  Biso   1.000  C
  C907     1.0000 0.20479  0.54670  0.75204  Biso   1.000  C
  C908     1.0000 0.78470  0.75265  0.01023  Biso   1.000  C
  C909     1.0000 0.47328  0.24427  0.28813  Biso   1.000  C
  C910     1.0000 0.73648  0.49870  0.78564  Biso   1.000  C
  C911     1.0000 0.28000  0.75895  0.48560  Biso   1.000  C
  C912     1.0000 0.95876  0.24336  0.22303  Biso   1.000  C
  C913     1.0000 0.75046  0.48238  0.73747  Biso   1.000  C
  C914     1.0000 0.73262  0.75924  0.50970  Biso   1.000  C
  C915     1.0000 0.49984  0.73702  0.76628  Biso   1.000  C
  C916     1.0000 0.24885  0.52556  0.77509  Biso   1.000  C
  C917     1.0000 0.23884  0.76628  0.02147  Biso   1.000  C
  C918     1.0000 0.00425  0.75104  0.73850  Biso   1.000  C
  C919     1.0000 0.73639  0.01508  0.72799  Biso   1.000  C
  C920     1.0000 0.76265  0.25976  0.49463  Biso   1.000  C
  C921     1.0000 0.97844  0.24766  0.76697  Biso   1.000  C
  C922     1.0000 0.23984  0.00969  0.76636  Biso   1.000  C
  C923     1.0000 0.24647  0.27157  0.00774  Biso   1.000  C
  C924     1.0000 0.50047  0.23381  0.73873  Biso   1.000  C
  C925     1.0000 0.24825  0.48935  0.27471  Biso   1.000  C
  C926     1.0000 0.26402  0.24529  0.51066  Biso   1.000  C
  C927     1.0000 0.49162  0.26365  0.24145  Biso   1.000  C
  C928     1.0000 0.74632  0.48493  0.23677  Biso   1.000  C
  C929     1.0000 0.74532  0.23029  0.99455  Biso   1.000  C
  C930     1.0000 0.98035  0.26001  0.26918  Biso   1.000  C
  C931     1.0000 0.24562  0.99996  0.26923  Biso   1.000  C
  C932     1.0000 0.23411  0.74539  0.50608  Biso   1.000  C
  C933     1.0000 0.99438  0.75833  0.24036  Biso   1.000  C
  C934     1.0000 0.74604  0.00329  0.22735  Biso   1.000  C
  C935     1.0000 0.73723  0.73459  0.99633  Biso   1.000  C
  C936     1.0000 0.50199  0.76209  0.26321  Biso   1.000  C
  C937     1.0000 0.72227  0.25325  0.99590  Biso   1.000  C
  C938     1.0000 0.99542  0.73567  0.26291  Biso   1.000  C
  C939     1.0000 0.26318  0.00828  0.74458  Biso   1.000  C
  C940     1.0000 0.24167  0.26729  0.51011  Biso   1.000  C
  C941     1.0000 0.50377  0.73629  0.24398  Biso   1.000  C
  C942     1.0000 0.76165  0.01821  0.74967  Biso   1.000  C
  C943     1.0000 0.75933  0.75614  0.99484  Biso   1.000  C
  C944     1.0000 0.49217  0.23993  0.26353  Biso   1.000  C
  C945     1.0000 0.22751  0.52534  0.75180  Biso   1.000  C
  C946     1.0000 0.25633  0.76592  0.50436  Biso   1.000  C
  C947     1.0000 0.97543  0.23684  0.24648  Biso   1.000  C
  C948     1.0000 0.72862  0.48402  0.76128  Biso   1.000  C
  C949     1.0000 0.26052  0.74296  0.02312  Biso   1.000  C
  C950     1.0000 0.97443  0.27086  0.74519  Biso   1.000  C
  C951     1.0000 0.72408  0.00555  0.25047  Biso   1.000  C
  C952     1.0000 0.75582  0.73809  0.50626  Biso   1.000  C
  C953     1.0000 0.49854  0.25695  0.76083  Biso   1.000  C
  C954     1.0000 0.22171  0.00554  0.24812  Biso   1.000  C
  C955     1.0000 0.22201  0.25148  0.01415  Biso   1.000  C
  C956     1.0000 0.49788  0.75731  0.74086  Biso   1.000  C
  C957     1.0000 0.76660  0.48695  0.26000  Biso   1.000  C
  C958     1.0000 0.74081  0.23722  0.48815  Biso   1.000  C
  C959     1.0000 0.00729  0.77632  0.75840  Biso   1.000  C
  C960     1.0000 0.27016  0.48924  0.25088  Biso   1.000  C
  Cu1      1.0000 0.98849  0.50912  0.65837  Biso   1.000  Cu
  Cu2      1.0000 0.65085  0.99717  0.49128  Biso   1.000  Cu
  Cu3      1.0000 0.49864  0.65369  0.00689  Biso   1.000  Cu
  Cu4      1.0000 0.49126  0.49726  0.85214  Biso   1.000  Cu
  Cu5      1.0000 0.15071  0.00423  0.00270  Biso   1.000  Cu
  Cu6      1.0000 0.99690  0.65543  0.50232  Biso   1.000  Cu
  Cu7      1.0000 0.49747  0.99101  0.65386  Biso   1.000  Cu
  Cu8      1.0000 0.84671  0.49779  0.50071  Biso   1.000  Cu
  Cu9      1.0000 0.98759  0.15137  0.00190  Biso   1.000  Cu
  Cu10     1.0000 0.99743  0.01205  0.84711  Biso   1.000  Cu
  Cu11     1.0000 0.33882  0.50334  0.01095  Biso   1.000  Cu
  Cu12     1.0000 0.50618  0.15572  0.50219  Biso   1.000  Cu
  Cu13     1.0000 0.00693  0.49835  0.35352  Biso   1.000  Cu
  Cu14     1.0000 0.34181  0.00360  0.50331  Biso   1.000  Cu
  Cu15     1.0000 0.48342  0.34721  0.00229  Biso   1.000  Cu
  Cu16     1.0000 0.50300  0.49535  0.15594  Biso   1.000  Cu
  Cu17     1.0000 0.84009  0.99637  0.98584  Biso   1.000  Cu
  Cu18     1.0000 0.99955  0.34577  0.50772  Biso   1.000  Cu
  Cu19     1.0000 0.48873  0.00340  0.34351  Biso   1.000  Cu
  Cu20     1.0000 0.15370  0.50699  0.51193  Biso   1.000  Cu
  Cu21     1.0000 0.99476  0.84748  0.00162  Biso   1.000  Cu
  Cu22     1.0000 0.98590  0.99883  0.15573  Biso   1.000  Cu
  Cu23     1.0000 0.64418  0.49196  0.00297  Biso   1.000  Cu
  Cu24     1.0000 0.49342  0.84592  0.50548  Biso   1.000  Cu
  Cu25     1.0000 0.20427  0.00484  0.00906  Biso   1.000  Cu
  Cu26     1.0000 0.98502  0.20765  0.00655  Biso   1.000  Cu
  Cu27     1.0000 0.98092  0.99895  0.20832  Biso   1.000  Cu
  Cu28     1.0000 0.70474  0.99792  0.48902  Biso   1.000  Cu
  Cu29     1.0000 0.50581  0.20919  0.50622  Biso   1.000  Cu
  Cu30     1.0000 0.48759  0.00602  0.28902  Biso   1.000  Cu
  Cu31     1.0000 0.28537  0.50547  0.01324  Biso   1.000  Cu
  Cu32     1.0000 0.49946  0.70841  0.00673  Biso   1.000  Cu
  Cu33     1.0000 0.50263  0.49440  0.21136  Biso   1.000  Cu
  Cu34     1.0000 0.79123  0.50062  0.49797  Biso   1.000  Cu
  Cu35     1.0000 0.99713  0.71068  0.50206  Biso   1.000  Cu
  Cu36     1.0000 0.01030  0.49614  0.30008  Biso   1.000  Cu
  Cu37     1.0000 0.78776  0.99302  0.98835  Biso   1.000  Cu
  Cu38     1.0000 0.00013  0.79390  0.99715  Biso   1.000  Cu
  Cu39     1.0000 0.00104  0.00954  0.79182  Biso   1.000  Cu
  Cu40     1.0000 0.28895  0.00753  0.50779  Biso   1.000  Cu
  Cu41     1.0000 0.49237  0.79322  0.49758  Biso   1.000  Cu
  Cu42     1.0000 0.49988  0.99132  0.70639  Biso   1.000  Cu
  Cu43     1.0000 0.69750  0.49002  0.00040  Biso   1.000  Cu
  Cu44     1.0000 0.48382  0.29256  0.00331  Biso   1.000  Cu
  Cu45     1.0000 0.48864  0.49835  0.79755  Biso   1.000  Cu
  Cu46     1.0000 0.21124  0.50544  0.51254  Biso   1.000  Cu
  Cu47     1.0000 0.00079  0.29188  0.51077  Biso   1.000  Cu
  Cu48     1.0000 0.98897  0.50951  0.71274  Biso   1.000  Cu
  H1       1.0000 0.23193  0.79748  0.52524  Biso   1.000  H
  H2       1.0000 0.52300  0.28809  0.73674  Biso   1.000  H
  H3       1.0000 0.73824  0.51039  0.28862  Biso   1.000  H
  H4       1.0000 0.73495  0.78334  0.96410  Biso   1.000  H
  H5       1.0000 0.94450  0.24923  0.71684  Biso   1.000  H
  H6       1.0000 0.29778  0.51912  0.27306  Biso   1.000  H
  H7       1.0000 0.26371  0.29626  0.54094  Biso   1.000  H
  H8       1.0000 0.96966  0.80042  0.74146  Biso   1.000  H
  H9       1.0000 0.69610  0.03723  0.22985  Biso   1.000  H
  H10      1.0000 0.74378  0.28243  0.02503  Biso   1.000  H
  H11      1.0000 0.47068  0.79117  0.76208  Biso   1.000  H
  H12      1.0000 0.24478  0.03521  0.22060  Biso   1.000  H
  H13      1.0000 0.72021  0.25490  0.44978  Biso   1.000  H
  H14      1.0000 0.54093  0.75487  0.22342  Biso   1.000  H
  H15      1.0000 0.24873  0.48500  0.73109  Biso   1.000  H
  H16      1.0000 0.25491  0.22203  0.03281  Biso   1.000  H
  H17      1.0000 0.01557  0.76406  0.29326  Biso   1.000  H
  H18      1.0000 0.69756  0.46236  0.73756  Biso   1.000  H
  H19      1.0000 0.78289  0.76773  0.48507  Biso   1.000  H
  H20      1.0000 0.00785  0.20705  0.26527  Biso   1.000  H
  H21      1.0000 0.24261  0.04372  0.71815  Biso   1.000  H
  H22      1.0000 0.24599  0.72377  0.06393  Biso   1.000  H
  H23      1.0000 0.52538  0.21489  0.24215  Biso   1.000  H
  H24      1.0000 0.79285  0.99225  0.72137  Biso   1.000  H
  H25      1.0000 0.26723  0.03072  0.79737  Biso   1.000  H
  H26      1.0000 0.76856  0.24853  0.03145  Biso   1.000  H
  H27      1.0000 0.97887  0.73366  0.20460  Biso   1.000  H
  H28      1.0000 0.75960  0.98703  0.69697  Biso   1.000  H
  H29      1.0000 0.24607  0.22322  0.47502  Biso   1.000  H
  H30      1.0000 0.53444  0.78896  0.24101  Biso   1.000  H
  H31      1.0000 0.28397  0.54498  0.74943  Biso   1.000  H
  H32      1.0000 0.76604  0.70376  0.01536  Biso   1.000  H
  H33      1.0000 0.46424  0.29438  0.26814  Biso   1.000  H
  H34      1.0000 0.72401  0.51060  0.71154  Biso   1.000  H
  H35      1.0000 0.20888  0.76572  0.47140  Biso   1.000  H
  H36      1.0000 0.95167  0.23983  0.30161  Biso   1.000  H
  H37      1.0000 0.72637  0.96698  0.20166  Biso   1.000  H
  H38      1.0000 0.26615  0.79514  0.99908  Biso   1.000  H
  H39      1.0000 0.94894  0.26749  0.79528  Biso   1.000  H
  H40      1.0000 0.22298  0.97134  0.30476  Biso   1.000  H
  H41      1.0000 0.75446  0.79082  0.53777  Biso   1.000  H
  H42      1.0000 0.45873  0.21176  0.74992  Biso   1.000  H
  H43      1.0000 0.71104  0.47221  0.26896  Biso   1.000  H
  H44      1.0000 0.22304  0.29442  0.97397  Biso   1.000  H
  H45      1.0000 0.52643  0.70349  0.74470  Biso   1.000  H
  H46      1.0000 0.27614  0.47138  0.30961  Biso   1.000  H
  H47      1.0000 0.73675  0.28014  0.52610  Biso   1.000  H
  H48      1.0000 0.03107  0.72538  0.76357  Biso   1.000  H
  H49      1.0000 0.21733  0.51084  0.24734  Biso   1.000  H
  H50      1.0000 0.28976  0.26635  0.54676  Biso   1.000  H
  H51      1.0000 0.51868  0.23612  0.21097  Biso   1.000  H
  H52      1.0000 0.77341  0.50086  0.20161  Biso   1.000  H
  H53      1.0000 0.72727  0.21372  0.95461  Biso   1.000  H
  H54      1.0000 0.00563  0.28723  0.24014  Biso   1.000  H
  H55      1.0000 0.27637  0.02963  0.24665  Biso   1.000  H
  H56      1.0000 0.25644  0.71918  0.54207  Biso   1.000  H
  H57      1.0000 0.01973  0.79041  0.26467  Biso   1.000  H
  H58      1.0000 0.77211  0.03707  0.24381  Biso   1.000  H
  H59      1.0000 0.70466  0.75966  0.97455  Biso   1.000  H
  H60      1.0000 0.47078  0.74362  0.29140  Biso   1.000  H
  H61      1.0000 0.77850  0.45258  0.75813  Biso   1.000  H
  H62      1.0000 0.70630  0.73017  0.48699  Biso   1.000  H
  H63      1.0000 0.46704  0.76333  0.79132  Biso   1.000  H
  H64      1.0000 0.21848  0.50965  0.80370  Biso   1.000  H
  H65      1.0000 0.20638  0.74146  0.04301  Biso   1.000  H
  H66      1.0000 0.97678  0.77397  0.70776  Biso   1.000  H
  H67      1.0000 0.70773  0.04848  0.74903  Biso   1.000  H
  H68      1.0000 0.79138  0.24352  0.45888  Biso   1.000  H
  H69      1.0000 0.01557  0.22904  0.74170  Biso   1.000  H
  H70      1.0000 0.20920  0.99306  0.73777  Biso   1.000  H
  H71      1.0000 0.27830  0.25369  0.03927  Biso   1.000  H
  H72      1.0000 0.53951  0.25036  0.71974  Biso   1.000  H
  H73      1.0000 0.75909  0.50487  0.78867  Biso   1.000  H
  H74      1.0000 0.72592  0.71023  0.52227  Biso   1.000  H
  H75      1.0000 0.52749  0.73087  0.71622  Biso   1.000  H
  H76      1.0000 0.20442  0.56243  0.76975  Biso   1.000  H
  H77      1.0000 0.27234  0.75236  0.97989  Biso   1.000  H
  H78      1.0000 0.04637  0.75882  0.77965  Biso   1.000  H
  H79      1.0000 0.73646  0.04500  0.77786  Biso   1.000  H
  H80      1.0000 0.75423  0.21588  0.52575  Biso   1.000  H
  H81      1.0000 0.00186  0.29858  0.77491  Biso   1.000  H
  H82      1.0000 0.28712  0.97354  0.76797  Biso   1.000  H
  H83      1.0000 0.18784  0.27549  0.99481  Biso   1.000  H
  H84      1.0000 0.47260  0.23068  0.78873  Biso   1.000  H
  H85      1.0000 0.24444  0.46087  0.22396  Biso   1.000  H
  H86      1.0000 0.21252  0.25016  0.47560  Biso   1.000  H
  H87      1.0000 0.46004  0.26294  0.28883  Biso   1.000  H
  H88      1.0000 0.80387  0.46808  0.23335  Biso   1.000  H
  H89      1.0000 0.69002  0.22748  0.97231  Biso   1.000  H
  H90      1.0000 0.94465  0.26152  0.22232  Biso   1.000  H
  H91      1.0000 0.19385  0.97315  0.26977  Biso   1.000  H
  H92      1.0000 0.28279  0.73811  0.47432  Biso   1.000  H
  H93      1.0000 0.97883  0.70202  0.23400  Biso   1.000  H
  H94      1.0000 0.74765  0.97234  0.27406  Biso   1.000  H
  H95      1.0000 0.78788  0.73516  0.02512  Biso   1.000  H
  H96      1.0000 0.46595  0.71638  0.26082  Biso   1.000  H
  H97      1.0000 0.86331  0.00125  0.89687  Biso   1.000  H
  H98      1.0000 0.90837  0.86222  0.99304  Biso   1.000  H
  H99      1.0000 0.00092  0.92171  0.86945  Biso   1.000  H
  H100     1.0000 0.36901  0.01143  0.59913  Biso   1.000  H
  H101     1.0000 0.40553  0.86857  0.49245  Biso   1.000  H
  H102     1.0000 0.49404  0.90082  0.63158  Biso   1.000  H
  H103     1.0000 0.62321  0.50609  0.90958  Biso   1.000  H
  H104     1.0000 0.57325  0.36352  0.00826  Biso   1.000  H
  H105     1.0000 0.47781  0.40518  0.86878  Biso   1.000  H
  H106     1.0000 0.12948  0.50052  0.60275  Biso   1.000  H
  H107     1.0000 0.09245  0.37383  0.51266  Biso   1.000  H
  H108     1.0000 0.99394  0.41790  0.64147  Biso   1.000  H
  H109     1.0000 0.12156  0.01158  0.09265  Biso   1.000  H
  H110     1.0000 0.08450  0.13582  0.00281  Biso   1.000  H
  H111     1.0000 0.96964  0.08791  0.13939  Biso   1.000  H
  H112     1.0000 0.62422  0.99524  0.40084  Biso   1.000  H
  H113     1.0000 0.59315  0.13407  0.48659  Biso   1.000  H
  H114     1.0000 0.48756  0.09229  0.36847  Biso   1.000  H
  H115     1.0000 0.36168  0.47760  0.09765  Biso   1.000  H
  H116     1.0000 0.40721  0.63243  0.00996  Biso   1.000  H
  H117     1.0000 0.49837  0.58543  0.14192  Biso   1.000  H
  H118     1.0000 0.87040  0.49472  0.40883  Biso   1.000  H
  H119     1.0000 0.90676  0.63710  0.50772  Biso   1.000  H
  H120     1.0000 0.00920  0.58896  0.36996  Biso   1.000  H
  H121     1.0000 0.09180  0.99745  0.87029  Biso   1.000  H
  H122     1.0000 0.85816  0.08486  0.97263  Biso   1.000  H
  H123     1.0000 0.99165  0.86416  0.08929  Biso   1.000  H
  H124     1.0000 0.58774  0.00326  0.62756  Biso   1.000  H
  H125     1.0000 0.36686  0.09540  0.51074  Biso   1.000  H
  H126     1.0000 0.49334  0.87645  0.40787  Biso   1.000  H
  H127     1.0000 0.40376  0.50521  0.87416  Biso   1.000  H
  H128     1.0000 0.62786  0.58690  0.00926  Biso   1.000  H
  H129     1.0000 0.48710  0.36213  0.09086  Biso   1.000  H
  H130     1.0000 0.89982  0.50918  0.63862  Biso   1.000  H
  H131     1.0000 0.13608  0.59258  0.50393  Biso   1.000  H
  H132     1.0000 0.02033  0.36020  0.41744  Biso   1.000  H
  H133     1.0000 0.89923  0.98589  0.12636  Biso   1.000  H
  H134     1.0000 0.12954  0.91219  0.99918  Biso   1.000  H
  H135     1.0000 0.99873  0.14024  0.91254  Biso   1.000  H
  H136     1.0000 0.40413  0.00042  0.36884  Biso   1.000  H
  H137     1.0000 0.63094  0.90644  0.48357  Biso   1.000  H
  H138     1.0000 0.50544  0.12385  0.59247  Biso   1.000  H
  H139     1.0000 0.59806  0.51093  0.13608  Biso   1.000  H
  H140     1.0000 0.35627  0.41280  0.98419  Biso   1.000  H
  H141     1.0000 0.49218  0.63319  0.91871  Biso   1.000  H
  H142     1.0000 0.09661  0.48933  0.37725  Biso   1.000  H
  H143     1.0000 0.86497  0.40932  0.51431  Biso   1.000  H
  H144     1.0000 0.00367  0.63891  0.59024  Biso   1.000  H
  H145     1.0000 0.58380  0.50119  0.86909  Biso   1.000  H
  H146     1.0000 0.86510  0.58993  0.50830  Biso   1.000  H
  H147     1.0000 0.48996  0.85789  0.59131  Biso   1.000  H
  H148     1.0000 0.08634  0.50702  0.63952  Biso   1.000  H
  H149     1.0000 0.36065  0.59176  0.02252  Biso   1.000  H
  H150     1.0000 0.99590  0.87822  0.90779  Biso   1.000  H
  H151     1.0000 0.90440  0.00857  0.85996  Biso   1.000  H
  H152     1.0000 0.63214  0.09188  0.49335  Biso   1.000  H
  H153     1.0000 0.00030  0.37201  0.60270  Biso   1.000  H
  H154     1.0000 0.41040  0.99647  0.63665  Biso   1.000  H
  H155     1.0000 0.12907  0.09697  0.00041  Biso   1.000  H
  H156     1.0000 0.48122  0.36132  0.91145  Biso   1.000  H
  H157     1.0000 0.40853  0.48181  0.13487  Biso   1.000  H
  H158     1.0000 0.13605  0.41448  0.51430  Biso   1.000  H
  H159     1.0000 0.48663  0.13723  0.41498  Biso   1.000  H
  H160     1.0000 0.91145  0.49746  0.37294  Biso   1.000  H
  H161     1.0000 0.61726  0.40434  0.00580  Biso   1.000  H
  H162     1.0000 0.97836  0.12681  0.09705  Biso   1.000  H
  H163     1.0000 0.07420  0.01606  0.13774  Biso   1.000  H
  H164     1.0000 0.36292  0.91290  0.49680  Biso   1.000  H
  H165     1.0000 0.99920  0.63206  0.41380  Biso   1.000  H
  H166     1.0000 0.58013  0.99893  0.36074  Biso   1.000  H
  H167     1.0000 0.86264  0.90550  0.98941  Biso   1.000  H
  H168     1.0000 0.49886  0.63128  0.09663  Biso   1.000  H
  H169     1.0000 0.00655  0.09828  0.86499  Biso   1.000  H
  H170     1.0000 0.85783  0.99452  0.08038  Biso   1.000  H
  H171     1.0000 0.09135  0.87457  0.00125  Biso   1.000  H
  H172     1.0000 0.50748  0.07944  0.63734  Biso   1.000  H
  H173     1.0000 0.35919  0.00797  0.41250  Biso   1.000  H
  H174     1.0000 0.58604  0.86544  0.48860  Biso   1.000  H
  H175     1.0000 0.49585  0.58712  0.87493  Biso   1.000  H
  H176     1.0000 0.63391  0.50007  0.09403  Biso   1.000  H
  H177     1.0000 0.39953  0.36844  0.99981  Biso   1.000  H
  H178     1.0000 0.99507  0.60021  0.63238  Biso   1.000  H
  H179     1.0000 0.13715  0.50242  0.42167  Biso   1.000  H
  H180     1.0000 0.91038  0.36425  0.51122  Biso   1.000  H
  H181     1.0000 0.99853  0.90617  0.13563  Biso   1.000  H
  H182     1.0000 0.13387  0.98822  0.91425  Biso   1.000  H
  H183     1.0000 0.89688  0.13139  0.98025  Biso   1.000  H
  H184     1.0000 0.49069  0.91397  0.36221  Biso   1.000  H
  H185     1.0000 0.63000  0.00120  0.58040  Biso   1.000  H
  H186     1.0000 0.41409  0.13702  0.50704  Biso   1.000  H
  H187     1.0000 0.50773  0.40265  0.13292  Biso   1.000  H
  H188     1.0000 0.36121  0.50611  0.91876  Biso   1.000  H
  H189     1.0000 0.58676  0.63280  0.00958  Biso   1.000  H
  H190     1.0000 0.01402  0.40575  0.37822  Biso   1.000  H
  H191     1.0000 0.86093  0.51032  0.59728  Biso   1.000  H
  H192     1.0000 0.08969  0.63764  0.49614  Biso   1.000  H
  H193     1.0000 0.26355  0.86323  0.48423  Biso   1.000  H
  H194     1.0000 0.50809  0.26715  0.86054  Biso   1.000  H
  H195     1.0000 0.86632  0.50152  0.27332  Biso   1.000  H
  H196     1.0000 0.76719  0.85046  0.99615  Biso   1.000  H
  H197     1.0000 0.99241  0.27780  0.65424  Biso   1.000  H
  H198     1.0000 0.36364  0.47222  0.23741  Biso   1.000  H
  H199     1.0000 0.23178  0.36227  0.51549  Biso   1.000  H
  H200     1.0000 0.01047  0.78105  0.85267  Biso   1.000  H
  H201     1.0000 0.63264  0.00009  0.26429  Biso   1.000  H
  H202     1.0000 0.71172  0.34385  0.98962  Biso   1.000  H
  H203     1.0000 0.49140  0.76459  0.64577  Biso   1.000  H
  H204     1.0000 0.12620  0.00992  0.23661  Biso   1.000  H
  H205     1.0000 0.73380  0.13817  0.48644  Biso   1.000  H
  H206     1.0000 0.50757  0.72699  0.15316  Biso   1.000  H
  H207     1.0000 0.13547  0.53108  0.73632  Biso   1.000  H
  H208     1.0000 0.22352  0.15160  0.00526  Biso   1.000  H
  H209     1.0000 0.98128  0.72644  0.35899  Biso   1.000  H
  H210     1.0000 0.63482  0.49585  0.77302  Biso   1.000  H
  H211     1.0000 0.76836  0.64324  0.49348  Biso   1.000  H
  H212     1.0000 0.96816  0.22870  0.14400  Biso   1.000  H
  H213     1.0000 0.35863  0.00911  0.73454  Biso   1.000  H
  H214     1.0000 0.26688  0.65361  0.02750  Biso   1.000  H
  H215     1.0000 0.50162  0.23131  0.35972  Biso   1.000  H
  H216     1.0000 0.85817  0.03960  0.76384  Biso   1.000  H
  H217     1.0000 0.23536  0.50737  0.36564  Biso   1.000  H
  H218     1.0000 0.36028  0.23509  0.50228  Biso   1.000  H
  H219     1.0000 0.50484  0.35186  0.22759  Biso   1.000  H
  H220     1.0000 0.72924  0.47625  0.14331  Biso   1.000  H
  H221     1.0000 0.83919  0.22525  0.99112  Biso   1.000  H
  H222     1.0000 0.98655  0.35816  0.27891  Biso   1.000  H
  H223     1.0000 0.25909  0.00695  0.36438  Biso   1.000  H
  H224     1.0000 0.13948  0.73355  0.51214  Biso   1.000  H
  H225     1.0000 0.98136  0.85295  0.23095  Biso   1.000  H
  H226     1.0000 0.75533  0.00073  0.13054  Biso   1.000  H
  H227     1.0000 0.64576  0.72532  0.01372  Biso   1.000  H
  H228     1.0000 0.50364  0.85558  0.26914  Biso   1.000  H
  H229     1.0000 0.76168  0.48468  0.63627  Biso   1.000  H
  H230     1.0000 0.63500  0.76932  0.51287  Biso   1.000  H
  H231     1.0000 0.49145  0.63958  0.77787  Biso   1.000  H
  H232     1.0000 0.26550  0.53365  0.87246  Biso   1.000  H
  H233     1.0000 0.14166  0.77666  0.99835  Biso   1.000  H
  H234     1.0000 0.00460  0.65291  0.72955  Biso   1.000  H
  H235     1.0000 0.72832  0.01613  0.63205  Biso   1.000  H
  H236     1.0000 0.85273  0.27158  0.50396  Biso   1.000  H
  H237     1.0000 0.99400  0.15514  0.77185  Biso   1.000  H
  H238     1.0000 0.23185  0.99129  0.86117  Biso   1.000  H
  H239     1.0000 0.33859  0.27745  0.99223  Biso   1.000  H
  H240     1.0000 0.50107  0.13833  0.73142  Biso   1.000  H
  H241     1.0000 0.71925  0.47903  0.86105  Biso   1.000  H
  H242     1.0000 0.84592  0.72824  0.52371  Biso   1.000  H
  H243     1.0000 0.50483  0.84760  0.72980  Biso   1.000  H
  H244     1.0000 0.22342  0.52251  0.65467  Biso   1.000  H
  H245     1.0000 0.35319  0.72984  0.02337  Biso   1.000  H
  H246     1.0000 0.01413  0.86547  0.77316  Biso   1.000  H
  H247     1.0000 0.76850  0.00124  0.83972  Biso   1.000  H
  H248     1.0000 0.64785  0.23001  0.47595  Biso   1.000  H
  H249     1.0000 0.98163  0.36786  0.73955  Biso   1.000  H
  H250     1.0000 0.26974  0.00479  0.65085  Biso   1.000  H
  H251     1.0000 0.12824  0.23380  0.02064  Biso   1.000  H
  H252     1.0000 0.50287  0.35486  0.77230  Biso   1.000  H
  H253     1.0000 0.27092  0.48963  0.15817  Biso   1.000  H
  H254     1.0000 0.14603  0.27559  0.51792  Biso   1.000  H
  H255     1.0000 0.48502  0.15092  0.27615  Biso   1.000  H
  H256     1.0000 0.77470  0.49092  0.35602  Biso   1.000  H
  H257     1.0000 0.62293  0.26351  0.99478  Biso   1.000  H
  H258     1.0000 0.97229  0.14295  0.23558  Biso   1.000  H
  H259     1.0000 0.21563  0.00753  0.15072  Biso   1.000  H
  H260     1.0000 0.35032  0.77417  0.50134  Biso   1.000  H
  H261     1.0000 0.01070  0.64260  0.27550  Biso   1.000  H
  H262     1.0000 0.71914  0.01228  0.34875  Biso   1.000  H
  H263     1.0000 0.85496  0.76608  0.98824  Biso   1.000  H
  H264     1.0000 0.50603  0.64552  0.23276  Biso   1.000  H
  H265     1.0000 0.99159  0.24030  0.86280  Biso   1.000  H
  H266     1.0000 0.83777  0.99465  0.21748  Biso   1.000  H
  H267     1.0000 0.22653  0.86697  0.02335  Biso   1.000  H
  H268     1.0000 0.51108  0.22165  0.65050  Biso   1.000  H
  H269     1.0000 0.33942  0.99841  0.27708  Biso   1.000  H
  H270     1.0000 0.72169  0.84958  0.50078  Biso   1.000  H
  H271     1.0000 0.50018  0.72781  0.86315  Biso   1.000  H
  H272     1.0000 0.64520  0.50365  0.23319  Biso   1.000  H
  H273     1.0000 0.25600  0.36472  0.99389  Biso   1.000  H
  H274     1.0000 0.00633  0.73874  0.64066  Biso   1.000  H
  H275     1.0000 0.15453  0.48138  0.28556  Biso   1.000  H
  H276     1.0000 0.76863  0.35523  0.49961  Biso   1.000  H
  H277     1.0000 0.00195  0.76723  0.14482  Biso   1.000  H
  H278     1.0000 0.14478  0.02175  0.78038  Biso   1.000  H
  H279     1.0000 0.75616  0.13491  0.98386  Biso   1.000  H
  H280     1.0000 0.51488  0.77948  0.35910  Biso   1.000  H
  H281     1.0000 0.64435  0.99776  0.72243  Biso   1.000  H
  H282     1.0000 0.27420  0.15476  0.51159  Biso   1.000  H
  H283     1.0000 0.48131  0.26750  0.14405  Biso   1.000  H
  H284     1.0000 0.34125  0.50592  0.78420  Biso   1.000  H
  H285     1.0000 0.72595  0.63507  0.99666  Biso   1.000  H
  H286     1.0000 0.99027  0.26808  0.36492  Biso   1.000  H
  H287     1.0000 0.84200  0.50045  0.73190  Biso   1.000  H
  H288     1.0000 0.22870  0.65225  0.50376  Biso   1.000  H
  H289     1.0000 0.07807  0.22787  0.02278  Biso   1.000  H
  H290     1.0000 0.96751  0.08943  0.23563  Biso   1.000  H
  H291     1.0000 0.21708  0.00388  0.10011  Biso   1.000  H
  H292     1.0000 0.59518  0.22986  0.47187  Biso   1.000  H
  H293     1.0000 0.48185  0.09551  0.27302  Biso   1.000  H
  H294     1.0000 0.71717  0.00805  0.40191  Biso   1.000  H
  H295     1.0000 0.40859  0.72643  0.01528  Biso   1.000  H
  H296     1.0000 0.50465  0.58991  0.23644  Biso   1.000  H
  H297     1.0000 0.26867  0.49351  0.10625  Biso   1.000  H
  H298     1.0000 0.90003  0.73166  0.52684  Biso   1.000  H
  H299     1.0000 0.02262  0.58637  0.27725  Biso   1.000  H
  H300     1.0000 0.77483  0.48819  0.41086  Biso   1.000  H
  H301     1.0000 0.90848  0.76548  0.98900  Biso   1.000  H
  H302     1.0000 0.00893  0.92068  0.77231  Biso   1.000  H
  H303     1.0000 0.76631  0.98873  0.89063  Biso   1.000  H
  H304     1.0000 0.40311  0.77484  0.50323  Biso   1.000  H
  H305     1.0000 0.50594  0.90407  0.72656  Biso   1.000  H
  H306     1.0000 0.27182  0.00585  0.59722  Biso   1.000  H
  H307     1.0000 0.57386  0.26625  0.99721  Biso   1.000  H
  H308     1.0000 0.49874  0.40373  0.77385  Biso   1.000  H
  H309     1.0000 0.71436  0.48114  0.91578  Biso   1.000  H
  H310     1.0000 0.09014  0.27885  0.50571  Biso   1.000  H
  H311     1.0000 0.98251  0.42164  0.73824  Biso   1.000  H
  H312     1.0000 0.22325  0.50749  0.60313  Biso   1.000  H
  H313     1.0000 0.23118  0.98835  0.91680  Biso   1.000  H
  H314     1.0000 0.89158  0.22450  0.99812  Biso   1.000  H
  H315     1.0000 0.98304  0.90798  0.23112  Biso   1.000  H
  H316     1.0000 0.72490  0.01229  0.57907  Biso   1.000  H
  H317     1.0000 0.41938  0.22939  0.50541  Biso   1.000  H
  H318     1.0000 0.49440  0.90811  0.26577  Biso   1.000  H
  H319     1.0000 0.26867  0.53605  0.92919  Biso   1.000  H
  H320     1.0000 0.59371  0.72799  0.02381  Biso   1.000  H
  H321     1.0000 0.50784  0.40460  0.22779  Biso   1.000  H
  H322     1.0000 0.76691  0.48706  0.58493  Biso   1.000  H
  H323     1.0000 0.08199  0.73002  0.51059  Biso   1.000  H
  H324     1.0000 0.99553  0.40933  0.28081  Biso   1.000  H
  H325     1.0000 0.76235  0.99866  0.07583  Biso   1.000  H
  H326     1.0000 0.09069  0.77726  0.00339  Biso   1.000  H
  H327     1.0000 0.00834  0.10151  0.77151  Biso   1.000  H
  H328     1.0000 0.26158  0.00933  0.41519  Biso   1.000  H
  H329     1.0000 0.58001  0.77173  0.50446  Biso   1.000  H
  H330     1.0000 0.49558  0.08436  0.73247  Biso   1.000  H
  H331     1.0000 0.72399  0.47605  0.08964  Biso   1.000  H
  H332     1.0000 0.39416  0.27156  0.99171  Biso   1.000  H
  H333     1.0000 0.48747  0.58651  0.78042  Biso   1.000  H
  H334     1.0000 0.23499  0.50701  0.42050  Biso   1.000  H
  H335     1.0000 0.90743  0.26819  0.50692  Biso   1.000  H
  H336     1.0000 0.00472  0.59916  0.72982  Biso   1.000  H
  H337     1.0000 0.99104  0.23767  0.91583  Biso   1.000  H
  H338     1.0000 0.89127  0.98751  0.22137  Biso   1.000  H
  H339     1.0000 0.22185  0.91631  0.02780  Biso   1.000  H
  H340     1.0000 0.50899  0.22251  0.59812  Biso   1.000  H
  H341     1.0000 0.39546  0.99448  0.27407  Biso   1.000  H
  H342     1.0000 0.72353  0.90455  0.49973  Biso   1.000  H
  H343     1.0000 0.49790  0.72957  0.91480  Biso   1.000  H
  H344     1.0000 0.59138  0.50787  0.23084  Biso   1.000  H
  H345     1.0000 0.26185  0.41814  0.99014  Biso   1.000  H
  H346     1.0000 0.00134  0.73630  0.59062  Biso   1.000  H
  H347     1.0000 0.09847  0.47490  0.28489  Biso   1.000  H
  H348     1.0000 0.77006  0.41016  0.49978  Biso   1.000  H
  H349     1.0000 0.00389  0.76922  0.09255  Biso   1.000  H
  H350     1.0000 0.09345  0.01840  0.77775  Biso   1.000  H
  H351     1.0000 0.76415  0.08136  0.97114  Biso   1.000  H
  H352     1.0000 0.51446  0.78483  0.41336  Biso   1.000  H
  H353     1.0000 0.59062  0.99388  0.72411  Biso   1.000  H
  H354     1.0000 0.27207  0.10123  0.51298  Biso   1.000  H
  H355     1.0000 0.48163  0.26627  0.08993  Biso   1.000  H
  H356     1.0000 0.39551  0.49731  0.78221  Biso   1.000  H
  H357     1.0000 0.72389  0.58068  0.99351  Biso   1.000  H
  H358     1.0000 0.99691  0.26836  0.41840  Biso   1.000  H
  H359     1.0000 0.89515  0.51300  0.73475  Biso   1.000  H
  H360     1.0000 0.23202  0.59600  0.50248  Biso   1.000  H
  H361     1.0000 0.98075  0.72655  0.41239  Biso   1.000  H
  H362     1.0000 0.41188  0.00327  0.73473  Biso   1.000  H
  H363     1.0000 0.71668  0.39796  0.99406  Biso   1.000  H
  H364     1.0000 0.50203  0.72722  0.09816  Biso   1.000  H
  H365     1.0000 0.91174  0.03265  0.76635  Biso   1.000  H
  H366     1.0000 0.22862  0.41606  0.51677  Biso   1.000  H
  H367     1.0000 0.50581  0.23224  0.41473  Biso   1.000  H
  H368     1.0000 0.08084  0.53178  0.73623  Biso   1.000  H
  H369     1.0000 0.76574  0.90604  0.99051  Biso   1.000  H
  H370     1.0000 0.96977  0.22408  0.09295  Biso   1.000  H
  H371     1.0000 0.58048  0.49403  0.77303  Biso   1.000  H
  H372     1.0000 0.26607  0.91751  0.48501  Biso   1.000  H
  H373     1.0000 0.99452  0.27955  0.59933  Biso   1.000  H
  H374     1.0000 0.57823  0.00213  0.26199  Biso   1.000  H
  H375     1.0000 0.26358  0.59688  0.02743  Biso   1.000  H
  H376     1.0000 0.49878  0.26799  0.91412  Biso   1.000  H
  H377     1.0000 0.07314  0.01645  0.23398  Biso   1.000  H
  H378     1.0000 0.76952  0.59003  0.49023  Biso   1.000  H
  H379     1.0000 0.48761  0.76409  0.58919  Biso   1.000  H
  H380     1.0000 0.91824  0.49664  0.27394  Biso   1.000  H
  H381     1.0000 0.22587  0.09802  0.99874  Biso   1.000  H
  H382     1.0000 0.00813  0.77802  0.90826  Biso   1.000  H
  H383     1.0000 0.41673  0.47768  0.23258  Biso   1.000  H
  H384     1.0000 0.72694  0.08456  0.49084  Biso   1.000  H
  H385     1.0000 0.23858  0.47309  0.34467  Biso   1.000  H
  H386     1.0000 0.28247  0.18052  0.47462  Biso   1.000  H
  H387     1.0000 0.46656  0.33340  0.23156  Biso   1.000  H
  H388     1.0000 0.67357  0.47623  0.23561  Biso   1.000  H
  H389     1.0000 0.80609  0.21195  0.02983  Biso   1.000  H
  H390     1.0000 0.95769  0.27616  0.33797  Biso   1.000  H
  H391     1.0000 0.26336  0.96886  0.33406  Biso   1.000  H
  H392     1.0000 0.17222  0.72950  0.47168  Biso   1.000  H
  H393     1.0000 0.96889  0.77312  0.17316  Biso   1.000  H
  H394     1.0000 0.76320  0.96141  0.16803  Biso   1.000  H
  H395     1.0000 0.73100  0.66608  0.02298  Biso   1.000  H
  H396     1.0000 0.53976  0.82427  0.27708  Biso   1.000  H
  H397     1.0000 0.76224  0.51577  0.67331  Biso   1.000  H
  H398     1.0000 0.71398  0.82513  0.53967  Biso   1.000  H
  H399     1.0000 0.52508  0.67118  0.78545  Biso   1.000  H
  H400     1.0000 0.31949  0.53981  0.78748  Biso   1.000  H
  H401     1.0000 0.22946  0.83415  0.99427  Biso   1.000  H
  H402     1.0000 0.03177  0.68247  0.72638  Biso   1.000  H
  H403     1.0000 0.72396  0.98054  0.66554  Biso   1.000  H
  H404     1.0000 0.76954  0.32337  0.53172  Biso   1.000  H
  H405     1.0000 0.95478  0.22908  0.83264  Biso   1.000  H
  H406     1.0000 0.23327  0.02779  0.83541  Biso   1.000  H
  H407     1.0000 0.26033  0.32870  0.96367  Biso   1.000  H
  H408     1.0000 0.46590  0.17242  0.71749  Biso   1.000  H
  H409     1.0000 0.28265  0.45531  0.18777  Biso   1.000  H
  H410     1.0000 0.17572  0.28415  0.48064  Biso   1.000  H
  H411     1.0000 0.46144  0.23099  0.33104  Biso   1.000  H
  H412     1.0000 0.83621  0.47469  0.26866  Biso   1.000  H
  H413     1.0000 0.65443  0.26136  0.97142  Biso   1.000  H
  H414     1.0000 0.94559  0.22766  0.18066  Biso   1.000  H
  H415     1.0000 0.15754  0.97415  0.23007  Biso   1.000  H
  H416     1.0000 0.31993  0.77660  0.46607  Biso   1.000  H
  H417     1.0000 0.97503  0.66753  0.26796  Biso   1.000  H
  H418     1.0000 0.71456  0.97431  0.31567  Biso   1.000  H
  H419     1.0000 0.82259  0.77162  0.02554  Biso   1.000  H
  H420     1.0000 0.46579  0.67635  0.22454  Biso   1.000  H
  H421     1.0000 0.72696  0.51168  0.82752  Biso   1.000  H
  H422     1.0000 0.76432  0.67154  0.53077  Biso   1.000  H
  H423     1.0000 0.52810  0.76739  0.67495  Biso   1.000  H
  H424     1.0000 0.16639  0.56309  0.72950  Biso   1.000  H
  H425     1.0000 0.31524  0.72120  0.97828  Biso   1.000  H
  H426     1.0000 0.04552  0.79021  0.82100  Biso   1.000  H
  H427     1.0000 0.76994  0.04628  0.81710  Biso   1.000  H
  H428     1.0000 0.72435  0.17414  0.52275  Biso   1.000  H
  H429     1.0000 0.01055  0.33383  0.73729  Biso   1.000  H
  H430     1.0000 0.32527  0.97017  0.72937  Biso   1.000  H
  H431     1.0000 0.15684  0.23456  0.98930  Biso   1.000  H
  H432     1.0000 0.46989  0.26510  0.82725  Biso   1.000  H
  H433     1.0000 0.28047  0.03928  0.68000  Biso   1.000  H
  H434     1.0000 0.70731  0.31965  0.02373  Biso   1.000  H
  H435     1.0000 0.01385  0.72740  0.33298  Biso   1.000  H
  H436     1.0000 0.83045  0.99166  0.75829  Biso   1.000  H
  H437     1.0000 0.22678  0.32764  0.54966  Biso   1.000  H
  H438     1.0000 0.54524  0.71731  0.18507  Biso   1.000  H
  H439     1.0000 0.20920  0.48424  0.69251  Biso   1.000  H
  H440     1.0000 0.77184  0.81812  0.96125  Biso   1.000  H
  H441     1.0000 0.52861  0.17837  0.28003  Biso   1.000  H
  H442     1.0000 0.65964  0.46344  0.77519  Biso   1.000  H
  H443     1.0000 0.26816  0.83446  0.52687  Biso   1.000  H
  H444     1.0000 0.00852  0.17416  0.22616  Biso   1.000  H
  H445     1.0000 0.66033  0.03621  0.26916  Biso   1.000  H
  H446     1.0000 0.28356  0.68724  0.06268  Biso   1.000  H
  H447     1.0000 0.94666  0.28767  0.68038  Biso   1.000  H
  H448     1.0000 0.20857  0.03876  0.18268  Biso   1.000  H
  H449     1.0000 0.82268  0.73127  0.47987  Biso   1.000  H
  H450     1.0000 0.52675  0.32452  0.77454  Biso   1.000  H
  H451     1.0000 0.77780  0.52166  0.32645  Biso   1.000  H
  H452     1.0000 0.22106  0.18212  0.03599  Biso   1.000  H
  H453     1.0000 0.46528  0.82069  0.72546  Biso   1.000  H
  H454     1.0000 0.33697  0.51426  0.23777  Biso   1.000  H
  H455     1.0000 0.68461  0.21791  0.44738  Biso   1.000  H
  H456     1.0000 0.97161  0.83673  0.77833  Biso   1.000  H
  H457     1.0000 0.66656  0.76561  0.47771  Biso   1.000  H
  H458     1.0000 0.46234  0.72567  0.82944  Biso   1.000  H
  H459     1.0000 0.81963  0.45922  0.71907  Biso   1.000  H
  H460     1.0000 0.16970  0.77931  0.03854  Biso   1.000  H
  H461     1.0000 0.97622  0.73444  0.67023  Biso   1.000  H
  H462     1.0000 0.25292  0.50250  0.84439  Biso   1.000  H
  H463     1.0000 0.82841  0.28274  0.46844  Biso   1.000  H
  H464     1.0000 0.02155  0.18994  0.77715  Biso   1.000  H
  H465     1.0000 0.66953  0.04482  0.71378  Biso   1.000  H
  H466     1.0000 0.31293  0.28921  0.03060  Biso   1.000  H
  H467     1.0000 0.54074  0.21612  0.68130  Biso   1.000  H
  H468     1.0000 0.17190  0.98819  0.77208  Biso   1.000  H
  H469     1.0000 0.32767  0.23189  0.54514  Biso   1.000  H
  H470     1.0000 0.51767  0.27392  0.17425  Biso   1.000  H
  H471     1.0000 0.18355  0.52497  0.28282  Biso   1.000  H
  H472     1.0000 0.76333  0.17436  0.95074  Biso   1.000  H
  H473     1.0000 0.01851  0.32200  0.28078  Biso   1.000  H
  H474     1.0000 0.73270  0.51220  0.17167  Biso   1.000  H
  H475     1.0000 0.22118  0.68186  0.53917  Biso   1.000  H
  H476     1.0000 0.02194  0.82712  0.22482  Biso   1.000  H
  H477     1.0000 0.31085  0.03072  0.27953  Biso   1.000  H
  H478     1.0000 0.66894  0.71886  0.97240  Biso   1.000  H
  H479     1.0000 0.47479  0.78034  0.32788  Biso   1.000  H
  H480     1.0000 0.81046  0.03424  0.20808  Biso   1.000  H
  N1       1.0000 0.67868  0.17403  0.48272  Biso   1.000  N
  N2       1.0000 0.50605  0.67309  0.18114  Biso   1.000  N
  N3       1.0000 0.16783  0.52217  0.68632  Biso   1.000  N
  N4       1.0000 0.16621  0.18107  0.01222  Biso   1.000  N
  N5       1.0000 0.99556  0.67489  0.32685  Biso   1.000  N
  N6       1.0000 0.66852  0.49074  0.82527  Biso   1.000  N
  N7       1.0000 0.81815  0.67664  0.50607  Biso   1.000  N
  N8       1.0000 0.97133  0.17601  0.18106  Biso   1.000  N
  N9       1.0000 0.32488  0.00258  0.68233  Biso   1.000  N
  N10      1.0000 0.32085  0.67829  0.01913  Biso   1.000  N
  N11      1.0000 0.49298  0.18011  0.32906  Biso   1.000  N
  N12      1.0000 0.82260  0.01702  0.81261  Biso   1.000  N
  N13      1.0000 0.31665  0.82924  0.49419  Biso   1.000  N
  N14      1.0000 0.49604  0.31947  0.82601  Biso   1.000  N
  N15      1.0000 0.82933  0.49544  0.32380  Biso   1.000  N
  N16      1.0000 0.82035  0.81939  0.99355  Biso   1.000  N
  N17      1.0000 0.98416  0.33293  0.68568  Biso   1.000  N
  N18      1.0000 0.32867  0.48339  0.18623  Biso   1.000  N
  N19      1.0000 0.17590  0.32847  0.51756  Biso   1.000  N
  N20      1.0000 0.00603  0.83540  0.82436  Biso   1.000  N
  N21      1.0000 0.66476  0.00399  0.31576  Biso   1.000  N
  N22      1.0000 0.65753  0.31665  0.99788  Biso   1.000  N
  N23      1.0000 0.49687  0.81749  0.67601  Biso   1.000  N
  N24      1.0000 0.16029  0.00768  0.18225  Biso   1.000  N
  N25      1.0000 0.81289  0.49577  0.67676  Biso   1.000  N
  N26      1.0000 0.66883  0.81988  0.50031  Biso   1.000  N
  N27      1.0000 0.49512  0.67483  0.83141  Biso   1.000  N
  N28      1.0000 0.31178  0.51696  0.83756  Biso   1.000  N
  N29      1.0000 0.17542  0.82938  0.01055  Biso   1.000  N
  N30      1.0000 0.00335  0.68475  0.67642  Biso   1.000  N
  N31      1.0000 0.67300  0.00588  0.66655  Biso   1.000  N
  N32      1.0000 0.82302  0.32419  0.50524  Biso   1.000  N
  N33      1.0000 0.99356  0.18513  0.82793  Biso   1.000  N
  N34      1.0000 0.17834  0.00491  0.83077  Biso   1.000  N
  N35      1.0000 0.30991  0.33045  0.99559  Biso   1.000  N
  N36      1.0000 0.50768  0.16665  0.67768  Biso   1.000  N
  N37      1.0000 0.18352  0.49619  0.33580  Biso   1.000  N
  N38      1.0000 0.32787  0.18298  0.50849  Biso   1.000  N
  N39      1.0000 0.49105  0.32078  0.17546  Biso   1.000  N
  N40      1.0000 0.67930  0.49273  0.17968  Biso   1.000  N
  N41      1.0000 0.80904  0.17035  0.98574  Biso   1.000  N
  N42      1.0000 0.99360  0.32121  0.33388  Biso   1.000  N
  N43      1.0000 0.31313  0.00003  0.32857  Biso   1.000  N
  N44      1.0000 0.17441  0.68179  0.50516  Biso   1.000  N
  N45      1.0000 0.99323  0.82178  0.17776  Biso   1.000  N
  N46      1.0000 0.80907  0.99376  0.16429  Biso   1.000  N
  N47      1.0000 0.67572  0.67030  0.00049  Biso   1.000  N
  N48      1.0000 0.50384  0.82748  0.32470  Biso   1.000  N
  O1       1.0000 0.33430  0.54486  0.02360  Biso   1.000  O
  O2       1.0000 0.99997  0.34651  0.54990  Biso   1.000  O
  O3       1.0000 0.53102  0.00597  0.33859  Biso   1.000  O
  O4       1.0000 0.84274  0.54047  0.49732  Biso   1.000  O
  O5       1.0000 0.49225  0.34084  0.95968  Biso   1.000  O
  O6       1.0000 0.02530  0.00751  0.16018  Biso   1.000  O
  O7       1.0000 0.15313  0.04661  0.99849  Biso   1.000  O
  O8       1.0000 0.49217  0.83870  0.54631  Biso   1.000  O
  O9       1.0000 0.96288  0.49627  0.35277  Biso   1.000  O
  O10      1.0000 0.65471  0.04021  0.49310  Biso   1.000  O
  O11      1.0000 0.99580  0.84805  0.96009  Biso   1.000  O
  O12      1.0000 0.46046  0.49241  0.15875  Biso   1.000  O
  O13      1.0000 0.64429  0.45004  0.00721  Biso   1.000  O
  O14      1.0000 0.99220  0.65746  0.46179  Biso   1.000  O
  O15      1.0000 0.45476  0.98165  0.65965  Biso   1.000  O
  O16      1.0000 0.15891  0.46463  0.51104  Biso   1.000  O
  O17      1.0000 0.49576  0.65546  0.04910  Biso   1.000  O
  O18      1.0000 0.95661  0.01479  0.84101  Biso   1.000  O
  O19      1.0000 0.83906  0.95342  0.99048  Biso   1.000  O
  O20      1.0000 0.50063  0.15983  0.46143  Biso   1.000  O
  O21      1.0000 0.03115  0.50738  0.66335  Biso   1.000  O
  O22      1.0000 0.33629  0.96395  0.49872  Biso   1.000  O
  O23      1.0000 0.98346  0.15174  0.04587  Biso   1.000  O
  O24      1.0000 0.53320  0.49589  0.84803  Biso   1.000  O
  O25      1.0000 0.94444  0.98982  0.15518  Biso   1.000  O
  O26      1.0000 0.15263  0.96242  0.00653  Biso   1.000  O
  O27      1.0000 0.98978  0.16083  0.96153  Biso   1.000  O
  O28      1.0000 0.44845  0.00113  0.34131  Biso   1.000  O
  O29      1.0000 0.65494  0.95400  0.49292  Biso   1.000  O
  O30      1.0000 0.50900  0.15518  0.54342  Biso   1.000  O
  O31      1.0000 0.54490  0.49989  0.15878  Biso   1.000  O
  O32      1.0000 0.33486  0.46412  0.99637  Biso   1.000  O
  O33      1.0000 0.50353  0.65801  0.96634  Biso   1.000  O
  O34      1.0000 0.04706  0.49743  0.34886  Biso   1.000  O
  O35      1.0000 0.84470  0.45582  0.50156  Biso   1.000  O
  O36      1.0000 0.00265  0.66205  0.54258  Biso   1.000  O
  O37      1.0000 0.03970  0.00642  0.84642  Biso   1.000  O
  O38      1.0000 0.83748  0.03968  0.98689  Biso   1.000  O
  O39      1.0000 0.99333  0.84093  0.04101  Biso   1.000  O
  O40      1.0000 0.53834  0.99796  0.65306  Biso   1.000  O
  O41      1.0000 0.34236  0.04565  0.50979  Biso   1.000  O
  O42      1.0000 0.49747  0.84933  0.46321  Biso   1.000  O
  O43      1.0000 0.44823  0.49747  0.84827  Biso   1.000  O
  O44      1.0000 0.64889  0.53402  0.99939  Biso   1.000  O
  O45      1.0000 0.47144  0.34037  0.04245  Biso   1.000  O
  O46      1.0000 0.94742  0.51093  0.66182  Biso   1.000  O
  O47      1.0000 0.16134  0.54888  0.51582  Biso   1.000  O
  O48      1.0000 0.99969  0.33981  0.46596  Biso   1.000  O
  O49      1.0000 0.98955  0.95556  0.15907  Biso   1.000  O
  O50      1.0000 0.15595  0.99803  0.96127  Biso   1.000  O
  O51      1.0000 0.94441  0.15429  0.99888  Biso   1.000  O
  O52      1.0000 0.49287  0.96263  0.33821  Biso   1.000  O
  O53      1.0000 0.65452  0.99886  0.53230  Biso   1.000  O
  O54      1.0000 0.46241  0.15737  0.50399  Biso   1.000  O
  O55      1.0000 0.50639  0.45385  0.15768  Biso   1.000  O
  O56      1.0000 0.34075  0.51759  0.97114  Biso   1.000  O
  O57      1.0000 0.54145  0.65912  0.00535  Biso   1.000  O
  O58      1.0000 0.00935  0.45778  0.35256  Biso   1.000  O
  O59      1.0000 0.84129  0.50090  0.54180  Biso   1.000  O
  O60      1.0000 0.04002  0.65745  0.49625  Biso   1.000  O
  O61      1.0000 0.00621  0.05435  0.84362  Biso   1.000  O
  O62      1.0000 0.83595  0.99910  0.02792  Biso   1.000  O
  O63      1.0000 0.03918  0.84849  0.00385  Biso   1.000  O
  O64      1.0000 0.49147  0.03338  0.65944  Biso   1.000  O
  O65      1.0000 0.33645  0.01080  0.46347  Biso   1.000  O
  O66      1.0000 0.53520  0.84318  0.50354  Biso   1.000  O
  O67      1.0000 0.49024  0.53920  0.85208  Biso   1.000  O
  O68      1.0000 0.65387  0.49455  0.04361  Biso   1.000  O
  O69      1.0000 0.44474  0.34102  0.99384  Biso   1.000  O
  O70      1.0000 0.98924  0.55003  0.66098  Biso   1.000  O
  O71      1.0000 0.15855  0.50893  0.46976  Biso   1.000  O
  O72      1.0000 0.95789  0.33860  0.50948  Biso   1.000  O
  O73      1.0000 0.98813  0.46781  0.66394  Biso   1.000  O
  O74      1.0000 0.64927  0.99093  0.44989  Biso   1.000  O
  O75      1.0000 0.45690  0.65540  0.00186  Biso   1.000  O
  O76      1.0000 0.49104  0.45622  0.84293  Biso   1.000  O
  O77      1.0000 0.14893  0.00849  0.04451  Biso   1.000  O
  O78      1.0000 0.95510  0.66211  0.50640  Biso   1.000  O
  O79      1.0000 0.50551  0.94950  0.65555  Biso   1.000  O
  O80      1.0000 0.84380  0.49257  0.46076  Biso   1.000  O
  O81      1.0000 0.03159  0.15613  0.00359  Biso   1.000  O
  O82      1.0000 0.99414  0.97141  0.84275  Biso   1.000  O
  O83      1.0000 0.33579  0.48918  0.04918  Biso   1.000  O
  O84      1.0000 0.54716  0.15924  0.49786  Biso   1.000  O
  O85      1.0000 0.00919  0.54030  0.34729  Biso   1.000  O
  O86      1.0000 0.34349  0.99954  0.54617  Biso   1.000  O
  O87      1.0000 0.52478  0.34332  0.01392  Biso   1.000  O
  O88      1.0000 0.49774  0.53740  0.16327  Biso   1.000  O
  O89      1.0000 0.83866  0.99195  0.94434  Biso   1.000  O
  O90      1.0000 0.04276  0.34899  0.50630  Biso   1.000  O
  O91      1.0000 0.48594  0.04519  0.34232  Biso   1.000  O
  O92      1.0000 0.15288  0.50383  0.55356  Biso   1.000  O
  O93      1.0000 0.95386  0.84252  0.99879  Biso   1.000  O
  O94      1.0000 0.97721  0.04012  0.16187  Biso   1.000  O
  O95      1.0000 0.64357  0.49233  0.96112  Biso   1.000  O
  O96      1.0000 0.45148  0.84502  0.50768  Biso   1.000  O
  O97      1.0000 0.46423  0.20508  0.51094  Biso   1.000  O
  O98      1.0000 0.50645  0.45157  0.20651  Biso   1.000  O
  O99      1.0000 0.20629  0.50647  0.47009  Biso   1.000  O
  O100     1.0000 0.94373  0.20254  0.00447  Biso   1.000  O
  O101     1.0000 0.00846  0.45366  0.30395  Biso   1.000  O
  O102     1.0000 0.70064  0.49117  0.04138  Biso   1.000  O
  O103     1.0000 0.03933  0.70618  0.49764  Biso   1.000  O
  O104     1.0000 0.98905  0.95590  0.20815  Biso   1.000  O
  O105     1.0000 0.28852  0.00602  0.46410  Biso   1.000  O
  O106     1.0000 0.54229  0.70679  0.00887  Biso   1.000  O
  O107     1.0000 0.49468  0.96264  0.28908  Biso   1.000  O
  O108     1.0000 0.78646  0.99372  0.02903  Biso   1.000  O
  O109     1.0000 0.53383  0.79440  0.50146  Biso   1.000  O
  O110     1.0000 0.48925  0.53946  0.80283  Biso   1.000  O
  O111     1.0000 0.79356  0.49671  0.54009  Biso   1.000  O
  O112     1.0000 0.04327  0.80027  0.00019  Biso   1.000  O
  O113     1.0000 0.99045  0.55351  0.70950  Biso   1.000  O
  O114     1.0000 0.29196  0.51783  0.97337  Biso   1.000  O
  O115     1.0000 0.95784  0.29114  0.50383  Biso   1.000  O
  O116     1.0000 0.00205  0.05050  0.79435  Biso   1.000  O
  O117     1.0000 0.70251  0.00289  0.53159  Biso   1.000  O
  O118     1.0000 0.44382  0.29333  0.99207  Biso   1.000  O
  O119     1.0000 0.49963  0.03241  0.70696  Biso   1.000  O
  O120     1.0000 0.20473  0.99542  0.96628  Biso   1.000  O
  O121     1.0000 0.03272  0.50777  0.71124  Biso   1.000  O
  O122     1.0000 0.70446  0.04007  0.48682  Biso   1.000  O
  O123     1.0000 0.49855  0.70402  0.04819  Biso   1.000  O
  O124     1.0000 0.53098  0.49634  0.80100  Biso   1.000  O
  O125     1.0000 0.20202  0.04576  0.00425  Biso   1.000  O
  O126     1.0000 0.99232  0.70652  0.46024  Biso   1.000  O
  O127     1.0000 0.45989  0.98830  0.70737  Biso   1.000  O
  O128     1.0000 0.79379  0.54189  0.50117  Biso   1.000  O
  O129     1.0000 0.98381  0.20053  0.04631  Biso   1.000  O
  O130     1.0000 0.96012  0.01411  0.79084  Biso   1.000  O
  O131     1.0000 0.28482  0.54732  0.02129  Biso   1.000  O
  O132     1.0000 0.49681  0.20799  0.46162  Biso   1.000  O
  O133     1.0000 0.96658  0.50010  0.30312  Biso   1.000  O
  O134     1.0000 0.28873  0.96512  0.50670  Biso   1.000  O
  O135     1.0000 0.48992  0.29249  0.96360  Biso   1.000  O
  O136     1.0000 0.46244  0.48809  0.20721  Biso   1.000  O
  O137     1.0000 0.79072  0.95250  0.99255  Biso   1.000  O
  O138     1.0000 0.99665  0.29903  0.55227  Biso   1.000  O
  O139     1.0000 0.52977  0.00464  0.29084  Biso   1.000  O
  O140     1.0000 0.20871  0.46348  0.51187  Biso   1.000  O
  O141     1.0000 0.00976  0.80110  0.95618  Biso   1.000  O
  O142     1.0000 0.02356  0.00651  0.20828  Biso   1.000  O
  O143     1.0000 0.69337  0.44947  0.00037  Biso   1.000  O
  O144     1.0000 0.48946  0.79102  0.53867  Biso   1.000  O
  O145     1.0000 0.54500  0.50168  0.20735  Biso   1.000  O
  O146     1.0000 0.21054  0.54801  0.51201  Biso   1.000  O
  O147     1.0000 0.51123  0.20367  0.54742  Biso   1.000  O
  O148     1.0000 0.05191  0.49133  0.30212  Biso   1.000  O
  O149     1.0000 0.69647  0.53248  0.99781  Biso   1.000  O
  O150     1.0000 0.98809  0.20861  0.96286  Biso   1.000  O
  O151     1.0000 0.94208  0.98858  0.20211  Biso   1.000  O
  O152     1.0000 0.29475  0.04912  0.50422  Biso   1.000  O
  O153     1.0000 0.00342  0.70943  0.54193  Biso   1.000  O
  O154     1.0000 0.44660  0.00296  0.29279  Biso   1.000  O
  O155     1.0000 0.78832  0.03634  0.98404  Biso   1.000  O
  O156     1.0000 0.49929  0.70712  0.96515  Biso   1.000  O
  O157     1.0000 0.44493  0.49923  0.79930  Biso   1.000  O
  O158     1.0000 0.79594  0.45945  0.49694  Biso   1.000  O
  O159     1.0000 0.49557  0.80151  0.45718  Biso   1.000  O
  O160     1.0000 0.94762  0.51348  0.71131  Biso   1.000  O
  O161     1.0000 0.28599  0.46382  0.00156  Biso   1.000  O
  O162     1.0000 0.99611  0.79309  0.04063  Biso   1.000  O
  O163     1.0000 0.04291  0.00639  0.79816  Biso   1.000  O
  O164     1.0000 0.70248  0.95510  0.48739  Biso   1.000  O
  O165     1.0000 0.00792  0.29204  0.46809  Biso   1.000  O
  O166     1.0000 0.54230  0.99138  0.70368  Biso   1.000  O
  O167     1.0000 0.20075  0.96476  0.01433  Biso   1.000  O
  O168     1.0000 0.47311  0.29256  0.04275  Biso   1.000  O
  O169     1.0000 0.97610  0.04095  0.21081  Biso   1.000  O
  O170     1.0000 0.19726  0.00884  0.04929  Biso   1.000  O
  O171     1.0000 0.02736  0.20421  0.01003  Biso   1.000  O
  O172     1.0000 0.48284  0.04539  0.29479  Biso   1.000  O
  O173     1.0000 0.69764  0.99819  0.44763  Biso   1.000  O
  O174     1.0000 0.54675  0.20865  0.49782  Biso   1.000  O
  O175     1.0000 0.49506  0.53660  0.21104  Biso   1.000  O
  O176     1.0000 0.28904  0.49393  0.05223  Biso   1.000  O
  O177     1.0000 0.45646  0.70387  0.00678  Biso   1.000  O
  O178     1.0000 0.01479  0.53802  0.29969  Biso   1.000  O
  O179     1.0000 0.79470  0.49893  0.45616  Biso   1.000  O
  O180     1.0000 0.95294  0.71089  0.50655  Biso   1.000  O
  O181     1.0000 0.99911  0.96815  0.79477  Biso   1.000  O
  O182     1.0000 0.79044  0.99123  0.94525  Biso   1.000  O
  O183     1.0000 0.95789  0.79499  0.99345  Biso   1.000  O
  O184     1.0000 0.50246  0.95008  0.70427  Biso   1.000  O
  O185     1.0000 0.29573  0.01064  0.54997  Biso   1.000  O
  O186     1.0000 0.45167  0.79794  0.49698  Biso   1.000  O
  O187     1.0000 0.48663  0.45377  0.79463  Biso   1.000  O
  O188     1.0000 0.69164  0.48552  0.95935  Biso   1.000  O
  O189     1.0000 0.52333  0.29423  0.01155  Biso   1.000  O
  O190     1.0000 0.98513  0.46955  0.71186  Biso   1.000  O
  O191     1.0000 0.20291  0.50792  0.55398  Biso   1.000  O
  O192     1.0000 0.04247  0.30021  0.51285  Biso   1.000  O
