data_image0
_cell_length_a       46.5981
_cell_length_b       47.2046
_cell_length_c       46.5523
_cell_angle_alpha    90
_cell_angle_beta     90
_cell_angle_gamma    90

_symmetry_space_group_name_H-M    "P 1"
_symmetry_int_tables_number       1

loop_
  _symmetry_equiv_pos_as_xyz
  'x, y, z'

loop_
  _atom_site_label
  _atom_site_occupancy
  _atom_site_fract_x
  _atom_site_fract_y
  _atom_site_fract_z
  _atom_site_thermal_displace_type
  _atom_site_B_iso_or_equiv
  _atom_site_type_symbol
  C1       1.0000 0.56010  0.96900  0.34993  Biso   1.000  C
  C2       1.0000 0.32663  0.53719  0.03809  Biso   1.000  C
  C3       1.0000 0.99613  0.29570  0.57815  Biso   1.000  C
  C4       1.0000 0.05696  0.97529  0.20835  Biso   1.000  C
  C5       1.0000 0.83846  0.53610  0.52410  Biso   1.000  C
  C6       1.0000 0.48917  0.29226  0.97278  Biso   1.000  C
  C7       1.0000 0.96905  0.48257  0.35305  Biso   1.000  C
  C8       1.0000 0.17974  0.03098  0.03275  Biso   1.000  C
  C9       1.0000 0.51851  0.78931  0.59045  Biso   1.000  C
  C10      1.0000 0.46834  0.47319  0.21224  Biso   1.000  C
  C11      1.0000 0.69269  0.03160  0.53860  Biso   1.000  C
  C12      1.0000 0.02499  0.79525  0.98715  Biso   1.000  C
  C13      1.0000 0.45570  0.98217  0.70860  Biso   1.000  C
  C14      1.0000 0.68556  0.41115  0.02457  Biso   1.000  C
  C15      1.0000 0.01150  0.65280  0.48817  Biso   1.000  C
  C16      1.0000 0.95530  0.95880  0.85095  Biso   1.000  C
  C17      1.0000 0.18422  0.41783  0.54059  Biso   1.000  C
  C18      1.0000 0.52292  0.65351  0.08980  Biso   1.000  C
  C19      1.0000 0.05229  0.46796  0.71278  Biso   1.000  C
  C20      1.0000 0.82911  0.91011  0.02512  Biso   1.000  C
  C21      1.0000 0.51160  0.15188  0.47040  Biso   1.000  C
  C22      1.0000 0.55468  0.48370  0.85288  Biso   1.000  C
  C23      1.0000 0.32918  0.92190  0.52777  Biso   1.000  C
  C24      1.0000 0.98784  0.15254  0.08107  Biso   1.000  C
  C25      1.0000 0.32518  0.02929  0.53372  Biso   1.000  C
  C26      1.0000 0.50110  0.29385  0.08274  Biso   1.000  C
  C27      1.0000 0.08076  0.47779  0.35516  Biso   1.000  C
  C28      1.0000 0.81978  0.01605  0.02676  Biso   1.000  C
  C29      1.0000 0.01175  0.29121  0.47164  Biso   1.000  C
  C30      1.0000 0.57394  0.48191  0.21257  Biso   1.000  C
  C31      1.0000 0.19874  0.52702  0.54468  Biso   1.000  C
  C32      1.0000 0.01761  0.79285  0.09610  Biso   1.000  C
  C33      1.0000 0.44804  0.96996  0.34819  Biso   1.000  C
  C34      1.0000 0.69346  0.51831  0.02462  Biso   1.000  C
  C35      1.0000 0.51767  0.79065  0.48074  Biso   1.000  C
  C36      1.0000 0.94925  0.97242  0.21226  Biso   1.000  C
  C37      1.0000 0.69646  0.92427  0.51780  Biso   1.000  C
  C38      1.0000 0.51403  0.65533  0.97981  Biso   1.000  C
  C39      1.0000 0.94671  0.47405  0.71583  Biso   1.000  C
  C40      1.0000 0.19144  0.92557  0.03062  Biso   1.000  C
  C41      1.0000 0.02685  0.65167  0.59780  Biso   1.000  C
  C42      1.0000 0.44560  0.46325  0.85553  Biso   1.000  C
  C43      1.0000 0.82489  0.42858  0.52409  Biso   1.000  C
  C44      1.0000 0.99417  0.15270  0.97353  Biso   1.000  C
  C45      1.0000 0.56416  0.96910  0.70790  Biso   1.000  C
  C46      1.0000 0.32166  0.42868  0.04198  Biso   1.000  C
  C47      1.0000 0.49716  0.15355  0.57888  Biso   1.000  C
  C48      1.0000 0.06446  0.97918  0.84873  Biso   1.000  C
  C49      1.0000 0.00277  0.02448  0.85111  Biso   1.000  C
  C50      1.0000 0.81868  0.96456  0.08339  Biso   1.000  C
  C51      1.0000 0.07390  0.79758  0.05027  Biso   1.000  C
  C52      1.0000 0.51868  0.03094  0.70784  Biso   1.000  C
  C53      1.0000 0.32884  0.97701  0.47564  Biso   1.000  C
  C54      1.0000 0.57373  0.79368  0.53273  Biso   1.000  C
  C55      1.0000 0.48706  0.52441  0.86052  Biso   1.000  C
  C56      1.0000 0.68997  0.46474  0.08079  Biso   1.000  C
  C57      1.0000 0.43945  0.29338  0.03307  Biso   1.000  C
  C58      1.0000 0.00462  0.52455  0.71900  Biso   1.000  C
  C59      1.0000 0.20121  0.47407  0.49093  Biso   1.000  C
  C60      1.0000 0.94807  0.29686  0.52286  Biso   1.000  C
  C61      1.0000 0.00195  0.92226  0.21617  Biso   1.000  C
  C62      1.0000 0.18946  0.98401  0.97584  Biso   1.000  C
  C63      1.0000 0.93815  0.15160  0.02313  Biso   1.000  C
  C64      1.0000 0.50304  0.91684  0.35295  Biso   1.000  C
  C65      1.0000 0.69393  0.96792  0.58120  Biso   1.000  C
  C66      1.0000 0.44882  0.15721  0.51741  Biso   1.000  C
  C67      1.0000 0.53169  0.42088  0.21080  Biso   1.000  C
  C68      1.0000 0.32413  0.48251  0.98792  Biso   1.000  C
  C69      1.0000 0.57405  0.64967  0.03652  Biso   1.000  C
  C70      1.0000 0.02321  0.42202  0.35280  Biso   1.000  C
  C71      1.0000 0.82635  0.48158  0.57926  Biso   1.000  C
  C72      1.0000 0.07460  0.65516  0.53574  Biso   1.000  C
  C73      1.0000 0.02561  0.53281  0.35677  Biso   1.000  C
  C74      1.0000 0.32622  0.97609  0.58360  Biso   1.000  C
  C75      1.0000 0.54783  0.29050  0.02323  Biso   1.000  C
  C76      1.0000 0.51223  0.52912  0.21445  Biso   1.000  C
  C77      1.0000 0.82732  0.96340  0.97423  Biso   1.000  C
  C78      1.0000 0.05765  0.29215  0.52939  Biso   1.000  C
  C79      1.0000 0.50534  0.02554  0.34548  Biso   1.000  C
  C80      1.0000 0.18597  0.47225  0.59658  Biso   1.000  C
  C81      1.0000 0.96633  0.79415  0.03665  Biso   1.000  C
  C82      1.0000 0.00246  0.02858  0.20857  Biso   1.000  C
  C83      1.0000 0.68910  0.46528  0.97126  Biso   1.000  C
  C84      1.0000 0.46472  0.80148  0.53687  Biso   1.000  C
  C85      1.0000 0.99566  0.41641  0.71088  Biso   1.000  C
  C86      1.0000 0.69389  0.98779  0.47361  Biso   1.000  C
  C87      1.0000 0.46563  0.65613  0.04052  Biso   1.000  C
  C88      1.0000 0.51132  0.42041  0.85063  Biso   1.000  C
  C89      1.0000 0.18286  0.97539  0.08312  Biso   1.000  C
  C90      1.0000 0.96595  0.65904  0.54226  Biso   1.000  C
  C91      1.0000 0.50628  0.92259  0.70840  Biso   1.000  C
  C92      1.0000 0.83612  0.48219  0.47043  Biso   1.000  C
  C93      1.0000 0.04819  0.15343  0.02967  Biso   1.000  C
  C94      1.0000 0.01779  0.91369  0.84992  Biso   1.000  C
  C95      1.0000 0.33047  0.48171  0.09469  Biso   1.000  C
  C96      1.0000 0.55781  0.14915  0.53074  Biso   1.000  C
  C97      1.0000 0.68992  0.06309  0.53787  Biso   1.000  C
  C98      1.0000 0.52151  0.65381  0.12153  Biso   1.000  C
  C99      1.0000 0.08417  0.46455  0.71363  Biso   1.000  C
  C100     1.0000 0.17842  0.06232  0.03851  Biso   1.000  C
  C101     1.0000 0.00755  0.65304  0.45614  Biso   1.000  C
  C102     1.0000 0.58767  0.48557  0.85090  Biso   1.000  C
  C103     1.0000 0.83885  0.56789  0.52396  Biso   1.000  C
  C104     1.0000 0.98647  0.15468  0.11381  Biso   1.000  C
  C105     1.0000 0.42391  0.98803  0.70975  Biso   1.000  C
  C106     1.0000 0.33055  0.56931  0.03555  Biso   1.000  C
  C107     1.0000 0.51824  0.15073  0.43938  Biso   1.000  C
  C108     1.0000 0.92441  0.95228  0.85298  Biso   1.000  C
  C109     1.0000 0.33181  0.88953  0.52916  Biso   1.000  C
  C110     1.0000 0.49115  0.29361  0.93918  Biso   1.000  C
  C111     1.0000 0.93616  0.48548  0.35023  Biso   1.000  C
  C112     1.0000 0.83067  0.87827  0.02453  Biso   1.000  C
  C113     1.0000 0.99151  0.29456  0.60891  Biso   1.000  C
  C114     1.0000 0.43617  0.47466  0.21440  Biso   1.000  C
  C115     1.0000 0.18271  0.38580  0.53855  Biso   1.000  C
  C116     1.0000 0.02714  0.79256  0.95521  Biso   1.000  C
  C117     1.0000 0.59308  0.96686  0.35094  Biso   1.000  C
  C118     1.0000 0.68105  0.37900  0.01968  Biso   1.000  C
  C119     1.0000 0.51531  0.78948  0.62228  Biso   1.000  C
  C120     1.0000 0.08956  0.97213  0.21019  Biso   1.000  C
  C121     1.0000 0.82006  0.96546  0.11502  Biso   1.000  C
  C122     1.0000 0.10441  0.79796  0.05766  Biso   1.000  C
  C123     1.0000 0.99450  0.05449  0.84986  Biso   1.000  C
  C124     1.0000 0.32692  0.97854  0.44326  Biso   1.000  C
  C125     1.0000 0.60660  0.79405  0.53129  Biso   1.000  C
  C126     1.0000 0.52348  0.06351  0.70600  Biso   1.000  C
  C127     1.0000 0.69223  0.46837  0.11288  Biso   1.000  C
  C128     1.0000 0.40657  0.29384  0.03665  Biso   1.000  C
  C129     1.0000 0.48403  0.55555  0.85857  Biso   1.000  C
  C130     1.0000 0.20294  0.47305  0.45817  Biso   1.000  C
  C131     1.0000 0.91643  0.29875  0.52601  Biso   1.000  C
  C132     1.0000 0.00382  0.55632  0.72176  Biso   1.000  C
  C133     1.0000 0.19189  0.98754  0.94396  Biso   1.000  C
  C134     1.0000 0.90613  0.15061  0.02345  Biso   1.000  C
  C135     1.0000 0.00001  0.88998  0.21730  Biso   1.000  C
  C136     1.0000 0.69328  0.95995  0.61276  Biso   1.000  C
  C137     1.0000 0.41708  0.15593  0.51293  Biso   1.000  C
  C138     1.0000 0.50503  0.88532  0.35319  Biso   1.000  C
  C139     1.0000 0.32209  0.47903  0.95519  Biso   1.000  C
  C140     1.0000 0.60643  0.64775  0.03726  Biso   1.000  C
  C141     1.0000 0.53291  0.38849  0.20934  Biso   1.000  C
  C142     1.0000 0.82416  0.47609  0.61103  Biso   1.000  C
  C143     1.0000 0.10672  0.65315  0.53296  Biso   1.000  C
  C144     1.0000 0.02361  0.38982  0.34985  Biso   1.000  C
  C145     1.0000 0.33134  0.48195  0.12779  Biso   1.000  C
  C146     1.0000 0.08888  0.29210  0.52297  Biso   1.000  C
  C147     1.0000 0.50809  0.05717  0.34506  Biso   1.000  C
  C148     1.0000 0.83668  0.47973  0.43762  Biso   1.000  C
  C149     1.0000 0.57799  0.29010  0.02021  Biso   1.000  C
  C150     1.0000 0.99941  0.06040  0.20742  Biso   1.000  C
  C151     1.0000 0.18253  0.97486  0.11521  Biso   1.000  C
  C152     1.0000 0.43247  0.80151  0.54182  Biso   1.000  C
  C153     1.0000 0.02307  0.56588  0.35524  Biso   1.000  C
  C154     1.0000 0.69359  0.98583  0.44067  Biso   1.000  C
  C155     1.0000 0.93391  0.79173  0.03554  Biso   1.000  C
  C156     1.0000 0.51111  0.56170  0.21602  Biso   1.000  C
  C157     1.0000 0.68677  0.46544  0.94033  Biso   1.000  C
  C158     1.0000 0.93443  0.66067  0.53578  Biso   1.000  C
  C159     1.0000 0.50479  0.89061  0.70917  Biso   1.000  C
  C160     1.0000 0.18535  0.46829  0.62809  Biso   1.000  C
  C161     1.0000 0.43414  0.65719  0.04532  Biso   1.000  C
  C162     1.0000 0.01670  0.88189  0.85077  Biso   1.000  C
  C163     1.0000 0.82731  0.96190  0.94261  Biso   1.000  C
  C164     1.0000 0.58966  0.14884  0.53453  Biso   1.000  C
  C165     1.0000 0.99186  0.38484  0.70787  Biso   1.000  C
  C166     1.0000 0.32776  0.97945  0.61557  Biso   1.000  C
  C167     1.0000 0.08110  0.15551  0.02913  Biso   1.000  C
  C168     1.0000 0.51642  0.38920  0.84837  Biso   1.000  C
  C169     1.0000 0.01604  0.79300  0.12898  Biso   1.000  C
  C170     1.0000 0.09717  0.98253  0.84811  Biso   1.000  C
  C171     1.0000 0.81765  0.04780  0.02663  Biso   1.000  C
  C172     1.0000 0.51961  0.79051  0.44874  Biso   1.000  C
  C173     1.0000 0.59746  0.96480  0.70754  Biso   1.000  C
  C174     1.0000 0.32383  0.06155  0.53754  Biso   1.000  C
  C175     1.0000 0.50765  0.29313  0.11386  Biso   1.000  C
  C176     1.0000 0.41387  0.46415  0.85831  Biso   1.000  C
  C177     1.0000 0.69616  0.55023  0.02231  Biso   1.000  C
  C178     1.0000 0.01442  0.29210  0.43958  Biso   1.000  C
  C179     1.0000 0.91426  0.47780  0.71554  Biso   1.000  C
  C180     1.0000 0.20070  0.55871  0.54477  Biso   1.000  C
  C181     1.0000 0.99943  0.15345  0.94157  Biso   1.000  C
  C182     1.0000 0.91717  0.96898  0.21094  Biso   1.000  C
  C183     1.0000 0.19437  0.89445  0.03126  Biso   1.000  C
  C184     1.0000 0.49740  0.15460  0.61187  Biso   1.000  C
  C185     1.0000 0.41706  0.96860  0.34671  Biso   1.000  C
  C186     1.0000 0.69908  0.89187  0.51566  Biso   1.000  C
  C187     1.0000 0.51174  0.65418  0.94774  Biso   1.000  C
  C188     1.0000 0.60566  0.48191  0.21105  Biso   1.000  C
  C189     1.0000 0.32071  0.39750  0.04058  Biso   1.000  C
  C190     1.0000 0.03122  0.65097  0.63086  Biso   1.000  C
  C191     1.0000 0.11218  0.48087  0.35640  Biso   1.000  C
  C192     1.0000 0.82410  0.39624  0.52402  Biso   1.000  C
  C193     1.0000 0.85405  0.96344  0.92644  Biso   1.000  C
  C194     1.0000 0.91640  0.81824  0.03334  Biso   1.000  C
  C195     1.0000 0.01654  0.86842  0.88009  Biso   1.000  C
  C196     1.0000 0.35473  0.98175  0.63121  Biso   1.000  C
  C197     1.0000 0.41503  0.82610  0.53586  Biso   1.000  C
  C198     1.0000 0.51076  0.87310  0.68477  Biso   1.000  C
  C199     1.0000 0.65897  0.46926  0.92776  Biso   1.000  C
  C200     1.0000 0.59478  0.31718  0.01898  Biso   1.000  C
  C201     1.0000 0.51306  0.37118  0.87500  Biso   1.000  C
  C202     1.0000 0.15840  0.47001  0.64356  Biso   1.000  C
  C203     1.0000 0.10458  0.31925  0.52946  Biso   1.000  C
  C204     1.0000 0.99128  0.37073  0.68016  Biso   1.000  C
  C205     1.0000 0.15641  0.97162  0.13158  Biso   1.000  C
  C206     1.0000 0.09780  0.12802  0.02939  Biso   1.000  C
  C207     1.0000 0.99696  0.07620  0.18094  Biso   1.000  C
  C208     1.0000 0.66456  0.98134  0.42695  Biso   1.000  C
  C209     1.0000 0.60775  0.12389  0.53495  Biso   1.000  C
  C210     1.0000 0.51104  0.07285  0.37198  Biso   1.000  C
  C211     1.0000 0.35921  0.48182  0.14206  Biso   1.000  C
  C212     1.0000 0.41620  0.63214  0.04208  Biso   1.000  C
  C213     1.0000 0.50941  0.57666  0.18798  Biso   1.000  C
  C214     1.0000 0.86489  0.47679  0.42341  Biso   1.000  C
  C215     1.0000 0.91820  0.63271  0.53213  Biso   1.000  C
  C216     1.0000 0.01979  0.58023  0.38378  Biso   1.000  C
  C217     1.0000 0.11326  0.98410  0.87473  Biso   1.000  C
  C218     1.0000 0.84375  0.06525  0.02350  Biso   1.000  C
  C219     1.0000 0.01320  0.81933  0.14497  Biso   1.000  C
  C220     1.0000 0.61301  0.96230  0.67903  Biso   1.000  C
  C221     1.0000 0.35059  0.07853  0.53112  Biso   1.000  C
  C222     1.0000 0.51803  0.81722  0.43257  Biso   1.000  C
  C223     1.0000 0.40034  0.46266  0.88779  Biso   1.000  C
  C224     1.0000 0.67010  0.56634  0.02590  Biso   1.000  C
  C225     1.0000 0.51451  0.31969  0.12856  Biso   1.000  C
  C226     1.0000 0.89839  0.47346  0.68703  Biso   1.000  C
  C227     1.0000 0.17419  0.57554  0.54117  Biso   1.000  C
  C228     1.0000 0.01574  0.31939  0.42341  Biso   1.000  C
  C229     1.0000 0.90051  0.97158  0.18344  Biso   1.000  C
  C230     1.0000 0.16775  0.87659  0.03497  Biso   1.000  C
  C231     1.0000 0.99573  0.12570  0.92596  Biso   1.000  C
  C232     1.0000 0.40238  0.97358  0.37344  Biso   1.000  C
  C233     1.0000 0.67190  0.87577  0.51510  Biso   1.000  C
  C234     1.0000 0.50543  0.12864  0.62820  Biso   1.000  C
  C235     1.0000 0.61872  0.47982  0.18257  Biso   1.000  C
  C236     1.0000 0.34598  0.37882  0.03869  Biso   1.000  C
  C237     1.0000 0.50333  0.62700  0.93312  Biso   1.000  C
  C238     1.0000 0.12602  0.48071  0.38419  Biso   1.000  C
  C239     1.0000 0.85069  0.37875  0.52360  Biso   1.000  C
  C240     1.0000 0.02435  0.62539  0.64645  Biso   1.000  C
  C241     1.0000 0.60451  0.48448  0.87929  Biso   1.000  C
  C242     1.0000 0.86594  0.58373  0.52735  Biso   1.000  C
  C243     1.0000 0.51477  0.81839  0.63619  Biso   1.000  C
  C244     1.0000 0.10313  0.46611  0.68786  Biso   1.000  C
  C245     1.0000 0.35899  0.58339  0.03693  Biso   1.000  C
  C246     1.0000 0.02284  0.81910  0.93785  Biso   1.000  C
  C247     1.0000 0.90705  0.95935  0.87703  Biso   1.000  C
  C248     1.0000 0.66204  0.07630  0.53853  Biso   1.000  C
  C249     1.0000 0.99141  0.32095  0.62583  Biso   1.000  C
  C250     1.0000 0.40716  0.98829  0.68362  Biso   1.000  C
  C251     1.0000 0.15024  0.07770  0.03401  Biso   1.000  C
  C252     1.0000 0.49324  0.32073  0.92314  Biso   1.000  C
  C253     1.0000 0.41797  0.48035  0.18777  Biso   1.000  C
  C254     1.0000 0.15532  0.37058  0.53700  Biso   1.000  C
  C255     1.0000 0.51383  0.12336  0.42315  Biso   1.000  C
  C256     1.0000 0.91846  0.48173  0.37650  Biso   1.000  C
  C257     1.0000 0.65240  0.36660  0.01869  Biso   1.000  C
  C258     1.0000 0.98680  0.12753  0.12988  Biso   1.000  C
  C259     1.0000 0.10538  0.97107  0.18334  Biso   1.000  C
  C260     1.0000 0.36110  0.87581  0.53003  Biso   1.000  C
  C261     1.0000 0.01212  0.62706  0.43876  Biso   1.000  C
  C262     1.0000 0.61004  0.97130  0.37787  Biso   1.000  C
  C263     1.0000 0.85853  0.86448  0.02774  Biso   1.000  C
  C264     1.0000 0.51692  0.62735  0.13855  Biso   1.000  C
  C265     1.0000 0.99482  0.07312  0.87611  Biso   1.000  C
  C266     1.0000 0.84749  0.96929  0.13089  Biso   1.000  C
  C267     1.0000 0.11845  0.82503  0.05236  Biso   1.000  C
  C268     1.0000 0.51712  0.08021  0.67942  Biso   1.000  C
  C269     1.0000 0.35358  0.97735  0.42581  Biso   1.000  C
  C270     1.0000 0.62292  0.82160  0.52785  Biso   1.000  C
  C271     1.0000 0.49268  0.57302  0.88389  Biso   1.000  C
  C272     1.0000 0.66681  0.47184  0.12906  Biso   1.000  C
  C273     1.0000 0.39355  0.32143  0.03774  Biso   1.000  C
  C274     1.0000 0.01160  0.57274  0.69704  Biso   1.000  C
  C275     1.0000 0.17679  0.47546  0.44096  Biso   1.000  C
  C276     1.0000 0.90031  0.32556  0.52601  Biso   1.000  C
  C277     1.0000 0.00691  0.87300  0.19110  Biso   1.000  C
  C278     1.0000 0.16489  0.98674  0.92664  Biso   1.000  C
  C279     1.0000 0.89330  0.12187  0.02459  Biso   1.000  C
  C280     1.0000 0.50902  0.86952  0.37983  Biso   1.000  C
  C281     1.0000 0.66587  0.95925  0.62709  Biso   1.000  C
  C282     1.0000 0.40123  0.13084  0.52006  Biso   1.000  C
  C283     1.0000 0.52712  0.37257  0.18012  Biso   1.000  C
  C284     1.0000 0.34924  0.47431  0.93958  Biso   1.000  C
  C285     1.0000 0.62086  0.61993  0.03346  Biso   1.000  C
  C286     1.0000 0.02044  0.37317  0.37643  Biso   1.000  C
  C287     1.0000 0.85013  0.47095  0.62987  Biso   1.000  C
  C288     1.0000 0.12223  0.62615  0.53598  Biso   1.000  C
  C289     1.0000 0.36147  0.84370  0.53426  Biso   1.000  C
  C290     1.0000 0.49695  0.32101  0.89224  Biso   1.000  C
  C291     1.0000 0.88747  0.47953  0.37162  Biso   1.000  C
  C292     1.0000 0.85935  0.83321  0.02894  Biso   1.000  C
  C293     1.0000 0.99070  0.31767  0.65756  Biso   1.000  C
  C294     1.0000 0.38725  0.48055  0.19214  Biso   1.000  C
  C295     1.0000 0.15646  0.33949  0.53241  Biso   1.000  C
  C296     1.0000 0.02309  0.81786  0.90587  Biso   1.000  C
  C297     1.0000 0.64104  0.97243  0.37664  Biso   1.000  C
  C298     1.0000 0.65001  0.33569  0.01882  Biso   1.000  C
  C299     1.0000 0.50964  0.81962  0.66806  Biso   1.000  C
  C300     1.0000 0.13621  0.97011  0.18405  Biso   1.000  C
  C301     1.0000 0.66154  0.10754  0.53771  Biso   1.000  C
  C302     1.0000 0.51485  0.62938  0.16966  Biso   1.000  C
  C303     1.0000 0.13494  0.46208  0.69176  Biso   1.000  C
  C304     1.0000 0.15066  0.11000  0.03236  Biso   1.000  C
  C305     1.0000 0.00787  0.62893  0.40762  Biso   1.000  C
  C306     1.0000 0.63561  0.48062  0.87670  Biso   1.000  C
  C307     1.0000 0.86470  0.61461  0.52779  Biso   1.000  C
  C308     1.0000 0.98967  0.12992  0.16118  Biso   1.000  C
  C309     1.0000 0.37581  0.98793  0.68513  Biso   1.000  C
  C310     1.0000 0.36193  0.61440  0.04035  Biso   1.000  C
  C311     1.0000 0.51141  0.12651  0.39167  Biso   1.000  C
  C312     1.0000 0.87475  0.95767  0.87448  Biso   1.000  C
  C313     1.0000 0.17826  0.47588  0.40873  Biso   1.000  C
  C314     1.0000 0.36998  0.13018  0.52018  Biso   1.000  C
  C315     1.0000 0.52388  0.34177  0.18137  Biso   1.000  C
  C316     1.0000 0.67041  0.47334  0.15986  Biso   1.000  C
  C317     1.0000 0.86173  0.12102  0.02537  Biso   1.000  C
  C318     1.0000 0.01854  0.34184  0.37202  Biso   1.000  C
  C319     1.0000 0.35114  0.97101  0.39619  Biso   1.000  C
  C320     1.0000 0.15353  0.62796  0.54079  Biso   1.000  C
  C321     1.0000 0.00560  0.84197  0.19517  Biso   1.000  C
  C322     1.0000 0.84718  0.96849  0.16245  Biso   1.000  C
  C323     1.0000 0.65135  0.61930  0.03062  Biso   1.000  C
  C324     1.0000 0.50902  0.83797  0.38054  Biso   1.000  C
  C325     1.0000 0.84622  0.47207  0.66106  Biso   1.000  C
  C326     1.0000 0.65402  0.82228  0.52335  Biso   1.000  C
  C327     1.0000 0.49454  0.60497  0.88243  Biso   1.000  C
  C328     1.0000 0.34721  0.46549  0.90990  Biso   1.000  C
  C329     1.0000 0.14994  0.82443  0.04793  Biso   1.000  C
  C330     1.0000 0.01605  0.60324  0.69908  Biso   1.000  C
  C331     1.0000 0.66594  0.95552  0.65913  Biso   1.000  C
  C332     1.0000 0.86911  0.32617  0.52814  Biso   1.000  C
  C333     1.0000 0.99480  0.10342  0.87401  Biso   1.000  C
  C334     1.0000 0.16566  0.98520  0.89616  Biso   1.000  C
  C335     1.0000 0.36229  0.32375  0.03570  Biso   1.000  C
  C336     1.0000 0.51541  0.11076  0.68075  Biso   1.000  C
  C337     1.0000 0.65832  0.47262  0.89681  Biso   1.000  C
  C338     1.0000 0.88668  0.63467  0.53144  Biso   1.000  C
  C339     1.0000 0.50885  0.84178  0.68829  Biso   1.000  C
  C340     1.0000 0.15768  0.46475  0.67321  Biso   1.000  C
  C341     1.0000 0.38449  0.63358  0.04126  Biso   1.000  C
  C342     1.0000 0.01985  0.83694  0.88206  Biso   1.000  C
  C343     1.0000 0.85395  0.95921  0.89532  Biso   1.000  C
  C344     1.0000 0.63884  0.12742  0.53603  Biso   1.000  C
  C345     1.0000 0.99192  0.33876  0.67942  Biso   1.000  C
  C346     1.0000 0.35377  0.98633  0.66269  Biso   1.000  C
  C347     1.0000 0.12858  0.13125  0.02942  Biso   1.000  C
  C348     1.0000 0.50697  0.34105  0.87158  Biso   1.000  C
  C349     1.0000 0.36318  0.48133  0.17267  Biso   1.000  C
  C350     1.0000 0.13540  0.31822  0.52794  Biso   1.000  C
  C351     1.0000 0.51193  0.10549  0.36966  Biso   1.000  C
  C352     1.0000 0.86561  0.47732  0.39215  Biso   1.000  C
  C353     1.0000 0.62628  0.31533  0.01993  Biso   1.000  C
  C354     1.0000 0.99291  0.10769  0.18262  Biso   1.000  C
  C355     1.0000 0.15754  0.97096  0.16208  Biso   1.000  C
  C356     1.0000 0.38369  0.82385  0.53816  Biso   1.000  C
  C357     1.0000 0.01291  0.60957  0.38610  Biso   1.000  C
  C358     1.0000 0.66381  0.97758  0.39575  Biso   1.000  C
  C359     1.0000 0.88404  0.81407  0.03141  Biso   1.000  C
  C360     1.0000 0.51143  0.60743  0.19046  Biso   1.000  C
  C361     1.0000 0.99543  0.12611  0.89397  Biso   1.000  C
  C362     1.0000 0.86911  0.96801  0.18394  Biso   1.000  C
  C363     1.0000 0.17047  0.84604  0.04109  Biso   1.000  C
  C364     1.0000 0.51002  0.13082  0.65917  Biso   1.000  C
  C365     1.0000 0.37082  0.97198  0.37396  Biso   1.000  C
  C366     1.0000 0.67563  0.84390  0.51778  Biso   1.000  C
  C367     1.0000 0.49978  0.62689  0.90194  Biso   1.000  C
  C368     1.0000 0.64954  0.47735  0.18164  Biso   1.000  C
  C369     1.0000 0.34289  0.34682  0.03741  Biso   1.000  C
  C370     1.0000 0.02186  0.62496  0.67798  Biso   1.000  C
  C371     1.0000 0.15867  0.47837  0.38523  Biso   1.000  C
  C372     1.0000 0.84704  0.34708  0.52579  Biso   1.000  C
  C373     1.0000 0.00665  0.81988  0.17476  Biso   1.000  C
  C374     1.0000 0.14410  0.98347  0.87309  Biso   1.000  C
  C375     1.0000 0.84168  0.09766  0.02453  Biso   1.000  C
  C376     1.0000 0.51229  0.81664  0.40220  Biso   1.000  C
  C377     1.0000 0.64403  0.95789  0.68036  Biso   1.000  C
  C378     1.0000 0.34883  0.10901  0.52562  Biso   1.000  C
  C379     1.0000 0.51890  0.32012  0.16005  Biso   1.000  C
  C380     1.0000 0.36878  0.46300  0.88819  Biso   1.000  C
  C381     1.0000 0.67315  0.59809  0.02857  Biso   1.000  C
  C382     1.0000 0.01718  0.31874  0.39254  Biso   1.000  C
  C383     1.0000 0.86631  0.47196  0.68479  Biso   1.000  C
  C384     1.0000 0.17587  0.60663  0.54354  Biso   1.000  C
  C385     1.0000 0.17788  0.12719  0.03422  Biso   1.000  C
  C386     1.0000 0.99046  0.15696  0.17665  Biso   1.000  C
  C387     1.0000 0.15265  0.96738  0.21066  Biso   1.000  C
  C388     1.0000 0.68799  0.12525  0.53480  Biso   1.000  C
  C389     1.0000 0.51275  0.15399  0.37581  Biso   1.000  C
  C390     1.0000 0.65457  0.96857  0.34940  Biso   1.000  C
  C391     1.0000 0.33601  0.63170  0.04061  Biso   1.000  C
  C392     1.0000 0.51759  0.65551  0.18512  Biso   1.000  C
  C393     1.0000 0.37406  0.47831  0.22029  Biso   1.000  C
  C394     1.0000 0.83842  0.63106  0.52678  Biso   1.000  C
  C395     1.0000 0.00003  0.65569  0.39420  Biso   1.000  C
  C396     1.0000 0.87373  0.47685  0.34332  Biso   1.000  C
  C397     1.0000 0.83472  0.81465  0.02724  Biso   1.000  C
  C398     1.0000 0.02447  0.78954  0.89265  Biso   1.000  C
  C399     1.0000 0.85970  0.95009  0.84765  Biso   1.000  C
  C400     1.0000 0.33503  0.82639  0.53903  Biso   1.000  C
  C401     1.0000 0.50305  0.79394  0.68518  Biso   1.000  C
  C402     1.0000 0.36132  0.99110  0.71124  Biso   1.000  C
  C403     1.0000 0.67534  0.31675  0.02148  Biso   1.000  C
  C404     1.0000 0.49569  0.29457  0.87663  Biso   1.000  C
  C405     1.0000 0.64934  0.47886  0.84856  Biso   1.000  C
  C406     1.0000 0.18392  0.32466  0.52959  Biso   1.000  C
  C407     1.0000 0.99024  0.29034  0.67291  Biso   1.000  C
  C408     1.0000 0.14760  0.45681  0.71920  Biso   1.000  C
  C409     1.0000 0.15951  0.98457  0.84604  Biso   1.000  C
  C410     1.0000 0.81291  0.11145  0.02548  Biso   1.000  C
  C411     1.0000 0.00592  0.79388  0.19221  Biso   1.000  C
  C412     1.0000 0.65998  0.95457  0.70695  Biso   1.000  C
  C413     1.0000 0.32273  0.12393  0.52692  Biso   1.000  C
  C414     1.0000 0.51183  0.78986  0.38563  Biso   1.000  C
  C415     1.0000 0.35114  0.45802  0.86235  Biso   1.000  C
  C416     1.0000 0.69996  0.61289  0.02377  Biso   1.000  C
  C417     1.0000 0.51641  0.29389  0.17552  Biso   1.000  C
  C418     1.0000 0.84866  0.47384  0.70965  Biso   1.000  C
  C419     1.0000 0.20302  0.62132  0.54480  Biso   1.000  C
  C420     1.0000 0.01591  0.29262  0.37557  Biso   1.000  C
  C421     1.0000 0.85351  0.96416  0.20959  Biso   1.000  C
  C422     1.0000 0.19758  0.83127  0.04044  Biso   1.000  C
  C423     1.0000 0.99655  0.15296  0.87731  Biso   1.000  C
  C424     1.0000 0.35356  0.96967  0.34702  Biso   1.000  C
  C425     1.0000 0.70213  0.82892  0.51749  Biso   1.000  C
  C426     1.0000 0.50744  0.15746  0.67368  Biso   1.000  C
  C427     1.0000 0.66796  0.47643  0.20771  Biso   1.000  C
  C428     1.0000 0.31479  0.33433  0.03748  Biso   1.000  C
  C429     1.0000 0.50310  0.65285  0.88606  Biso   1.000  C
  C430     1.0000 0.17601  0.48156  0.36079  Biso   1.000  C
  C431     1.0000 0.82000  0.33253  0.52757  Biso   1.000  C
  C432     1.0000 0.02547  0.65141  0.69363  Biso   1.000  C
  C433     1.0000 0.99452  0.11783  0.84666  Biso   1.000  C
  C434     1.0000 0.82047  0.96500  0.17806  Biso   1.000  C
  C435     1.0000 0.16737  0.79856  0.05230  Biso   1.000  C
  C436     1.0000 0.51843  0.12610  0.70704  Biso   1.000  C
  C437     1.0000 0.32299  0.96938  0.38244  Biso   1.000  C
  C438     1.0000 0.66921  0.79550  0.52330  Biso   1.000  C
  C439     1.0000 0.49229  0.61945  0.85497  Biso   1.000  C
  C440     1.0000 0.69800  0.46971  0.17361  Biso   1.000  C
  C441     1.0000 0.34416  0.29801  0.03566  Biso   1.000  C
  C442     1.0000 0.01571  0.61818  0.72565  Biso   1.000  C
  C443     1.0000 0.20580  0.47319  0.39481  Biso   1.000  C
  C444     1.0000 0.85198  0.29931  0.53024  Biso   1.000  C
  C445     1.0000 0.99982  0.82768  0.22292  Biso   1.000  C
  C446     1.0000 0.19288  0.98558  0.88069  Biso   1.000  C
  C447     1.0000 0.84336  0.14641  0.02708  Biso   1.000  C
  C448     1.0000 0.50509  0.82249  0.35411  Biso   1.000  C
  C449     1.0000 0.69243  0.95254  0.67469  Biso   1.000  C
  C450     1.0000 0.35537  0.15655  0.51526  Biso   1.000  C
  C451     1.0000 0.52589  0.32596  0.20796  Biso   1.000  C
  C452     1.0000 0.32063  0.46194  0.89495  Biso   1.000  C
  C453     1.0000 0.66772  0.64618  0.03049  Biso   1.000  C
  C454     1.0000 0.01968  0.32724  0.34359  Biso   1.000  C
  C455     1.0000 0.81679  0.47403  0.67394  Biso   1.000  C
  C456     1.0000 0.16981  0.65460  0.54227  Biso   1.000  C
  C457     1.0000 0.00707  0.62624  0.36011  Biso   1.000  C
  C458     1.0000 0.32818  0.98697  0.67958  Biso   1.000  C
  C459     1.0000 0.64090  0.28741  0.02152  Biso   1.000  C
  C460     1.0000 0.51242  0.62309  0.21712  Biso   1.000  C
  C461     1.0000 0.82627  0.95732  0.87971  Biso   1.000  C
  C462     1.0000 0.15024  0.29349  0.52038  Biso   1.000  C
  C463     1.0000 0.50955  0.12132  0.34286  Biso   1.000  C
  C464     1.0000 0.18257  0.45824  0.69112  Biso   1.000  C
  C465     1.0000 0.87071  0.78527  0.03181  Biso   1.000  C
  C466     1.0000 0.99380  0.12263  0.20899  Biso   1.000  C
  C467     1.0000 0.68432  0.47127  0.87854  Biso   1.000  C
  C468     1.0000 0.37093  0.79618  0.54371  Biso   1.000  C
  C469     1.0000 0.99069  0.32245  0.70646  Biso   1.000  C
  C470     1.0000 0.68967  0.97564  0.37965  Biso   1.000  C
  C471     1.0000 0.37065  0.66119  0.04212  Biso   1.000  C
  C472     1.0000 0.50804  0.32698  0.84557  Biso   1.000  C
  C473     1.0000 0.18408  0.97120  0.17821  Biso   1.000  C
  C474     1.0000 0.87159  0.66207  0.53320  Biso   1.000  C
  C475     1.0000 0.50250  0.82657  0.71561  Biso   1.000  C
  C476     1.0000 0.83950  0.47432  0.37494  Biso   1.000  C
  C477     1.0000 0.14292  0.15885  0.02980  Biso   1.000  C
  C478     1.0000 0.02043  0.81881  0.85777  Biso   1.000  C
  C479     1.0000 0.33745  0.48011  0.19162  Biso   1.000  C
  C480     1.0000 0.65329  0.15623  0.53220  Biso   1.000  C
  C481     1.0000 0.38831  0.77241  0.55197  Biso   1.000  C
  C482     1.0000 0.51338  0.34375  0.81986  Biso   1.000  C
  C483     1.0000 0.81067  0.47664  0.38925  Biso   1.000  C
  C484     1.0000 0.88735  0.76021  0.03420  Biso   1.000  C
  C485     1.0000 0.99182  0.33763  0.73400  Biso   1.000  C
  C486     1.0000 0.30882  0.48353  0.17717  Biso   1.000  C
  C487     1.0000 0.13480  0.26731  0.51333  Biso   1.000  C
  C488     1.0000 0.02068  0.83249  0.82891  Biso   1.000  C
  C489     1.0000 0.71958  0.98121  0.39418  Biso   1.000  C
  C490     1.0000 0.62336  0.26203  0.02271  Biso   1.000  C
  C491     1.0000 0.49792  0.84484  0.74101  Biso   1.000  C
  C492     1.0000 0.21158  0.97297  0.16338  Biso   1.000  C
  C493     1.0000 0.63445  0.18087  0.53189  Biso   1.000  C
  C494     1.0000 0.51370  0.60824  0.24493  Biso   1.000  C
  C495     1.0000 0.21034  0.45843  0.67617  Biso   1.000  C
  C496     1.0000 0.12642  0.18626  0.02915  Biso   1.000  C
  C497     1.0000 0.00715  0.61163  0.33086  Biso   1.000  C
  C498     1.0000 0.71194  0.46566  0.89164  Biso   1.000  C
  C499     1.0000 0.88710  0.68898  0.53791  Biso   1.000  C
  C500     1.0000 0.99759  0.10742  0.23584  Biso   1.000  C
  C501     1.0000 0.30159  0.98312  0.66320  Biso   1.000  C
  C502     1.0000 0.38931  0.68809  0.04625  Biso   1.000  C
  C503     1.0000 0.50735  0.10435  0.31662  Biso   1.000  C
  C504     1.0000 0.79966  0.95940  0.89524  Biso   1.000  C
  C505     1.0000 0.63201  0.48137  0.82121  Biso   1.000  C
  C506     1.0000 0.81154  0.61496  0.52175  Biso   1.000  C
  C507     1.0000 0.50226  0.76601  0.67077  Biso   1.000  C
  C508     1.0000 0.12870  0.45316  0.74433  Biso   1.000  C
  C509     1.0000 0.30750  0.61895  0.03482  Biso   1.000  C
  C510     1.0000 0.02603  0.76254  0.90918  Biso   1.000  C
  C511     1.0000 0.87762  0.94118  0.82453  Biso   1.000  C
  C512     1.0000 0.71597  0.11175  0.53709  Biso   1.000  C
  C513     1.0000 0.99391  0.26403  0.65586  Biso   1.000  C
  C514     1.0000 0.37842  0.99370  0.73817  Biso   1.000  C
  C515     1.0000 0.20567  0.11225  0.03938  Biso   1.000  C
  C516     1.0000 0.49446  0.26727  0.89273  Biso   1.000  C
  C517     1.0000 0.39060  0.47384  0.24638  Biso   1.000  C
  C518     1.0000 0.21066  0.34114  0.52981  Biso   1.000  C
  C519     1.0000 0.51760  0.17974  0.39197  Biso   1.000  C
  C520     1.0000 0.89084  0.47942  0.31739  Biso   1.000  C
  C521     1.0000 0.70347  0.32935  0.02118  Biso   1.000  C
  C522     1.0000 0.99252  0.18517  0.16043  Biso   1.000  C
  C523     1.0000 0.13741  0.96452  0.23803  Biso   1.000  C
  C524     1.0000 0.30740  0.84072  0.53639  Biso   1.000  C
  C525     1.0000 0.99566  0.68086  0.41124  Biso   1.000  C
  C526     1.0000 0.63942  0.96225  0.32355  Biso   1.000  C
  C527     1.0000 0.80610  0.82910  0.02269  Biso   1.000  C
  C528     1.0000 0.52323  0.68123  0.16867  Biso   1.000  C
  C529     1.0000 0.78660  0.09377  0.02897  Biso   1.000  C
  C530     1.0000 0.01200  0.76711  0.17628  Biso   1.000  C
  C531     1.0000 0.14273  0.98725  0.81921  Biso   1.000  C
  C532     1.0000 0.29624  0.10908  0.53670  Biso   1.000  C
  C533     1.0000 0.51780  0.76227  0.40145  Biso   1.000  C
  C534     1.0000 0.64491  0.95485  0.73481  Biso   1.000  C
  C535     1.0000 0.72597  0.59765  0.01833  Biso   1.000  C
  C536     1.0000 0.50876  0.26677  0.16088  Biso   1.000  C
  C537     1.0000 0.36484  0.45706  0.83341  Biso   1.000  C
  C538     1.0000 0.22918  0.60472  0.54690  Biso   1.000  C
  C539     1.0000 0.01699  0.26470  0.39206  Biso   1.000  C
  C540     1.0000 0.86399  0.47950  0.73845  Biso   1.000  C
  C541     1.0000 0.22485  0.84896  0.03619  Biso   1.000  C
  C542     1.0000 0.99914  0.18116  0.89373  Biso   1.000  C
  C543     1.0000 0.87038  0.96279  0.23653  Biso   1.000  C
  C544     1.0000 0.72907  0.84628  0.51482  Biso   1.000  C
  C545     1.0000 0.49556  0.18262  0.65694  Biso   1.000  C
  C546     1.0000 0.36743  0.96730  0.31993  Biso   1.000  C
  C547     1.0000 0.28948  0.35203  0.03994  Biso   1.000  C
  C548     1.0000 0.51303  0.68042  0.89933  Biso   1.000  C
  C549     1.0000 0.65425  0.48099  0.23558  Biso   1.000  C
  C550     1.0000 0.79394  0.34947  0.52497  Biso   1.000  C
  C551     1.0000 0.03335  0.67850  0.67923  Biso   1.000  C
  C552     1.0000 0.16050  0.48330  0.33326  Biso   1.000  C
  C553     1.0000 0.99050  0.10081  0.82068  Biso   1.000  C
  C554     1.0000 0.79263  0.96557  0.16228  Biso   1.000  C
  C555     1.0000 0.15220  0.77290  0.06222  Biso   1.000  C
  C556     1.0000 0.52801  0.11052  0.73266  Biso   1.000  C
  C557     1.0000 0.29711  0.97089  0.39884  Biso   1.000  C
  C558     1.0000 0.65546  0.76887  0.52993  Biso   1.000  C
  C559     1.0000 0.48220  0.60389  0.82968  Biso   1.000  C
  C560     1.0000 0.72349  0.46526  0.15765  Biso   1.000  C
  C561     1.0000 0.35776  0.26959  0.03337  Biso   1.000  C
  C562     1.0000 0.00559  0.60255  0.75173  Biso   1.000  C
  C563     1.0000 0.23225  0.47110  0.41230  Biso   1.000  C
  C564     1.0000 0.86867  0.27115  0.53256  Biso   1.000  C
  C565     1.0000 0.99047  0.84553  0.24679  Biso   1.000  C
  C566     1.0000 0.22043  0.98562  0.89792  Biso   1.000  C
  C567     1.0000 0.85818  0.17479  0.02694  Biso   1.000  C
  C568     1.0000 0.49641  0.83741  0.32729  Biso   1.000  C
  C569     1.0000 0.72049  0.95080  0.65965  Biso   1.000  C
  C570     1.0000 0.36943  0.18340  0.50789  Biso   1.000  C
  C571     1.0000 0.53008  0.34132  0.23461  Biso   1.000  C
  C572     1.0000 0.29391  0.46921  0.90975  Biso   1.000  C
  C573     1.0000 0.65406  0.67445  0.03701  Biso   1.000  C
  C574     1.0000 0.02541  0.34602  0.31934  Biso   1.000  C
  C575     1.0000 0.79227  0.47572  0.65344  Biso   1.000  C
  C576     1.0000 0.15327  0.68175  0.53764  Biso   1.000  C
  C577     1.0000 0.30652  0.48445  0.14580  Biso   1.000  C
  C578     1.0000 0.10375  0.26581  0.51409  Biso   1.000  C
  C579     1.0000 0.50473  0.07333  0.31696  Biso   1.000  C
  C580     1.0000 0.80962  0.47743  0.42042  Biso   1.000  C
  C581     1.0000 0.59292  0.26240  0.02158  Biso   1.000  C
  C582     1.0000 0.99885  0.07657  0.23484  Biso   1.000  C
  C583     1.0000 0.20995  0.97776  0.13220  Biso   1.000  C
  C584     1.0000 0.41889  0.77426  0.55061  Biso   1.000  C
  C585     1.0000 0.01687  0.58140  0.32959  Biso   1.000  C
  C586     1.0000 0.72096  0.98655  0.42616  Biso   1.000  C
  C587     1.0000 0.91875  0.76331  0.03505  Biso   1.000  C
  C588     1.0000 0.51235  0.57725  0.24425  Biso   1.000  C
  C589     1.0000 0.71275  0.46305  0.92315  Biso   1.000  C
  C590     1.0000 0.91770  0.68724  0.53781  Biso   1.000  C
  C591     1.0000 0.49836  0.87642  0.73761  Biso   1.000  C
  C592     1.0000 0.21103  0.46203  0.64424  Biso   1.000  C
  C593     1.0000 0.42134  0.68556  0.04909  Biso   1.000  C
  C594     1.0000 0.01676  0.86461  0.82507  Biso   1.000  C
  C595     1.0000 0.79966  0.95981  0.92717  Biso   1.000  C
  C596     1.0000 0.60331  0.17729  0.53225  Biso   1.000  C
  C597     1.0000 0.99188  0.36852  0.73490  Biso   1.000  C
  C598     1.0000 0.30084  0.98132  0.63225  Biso   1.000  C
  C599     1.0000 0.09434  0.18450  0.02890  Biso   1.000  C
  C600     1.0000 0.51774  0.37482  0.82048  Biso   1.000  C
  C601     1.0000 0.21957  0.98804  0.92933  Biso   1.000  C
  C602     1.0000 0.88892  0.17673  0.02486  Biso   1.000  C
  C603     1.0000 0.99006  0.87631  0.24465  Biso   1.000  C
  C604     1.0000 0.72117  0.95456  0.62761  Biso   1.000  C
  C605     1.0000 0.40137  0.18245  0.50668  Biso   1.000  C
  C606     1.0000 0.49736  0.86872  0.32689  Biso   1.000  C
  C607     1.0000 0.29358  0.47760  0.93956  Biso   1.000  C
  C608     1.0000 0.62313  0.67487  0.03949  Biso   1.000  C
  C609     1.0000 0.53295  0.37179  0.23551  Biso   1.000  C
  C610     1.0000 0.79654  0.47803  0.62307  Biso   1.000  C
  C611     1.0000 0.12273  0.67955  0.53155  Biso   1.000  C
  C612     1.0000 0.02702  0.37707  0.32151  Biso   1.000  C
  C613     1.0000 0.79293  0.96700  0.13104  Biso   1.000  C
  C614     1.0000 0.12053  0.77197  0.06594  Biso   1.000  C
  C615     1.0000 0.98997  0.06841  0.82134  Biso   1.000  C
  C616     1.0000 0.29813  0.97635  0.42932  Biso   1.000  C
  C617     1.0000 0.62406  0.76680  0.53211  Biso   1.000  C
  C618     1.0000 0.52923  0.07905  0.73325  Biso   1.000  C
  C619     1.0000 0.72057  0.46468  0.12709  Biso   1.000  C
  C620     1.0000 0.38945  0.26762  0.03321  Biso   1.000  C
  C621     1.0000 0.47880  0.57160  0.83232  Biso   1.000  C
  C622     1.0000 0.23108  0.46944  0.44388  Biso   1.000  C
  C623     1.0000 0.89999  0.26987  0.52889  Biso   1.000  C
  C624     1.0000 0.99867  0.57040  0.75084  Biso   1.000  C
  C625     1.0000 0.00298  0.18097  0.92539  Biso   1.000  C
  C626     1.0000 0.90173  0.96449  0.23715  Biso   1.000  C
  C627     1.0000 0.22215  0.87946  0.03225  Biso   1.000  C
  C628     1.0000 0.49125  0.18080  0.62685  Biso   1.000  C
  C629     1.0000 0.39946  0.96499  0.31887  Biso   1.000  C
  C630     1.0000 0.72789  0.87789  0.51466  Biso   1.000  C
  C631     1.0000 0.51568  0.68074  0.93063  Biso   1.000  C
  C632     1.0000 0.62423  0.48363  0.23677  Biso   1.000  C
  C633     1.0000 0.29284  0.38291  0.04213  Biso   1.000  C
  C634     1.0000 0.03705  0.67654  0.64665  Biso   1.000  C
  C635     1.0000 0.12891  0.48447  0.33079  Biso   1.000  C
  C636     1.0000 0.79656  0.38034  0.52174  Biso   1.000  C
  C637     1.0000 0.01490  0.76563  0.14525  Biso   1.000  C
  C638     1.0000 0.11146  0.98701  0.81998  Biso   1.000  C
  C639     1.0000 0.78981  0.06228  0.02948  Biso   1.000  C
  C640     1.0000 0.51977  0.76262  0.43307  Biso   1.000  C
  C641     1.0000 0.61427  0.96169  0.73483  Biso   1.000  C
  C642     1.0000 0.29669  0.07828  0.54203  Biso   1.000  C
  C643     1.0000 0.50601  0.26515  0.13055  Biso   1.000  C
  C644     1.0000 0.39592  0.46424  0.83228  Biso   1.000  C
  C645     1.0000 0.72373  0.56502  0.01884  Biso   1.000  C
  C646     1.0000 0.01543  0.26550  0.42343  Biso   1.000  C
  C647     1.0000 0.89543  0.48117  0.74147  Biso   1.000  C
  C648     1.0000 0.22791  0.57325  0.54668  Biso   1.000  C
  C649     1.0000 0.99745  0.67891  0.44263  Biso   1.000  C
  C650     1.0000 0.41001  0.99248  0.73772  Biso   1.000  C
  C651     1.0000 0.70620  0.36043  0.02030  Biso   1.000  C
  C652     1.0000 0.52336  0.68118  0.13654  Biso   1.000  C
  C653     1.0000 0.90977  0.94140  0.82747  Biso   1.000  C
  C654     1.0000 0.21029  0.37111  0.53449  Biso   1.000  C
  C655     1.0000 0.52109  0.17828  0.42388  Biso   1.000  C
  C656     1.0000 0.09724  0.45456  0.74117  Biso   1.000  C
  C657     1.0000 0.80395  0.86155  0.02285  Biso   1.000  C
  C658     1.0000 0.98837  0.18274  0.12914  Biso   1.000  C
  C659     1.0000 0.60107  0.48679  0.82307  Biso   1.000  C
  C660     1.0000 0.30667  0.87099  0.53077  Biso   1.000  C
  C661     1.0000 0.99228  0.26700  0.62453  Biso   1.000  C
  C662     1.0000 0.60848  0.95981  0.32461  Biso   1.000  C
  C663     1.0000 0.30456  0.58727  0.03311  Biso   1.000  C
  C664     1.0000 0.49105  0.26602  0.92316  Biso   1.000  C
  C665     1.0000 0.10599  0.96758  0.23638  Biso   1.000  C
  C666     1.0000 0.81206  0.58393  0.52007  Biso   1.000  C
  C667     1.0000 0.50833  0.76351  0.63927  Biso   1.000  C
  C668     1.0000 0.92130  0.48516  0.32186  Biso   1.000  C
  C669     1.0000 0.20567  0.08005  0.04166  Biso   1.000  C
  C670     1.0000 0.02955  0.76438  0.94149  Biso   1.000  C
  C671     1.0000 0.42145  0.47287  0.24301  Biso   1.000  C
  C672     1.0000 0.71748  0.08095  0.53976  Biso   1.000  C
  C673     1.0000 0.20717  0.98930  0.83454  Biso   1.000  C
  C674     1.0000 0.79557  0.15730  0.02745  Biso   1.000  C
  C675     1.0000 0.99638  0.78147  0.23883  Biso   1.000  C
  C676     1.0000 0.70640  0.94822  0.72135  Biso   1.000  C
  C677     1.0000 0.30787  0.16957  0.51824  Biso   1.000  C
  C678     1.0000 0.50890  0.77614  0.34030  Biso   1.000  C
  C679     1.0000 0.30420  0.45454  0.84923  Biso   1.000  C
  C680     1.0000 0.71518  0.65917  0.02585  Biso   1.000  C
  C681     1.0000 0.52020  0.27947  0.22178  Biso   1.000  C
  C682     1.0000 0.80039  0.47306  0.72091  Biso   1.000  C
  C683     1.0000 0.21623  0.66993  0.54380  Biso   1.000  C
  C684     1.0000 0.01715  0.28142  0.32784  Biso   1.000  C
  C685     1.0000 0.80903  0.96330  0.22466  Biso   1.000  C
  C686     1.0000 0.21606  0.78763  0.04846  Biso   1.000  C
  C687     1.0000 0.99406  0.16534  0.83013  Biso   1.000  C
  C688     1.0000 0.30662  0.96831  0.33554  Biso   1.000  C
  C689     1.0000 0.71449  0.77980  0.52312  Biso   1.000  C
  C690     1.0000 0.51422  0.17318  0.71990  Biso   1.000  C
  C691     1.0000 0.71511  0.47142  0.21921  Biso   1.000  C
  C692     1.0000 0.29796  0.28795  0.03954  Biso   1.000  C
  C693     1.0000 0.49595  0.66762  0.84038  Biso   1.000  C
  C694     1.0000 0.22322  0.47845  0.34962  Biso   1.000  C
  C695     1.0000 0.80386  0.28753  0.53178  Biso   1.000  C
  C696     1.0000 0.02351  0.66226  0.74179  Biso   1.000  C
  C697     1.0000 0.70101  0.96682  0.33374  Biso   1.000  C
  C698     1.0000 0.32501  0.68017  0.04111  Biso   1.000  C
  C699     1.0000 0.99203  0.27481  0.72027  Biso   1.000  C
  C700     1.0000 0.19869  0.96847  0.22444  Biso   1.000  C
  C701     1.0000 0.82565  0.67781  0.52932  Biso   1.000  C
  C702     1.0000 0.50509  0.28035  0.82918  Biso   1.000  C
  C703     1.0000 0.82761  0.47093  0.32599  Biso   1.000  C
  C704     1.0000 0.18894  0.17568  0.03351  Biso   1.000  C
  C705     1.0000 0.49705  0.78025  0.73402  Biso   1.000  C
  C706     1.0000 0.32688  0.47921  0.23863  Biso   1.000  C
  C707     1.0000 0.70051  0.17282  0.53128  Biso   1.000  C
  C708     1.0000 0.02418  0.77358  0.84634  Biso   1.000  C
  C709     1.0000 0.31403  0.99032  0.72592  Biso   1.000  C
  C710     1.0000 0.68697  0.26825  0.02427  Biso   1.000  C
  C711     1.0000 0.99430  0.67042  0.34685  Biso   1.000  C
  C712     1.0000 0.81332  0.94998  0.83029  Biso   1.000  C
  C713     1.0000 0.19676  0.27924  0.51918  Biso   1.000  C
  C714     1.0000 0.51739  0.66882  0.23241  Biso   1.000  C
  C715     1.0000 0.19193  0.45093  0.73911  Biso   1.000  C
  C716     1.0000 0.82533  0.76655  0.02957  Biso   1.000  C
  C717     1.0000 0.51433  0.16794  0.33029  Biso   1.000  C
  C718     1.0000 0.69493  0.47444  0.83128  Biso   1.000  C
  C719     1.0000 0.32227  0.78007  0.54761  Biso   1.000  C
  C720     1.0000 0.99561  0.17115  0.22169  Biso   1.000  C
  C721     1.0000 0.52639  0.78285  0.31489  Biso   1.000  C
  C722     1.0000 0.30423  0.46792  0.82070  Biso   1.000  C
  C723     1.0000 0.77566  0.29097  0.54582  Biso   1.000  C
  C724     1.0000 0.97986  0.75499  0.23305  Biso   1.000  C
  C725     1.0000 0.77377  0.48973  0.71794  Biso   1.000  C
  C726     1.0000 0.26937  0.29379  0.02443  Biso   1.000  C
  C727     1.0000 0.00153  0.28727  0.30140  Biso   1.000  C
  C728     1.0000 0.23397  0.00330  0.83954  Biso   1.000  C
  C729     1.0000 0.74055  0.78668  0.54021  Biso   1.000  C
  C730     1.0000 0.50507  0.28352  0.24878  Biso   1.000  C
  C731     1.0000 0.73035  0.92850  0.71980  Biso   1.000  C
  C732     1.0000 0.23729  0.79023  0.02591  Biso   1.000  C
  C733     1.0000 0.50258  0.16798  0.74887  Biso   1.000  C
  C734     1.0000 0.71057  0.45892  0.24857  Biso   1.000  C
  C735     1.0000 0.21343  0.69450  0.56225  Biso   1.000  C
  C736     1.0000 0.98015  0.19337  0.83222  Biso   1.000  C
  C737     1.0000 0.24730  0.45624  0.35008  Biso   1.000  C
  C738     1.0000 0.74234  0.65314  0.04147  Biso   1.000  C
  C739     1.0000 0.03632  0.65639  0.77137  Biso   1.000  C
  C740     1.0000 0.78187  0.94546  0.22016  Biso   1.000  C
  C741     1.0000 0.27742  0.16298  0.50886  Biso   1.000  C
  C742     1.0000 0.50439  0.66200  0.81003  Biso   1.000  C
  C743     1.0000 0.27977  0.95162  0.33795  Biso   1.000  C
  C744     1.0000 0.79950  0.18450  0.04231  Biso   1.000  C
  C745     1.0000 0.00760  0.69979  0.35028  Biso   1.000  C
  C746     1.0000 0.28736  0.00688  0.72054  Biso   1.000  C
  C747     1.0000 0.71226  0.26836  0.04413  Biso   1.000  C
  C748     1.0000 0.53823  0.69254  0.23207  Biso   1.000  C
  C749     1.0000 0.78625  0.93469  0.83583  Biso   1.000  C
  C750     1.0000 0.21977  0.27516  0.54156  Biso   1.000  C
  C751     1.0000 0.53241  0.16484  0.30480  Biso   1.000  C
  C752     1.0000 0.21944  0.43580  0.73645  Biso   1.000  C
  C753     1.0000 0.80152  0.76658  0.00622  Biso   1.000  C
  C754     1.0000 0.01627  0.16880  0.24436  Biso   1.000  C
  C755     1.0000 0.69481  0.49468  0.80630  Biso   1.000  C
  C756     1.0000 0.32858  0.75235  0.53559  Biso   1.000  C
  C757     1.0000 0.97293  0.24819  0.71670  Biso   1.000  C
  C758     1.0000 0.69729  0.97469  0.30214  Biso   1.000  C
  C759     1.0000 0.29928  0.67713  0.05908  Biso   1.000  C
  C760     1.0000 0.53135  0.28158  0.80868  Biso   1.000  C
  C761     1.0000 0.22305  0.99016  0.22236  Biso   1.000  C
  C762     1.0000 0.82946  0.70659  0.51416  Biso   1.000  C
  C763     1.0000 0.47451  0.77997  0.75530  Biso   1.000  C
  C764     1.0000 0.80204  0.45061  0.32877  Biso   1.000  C
  C765     1.0000 0.21465  0.17375  0.05281  Biso   1.000  C
  C766     1.0000 0.00218  0.76971  0.82252  Biso   1.000  C
  C767     1.0000 0.33222  0.49465  0.26661  Biso   1.000  C
  C768     1.0000 0.69748  0.19593  0.50953  Biso   1.000  C
  C769     1.0000 0.48602  0.69608  0.84622  Biso   1.000  C
  C770     1.0000 0.80550  0.45595  0.74702  Biso   1.000  C
  C771     1.0000 0.71303  0.75311  0.50833  Biso   1.000  C
  C772     1.0000 0.01393  0.69131  0.73581  Biso   1.000  C
  C773     1.0000 0.27722  0.43814  0.85696  Biso   1.000  C
  C774     1.0000 0.22021  0.76437  0.07048  Biso   1.000  C
  C775     1.0000 0.00807  0.16094  0.80229  Biso   1.000  C
  C776     1.0000 0.70577  0.96686  0.74655  Biso   1.000  C
  C777     1.0000 0.80718  0.26057  0.51627  Biso   1.000  C
  C778     1.0000 0.52307  0.20269  0.71357  Biso   1.000  C
  C779     1.0000 0.20279  0.97564  0.80631  Biso   1.000  C
  C780     1.0000 0.30242  0.26029  0.05410  Biso   1.000  C
  C781     1.0000 0.53430  0.25262  0.21584  Biso   1.000  C
  C782     1.0000 0.22263  0.49833  0.32424  Biso   1.000  C
  C783     1.0000 0.31262  0.19993  0.52778  Biso   1.000  C
  C784     1.0000 0.03136  0.25402  0.33022  Biso   1.000  C
  C785     1.0000 0.74314  0.48328  0.21395  Biso   1.000  C
  C786     1.0000 0.76783  0.15138  0.01242  Biso   1.000  C
  C787     1.0000 0.00698  0.78542  0.26790  Biso   1.000  C
  C788     1.0000 0.31153  0.98366  0.30790  Biso   1.000  C
  C789     1.0000 0.24240  0.66669  0.52723  Biso   1.000  C
  C790     1.0000 0.49396  0.74936  0.34347  Biso   1.000  C
  C791     1.0000 0.81214  0.98034  0.25081  Biso   1.000  C
  C792     1.0000 0.71230  0.68577  0.00842  Biso   1.000  C
  C793     1.0000 0.49769  0.19432  0.33019  Biso   1.000  C
  C794     1.0000 0.30095  0.46353  0.23541  Biso   1.000  C
  C795     1.0000 0.19825  0.25779  0.49574  Biso   1.000  C
  C796     1.0000 0.98070  0.19823  0.22005  Biso   1.000  C
  C797     1.0000 0.82773  0.48986  0.30104  Biso   1.000  C
  C798     1.0000 0.68333  0.24153  0.00772  Biso   1.000  C
  C799     1.0000 0.97573  0.66674  0.31975  Biso   1.000  C
  C800     1.0000 0.19725  0.94775  0.24814  Biso   1.000  C
  C801     1.0000 0.29383  0.78438  0.56193  Biso   1.000  C
  C802     1.0000 0.49745  0.66572  0.25709  Biso   1.000  C
  C803     1.0000 0.72838  0.95233  0.34205  Biso   1.000  C
  C804     1.0000 0.82478  0.74323  0.05125  Biso   1.000  C
  C805     1.0000 0.51651  0.75399  0.73320  Biso   1.000  C
  C806     1.0000 0.71575  0.45172  0.82823  Biso   1.000  C
  C807     1.0000 0.79843  0.67303  0.54322  Biso   1.000  C
  C808     1.0000 0.04837  0.75365  0.84778  Biso   1.000  C
  C809     1.0000 0.18866  0.46597  0.76771  Biso   1.000  C
  C810     1.0000 0.32845  0.70689  0.02534  Biso   1.000  C
  C811     1.0000 0.01073  0.27710  0.74598  Biso   1.000  C
  C812     1.0000 0.81915  0.96014  0.80015  Biso   1.000  C
  C813     1.0000 0.72629  0.17301  0.54931  Biso   1.000  C
  C814     1.0000 0.48459  0.25527  0.82467  Biso   1.000  C
  C815     1.0000 0.31942  0.97734  0.75473  Biso   1.000  C
  C816     1.0000 0.18581  0.20260  0.01654  Biso   1.000  C
  C817     1.0000 0.98209  0.21440  0.81005  Biso   1.000  C
  C818     1.0000 0.76200  0.94330  0.24441  Biso   1.000  C
  C819     1.0000 0.26005  0.77015  0.02428  Biso   1.000  C
  C820     1.0000 0.50415  0.18826  0.76975  Biso   1.000  C
  C821     1.0000 0.25879  0.95450  0.31750  Biso   1.000  C
  C822     1.0000 0.76315  0.76761  0.54148  Biso   1.000  C
  C823     1.0000 0.49918  0.68311  0.78892  Biso   1.000  C
  C824     1.0000 0.73244  0.45814  0.26907  Biso   1.000  C
  C825     1.0000 0.24803  0.27198  0.02370  Biso   1.000  C
  C826     1.0000 0.03669  0.67823  0.79235  Biso   1.000  C
  C827     1.0000 0.26799  0.45732  0.32971  Biso   1.000  C
  C828     1.0000 0.75575  0.26881  0.54531  Biso   1.000  C
  C829     1.0000 0.97598  0.73495  0.25454  Biso   1.000  C
  C830     1.0000 0.25359  0.00423  0.81800  Biso   1.000  C
  C831     1.0000 0.77698  0.20478  0.04391  Biso   1.000  C
  C832     1.0000 0.52845  0.76061  0.29457  Biso   1.000  C
  C833     1.0000 0.75276  0.92829  0.74086  Biso   1.000  C
  C834     1.0000 0.25569  0.18479  0.50775  Biso   1.000  C
  C835     1.0000 0.50536  0.26145  0.26909  Biso   1.000  C
  C836     1.0000 0.28201  0.46223  0.79959  Biso   1.000  C
  C837     1.0000 0.76453  0.67405  0.03976  Biso   1.000  C
  C838     1.0000 0.99827  0.26666  0.27912  Biso   1.000  C
  C839     1.0000 0.75546  0.49253  0.74034  Biso   1.000  C
  C840     1.0000 0.23497  0.71457  0.56378  Biso   1.000  C
  C841     1.0000 0.22318  0.97943  0.78317  Biso   1.000  C
  C842     1.0000 0.74654  0.17294  0.01482  Biso   1.000  C
  C843     1.0000 0.00227  0.76530  0.28905  Biso   1.000  C
  C844     1.0000 0.72662  0.96425  0.76788  Biso   1.000  C
  C845     1.0000 0.29056  0.22017  0.52505  Biso   1.000  C
  C846     1.0000 0.49543  0.72901  0.32164  Biso   1.000  C
  C847     1.0000 0.25448  0.43766  0.83569  Biso   1.000  C
  C848     1.0000 0.73352  0.70648  0.01072  Biso   1.000  C
  C849     1.0000 0.53478  0.23057  0.23687  Biso   1.000  C
  C850     1.0000 0.78296  0.45452  0.76847  Biso   1.000  C
  C851     1.0000 0.26219  0.68866  0.52862  Biso   1.000  C
  C852     1.0000 0.02883  0.23352  0.30872  Biso   1.000  C
  C853     1.0000 0.79202  0.97763  0.27164  Biso   1.000  C
  C854     1.0000 0.24192  0.74412  0.06871  Biso   1.000  C
  C855     1.0000 0.00654  0.18089  0.78044  Biso   1.000  C
  C856     1.0000 0.28961  0.98479  0.28745  Biso   1.000  C
  C857     1.0000 0.73509  0.73365  0.51096  Biso   1.000  C
  C858     1.0000 0.52264  0.22423  0.73455  Biso   1.000  C
  C859     1.0000 0.76471  0.48256  0.23618  Biso   1.000  C
  C860     1.0000 0.27848  0.24167  0.05334  Biso   1.000  C
  C861     1.0000 0.48583  0.71684  0.82459  Biso   1.000  C
  C862     1.0000 0.24378  0.49786  0.30381  Biso   1.000  C
  C863     1.0000 0.78671  0.23977  0.51662  Biso   1.000  C
  C864     1.0000 0.01625  0.71290  0.75679  Biso   1.000  C
  C865     1.0000 0.71620  0.49521  0.78597  Biso   1.000  C
  C866     1.0000 0.80797  0.72769  0.51373  Biso   1.000  C
  C867     1.0000 0.47168  0.75638  0.77406  Biso   1.000  C
  C868     1.0000 0.23906  0.43543  0.75894  Biso   1.000  C
  C869     1.0000 0.27903  0.69900  0.05859  Biso   1.000  C
  C870     1.0000 0.00526  0.74899  0.80103  Biso   1.000  C
  C871     1.0000 0.76689  0.93223  0.81322  Biso   1.000  C
  C872     1.0000 0.71684  0.21987  0.51072  Biso   1.000  C
  C873     1.0000 0.97463  0.22696  0.73742  Biso   1.000  C
  C874     1.0000 0.26687  0.00630  0.74199  Biso   1.000  C
  C875     1.0000 0.23355  0.19686  0.05463  Biso   1.000  C
  C876     1.0000 0.53568  0.26100  0.78872  Biso   1.000  C
  C877     1.0000 0.31210  0.49301  0.28955  Biso   1.000  C
  C878     1.0000 0.24001  0.25370  0.53918  Biso   1.000  C
  C879     1.0000 0.53337  0.18637  0.28408  Biso   1.000  C
  C880     1.0000 0.78037  0.45080  0.30773  Biso   1.000  C
  C881     1.0000 0.73184  0.24574  0.04683  Biso   1.000  C
  C882     1.0000 0.02079  0.19017  0.26455  Biso   1.000  C
  C883     1.0000 0.24358  0.98909  0.24505  Biso   1.000  C
  C884     1.0000 0.30939  0.73035  0.53481  Biso   1.000  C
  C885     1.0000 0.00337  0.72188  0.32921  Biso   1.000  C
  C886     1.0000 0.71933  0.97032  0.28220  Biso   1.000  C
  C887     1.0000 0.78089  0.74493  0.00604  Biso   1.000  C
  C888     1.0000 0.53551  0.71356  0.25262  Biso   1.000  C
  C889     1.0000 0.74988  0.95007  0.32174  Biso   1.000  C
  C890     1.0000 0.30684  0.72818  0.02669  Biso   1.000  C
  C891     1.0000 0.01254  0.25361  0.76434  Biso   1.000  C
  C892     1.0000 0.22027  0.94872  0.26795  Biso   1.000  C
  C893     1.0000 0.77710  0.69347  0.54165  Biso   1.000  C
  C894     1.0000 0.48994  0.23608  0.80265  Biso   1.000  C
  C895     1.0000 0.80335  0.49102  0.28339  Biso   1.000  C
  C896     1.0000 0.20638  0.22528  0.01886  Biso   1.000  C
  C897     1.0000 0.51219  0.73070  0.75142  Biso   1.000  C
  C898     1.0000 0.28125  0.46090  0.25766  Biso   1.000  C
  C899     1.0000 0.74674  0.19597  0.54865  Biso   1.000  C
  C900     1.0000 0.04900  0.73159  0.82724  Biso   1.000  C
  C901     1.0000 0.29868  0.97935  0.77612  Biso   1.000  C
  C902     1.0000 0.70314  0.22007  0.00863  Biso   1.000  C
  C903     1.0000 0.97544  0.68898  0.29787  Biso   1.000  C
  C904     1.0000 0.79970  0.95666  0.77760  Biso   1.000  C
  C905     1.0000 0.21885  0.23730  0.49359  Biso   1.000  C
  C906     1.0000 0.49485  0.68804  0.27679  Biso   1.000  C
  C907     1.0000 0.20975  0.46350  0.78999  Biso   1.000  C
  C908     1.0000 0.80251  0.72213  0.04955  Biso   1.000  C
  C909     1.0000 0.49982  0.21590  0.30874  Biso   1.000  C
  C910     1.0000 0.73554  0.45012  0.80554  Biso   1.000  C
  C911     1.0000 0.27526  0.76091  0.56285  Biso   1.000  C
  C912     1.0000 0.98463  0.21928  0.24053  Biso   1.000  C
  C913     1.0000 0.75952  0.47405  0.76414  Biso   1.000  C
  C914     1.0000 0.76037  0.74099  0.52737  Biso   1.000  C
  C915     1.0000 0.49163  0.71044  0.79577  Biso   1.000  C
  C916     1.0000 0.25882  0.44714  0.80789  Biso   1.000  C
  C917     1.0000 0.26240  0.74742  0.04600  Biso   1.000  C
  C918     1.0000 0.02670  0.70619  0.78517  Biso   1.000  C
  C919     1.0000 0.74888  0.94292  0.76582  Biso   1.000  C
  C920     1.0000 0.76153  0.24247  0.53139  Biso   1.000  C
  C921     1.0000 0.99453  0.20696  0.78491  Biso   1.000  C
  C922     1.0000 0.24933  0.99459  0.78964  Biso   1.000  C
  C923     1.0000 0.25138  0.24611  0.03915  Biso   1.000  C
  C924     1.0000 0.51360  0.21694  0.76216  Biso   1.000  C
  C925     1.0000 0.26438  0.47559  0.30580  Biso   1.000  C
  C926     1.0000 0.26297  0.21333  0.51524  Biso   1.000  C
  C927     1.0000 0.51860  0.23542  0.26295  Biso   1.000  C
  C928     1.0000 0.75920  0.47024  0.26317  Biso   1.000  C
  C929     1.0000 0.74999  0.19883  0.03092  Biso   1.000  C
  C930     1.0000 0.01094  0.23882  0.28364  Biso   1.000  C
  C931     1.0000 0.26408  0.96991  0.29143  Biso   1.000  C
  C932     1.0000 0.25878  0.71208  0.54519  Biso   1.000  C
  C933     1.0000 0.98623  0.74008  0.28253  Biso   1.000  C
  C934     1.0000 0.76831  0.95945  0.27027  Biso   1.000  C
  C935     1.0000 0.75848  0.70046  0.02637  Biso   1.000  C
  C936     1.0000 0.51446  0.73325  0.29717  Biso   1.000  C
  C937     1.0000 0.72749  0.22224  0.02790  Biso   1.000  C
  C938     1.0000 0.99004  0.71527  0.30257  Biso   1.000  C
  C939     1.0000 0.27314  0.99471  0.76979  Biso   1.000  C
  C940     1.0000 0.24029  0.23550  0.51521  Biso   1.000  C
  C941     1.0000 0.51564  0.71058  0.27450  Biso   1.000  C
  C942     1.0000 0.77382  0.94341  0.78531  Biso   1.000  C
  C943     1.0000 0.78101  0.72320  0.02667  Biso   1.000  C
  C944     1.0000 0.51764  0.21200  0.28588  Biso   1.000  C
  C945     1.0000 0.23449  0.44750  0.78647  Biso   1.000  C
  C946     1.0000 0.28266  0.73367  0.54972  Biso   1.000  C
  C947     1.0000 0.00573  0.21639  0.26235  Biso   1.000  C
  C948     1.0000 0.73729  0.47335  0.78672  Biso   1.000  C
  C949     1.0000 0.28264  0.72445  0.04331  Biso   1.000  C
  C950     1.0000 0.99480  0.22874  0.76034  Biso   1.000  C
  C951     1.0000 0.74599  0.95813  0.29164  Biso   1.000  C
  C952     1.0000 0.78344  0.71987  0.52775  Biso   1.000  C
  C953     1.0000 0.51451  0.23918  0.78626  Biso   1.000  C
  C954     1.0000 0.24229  0.96767  0.26633  Biso   1.000  C
  C955     1.0000 0.22993  0.22161  0.03732  Biso   1.000  C
  C956     1.0000 0.49136  0.73188  0.77218  Biso   1.000  C
  C957     1.0000 0.77979  0.47213  0.28668  Biso   1.000  C
  C958     1.0000 0.74022  0.21908  0.53073  Biso   1.000  C
  C959     1.0000 0.02806  0.73010  0.80425  Biso   1.000  C
  C960     1.0000 0.28696  0.47597  0.28420  Biso   1.000  C
  Cu1      1.0000 0.99852  0.47476  0.68680  Biso   1.000  Cu
  Cu2      1.0000 0.66674  0.97699  0.52619  Biso   1.000  Cu
  Cu3      1.0000 0.51908  0.62567  0.03372  Biso   1.000  Cu
  Cu4      1.0000 0.50245  0.47104  0.88358  Biso   1.000  Cu
  Cu5      1.0000 0.15725  0.97742  0.02683  Biso   1.000  Cu
  Cu6      1.0000 0.01867  0.62935  0.54407  Biso   1.000  Cu
  Cu7      1.0000 0.51026  0.97665  0.68103  Biso   1.000  Cu
  Cu8      1.0000 0.85719  0.47986  0.52822  Biso   1.000  Cu
  Cu9      1.0000 0.99309  0.12567  0.02909  Biso   1.000  Cu
  Cu10     1.0000 0.01379  0.96905  0.87760  Biso   1.000  Cu
  Cu11     1.0000 0.35357  0.48170  0.04140  Biso   1.000  Cu
  Cu12     1.0000 0.50258  0.12467  0.52514  Biso   1.000  Cu
  Cu13     1.0000 0.02312  0.47726  0.38302  Biso   1.000  Cu
  Cu14     1.0000 0.35393  0.97584  0.53158  Biso   1.000  Cu
  Cu15     1.0000 0.49501  0.31978  0.02864  Biso   1.000  Cu
  Cu16     1.0000 0.51989  0.47576  0.18547  Biso   1.000  Cu
  Cu17     1.0000 0.85144  0.96442  0.03030  Biso   1.000  Cu
  Cu18     1.0000 0.00438  0.31878  0.52458  Biso   1.000  Cu
  Cu19     1.0000 0.50358  0.97164  0.37582  Biso   1.000  Cu
  Cu20     1.0000 0.16457  0.47557  0.54005  Biso   1.000  Cu
  Cu21     1.0000 0.02066  0.82418  0.03993  Biso   1.000  Cu
  Cu22     1.0000 0.00279  0.97518  0.18327  Biso   1.000  Cu
  Cu23     1.0000 0.66356  0.46864  0.02669  Biso   1.000  Cu
  Cu24     1.0000 0.51938  0.82130  0.53565  Biso   1.000  Cu
  Cu25     1.0000 0.21236  0.98130  0.03287  Biso   1.000  Cu
  Cu26     1.0000 0.99092  0.17975  0.02757  Biso   1.000  Cu
  Cu27     1.0000 0.00256  0.97695  0.23939  Biso   1.000  Cu
  Cu28     1.0000 0.72214  0.98085  0.52748  Biso   1.000  Cu
  Cu29     1.0000 0.50441  0.18066  0.52439  Biso   1.000  Cu
  Cu30     1.0000 0.50370  0.97056  0.32084  Biso   1.000  Cu
  Cu31     1.0000 0.29952  0.48334  0.04052  Biso   1.000  Cu
  Cu32     1.0000 0.52316  0.67888  0.03466  Biso   1.000  Cu
  Cu33     1.0000 0.52215  0.47448  0.24004  Biso   1.000  Cu
  Cu34     1.0000 0.80398  0.48596  0.52327  Biso   1.000  Cu
  Cu35     1.0000 0.02136  0.68331  0.54222  Biso   1.000  Cu
  Cu36     1.0000 0.02563  0.47933  0.32777  Biso   1.000  Cu
  Cu37     1.0000 0.79767  0.96062  0.02841  Biso   1.000  Cu
  Cu38     1.0000 0.02226  0.76986  0.04362  Biso   1.000  Cu
  Cu39     1.0000 0.00795  0.97058  0.82416  Biso   1.000  Cu
  Cu40     1.0000 0.29982  0.97542  0.52808  Biso   1.000  Cu
  Cu41     1.0000 0.51650  0.76777  0.53656  Biso   1.000  Cu
  Cu42     1.0000 0.51185  0.97678  0.73616  Biso   1.000  Cu
  Cu43     1.0000 0.71603  0.46276  0.02558  Biso   1.000  Cu
  Cu44     1.0000 0.49292  0.26562  0.02739  Biso   1.000  Cu
  Cu45     1.0000 0.50032  0.47468  0.82925  Biso   1.000  Cu
  Cu46     1.0000 0.21810  0.46971  0.54636  Biso   1.000  Cu
  Cu47     1.0000 0.00147  0.26579  0.52555  Biso   1.000  Cu
  Cu48     1.0000 0.00157  0.46889  0.73940  Biso   1.000  Cu
  H1       1.0000 0.31336  0.70865  0.52388  Biso   1.000  H
  H2       1.0000 0.55567  0.26163  0.77523  Biso   1.000  H
  H3       1.0000 0.76271  0.43513  0.30729  Biso   1.000  H
  H4       1.0000 0.76577  0.74357  0.98688  Biso   1.000  H
  H5       1.0000 0.95949  0.20856  0.73840  Biso   1.000  H
  H6       1.0000 0.31661  0.50640  0.30778  Biso   1.000  H
  H7       1.0000 0.25733  0.25001  0.55402  Biso   1.000  H
  H8       1.0000 0.98805  0.74650  0.78569  Biso   1.000  H
  H9       1.0000 0.71470  0.97789  0.25882  Biso   1.000  H
  H10      1.0000 0.74851  0.24960  0.06434  Biso   1.000  H
  H11      1.0000 0.45578  0.75737  0.79060  Biso   1.000  H
  H12      1.0000 0.26071  0.00612  0.24341  Biso   1.000  H
  H13      1.0000 0.71684  0.23725  0.49472  Biso   1.000  H
  H14      1.0000 0.55180  0.73106  0.25274  Biso   1.000  H
  H15      1.0000 0.26046  0.42593  0.75319  Biso   1.000  H
  H16      1.0000 0.25330  0.19606  0.06729  Biso   1.000  H
  H17      1.0000 0.01413  0.74276  0.33394  Biso   1.000  H
  H18      1.0000 0.71482  0.51233  0.76811  Biso   1.000  H
  H19      1.0000 0.81241  0.74881  0.50322  Biso   1.000  H
  H20      1.0000 0.03479  0.18547  0.28135  Biso   1.000  H
  H21      1.0000 0.24809  0.01970  0.73753  Biso   1.000  H
  H22      1.0000 0.25921  0.69415  0.07294  Biso   1.000  H
  H23      1.0000 0.54592  0.18211  0.26485  Biso   1.000  H
  H24      1.0000 0.74647  0.92095  0.81678  Biso   1.000  H
  H25      1.0000 0.27127  0.01986  0.82199  Biso   1.000  H
  H26      1.0000 0.78114  0.22616  0.05323  Biso   1.000  H
  H27      1.0000 0.96230  0.71624  0.25085  Biso   1.000  H
  H28      1.0000 0.77174  0.91333  0.73726  Biso   1.000  H
  H29      1.0000 0.23385  0.17716  0.50324  Biso   1.000  H
  H30      1.0000 0.54276  0.76575  0.27663  Biso   1.000  H
  H31      1.0000 0.28554  0.47018  0.77662  Biso   1.000  H
  H32      1.0000 0.78496  0.66690  0.04748  Biso   1.000  H
  H33      1.0000 0.49222  0.26475  0.28678  Biso   1.000  H
  H34      1.0000 0.73586  0.50581  0.73564  Biso   1.000  H
  H35      1.0000 0.23364  0.73019  0.58146  Biso   1.000  H
  H36      1.0000 0.98842  0.27183  0.25828  Biso   1.000  H
  H37      1.0000 0.74264  0.92865  0.24114  Biso   1.000  H
  H38      1.0000 0.27485  0.76965  0.00652  Biso   1.000  H
  H39      1.0000 0.97392  0.23671  0.81515  Biso   1.000  H
  H40      1.0000 0.23709  0.94659  0.32223  Biso   1.000  H
  H41      1.0000 0.78159  0.77349  0.55653  Biso   1.000  H
  H42      1.0000 0.49781  0.18175  0.79248  Biso   1.000  H
  H43      1.0000 0.72548  0.45408  0.29072  Biso   1.000  H
  H44      1.0000 0.22867  0.27698  0.00936  Biso   1.000  H
  H45      1.0000 0.50728  0.67698  0.76702  Biso   1.000  H
  H46      1.0000 0.28670  0.44301  0.33232  Biso   1.000  H
  H47      1.0000 0.73618  0.27185  0.55735  Biso   1.000  H
  H48      1.0000 0.04543  0.67567  0.81496  Biso   1.000  H
  H49      1.0000 0.24565  0.51696  0.29017  Biso   1.000  H
  H50      1.0000 0.29690  0.24221  0.52662  Biso   1.000  H
  H51      1.0000 0.54497  0.20989  0.23334  Biso   1.000  H
  H52      1.0000 0.78573  0.49378  0.23203  Biso   1.000  H
  H53      1.0000 0.72576  0.16738  0.00602  Biso   1.000  H
  H54      1.0000 0.04103  0.21237  0.31050  Biso   1.000  H
  H55      1.0000 0.29305  0.99911  0.26733  Biso   1.000  H
  H56      1.0000 0.28042  0.68746  0.51344  Biso   1.000  H
  H57      1.0000 0.01312  0.77170  0.31034  Biso   1.000  H
  H58      1.0000 0.79766  0.99119  0.29115  Biso   1.000  H
  H59      1.0000 0.73098  0.72670  0.00018  Biso   1.000  H
  H60      1.0000 0.48367  0.70774  0.32595  Biso   1.000  H
  H61      1.0000 0.78463  0.43817  0.78557  Biso   1.000  H
  H62      1.0000 0.73120  0.71330  0.49960  Biso   1.000  H
  H63      1.0000 0.47614  0.73829  0.82882  Biso   1.000  H
  H64      1.0000 0.23443  0.42787  0.84216  Biso   1.000  H
  H65      1.0000 0.24227  0.72850  0.08694  Biso   1.000  H
  H66      1.0000 0.01020  0.73526  0.74792  Biso   1.000  H
  H67      1.0000 0.72762  0.97678  0.78655  Biso   1.000  H
  H68      1.0000 0.79178  0.21854  0.50831  Biso   1.000  H
  H69      1.0000 0.01788  0.17331  0.75970  Biso   1.000  H
  H70      1.0000 0.21952  0.97179  0.76145  Biso   1.000  H
  H71      1.0000 0.28461  0.21959  0.06181  Biso   1.000  H
  H72      1.0000 0.52961  0.24661  0.73220  Biso   1.000  H
  H73      1.0000 0.74800  0.43120  0.80357  Biso   1.000  H
  H74      1.0000 0.75831  0.68914  0.55433  Biso   1.000  H
  H75      1.0000 0.52691  0.71290  0.74878  Biso   1.000  H
  H76      1.0000 0.20539  0.47187  0.81108  Biso   1.000  H
  H77      1.0000 0.30803  0.74852  0.01284  Biso   1.000  H
  H78      1.0000 0.06688  0.71683  0.82682  Biso   1.000  H
  H79      1.0000 0.80565  0.96225  0.75526  Biso   1.000  H
  H80      1.0000 0.76455  0.19679  0.56276  Biso   1.000  H
  H81      1.0000 0.02640  0.25537  0.78458  Biso   1.000  H
  H82      1.0000 0.30043  0.96918  0.79687  Biso   1.000  H
  H83      1.0000 0.20267  0.24394  0.00396  Biso   1.000  H
  H84      1.0000 0.47258  0.21946  0.79956  Biso   1.000  H
  H85      1.0000 0.26227  0.44788  0.25318  Biso   1.000  H
  H86      1.0000 0.21951  0.22259  0.47556  Biso   1.000  H
  H87      1.0000 0.48600  0.23362  0.31191  Biso   1.000  H
  H88      1.0000 0.80538  0.50741  0.26681  Biso   1.000  H
  H89      1.0000 0.69880  0.20203  0.99485  Biso   1.000  H
  H90      1.0000 0.97024  0.23684  0.23906  Biso   1.000  H
  H91      1.0000 0.21904  0.93026  0.28340  Biso   1.000  H
  H92      1.0000 0.25408  0.76499  0.57124  Biso   1.000  H
  H93      1.0000 0.96439  0.68463  0.27801  Biso   1.000  H
  H94      1.0000 0.77098  0.94198  0.33060  Biso   1.000  H
  H95      1.0000 0.80332  0.70284  0.06583  Biso   1.000  H
  H96      1.0000 0.47883  0.68397  0.29337  Biso   1.000  H
  H97      1.0000 0.87542  0.96424  0.93656  Biso   1.000  H
  H98      1.0000 0.92564  0.83910  0.03376  Biso   1.000  H
  H99      1.0000 0.01055  0.87979  0.90081  Biso   1.000  H
  H100     1.0000 0.37622  0.98002  0.62189  Biso   1.000  H
  H101     1.0000 0.42557  0.84670  0.52823  Biso   1.000  H
  H102     1.0000 0.51158  0.88260  0.66261  Biso   1.000  H
  H103     1.0000 0.63886  0.47300  0.93835  Biso   1.000  H
  H104     1.0000 0.58407  0.33836  0.02221  Biso   1.000  H
  H105     1.0000 0.51221  0.38044  0.89772  Biso   1.000  H
  H106     1.0000 0.13845  0.47847  0.63470  Biso   1.000  H
  H107     1.0000 0.09368  0.33806  0.53652  Biso   1.000  H
  H108     1.0000 0.99185  0.38218  0.65841  Biso   1.000  H
  H109     1.0000 0.13571  0.97233  0.11982  Biso   1.000  H
  H110     1.0000 0.08540  0.10838  0.02897  Biso   1.000  H
  H111     1.0000 0.99773  0.06587  0.15957  Biso   1.000  H
  H112     1.0000 0.64419  0.98266  0.43997  Biso   1.000  H
  H113     1.0000 0.59969  0.10287  0.53477  Biso   1.000  H
  H114     1.0000 0.51266  0.06200  0.39310  Biso   1.000  H
  H115     1.0000 0.37746  0.47907  0.12839  Biso   1.000  H
  H116     1.0000 0.42550  0.61032  0.04190  Biso   1.000  H
  H117     1.0000 0.51031  0.56456  0.16794  Biso   1.000  H
  H118     1.0000 0.88415  0.47499  0.43603  Biso   1.000  H
  H119     1.0000 0.93068  0.61269  0.52962  Biso   1.000  H
  H120     1.0000 0.02199  0.56776  0.40423  Biso   1.000  H
  H121     1.0000 0.10183  0.98233  0.89533  Biso   1.000  H
  H122     1.0000 0.86515  0.05619  0.02134  Biso   1.000  H
  H123     1.0000 0.01742  0.83842  0.13196  Biso   1.000  H
  H124     1.0000 0.60452  0.96274  0.65678  Biso   1.000  H
  H125     1.0000 0.37326  0.07112  0.52948  Biso   1.000  H
  H126     1.0000 0.52021  0.83730  0.44439  Biso   1.000  H
  H127     1.0000 0.41070  0.46203  0.90851  Biso   1.000  H
  H128     1.0000 0.65102  0.55484  0.02686  Biso   1.000  H
  H129     1.0000 0.51805  0.34037  0.11753  Biso   1.000  H
  H130     1.0000 0.91076  0.47151  0.66570  Biso   1.000  H
  H131     1.0000 0.15385  0.56344  0.53954  Biso   1.000  H
  H132     1.0000 0.01783  0.33923  0.43499  Biso   1.000  H
  H133     1.0000 0.91171  0.97418  0.16339  Biso   1.000  H
  H134     1.0000 0.14747  0.88709  0.03312  Biso   1.000  H
  H135     1.0000 0.98969  0.10590  0.93820  Biso   1.000  H
  H136     1.0000 0.41366  0.97449  0.39497  Biso   1.000  H
  H137     1.0000 0.65026  0.88544  0.51464  Biso   1.000  H
  H138     1.0000 0.50938  0.10713  0.61839  Biso   1.000  H
  H139     1.0000 0.60595  0.48056  0.16359  Biso   1.000  H
  H140     1.0000 0.36709  0.38809  0.03621  Biso   1.000  H
  H141     1.0000 0.49973  0.60832  0.94711  Biso   1.000  H
  H142     1.0000 0.11507  0.48002  0.40510  Biso   1.000  H
  H143     1.0000 0.87091  0.38945  0.52432  Biso   1.000  H
  H144     1.0000 0.02013  0.60608  0.63350  Biso   1.000  H
  H145     1.0000 0.59323  0.48229  0.89858  Biso   1.000  H
  H146     1.0000 0.88736  0.57297  0.53062  Biso   1.000  H
  H147     1.0000 0.51968  0.83767  0.62468  Biso   1.000  H
  H148     1.0000 0.09499  0.47097  0.66578  Biso   1.000  H
  H149     1.0000 0.37829  0.57025  0.03605  Biso   1.000  H
  H150     1.0000 0.01782  0.83901  0.94865  Biso   1.000  H
  H151     1.0000 0.91734  0.96707  0.89681  Biso   1.000  H
  H152     1.0000 0.64124  0.06333  0.53859  Biso   1.000  H
  H153     1.0000 0.99184  0.34120  0.61276  Biso   1.000  H
  H154     1.0000 0.41869  0.98910  0.66316  Biso   1.000  H
  H155     1.0000 0.13008  0.06754  0.02979  Biso   1.000  H
  H156     1.0000 0.49384  0.33993  0.93469  Biso   1.000  H
  H157     1.0000 0.42660  0.48313  0.16617  Biso   1.000  H
  H158     1.0000 0.13534  0.38048  0.54000  Biso   1.000  H
  H159     1.0000 0.51308  0.10156  0.43368  Biso   1.000  H
  H160     1.0000 0.92690  0.48061  0.39826  Biso   1.000  H
  H161     1.0000 0.63368  0.38086  0.02093  Biso   1.000  H
  H162     1.0000 0.98604  0.10674  0.11974  Biso   1.000  H
  H163     1.0000 0.09281  0.97325  0.16280  Biso   1.000  H
  H164     1.0000 0.38164  0.88860  0.52539  Biso   1.000  H
  H165     1.0000 0.01942  0.60581  0.44878  Biso   1.000  H
  H166     1.0000 0.60079  0.97458  0.39867  Biso   1.000  H
  H167     1.0000 0.87929  0.87612  0.03051  Biso   1.000  H
  H168     1.0000 0.51809  0.60497  0.12952  Biso   1.000  H
  H169     1.0000 0.99842  0.06199  0.89655  Biso   1.000  H
  H170     1.0000 0.86803  0.97134  0.12018  Biso   1.000  H
  H171     1.0000 0.10502  0.84365  0.04827  Biso   1.000  H
  H172     1.0000 0.51322  0.07024  0.65914  Biso   1.000  H
  H173     1.0000 0.37336  0.98299  0.43520  Biso   1.000  H
  H174     1.0000 0.60835  0.84117  0.52928  Biso   1.000  H
  H175     1.0000 0.49579  0.56272  0.90422  Biso   1.000  H
  H176     1.0000 0.64598  0.47770  0.11926  Biso   1.000  H
  H177     1.0000 0.40492  0.34181  0.03954  Biso   1.000  H
  H178     1.0000 0.01375  0.56305  0.67638  Biso   1.000  H
  H179     1.0000 0.15466  0.47947  0.44934  Biso   1.000  H
  H180     1.0000 0.91069  0.34603  0.52127  Biso   1.000  H
  H181     1.0000 0.01455  0.88454  0.17145  Biso   1.000  H
  H182     1.0000 0.14394  0.98555  0.93799  Biso   1.000  H
  H183     1.0000 0.90636  0.10275  0.02233  Biso   1.000  H
  H184     1.0000 0.51045  0.88044  0.40115  Biso   1.000  H
  H185     1.0000 0.64510  0.96386  0.61480  Biso   1.000  H
  H186     1.0000 0.41139  0.10972  0.52381  Biso   1.000  H
  H187     1.0000 0.52341  0.38675  0.16077  Biso   1.000  H
  H188     1.0000 0.36902  0.48002  0.95100  Biso   1.000  H
  H189     1.0000 0.60838  0.59932  0.03586  Biso   1.000  H
  H190     1.0000 0.01771  0.38366  0.39742  Biso   1.000  H
  H191     1.0000 0.87258  0.46593  0.62194  Biso   1.000  H
  H192     1.0000 0.11311  0.60471  0.53429  Biso   1.000  H
  H193     1.0000 0.28657  0.82867  0.53550  Biso   1.000  H
  H194     1.0000 0.49438  0.24786  0.87916  Biso   1.000  H
  H195     1.0000 0.88350  0.48065  0.29551  Biso   1.000  H
  H196     1.0000 0.78628  0.81535  0.02231  Biso   1.000  H
  H197     1.0000 0.99361  0.24150  0.66512  Biso   1.000  H
  H198     1.0000 0.38051  0.47129  0.26778  Biso   1.000  H
  H199     1.0000 0.23340  0.33234  0.52472  Biso   1.000  H
  H200     1.0000 0.02833  0.74169  0.89803  Biso   1.000  H
  H201     1.0000 0.64874  0.95897  0.30279  Biso   1.000  H
  H202     1.0000 0.72338  0.31663  0.02230  Biso   1.000  H
  H203     1.0000 0.49866  0.74782  0.68416  Biso   1.000  H
  H204     1.0000 0.14901  0.96263  0.25959  Biso   1.000  H
  H205     1.0000 0.73635  0.12284  0.53374  Biso   1.000  H
  H206     1.0000 0.52792  0.70205  0.18008  Biso   1.000  H
  H207     1.0000 0.13858  0.44779  0.76503  Biso   1.000  H
  H208     1.0000 0.22610  0.12325  0.04250  Biso   1.000  H
  H209     1.0000 0.98925  0.70144  0.40065  Biso   1.000  H
  H210     1.0000 0.64319  0.48107  0.80090  Biso   1.000  H
  H211     1.0000 0.79052  0.62518  0.51798  Biso   1.000  H
  H212     1.0000 0.99519  0.20634  0.17101  Biso   1.000  H
  H213     1.0000 0.36828  0.99567  0.75942  Biso   1.000  H
  H214     1.0000 0.28860  0.63223  0.02860  Biso   1.000  H
  H215     1.0000 0.51660  0.20094  0.38208  Biso   1.000  H
  H216     1.0000 0.86819  0.93446  0.80337  Biso   1.000  H
  H217     1.0000 0.25291  0.47194  0.40091  Biso   1.000  H
  H218     1.0000 0.35568  0.20231  0.50244  Biso   1.000  H
  H219     1.0000 0.53153  0.32999  0.25566  Biso   1.000  H
  H220     1.0000 0.74381  0.46271  0.16900  Biso   1.000  H
  H221     1.0000 0.84814  0.19539  0.03032  Biso   1.000  H
  H222     1.0000 0.02750  0.33583  0.29718  Biso   1.000  H
  H223     1.0000 0.27707  0.97378  0.38700  Biso   1.000  H
  H224     1.0000 0.16625  0.70174  0.53576  Biso   1.000  H
  H225     1.0000 0.98289  0.83627  0.26637  Biso   1.000  H
  H226     1.0000 0.77129  0.96653  0.17256  Biso   1.000  H
  H227     1.0000 0.66571  0.69469  0.03760  Biso   1.000  H
  H228     1.0000 0.48788  0.82680  0.30822  Biso   1.000  H
  H229     1.0000 0.77054  0.47625  0.66116  Biso   1.000  H
  H230     1.0000 0.66742  0.74898  0.53696  Biso   1.000  H
  H231     1.0000 0.47826  0.61167  0.80790  Biso   1.000  H
  H232     1.0000 0.27297  0.47069  0.89894  Biso   1.000  H
  H233     1.0000 0.16370  0.75305  0.06834  Biso   1.000  H
  H234     1.0000 0.00303  0.61371  0.77140  Biso   1.000  H
  H235     1.0000 0.74227  0.94695  0.66944  Biso   1.000  H
  H236     1.0000 0.85580  0.25103  0.53488  Biso   1.000  H
  H237     1.0000 0.99055  0.10805  0.79732  Biso   1.000  H
  H238     1.0000 0.24158  0.98418  0.88889  Biso   1.000  H
  H239     1.0000 0.34409  0.25057  0.03069  Biso   1.000  H
  H240     1.0000 0.53227  0.12137  0.75254  Biso   1.000  H
  H241     1.0000 0.73052  0.45985  0.87981  Biso   1.000  H
  H242     1.0000 0.87607  0.70985  0.54018  Biso   1.000  H
  H243     1.0000 0.49439  0.83303  0.76118  Biso   1.000  H
  H244     1.0000 0.23019  0.45748  0.68770  Biso   1.000  H
  H245     1.0000 0.37951  0.70902  0.05033  Biso   1.000  H
  H246     1.0000 0.02121  0.81995  0.80947  Biso   1.000  H
  H247     1.0000 0.77777  0.96171  0.88233  Biso   1.000  H
  H248     1.0000 0.63899  0.20398  0.53489  Biso   1.000  H
  H249     1.0000 0.99397  0.32681  0.75457  Biso   1.000  H
  H250     1.0000 0.28272  0.98282  0.67508  Biso   1.000  H
  H251     1.0000 0.13738  0.20719  0.03078  Biso   1.000  H
  H252     1.0000 0.51368  0.33193  0.79965  Biso   1.000  H
  H253     1.0000 0.28804  0.48723  0.18714  Biso   1.000  H
  H254     1.0000 0.14609  0.24737  0.50855  Biso   1.000  H
  H255     1.0000 0.50709  0.11540  0.29626  Biso   1.000  H
  H256     1.0000 0.79161  0.48157  0.37724  Biso   1.000  H
  H257     1.0000 0.63335  0.24057  0.02444  Biso   1.000  H
  H258     1.0000 0.99714  0.11843  0.25742  Biso   1.000  H
  H259     1.0000 0.23312  0.97108  0.17457  Biso   1.000  H
  H260     1.0000 0.37694  0.75143  0.55674  Biso   1.000  H
  H261     1.0000 0.00287  0.62248  0.30893  Biso   1.000  H
  H262     1.0000 0.74057  0.98411  0.38397  Biso   1.000  H
  H263     1.0000 0.87655  0.74038  0.02950  Biso   1.000  H
  H264     1.0000 0.51869  0.61794  0.26560  Biso   1.000  H
  H265     1.0000 0.99813  0.20096  0.88210  Biso   1.000  H
  H266     1.0000 0.85883  0.96069  0.25785  Biso   1.000  H
  H267     1.0000 0.24681  0.84096  0.03507  Biso   1.000  H
  H268     1.0000 0.49276  0.20482  0.66551  Biso   1.000  H
  H269     1.0000 0.35704  0.96400  0.29831  Biso   1.000  H
  H270     1.0000 0.75009  0.83516  0.51308  Biso   1.000  H
  H271     1.0000 0.51952  0.70006  0.88777  Biso   1.000  H
  H272     1.0000 0.66644  0.48196  0.25559  Biso   1.000  H
  H273     1.0000 0.26808  0.34321  0.04129  Biso   1.000  H
  H274     1.0000 0.03982  0.69785  0.68940  Biso   1.000  H
  H275     1.0000 0.17076  0.48424  0.31169  Biso   1.000  H
  H276     1.0000 0.77265  0.33963  0.52518  Biso   1.000  H
  H277     1.0000 0.01477  0.74726  0.18969  Biso   1.000  H
  H278     1.0000 0.15386  0.98956  0.79785  Biso   1.000  H
  H279     1.0000 0.76573  0.10434  0.03274  Biso   1.000  H
  H280     1.0000 0.51821  0.74067  0.39202  Biso   1.000  H
  H281     1.0000 0.65644  0.95074  0.75614  Biso   1.000  H
  H282     1.0000 0.27614  0.12152  0.53898  Biso   1.000  H
  H283     1.0000 0.50523  0.24750  0.17244  Biso   1.000  H
  H284     1.0000 0.35167  0.45704  0.81351  Biso   1.000  H
  H285     1.0000 0.74565  0.60845  0.01202  Biso   1.000  H
  H286     1.0000 0.01915  0.24334  0.38289  Biso   1.000  H
  H287     1.0000 0.85131  0.48306  0.75889  Biso   1.000  H
  H288     1.0000 0.25102  0.61140  0.54922  Biso   1.000  H
  H289     1.0000 0.08115  0.20420  0.02842  Biso   1.000  H
  H290     1.0000 0.99889  0.06412  0.25535  Biso   1.000  H
  H291     1.0000 0.23014  0.98161  0.12134  Biso   1.000  H
  H292     1.0000 0.59055  0.19740  0.52892  Biso   1.000  H
  H293     1.0000 0.50469  0.06331  0.29466  Biso   1.000  H
  H294     1.0000 0.74262  0.98948  0.43515  Biso   1.000  H
  H295     1.0000 0.43311  0.70389  0.05664  Biso   1.000  H
  H296     1.0000 0.51597  0.56328  0.26472  Biso   1.000  H
  H297     1.0000 0.28456  0.48640  0.13949  Biso   1.000  H
  H298     1.0000 0.93117  0.70687  0.54007  Biso   1.000  H
  H299     1.0000 0.01767  0.56907  0.31014  Biso   1.000  H
  H300     1.0000 0.78983  0.47890  0.43221  Biso   1.000  H
  H301     1.0000 0.93289  0.74391  0.03583  Biso   1.000  H
  H302     1.0000 0.01196  0.87423  0.80393  Biso   1.000  H
  H303     1.0000 0.77906  0.95849  0.93761  Biso   1.000  H
  H304     1.0000 0.43264  0.75770  0.56084  Biso   1.000  H
  H305     1.0000 0.49388  0.89082  0.75472  Biso   1.000  H
  H306     1.0000 0.27913  0.98033  0.62206  Biso   1.000  H
  H307     1.0000 0.57962  0.24318  0.01912  Biso   1.000  H
  H308     1.0000 0.51927  0.38822  0.79966  Biso   1.000  H
  H309     1.0000 0.73306  0.45764  0.93345  Biso   1.000  H
  H310     1.0000 0.09303  0.24589  0.51039  Biso   1.000  H
  H311     1.0000 0.99374  0.38106  0.75462  Biso   1.000  H
  H312     1.0000 0.22956  0.45831  0.63076  Biso   1.000  H
  H313     1.0000 0.24022  0.98768  0.94144  Biso   1.000  H
  H314     1.0000 0.89822  0.19806  0.02384  Biso   1.000  H
  H315     1.0000 0.98462  0.89107  0.26260  Biso   1.000  H
  H316     1.0000 0.74193  0.95770  0.61745  Biso   1.000  H
  H317     1.0000 0.41267  0.20202  0.50219  Biso   1.000  H
  H318     1.0000 0.49452  0.88014  0.30509  Biso   1.000  H
  H319     1.0000 0.27223  0.48204  0.94940  Biso   1.000  H
  H320     1.0000 0.61032  0.69435  0.04143  Biso   1.000  H
  H321     1.0000 0.53958  0.38034  0.25606  Biso   1.000  H
  H322     1.0000 0.77463  0.48082  0.61012  Biso   1.000  H
  H323     1.0000 0.11062  0.69888  0.52421  Biso   1.000  H
  H324     1.0000 0.02793  0.39184  0.30251  Biso   1.000  H
  H325     1.0000 0.77324  0.96507  0.11941  Biso   1.000  H
  H326     1.0000 0.11059  0.75162  0.07162  Biso   1.000  H
  H327     1.0000 0.98678  0.05610  0.80204  Biso   1.000  H
  H328     1.0000 0.27878  0.98126  0.44061  Biso   1.000  H
  H329     1.0000 0.61386  0.74609  0.53632  Biso   1.000  H
  H330     1.0000 0.53832  0.06475  0.75153  Biso   1.000  H
  H331     1.0000 0.73971  0.46062  0.11247  Biso   1.000  H
  H332     1.0000 0.39936  0.24664  0.02712  Biso   1.000  H
  H333     1.0000 0.47092  0.55927  0.81247  Biso   1.000  H
  H334     1.0000 0.25147  0.46557  0.45578  Biso   1.000  H
  H335     1.0000 0.91324  0.25034  0.52844  Biso   1.000  H
  H336     1.0000 0.99009  0.55771  0.76958  Biso   1.000  H
  H337     1.0000 0.00884  0.20097  0.93630  Biso   1.000  H
  H338     1.0000 0.91145  0.96413  0.25789  Biso   1.000  H
  H339     1.0000 0.24225  0.89125  0.02790  Biso   1.000  H
  H340     1.0000 0.48361  0.19932  0.61482  Biso   1.000  H
  H341     1.0000 0.40894  0.96075  0.29675  Biso   1.000  H
  H342     1.0000 0.74783  0.89047  0.51393  Biso   1.000  H
  H343     1.0000 0.52095  0.70344  0.94093  Biso   1.000  H
  H344     1.0000 0.61246  0.48677  0.25643  Biso   1.000  H
  H345     1.0000 0.27491  0.39859  0.04561  Biso   1.000  H
  H346     1.0000 0.04591  0.69577  0.63795  Biso   1.000  H
  H347     1.0000 0.11854  0.48781  0.30898  Biso   1.000  H
  H348     1.0000 0.77685  0.39244  0.51706  Biso   1.000  H
  H349     1.0000 0.01820  0.74466  0.13499  Biso   1.000  H
  H350     1.0000 0.09690  0.98989  0.80176  Biso   1.000  H
  H351     1.0000 0.77073  0.04870  0.03210  Biso   1.000  H
  H352     1.0000 0.52246  0.74031  0.44203  Biso   1.000  H
  H353     1.0000 0.60559  0.96340  0.75638  Biso   1.000  H
  H354     1.0000 0.27720  0.06683  0.54982  Biso   1.000  H
  H355     1.0000 0.50450  0.24607  0.12044  Biso   1.000  H
  H356     1.0000 0.40615  0.47113  0.81244  Biso   1.000  H
  H357     1.0000 0.74389  0.55312  0.01785  Biso   1.000  H
  H358     1.0000 0.01659  0.24526  0.43563  Biso   1.000  H
  H359     1.0000 0.90589  0.48537  0.76356  Biso   1.000  H
  H360     1.0000 0.24843  0.55990  0.54995  Biso   1.000  H
  H361     1.0000 0.99160  0.69521  0.45686  Biso   1.000  H
  H362     1.0000 0.42041  0.99174  0.75829  Biso   1.000  H
  H363     1.0000 0.72861  0.37022  0.01818  Biso   1.000  H
  H364     1.0000 0.52580  0.70141  0.12453  Biso   1.000  H
  H365     1.0000 0.92226  0.93303  0.81038  Biso   1.000  H
  H366     1.0000 0.23108  0.38196  0.53187  Biso   1.000  H
  H367     1.0000 0.52478  0.19750  0.43554  Biso   1.000  H
  H368     1.0000 0.08404  0.44506  0.75758  Biso   1.000  H
  H369     1.0000 0.78271  0.87250  0.02196  Biso   1.000  H
  H370     1.0000 0.98951  0.20187  0.11462  Biso   1.000  H
  H371     1.0000 0.58783  0.48736  0.80438  Biso   1.000  H
  H372     1.0000 0.28483  0.88038  0.52917  Biso   1.000  H
  H373     1.0000 0.99042  0.24724  0.61270  Biso   1.000  H
  H374     1.0000 0.59616  0.95525  0.30366  Biso   1.000  H
  H375     1.0000 0.28316  0.57746  0.02853  Biso   1.000  H
  H376     1.0000 0.48851  0.24525  0.93365  Biso   1.000  H
  H377     1.0000 0.09278  0.96813  0.25653  Biso   1.000  H
  H378     1.0000 0.79208  0.57414  0.51522  Biso   1.000  H
  H379     1.0000 0.50719  0.74370  0.62761  Biso   1.000  H
  H380     1.0000 0.93345  0.48842  0.30227  Biso   1.000  H
  H381     1.0000 0.22654  0.07192  0.04948  Biso   1.000  H
  H382     1.0000 0.03617  0.74506  0.95324  Biso   1.000  H
  H383     1.0000 0.43389  0.46999  0.26201  Biso   1.000  H
  H384     1.0000 0.73895  0.07036  0.53996  Biso   1.000  H
  H385     1.0000 0.24733  0.44026  0.36770  Biso   1.000  H
  H386     1.0000 0.27257  0.14060  0.50165  Biso   1.000  H
  H387     1.0000 0.49121  0.30199  0.25202  Biso   1.000  H
  H388     1.0000 0.68821  0.45077  0.25445  Biso   1.000  H
  H389     1.0000 0.81931  0.18790  0.05461  Biso   1.000  H
  H390     1.0000 0.99142  0.30774  0.29591  Biso   1.000  H
  H391     1.0000 0.27416  0.93992  0.35726  Biso   1.000  H
  H392     1.0000 0.19606  0.69794  0.57729  Biso   1.000  H
  H393     1.0000 0.97359  0.74894  0.21087  Biso   1.000  H
  H394     1.0000 0.77959  0.93266  0.20040  Biso   1.000  H
  H395     1.0000 0.74603  0.63529  0.05509  Biso   1.000  H
  H396     1.0000 0.53835  0.80287  0.31172  Biso   1.000  H
  H397     1.0000 0.77071  0.50449  0.69863  Biso   1.000  H
  H398     1.0000 0.74197  0.80605  0.55421  Biso   1.000  H
  H399     1.0000 0.51382  0.64185  0.80534  Biso   1.000  H
  H400     1.0000 0.32037  0.48458  0.81800  Biso   1.000  H
  H401     1.0000 0.23156  0.80688  0.01014  Biso   1.000  H
  H402     1.0000 0.04432  0.63572  0.77392  Biso   1.000  H
  H403     1.0000 0.73354  0.91526  0.70062  Biso   1.000  H
  H404     1.0000 0.77142  0.31001  0.55900  Biso   1.000  H
  H405     1.0000 0.96915  0.20005  0.85234  Biso   1.000  H
  H406     1.0000 0.23945  0.01367  0.85920  Biso   1.000  H
  H407     1.0000 0.26672  0.31235  0.01004  Biso   1.000  H
  H408     1.0000 0.49132  0.14683  0.75363  Biso   1.000  H
  H409     1.0000 0.30016  0.45036  0.21620  Biso   1.000  H
  H410     1.0000 0.18121  0.25731  0.47861  Biso   1.000  H
  H411     1.0000 0.48077  0.19627  0.34752  Biso   1.000  H
  H412     1.0000 0.84539  0.50550  0.29793  Biso   1.000  H
  H413     1.0000 0.66621  0.24103  0.99152  Biso   1.000  H
  H414     1.0000 0.96400  0.20143  0.20386  Biso   1.000  H
  H415     1.0000 0.18013  0.93249  0.25008  Biso   1.000  H
  H416     1.0000 0.28561  0.80418  0.56988  Biso   1.000  H
  H417     1.0000 0.96625  0.64510  0.31593  Biso   1.000  H
  H418     1.0000 0.73151  0.94341  0.36300  Biso   1.000  H
  H419     1.0000 0.84048  0.74246  0.06902  Biso   1.000  H
  H420     1.0000 0.48163  0.64665  0.25683  Biso   1.000  H
  H421     1.0000 0.71393  0.43303  0.84335  Biso   1.000  H
  H422     1.0000 0.79087  0.65419  0.55545  Biso   1.000  H
  H423     1.0000 0.53540  0.75276  0.71860  Biso   1.000  H
  H424     1.0000 0.16927  0.47752  0.77196  Biso   1.000  H
  H425     1.0000 0.34802  0.71118  0.01247  Biso   1.000  H
  H426     1.0000 0.06611  0.75413  0.86272  Biso   1.000  H
  H427     1.0000 0.83824  0.97233  0.79683  Biso   1.000  H
  H428     1.0000 0.73123  0.15580  0.56431  Biso   1.000  H
  H429     1.0000 0.02268  0.29651  0.75130  Biso   1.000  H
  H430     1.0000 0.33734  0.96301  0.76105  Biso   1.000  H
  H431     1.0000 0.16770  0.20452  0.00038  Biso   1.000  H
  H432     1.0000 0.46584  0.25415  0.83741  Biso   1.000  H
  H433     1.0000 0.28299  0.01912  0.70097  Biso   1.000  H
  H434     1.0000 0.71379  0.28565  0.06037  Biso   1.000  H
  H435     1.0000 0.02290  0.70264  0.36742  Biso   1.000  H
  H436     1.0000 0.77871  0.92507  0.85753  Biso   1.000  H
  H437     1.0000 0.21826  0.29032  0.55924  Biso   1.000  H
  H438     1.0000 0.55803  0.69445  0.21810  Biso   1.000  H
  H439     1.0000 0.22216  0.42362  0.71701  Biso   1.000  H
  H440     1.0000 0.79953  0.78447  0.99066  Biso   1.000  H
  H441     1.0000 0.54664  0.14709  0.30089  Biso   1.000  H
  H442     1.0000 0.67689  0.51074  0.80593  Biso   1.000  H
  H443     1.0000 0.34930  0.74555  0.52389  Biso   1.000  H
  H444     1.0000 0.02963  0.14916  0.24647  Biso   1.000  H
  H445     1.0000 0.67713  0.98288  0.29529  Biso   1.000  H
  H446     1.0000 0.29288  0.65688  0.06907  Biso   1.000  H
  H447     1.0000 0.95630  0.24718  0.69883  Biso   1.000  H
  H448     1.0000 0.22464  0.00562  0.20432  Biso   1.000  H
  H449     1.0000 0.85116  0.71215  0.50806  Biso   1.000  H
  H450     1.0000 0.54778  0.29770  0.81129  Biso   1.000  H
  H451     1.0000 0.80088  0.43498  0.34771  Biso   1.000  H
  H452     1.0000 0.21552  0.15586  0.06705  Biso   1.000  H
  H453     1.0000 0.46115  0.79867  0.75417  Biso   1.000  H
  H454     1.0000 0.35136  0.50966  0.27038  Biso   1.000  H
  H455     1.0000 0.67973  0.19404  0.49536  Biso   1.000  H
  H456     1.0000 0.98301  0.78499  0.82125  Biso   1.000  H
  H457     1.0000 0.69468  0.74719  0.49455  Biso   1.000  H
  H458     1.0000 0.47831  0.70210  0.86786  Biso   1.000  H
  H459     1.0000 0.82620  0.44495  0.75060  Biso   1.000  H
  H460     1.0000 0.20358  0.76138  0.08721  Biso   1.000  H
  H461     1.0000 0.00455  0.69685  0.71628  Biso   1.000  H
  H462     1.0000 0.27523  0.42919  0.87887  Biso   1.000  H
  H463     1.0000 0.82586  0.25440  0.50279  Biso   1.000  H
  H464     1.0000 0.02171  0.14293  0.79865  Biso   1.000  H
  H465     1.0000 0.68692  0.98070  0.74911  Biso   1.000  H
  H466     1.0000 0.32265  0.25296  0.06498  Biso   1.000  H
  H467     1.0000 0.53039  0.20872  0.69211  Biso   1.000  H
  H468     1.0000 0.18534  0.96002  0.80307  Biso   1.000  H
  H469     1.0000 0.33343  0.20657  0.54023  Biso   1.000  H
  H470     1.0000 0.54480  0.24633  0.19523  Biso   1.000  H
  H471     1.0000 0.20512  0.51432  0.32000  Biso   1.000  H
  H472     1.0000 0.76475  0.13315  0.99875  Biso   1.000  H
  H473     1.0000 0.04260  0.24724  0.34966  Biso   1.000  H
  H474     1.0000 0.74969  0.49938  0.19468  Biso   1.000  H
  H475     1.0000 0.24815  0.64835  0.51235  Biso   1.000  H
  H476     1.0000 0.01993  0.80299  0.27585  Biso   1.000  H
  H477     1.0000 0.33131  0.99595  0.30662  Biso   1.000  H
  H478     1.0000 0.69180  0.69472  0.99764  Biso   1.000  H
  H479     1.0000 0.48175  0.74821  0.36237  Biso   1.000  H
  H480     1.0000 0.83103  0.99731  0.25255  Biso   1.000  H
  N1       1.0000 0.68133  0.15329  0.53274  Biso   1.000  N
  N2       1.0000 0.51674  0.65020  0.21253  Biso   1.000  N
  N3       1.0000 0.17539  0.45443  0.71755  Biso   1.000  N
  N4       1.0000 0.17048  0.15470  0.03292  Biso   1.000  N
  N5       1.0000 0.99966  0.65201  0.36712  Biso   1.000  N
  N6       1.0000 0.67701  0.47444  0.85193  Biso   1.000  N
  N7       1.0000 0.84409  0.65818  0.52984  Biso   1.000  N
  N8       1.0000 0.99396  0.15067  0.20348  Biso   1.000  N
  N9       1.0000 0.33374  0.99014  0.70707  Biso   1.000  N
  N10      1.0000 0.34293  0.65905  0.04085  Biso   1.000  N
  N11      1.0000 0.51163  0.14829  0.34922  Biso   1.000  N
  N12      1.0000 0.83126  0.95347  0.85152  Biso   1.000  N
  N13      1.0000 0.34177  0.79911  0.54289  Biso   1.000  N
  N14      1.0000 0.50268  0.29958  0.85012  Biso   1.000  N
  N15      1.0000 0.84651  0.47337  0.34790  Biso   1.000  N
  N16      1.0000 0.84348  0.78746  0.02995  Biso   1.000  N
  N17      1.0000 0.99038  0.29484  0.70118  Biso   1.000  N
  N18      1.0000 0.34596  0.47952  0.21893  Biso   1.000  N
  N19      1.0000 0.17812  0.29803  0.52366  Biso   1.000  N
  N20      1.0000 0.02253  0.79238  0.86583  Biso   1.000  N
  N21      1.0000 0.68227  0.97013  0.35337  Biso   1.000  N
  N22      1.0000 0.66850  0.28943  0.02081  Biso   1.000  N
  N23      1.0000 0.50152  0.79859  0.71294  Biso   1.000  N
  N24      1.0000 0.17927  0.96765  0.20580  Biso   1.000  N
  N25      1.0000 0.82082  0.47301  0.70152  Biso   1.000  N
  N26      1.0000 0.69636  0.80088  0.52065  Biso   1.000  N
  N27      1.0000 0.49791  0.64679  0.85910  Biso   1.000  N
  N28      1.0000 0.32422  0.45788  0.86857  Biso   1.000  N
  N29      1.0000 0.19413  0.80475  0.04750  Biso   1.000  N
  N30      1.0000 0.02168  0.64447  0.72113  Biso   1.000  N
  N31      1.0000 0.68696  0.95103  0.70156  Biso   1.000  N
  N32      1.0000 0.82467  0.30539  0.53015  Biso   1.000  N
  N33      1.0000 0.99523  0.14597  0.85020  Biso   1.000  N
  N34      1.0000 0.18712  0.98592  0.85277  Biso   1.000  N
  N35      1.0000 0.31804  0.30692  0.03783  Biso   1.000  N
  N36      1.0000 0.51212  0.15320  0.70133  Biso   1.000  N
  N37      1.0000 0.20258  0.47847  0.36734  Biso   1.000  N
  N38      1.0000 0.32749  0.15145  0.51976  Biso   1.000  N
  N39      1.0000 0.52157  0.29884  0.20232  Biso   1.000  N
  N40      1.0000 0.69414  0.47245  0.19987  Biso   1.000  N
  N41      1.0000 0.81622  0.13917  0.02518  Biso   1.000  N
  N42      1.0000 0.01763  0.29968  0.34877  Biso   1.000  N
  N43      1.0000 0.32714  0.96913  0.35481  Biso   1.000  N
  N44      1.0000 0.19783  0.64908  0.54439  Biso   1.000  N
  N45      1.0000 0.00126  0.80030  0.21879  Biso   1.000  N
  N46      1.0000 0.82716  0.96366  0.20531  Biso   1.000  N
  N47      1.0000 0.69503  0.64087  0.02615  Biso   1.000  N
  N48      1.0000 0.50708  0.79549  0.35907  Biso   1.000  N
  O1       1.0000 0.34957  0.52361  0.03697  Biso   1.000  O
  O2       1.0000 0.00201  0.31904  0.56698  Biso   1.000  O
  O3       1.0000 0.54461  0.97006  0.37235  Biso   1.000  O
  O4       1.0000 0.86167  0.52253  0.52751  Biso   1.000  O
  O5       1.0000 0.48839  0.31562  0.98575  Biso   1.000  O
  O6       1.0000 0.04463  0.97585  0.18375  Biso   1.000  O
  O7       1.0000 0.15609  0.01704  0.02905  Biso   1.000  O
  O8       1.0000 0.52416  0.81387  0.57703  Biso   1.000  O
  O9       1.0000 0.98170  0.48207  0.37806  Biso   1.000  O
  O10      1.0000 0.66933  0.01819  0.53618  Biso   1.000  O
  O11      1.0000 0.02612  0.82128  0.99844  Biso   1.000  O
  O12      1.0000 0.47855  0.47202  0.18679  Biso   1.000  O
  O13      1.0000 0.66307  0.42664  0.02248  Biso   1.000  O
  O14      1.0000 0.01391  0.62917  0.50168  Biso   1.000  O
  O15      1.0000 0.46810  0.98021  0.68425  Biso   1.000  O
  O16      1.0000 0.16010  0.43054  0.53795  Biso   1.000  O
  O17      1.0000 0.52051  0.63011  0.07616  Biso   1.000  O
  O18      1.0000 0.97043  0.95774  0.87583  Biso   1.000  O
  O19      1.0000 0.85280  0.92326  0.02884  Biso   1.000  O
  O20      1.0000 0.50560  0.12941  0.48476  Biso   1.000  O
  O21      1.0000 0.03999  0.47244  0.68931  Biso   1.000  O
  O22      1.0000 0.35340  0.93378  0.53180  Biso   1.000  O
  O23      1.0000 0.98832  0.12752  0.07078  Biso   1.000  O
  O24      1.0000 0.54521  0.47915  0.87904  Biso   1.000  O
  O25      1.0000 0.96119  0.97227  0.18801  Biso   1.000  O
  O26      1.0000 0.16699  0.93534  0.02865  Biso   1.000  O
  O27      1.0000 0.99748  0.12918  0.98707  Biso   1.000  O
  O28      1.0000 0.46100  0.97044  0.37245  Biso   1.000  O
  O29      1.0000 0.67102  0.93488  0.52075  Biso   1.000  O
  O30      1.0000 0.49895  0.12874  0.56723  Biso   1.000  O
  O31      1.0000 0.55952  0.48168  0.18949  Biso   1.000  O
  O32      1.0000 0.34645  0.44035  0.04477  Biso   1.000  O
  O33      1.0000 0.51320  0.63032  0.99162  Biso   1.000  O
  O34      1.0000 0.06837  0.47457  0.37872  Biso   1.000  O
  O35      1.0000 0.85072  0.43900  0.52628  Biso   1.000  O
  O36      1.0000 0.02437  0.62828  0.58540  Biso   1.000  O
  O37      1.0000 0.05356  0.97729  0.87386  Biso   1.000  O
  O38      1.0000 0.84467  0.00573  0.02678  Biso   1.000  O
  O39      1.0000 0.01804  0.81773  0.08286  Biso   1.000  O
  O40      1.0000 0.55138  0.97614  0.68418  Biso   1.000  O
  O41      1.0000 0.34922  0.01591  0.53158  Biso   1.000  O
  O42      1.0000 0.51613  0.81566  0.49229  Biso   1.000  O
  O43      1.0000 0.46023  0.46561  0.87866  Biso   1.000  O
  O44      1.0000 0.66713  0.51056  0.02645  Biso   1.000  O
  O45      1.0000 0.50158  0.31785  0.06961  Biso   1.000  O
  O46      1.0000 0.95728  0.47411  0.69086  Biso   1.000  O
  O47      1.0000 0.17338  0.51595  0.54410  Biso   1.000  O
  O48      1.0000 0.00863  0.31550  0.48281  Biso   1.000  O
  O49      1.0000 0.00443  0.93422  0.19173  Biso   1.000  O
  O50      1.0000 0.16373  0.97777  0.98531  Biso   1.000  O
  O51      1.0000 0.95163  0.12795  0.02451  Biso   1.000  O
  O52      1.0000 0.50675  0.93029  0.37682  Biso   1.000  O
  O53      1.0000 0.66936  0.97067  0.56912  Biso   1.000  O
  O54      1.0000 0.45953  0.13144  0.52223  Biso   1.000  O
  O55      1.0000 0.52743  0.43411  0.18688  Biso   1.000  O
  O56      1.0000 0.34916  0.48076  0.99838  Biso   1.000  O
  O57      1.0000 0.55911  0.62703  0.03501  Biso   1.000  O
  O58      1.0000 0.02236  0.43286  0.37750  Biso   1.000  O
  O59      1.0000 0.85115  0.47863  0.56988  Biso   1.000  O
  O60      1.0000 0.06060  0.63133  0.53828  Biso   1.000  O
  O61      1.0000 0.00825  0.01210  0.87573  Biso   1.000  O
  O62      1.0000 0.84315  0.96552  0.07043  Biso   1.000  O
  O63      1.0000 0.06279  0.82235  0.04648  Biso   1.000  O
  O64      1.0000 0.51390  0.01750  0.68337  Biso   1.000  O
  O65      1.0000 0.35290  0.97700  0.48854  Biso   1.000  O
  O66      1.0000 0.56246  0.81800  0.53079  Biso   1.000  O
  O67      1.0000 0.49486  0.51246  0.88319  Biso   1.000  O
  O68      1.0000 0.66524  0.46406  0.06955  Biso   1.000  O
  O69      1.0000 0.45360  0.31749  0.03256  Biso   1.000  O
  O70      1.0000 0.99958  0.51414  0.69487  Biso   1.000  O
  O71      1.0000 0.17523  0.47466  0.50002  Biso   1.000  O
  O72      1.0000 0.96274  0.31973  0.52636  Biso   1.000  O
  O73      1.0000 0.99735  0.43214  0.68886  Biso   1.000  O
  O74      1.0000 0.66937  0.98754  0.48502  Biso   1.000  O
  O75      1.0000 0.47667  0.63078  0.03806  Biso   1.000  O
  O76      1.0000 0.51018  0.43124  0.87500  Biso   1.000  O
  O77      1.0000 0.15888  0.97546  0.06907  Biso   1.000  O
  O78      1.0000 0.97731  0.63441  0.54531  Biso   1.000  O
  O79      1.0000 0.50754  0.93431  0.68345  Biso   1.000  O
  O80      1.0000 0.85894  0.47873  0.48576  Biso   1.000  O
  O81      1.0000 0.03682  0.12904  0.03192  Biso   1.000  O
  O82      1.0000 0.02237  0.92675  0.87401  Biso   1.000  O
  O83      1.0000 0.35449  0.48573  0.08347  Biso   1.000  O
  O84      1.0000 0.54418  0.12626  0.52639  Biso   1.000  O
  O85      1.0000 0.02515  0.51967  0.38040  Biso   1.000  O
  O86      1.0000 0.35014  0.97590  0.57239  Biso   1.000  O
  O87      1.0000 0.53696  0.31485  0.02297  Biso   1.000  O
  O88      1.0000 0.51324  0.51732  0.19028  Biso   1.000  O
  O89      1.0000 0.85116  0.96719  0.98833  Biso   1.000  O
  O90      1.0000 0.04613  0.31736  0.53018  Biso   1.000  O
  O91      1.0000 0.50330  0.01412  0.37002  Biso   1.000  O
  O92      1.0000 0.16363  0.47293  0.58130  Biso   1.000  O
  O93      1.0000 0.97873  0.81900  0.03783  Biso   1.000  O
  O94      1.0000 0.00262  0.01665  0.18294  Biso   1.000  O
  O95      1.0000 0.66489  0.46918  0.98399  Biso   1.000  O
  O96      1.0000 0.47826  0.82515  0.53775  Biso   1.000  O
  O97      1.0000 0.46384  0.17965  0.51616  Biso   1.000  O
  O98      1.0000 0.53087  0.43356  0.23526  Biso   1.000  O
  O99      1.0000 0.22350  0.46999  0.50462  Biso   1.000  O
  O100     1.0000 0.94937  0.17605  0.02403  Biso   1.000  O
  O101     1.0000 0.02470  0.43628  0.32995  Biso   1.000  O
  O102     1.0000 0.71399  0.46722  0.06777  Biso   1.000  O
  O103     1.0000 0.06219  0.67953  0.53487  Biso   1.000  O
  O104     1.0000 0.00221  0.93537  0.23986  Biso   1.000  O
  O105     1.0000 0.30541  0.97696  0.48942  Biso   1.000  O
  O106     1.0000 0.56490  0.67421  0.03519  Biso   1.000  O
  O107     1.0000 0.50193  0.92890  0.32730  Biso   1.000  O
  O108     1.0000 0.79558  0.96173  0.07058  Biso   1.000  O
  O109     1.0000 0.55993  0.77006  0.53705  Biso   1.000  O
  O110     1.0000 0.48488  0.51182  0.83531  Biso   1.000  O
  O111     1.0000 0.80357  0.48814  0.56462  Biso   1.000  O
  O112     1.0000 0.06238  0.77337  0.04880  Biso   1.000  O
  O113     1.0000 0.01073  0.51150  0.74264  Biso   1.000  O
  O114     1.0000 0.30158  0.48974  0.00058  Biso   1.000  O
  O115     1.0000 0.95715  0.27235  0.51837  Biso   1.000  O
  O116     1.0000 0.00220  0.01192  0.82705  Biso   1.000  O
  O117     1.0000 0.71917  0.96997  0.57035  Biso   1.000  O
  O118     1.0000 0.45023  0.26889  0.03016  Biso   1.000  O
  O119     1.0000 0.51858  0.02009  0.73220  Biso   1.000  O
  O120     1.0000 0.21349  0.98654  0.99069  Biso   1.000  O
  O121     1.0000 0.04174  0.46773  0.73735  Biso   1.000  O
  O122     1.0000 0.71826  0.02103  0.53747  Biso   1.000  O
  O123     1.0000 0.52663  0.67769  0.07624  Biso   1.000  O
  O124     1.0000 0.53988  0.48696  0.82996  Biso   1.000  O
  O125     1.0000 0.20486  0.01992  0.03280  Biso   1.000  O
  O126     1.0000 0.01402  0.67754  0.49887  Biso   1.000  O
  O127     1.0000 0.46824  0.98122  0.73308  Biso   1.000  O
  O128     1.0000 0.81230  0.52596  0.52287  Biso   1.000  O
  O129     1.0000 0.99043  0.17625  0.06821  Biso   1.000  O
  O130     1.0000 0.96621  0.96482  0.82758  Biso   1.000  O
  O131     1.0000 0.30123  0.52669  0.04319  Biso   1.000  O
  O132     1.0000 0.51329  0.17606  0.48221  Biso   1.000  O
  O133     1.0000 0.98266  0.48020  0.32888  Biso   1.000  O
  O134     1.0000 0.30544  0.93429  0.52714  Biso   1.000  O
  O135     1.0000 0.48815  0.26792  0.98470  Biso   1.000  O
  O136     1.0000 0.48190  0.47019  0.23639  Biso   1.000  O
  O137     1.0000 0.80353  0.92086  0.02407  Biso   1.000  O
  O138     1.0000 0.99458  0.27078  0.56607  Biso   1.000  O
  O139     1.0000 0.54870  0.96817  0.32442  Biso   1.000  O
  O140     1.0000 0.20902  0.43001  0.54439  Biso   1.000  O
  O141     1.0000 0.02276  0.77191  0.00163  Biso   1.000  O
  O142     1.0000 0.04375  0.97772  0.23279  Biso   1.000  O
  O143     1.0000 0.71089  0.42054  0.02789  Biso   1.000  O
  O144     1.0000 0.51619  0.76610  0.57842  Biso   1.000  O
  O145     1.0000 0.56301  0.48304  0.23764  Biso   1.000  O
  O146     1.0000 0.22149  0.51151  0.54759  Biso   1.000  O
  O147     1.0000 0.49686  0.17759  0.56481  Biso   1.000  O
  O148     1.0000 0.06914  0.47885  0.32963  Biso   1.000  O
  O149     1.0000 0.71623  0.50408  0.02347  Biso   1.000  O
  O150     1.0000 0.99146  0.17733  0.98487  Biso   1.000  O
  O151     1.0000 0.96166  0.97588  0.23664  Biso   1.000  O
  O152     1.0000 0.30111  0.01624  0.53160  Biso   1.000  O
  O153     1.0000 0.02549  0.67715  0.58519  Biso   1.000  O
  O154     1.0000 0.46136  0.97055  0.32397  Biso   1.000  O
  O155     1.0000 0.79542  0.00217  0.02779  Biso   1.000  O
  O156     1.0000 0.51881  0.67878  0.99351  Biso   1.000  O
  O157     1.0000 0.45691  0.46218  0.83078  Biso   1.000  O
  O158     1.0000 0.80191  0.44307  0.52314  Biso   1.000  O
  O159     1.0000 0.51771  0.76622  0.49600  Biso   1.000  O
  O160     1.0000 0.96128  0.47270  0.73982  Biso   1.000  O
  O161     1.0000 0.29812  0.44243  0.03729  Biso   1.000  O
  O162     1.0000 0.01529  0.76894  0.08406  Biso   1.000  O
  O163     1.0000 0.05165  0.97903  0.82402  Biso   1.000  O
  O164     1.0000 0.71870  0.93997  0.51524  Biso   1.000  O
  O165     1.0000 0.00842  0.26637  0.48314  Biso   1.000  O
  O166     1.0000 0.55217  0.96630  0.73233  Biso   1.000  O
  O167     1.0000 0.21493  0.94020  0.03223  Biso   1.000  O
  O168     1.0000 0.49641  0.27004  0.07097  Biso   1.000  O
  O169     1.0000 0.00462  0.01784  0.23306  Biso   1.000  O
  O170     1.0000 0.20794  0.97882  0.07254  Biso   1.000  O
  O171     1.0000 0.03486  0.17722  0.02841  Biso   1.000  O
  O172     1.0000 0.50618  0.01202  0.32143  Biso   1.000  O
  O173     1.0000 0.71812  0.98998  0.48661  Biso   1.000  O
  O174     1.0000 0.54598  0.17274  0.53132  Biso   1.000  O
  O175     1.0000 0.51220  0.51517  0.23810  Biso   1.000  O
  O176     1.0000 0.30654  0.47841  0.08215  Biso   1.000  O
  O177     1.0000 0.48047  0.67990  0.03798  Biso   1.000  O
  O178     1.0000 0.02562  0.52096  0.33199  Biso   1.000  O
  O179     1.0000 0.81122  0.48690  0.48142  Biso   1.000  O
  O180     1.0000 0.97820  0.68430  0.54403  Biso   1.000  O
  O181     1.0000 0.01196  0.92680  0.82675  Biso   1.000  O
  O182     1.0000 0.80217  0.96362  0.98475  Biso   1.000  O
  O183     1.0000 0.97958  0.77039  0.03905  Biso   1.000  O
  O184     1.0000 0.50539  0.93665  0.73194  Biso   1.000  O
  O185     1.0000 0.30247  0.97288  0.56934  Biso   1.000  O
  O186     1.0000 0.47657  0.77573  0.53423  Biso   1.000  O
  O187     1.0000 0.51082  0.43561  0.82779  Biso   1.000  O
  O188     1.0000 0.71398  0.46345  0.98256  Biso   1.000  O
  O189     1.0000 0.53448  0.26603  0.02542  Biso   1.000  O
  O190     1.0000 0.99760  0.42674  0.73623  Biso   1.000  O
  O191     1.0000 0.21163  0.46975  0.58676  Biso   1.000  O
  O192     1.0000 0.04428  0.26828  0.53178  Biso   1.000  O
