data_image0
_cell_length_a       46.5507
_cell_length_b       46.6569
_cell_length_c       46.5689
_cell_angle_alpha    90
_cell_angle_beta     90
_cell_angle_gamma    90

_symmetry_space_group_name_H-M    "P 1"
_symmetry_int_tables_number       1

loop_
  _symmetry_equiv_pos_as_xyz
  'x, y, z'

loop_
  _atom_site_label
  _atom_site_occupancy
  _atom_site_fract_x
  _atom_site_fract_y
  _atom_site_fract_z
  _atom_site_thermal_displace_type
  _atom_site_B_iso_or_equiv
  _atom_site_type_symbol
  C1       1.0000 0.55601  0.95615  0.33167  Biso   1.000  C
  C2       1.0000 0.32757  0.51972  0.02258  Biso   1.000  C
  C3       1.0000 0.00996  0.28280  0.58184  Biso   1.000  C
  C4       1.0000 0.05859  0.95030  0.20133  Biso   1.000  C
  C5       1.0000 0.83400  0.51490  0.52619  Biso   1.000  C
  C6       1.0000 0.51032  0.28587  0.96760  Biso   1.000  C
  C7       1.0000 0.95465  0.45055  0.33818  Biso   1.000  C
  C8       1.0000 0.19071  0.01956  0.02535  Biso   1.000  C
  C9       1.0000 0.50640  0.78278  0.57658  Biso   1.000  C
  C10      1.0000 0.45162  0.46816  0.20267  Biso   1.000  C
  C11      1.0000 0.69503  0.01504  0.49793  Biso   1.000  C
  C12      1.0000 0.01874  0.77900  0.95258  Biso   1.000  C
  C13      1.0000 0.47015  0.96666  0.69449  Biso   1.000  C
  C14      1.0000 0.68841  0.39441  0.01337  Biso   1.000  C
  C15      1.0000 0.01346  0.63854  0.45144  Biso   1.000  C
  C16      1.0000 0.96840  0.97903  0.83569  Biso   1.000  C
  C17      1.0000 0.19346  0.40688  0.52381  Biso   1.000  C
  C18      1.0000 0.52857  0.63803  0.07480  Biso   1.000  C
  C19      1.0000 0.06646  0.46134  0.69756  Biso   1.000  C
  C20      1.0000 0.83602  0.89656  0.01229  Biso   1.000  C
  C21      1.0000 0.50727  0.14015  0.46110  Biso   1.000  C
  C22      1.0000 0.56841  0.46274  0.83441  Biso   1.000  C
  C23      1.0000 0.32951  0.91417  0.51235  Biso   1.000  C
  C24      1.0000 0.00217  0.13642  0.08288  Biso   1.000  C
  C25      1.0000 0.33284  0.01933  0.53328  Biso   1.000  C
  C26      1.0000 0.49329  0.28697  0.07460  Biso   1.000  C
  C27      1.0000 0.06389  0.44188  0.34328  Biso   1.000  C
  C28      1.0000 0.83296  0.00450  0.99373  Biso   1.000  C
  C29      1.0000 0.01000  0.27516  0.47312  Biso   1.000  C
  C30      1.0000 0.56093  0.46318  0.19963  Biso   1.000  C
  C31      1.0000 0.19654  0.51825  0.51958  Biso   1.000  C
  C32      1.0000 0.02654  0.77453  0.06227  Biso   1.000  C
  C33      1.0000 0.44806  0.97491  0.34381  Biso   1.000  C
  C34      1.0000 0.69582  0.50235  0.03091  Biso   1.000  C
  C35      1.0000 0.51948  0.78215  0.46575  Biso   1.000  C
  C36      1.0000 0.95048  0.94378  0.19083  Biso   1.000  C
  C37      1.0000 0.69217  0.90681  0.50978  Biso   1.000  C
  C38      1.0000 0.52441  0.64141  0.96657  Biso   1.000  C
  C39      1.0000 0.95657  0.48041  0.69716  Biso   1.000  C
  C40      1.0000 0.19828  0.91283  0.01922  Biso   1.000  C
  C41      1.0000 0.01329  0.64445  0.56049  Biso   1.000  C
  C42      1.0000 0.45789  0.45903  0.84359  Biso   1.000  C
  C43      1.0000 0.83210  0.40659  0.51427  Biso   1.000  C
  C44      1.0000 0.01269  0.14794  0.97424  Biso   1.000  C
  C45      1.0000 0.57880  0.96623  0.69431  Biso   1.000  C
  C46      1.0000 0.32548  0.41118  0.02018  Biso   1.000  C
  C47      1.0000 0.52685  0.14400  0.57201  Biso   1.000  C
  C48      1.0000 0.07761  0.96195  0.83864  Biso   1.000  C
  C49      1.0000 0.02957  0.02676  0.84196  Biso   1.000  C
  C50      1.0000 0.83371  0.95398  0.05661  Biso   1.000  C
  C51      1.0000 0.07646  0.77980  0.00411  Biso   1.000  C
  C52      1.0000 0.52001  0.01803  0.69656  Biso   1.000  C
  C53      1.0000 0.32323  0.97762  0.47084  Biso   1.000  C
  C54      1.0000 0.56481  0.78575  0.53050  Biso   1.000  C
  C55      1.0000 0.51331  0.51610  0.83885  Biso   1.000  C
  C56      1.0000 0.69083  0.43884  0.07537  Biso   1.000  C
  C57      1.0000 0.44999  0.28816  0.00863  Biso   1.000  C
  C58      1.0000 0.01898  0.52501  0.69590  Biso   1.000  C
  C59      1.0000 0.19612  0.45589  0.46802  Biso   1.000  C
  C60      1.0000 0.95461  0.27600  0.52783  Biso   1.000  C
  C61      1.0000 0.01126  0.89180  0.19573  Biso   1.000  C
  C62      1.0000 0.20016  0.97044  0.96962  Biso   1.000  C
  C63      1.0000 0.95273  0.13961  0.02600  Biso   1.000  C
  C64      1.0000 0.49699  0.90924  0.34159  Biso   1.000  C
  C65      1.0000 0.69493  0.96439  0.55845  Biso   1.000  C
  C66      1.0000 0.46340  0.14008  0.52912  Biso   1.000  C
  C67      1.0000 0.50717  0.41293  0.19942  Biso   1.000  C
  C68      1.0000 0.32789  0.46584  0.96971  Biso   1.000  C
  C69      1.0000 0.57941  0.63824  0.01378  Biso   1.000  C
  C70      1.0000 0.00401  0.39197  0.34380  Biso   1.000  C
  C71      1.0000 0.83082  0.45587  0.57477  Biso   1.000  C
  C72      1.0000 0.06820  0.64106  0.50646  Biso   1.000  C
  C73      1.0000 0.01570  0.50246  0.33960  Biso   1.000  C
  C74      1.0000 0.33510  0.95435  0.57532  Biso   1.000  C
  C75      1.0000 0.55540  0.28147  0.03254  Biso   1.000  C
  C76      1.0000 0.50624  0.51968  0.20677  Biso   1.000  C
  C77      1.0000 0.83830  0.94755  0.94911  Biso   1.000  C
  C78      1.0000 0.06372  0.28027  0.52470  Biso   1.000  C
  C79      1.0000 0.50873  0.01390  0.33588  Biso   1.000  C
  C80      1.0000 0.19570  0.46746  0.57343  Biso   1.000  C
  C81      1.0000 0.96725  0.77592  0.00827  Biso   1.000  C
  C82      1.0000 0.99702  0.99943  0.20019  Biso   1.000  C
  C83      1.0000 0.69024  0.45707  0.96833  Biso   1.000  C
  C84      1.0000 0.45619  0.78311  0.51392  Biso   1.000  C
  C85      1.0000 0.99818  0.41672  0.70174  Biso   1.000  C
  C86      1.0000 0.69117  0.95778  0.44952  Biso   1.000  C
  C87      1.0000 0.46964  0.63528  0.02266  Biso   1.000  C
  C88      1.0000 0.51712  0.40848  0.83823  Biso   1.000  C
  C89      1.0000 0.18936  0.96515  0.07807  Biso   1.000  C
  C90      1.0000 0.95713  0.64528  0.50687  Biso   1.000  C
  C91      1.0000 0.52526  0.91385  0.70091  Biso   1.000  C
  C92      1.0000 0.83032  0.46494  0.46679  Biso   1.000  C
  C93      1.0000 0.06194  0.14431  0.03025  Biso   1.000  C
  C94      1.0000 0.01658  0.91917  0.83606  Biso   1.000  C
  C95      1.0000 0.32835  0.46690  0.07725  Biso   1.000  C
  C96      1.0000 0.57027  0.14468  0.51004  Biso   1.000  C
  C97      1.0000 0.69568  0.04698  0.49724  Biso   1.000  C
  C98      1.0000 0.52612  0.64010  0.10735  Biso   1.000  C
  C99      1.0000 0.09932  0.45831  0.69861  Biso   1.000  C
  C100     1.0000 0.18977  0.05120  0.02204  Biso   1.000  C
  C101     1.0000 0.02060  0.63474  0.42186  Biso   1.000  C
  C102     1.0000 0.59917  0.45811  0.83625  Biso   1.000  C
  C103     1.0000 0.83313  0.54582  0.53206  Biso   1.000  C
  C104     1.0000 0.99987  0.13526  0.11524  Biso   1.000  C
  C105     1.0000 0.43785  0.96437  0.69661  Biso   1.000  C
  C106     1.0000 0.33145  0.55094  0.01818  Biso   1.000  C
  C107     1.0000 0.50510  0.14170  0.42799  Biso   1.000  C
  C108     1.0000 0.93573  0.98392  0.83290  Biso   1.000  C
  C109     1.0000 0.32719  0.88273  0.51308  Biso   1.000  C
  C110     1.0000 0.51534  0.28471  0.93729  Biso   1.000  C
  C111     1.0000 0.92203  0.45516  0.33827  Biso   1.000  C
  C112     1.0000 0.83455  0.86437  0.01537  Biso   1.000  C
  C113     1.0000 0.00579  0.28387  0.61422  Biso   1.000  C
  C114     1.0000 0.41989  0.46523  0.20415  Biso   1.000  C
  C115     1.0000 0.19502  0.37538  0.52704  Biso   1.000  C
  C116     1.0000 0.02259  0.78295  0.92044  Biso   1.000  C
  C117     1.0000 0.58809  0.95495  0.32974  Biso   1.000  C
  C118     1.0000 0.68687  0.36272  0.01756  Biso   1.000  C
  C119     1.0000 0.51026  0.78400  0.60702  Biso   1.000  C
  C120     1.0000 0.09056  0.95476  0.20238  Biso   1.000  C
  C121     1.0000 0.83214  0.95673  0.08863  Biso   1.000  C
  C122     1.0000 0.10898  0.78166  0.00313  Biso   1.000  C
  C123     1.0000 0.01952  0.05791  0.84325  Biso   1.000  C
  C124     1.0000 0.31981  0.97874  0.43902  Biso   1.000  C
  C125     1.0000 0.59818  0.78384  0.52819  Biso   1.000  C
  C126     1.0000 0.51450  0.04951  0.69377  Biso   1.000  C
  C127     1.0000 0.69020  0.44114  0.10748  Biso   1.000  C
  C128     1.0000 0.41894  0.29001  0.99882  Biso   1.000  C
  C129     1.0000 0.51656  0.54797  0.83615  Biso   1.000  C
  C130     1.0000 0.19628  0.45130  0.43504  Biso   1.000  C
  C131     1.0000 0.92348  0.27556  0.52667  Biso   1.000  C
  C132     1.0000 0.02464  0.55604  0.69451  Biso   1.000  C
  C133     1.0000 0.20109  0.96873  0.93688  Biso   1.000  C
  C134     1.0000 0.92043  0.13663  0.02504  Biso   1.000  C
  C135     1.0000 0.01566  0.85980  0.19495  Biso   1.000  C
  C136     1.0000 0.69777  0.96920  0.59018  Biso   1.000  C
  C137     1.0000 0.43041  0.14008  0.53181  Biso   1.000  C
  C138     1.0000 0.49320  0.87761  0.34179  Biso   1.000  C
  C139     1.0000 0.32878  0.46429  0.93800  Biso   1.000  C
  C140     1.0000 0.61127  0.63748  0.01503  Biso   1.000  C
  C141     1.0000 0.51511  0.38125  0.19878  Biso   1.000  C
  C142     1.0000 0.82879  0.46080  0.60579  Biso   1.000  C
  C143     1.0000 0.10004  0.64158  0.50465  Biso   1.000  C
  C144     1.0000 0.99712  0.36141  0.34496  Biso   1.000  C
  C145     1.0000 0.32562  0.46568  0.10933  Biso   1.000  C
  C146     1.0000 0.09623  0.27959  0.52091  Biso   1.000  C
  C147     1.0000 0.51213  0.04664  0.33481  Biso   1.000  C
  C148     1.0000 0.82838  0.46835  0.43537  Biso   1.000  C
  C149     1.0000 0.58656  0.27585  0.03135  Biso   1.000  C
  C150     1.0000 0.99110  0.03169  0.20243  Biso   1.000  C
  C151     1.0000 0.18763  0.96755  0.11002  Biso   1.000  C
  C152     1.0000 0.42371  0.78419  0.51376  Biso   1.000  C
  C153     1.0000 0.02118  0.53397  0.33700  Biso   1.000  C
  C154     1.0000 0.68978  0.96103  0.41709  Biso   1.000  C
  C155     1.0000 0.93493  0.77328  0.00842  Biso   1.000  C
  C156     1.0000 0.50266  0.55214  0.20517  Biso   1.000  C
  C157     1.0000 0.69030  0.45514  0.93640  Biso   1.000  C
  C158     1.0000 0.92467  0.64446  0.50953  Biso   1.000  C
  C159     1.0000 0.52408  0.88209  0.70005  Biso   1.000  C
  C160     1.0000 0.19711  0.46882  0.60618  Biso   1.000  C
  C161     1.0000 0.43721  0.63753  0.02170  Biso   1.000  C
  C162     1.0000 0.01834  0.88776  0.83183  Biso   1.000  C
  C163     1.0000 0.83911  0.95233  0.91668  Biso   1.000  C
  C164     1.0000 0.60216  0.14363  0.50592  Biso   1.000  C
  C165     1.0000 0.99473  0.38533  0.70157  Biso   1.000  C
  C166     1.0000 0.33788  0.94649  0.60635  Biso   1.000  C
  C167     1.0000 0.09420  0.14606  0.03065  Biso   1.000  C
  C168     1.0000 0.51934  0.37565  0.83938  Biso   1.000  C
  C169     1.0000 0.02439  0.77297  0.09445  Biso   1.000  C
  C170     1.0000 0.10934  0.95642  0.83982  Biso   1.000  C
  C171     1.0000 0.83265  0.03826  0.99327  Biso   1.000  C
  C172     1.0000 0.51830  0.78252  0.43381  Biso   1.000  C
  C173     1.0000 0.61041  0.97160  0.69237  Biso   1.000  C
  C174     1.0000 0.33345  0.04898  0.54375  Biso   1.000  C
  C175     1.0000 0.49265  0.28773  0.10563  Biso   1.000  C
  C176     1.0000 0.42541  0.46205  0.84455  Biso   1.000  C
  C177     1.0000 0.69736  0.53452  0.03285  Biso   1.000  C
  C178     1.0000 0.00978  0.27057  0.44170  Biso   1.000  C
  C179     1.0000 0.92443  0.48068  0.69693  Biso   1.000  C
  C180     1.0000 0.19719  0.55058  0.51680  Biso   1.000  C
  C181     1.0000 0.01586  0.15054  0.94204  Biso   1.000  C
  C182     1.0000 0.91819  0.94819  0.18957  Biso   1.000  C
  C183     1.0000 0.19904  0.88038  0.01778  Biso   1.000  C
  C184     1.0000 0.53228  0.14430  0.60323  Biso   1.000  C
  C185     1.0000 0.41613  0.98359  0.34519  Biso   1.000  C
  C186     1.0000 0.69327  0.87430  0.50979  Biso   1.000  C
  C187     1.0000 0.52679  0.64208  0.93429  Biso   1.000  C
  C188     1.0000 0.59379  0.46337  0.20010  Biso   1.000  C
  C189     1.0000 0.32381  0.37999  0.01456  Biso   1.000  C
  C190     1.0000 0.01106  0.64580  0.59262  Biso   1.000  C
  C191     1.0000 0.09681  0.44181  0.34295  Biso   1.000  C
  C192     1.0000 0.83260  0.37551  0.51381  Biso   1.000  C
  C193     1.0000 0.86441  0.96159  0.90211  Biso   1.000  C
  C194     1.0000 0.91657  0.79834  0.00945  Biso   1.000  C
  C195     1.0000 0.01876  0.86933  0.85717  Biso   1.000  C
  C196     1.0000 0.36561  0.95066  0.62262  Biso   1.000  C
  C197     1.0000 0.40813  0.81273  0.51526  Biso   1.000  C
  C198     1.0000 0.52115  0.86698  0.67266  Biso   1.000  C
  C199     1.0000 0.66423  0.45672  0.91876  Biso   1.000  C
  C200     1.0000 0.60429  0.30086  0.03019  Biso   1.000  C
  C201     1.0000 0.52131  0.35947  0.86704  Biso   1.000  C
  C202     1.0000 0.17003  0.46819  0.62240  Biso   1.000  C
  C203     1.0000 0.11235  0.30684  0.52395  Biso   1.000  C
  C204     1.0000 0.99988  0.36841  0.67536  Biso   1.000  C
  C205     1.0000 0.16060  0.95904  0.12559  Biso   1.000  C
  C206     1.0000 0.11173  0.11924  0.02970  Biso   1.000  C
  C207     1.0000 0.98976  0.04942  0.17635  Biso   1.000  C
  C208     1.0000 0.66140  0.95921  0.40329  Biso   1.000  C
  C209     1.0000 0.61781  0.11650  0.50764  Biso   1.000  C
  C210     1.0000 0.51284  0.06249  0.36166  Biso   1.000  C
  C211     1.0000 0.35417  0.46366  0.12431  Biso   1.000  C
  C212     1.0000 0.41898  0.61137  0.01957  Biso   1.000  C
  C213     1.0000 0.50453  0.56528  0.17635  Biso   1.000  C
  C214     1.0000 0.85467  0.46710  0.41747  Biso   1.000  C
  C215     1.0000 0.90864  0.61650  0.50931  Biso   1.000  C
  C216     1.0000 0.02140  0.55253  0.36140  Biso   1.000  C
  C217     1.0000 0.12412  0.95676  0.86799  Biso   1.000  C
  C218     1.0000 0.85916  0.05551  0.00066  Biso   1.000  C
  C219     1.0000 0.02353  0.79817  0.11388  Biso   1.000  C
  C220     1.0000 0.62466  0.97118  0.66443  Biso   1.000  C
  C221     1.0000 0.36030  0.06397  0.54111  Biso   1.000  C
  C222     1.0000 0.51131  0.80899  0.41909  Biso   1.000  C
  C223     1.0000 0.41008  0.45882  0.87187  Biso   1.000  C
  C224     1.0000 0.67100  0.55214  0.03314  Biso   1.000  C
  C225     1.0000 0.49968  0.31382  0.12122  Biso   1.000  C
  C226     1.0000 0.90922  0.47475  0.66998  Biso   1.000  C
  C227     1.0000 0.16889  0.56611  0.51402  Biso   1.000  C
  C228     1.0000 0.00444  0.29630  0.42500  Biso   1.000  C
  C229     1.0000 0.90446  0.95120  0.16131  Biso   1.000  C
  C230     1.0000 0.17397  0.86324  0.01157  Biso   1.000  C
  C231     1.0000 0.01769  0.12496  0.92590  Biso   1.000  C
  C232     1.0000 0.40003  0.98169  0.37230  Biso   1.000  C
  C233     1.0000 0.66493  0.86007  0.51270  Biso   1.000  C
  C234     1.0000 0.53258  0.11710  0.62004  Biso   1.000  C
  C235     1.0000 0.61099  0.46091  0.17249  Biso   1.000  C
  C236     1.0000 0.35091  0.36396  0.00688  Biso   1.000  C
  C237     1.0000 0.52295  0.61483  0.91807  Biso   1.000  C
  C238     1.0000 0.11241  0.44523  0.36986  Biso   1.000  C
  C239     1.0000 0.86008  0.35908  0.52200  Biso   1.000  C
  C240     1.0000 0.01381  0.62040  0.61211  Biso   1.000  C
  C241     1.0000 0.61394  0.45736  0.86474  Biso   1.000  C
  C242     1.0000 0.85961  0.56298  0.52664  Biso   1.000  C
  C243     1.0000 0.51789  0.81093  0.62159  Biso   1.000  C
  C244     1.0000 0.11675  0.46073  0.67230  Biso   1.000  C
  C245     1.0000 0.36159  0.56361  0.01533  Biso   1.000  C
  C246     1.0000 0.02451  0.81228  0.90705  Biso   1.000  C
  C247     1.0000 0.91790  0.97335  0.85716  Biso   1.000  C
  C248     1.0000 0.66799  0.06301  0.49899  Biso   1.000  C
  C249     1.0000 0.00462  0.31233  0.62861  Biso   1.000  C
  C250     1.0000 0.41894  0.95747  0.67127  Biso   1.000  C
  C251     1.0000 0.16262  0.06721  0.02237  Biso   1.000  C
  C252     1.0000 0.51718  0.30980  0.91965  Biso   1.000  C
  C253     1.0000 0.40492  0.46543  0.17534  Biso   1.000  C
  C254     1.0000 0.16741  0.36071  0.52435  Biso   1.000  C
  C255     1.0000 0.50781  0.11449  0.41332  Biso   1.000  C
  C256     1.0000 0.90494  0.45797  0.36491  Biso   1.000  C
  C257     1.0000 0.65687  0.34773  0.02249  Biso   1.000  C
  C258     1.0000 0.99302  0.10668  0.12719  Biso   1.000  C
  C259     1.0000 0.10674  0.95500  0.17585  Biso   1.000  C
  C260     1.0000 0.35416  0.86688  0.51468  Biso   1.000  C
  C261     1.0000 0.02554  0.60734  0.40905  Biso   1.000  C
  C262     1.0000 0.60736  0.95516  0.35392  Biso   1.000  C
  C263     1.0000 0.86288  0.84778  0.01094  Biso   1.000  C
  C264     1.0000 0.51999  0.61380  0.12504  Biso   1.000  C
  C265     1.0000 0.01918  0.07289  0.87175  Biso   1.000  C
  C266     1.0000 0.85690  0.95473  0.10713  Biso   1.000  C
  C267     1.0000 0.12497  0.80924  0.00549  Biso   1.000  C
  C268     1.0000 0.52077  0.06565  0.66829  Biso   1.000  C
  C269     1.0000 0.34593  0.98318  0.42328  Biso   1.000  C
  C270     1.0000 0.61424  0.81019  0.52084  Biso   1.000  C
  C271     1.0000 0.51980  0.56265  0.86322  Biso   1.000  C
  C272     1.0000 0.66251  0.44968  0.12077  Biso   1.000  C
  C273     1.0000 0.40110  0.31583  0.00418  Biso   1.000  C
  C274     1.0000 0.01968  0.57139  0.66640  Biso   1.000  C
  C275     1.0000 0.16683  0.45058  0.42100  Biso   1.000  C
  C276     1.0000 0.90713  0.30250  0.52707  Biso   1.000  C
  C277     1.0000 0.01869  0.84578  0.16804  Biso   1.000  C
  C278     1.0000 0.17376  0.96647  0.91994  Biso   1.000  C
  C279     1.0000 0.90753  0.10934  0.01594  Biso   1.000  C
  C280     1.0000 0.49671  0.86147  0.36952  Biso   1.000  C
  C281     1.0000 0.67245  0.96717  0.60865  Biso   1.000  C
  C282     1.0000 0.41408  0.11336  0.53507  Biso   1.000  C
  C283     1.0000 0.51340  0.36474  0.17103  Biso   1.000  C
  C284     1.0000 0.35728  0.46056  0.92292  Biso   1.000  C
  C285     1.0000 0.62354  0.60955  0.02106  Biso   1.000  C
  C286     1.0000 0.99929  0.34550  0.37184  Biso   1.000  C
  C287     1.0000 0.85629  0.46207  0.62061  Biso   1.000  C
  C288     1.0000 0.11617  0.61474  0.50590  Biso   1.000  C
  C289     1.0000 0.35477  0.83539  0.50821  Biso   1.000  C
  C290     1.0000 0.52070  0.30813  0.88906  Biso   1.000  C
  C291     1.0000 0.87341  0.45870  0.36338  Biso   1.000  C
  C292     1.0000 0.86237  0.81591  0.01477  Biso   1.000  C
  C293     1.0000 0.00418  0.31353  0.65991  Biso   1.000  C
  C294     1.0000 0.37466  0.46837  0.17760  Biso   1.000  C
  C295     1.0000 0.16631  0.32794  0.52496  Biso   1.000  C
  C296     1.0000 0.02195  0.81572  0.87590  Biso   1.000  C
  C297     1.0000 0.63836  0.95942  0.35166  Biso   1.000  C
  C298     1.0000 0.65860  0.31710  0.02562  Biso   1.000  C
  C299     1.0000 0.51966  0.81150  0.65333  Biso   1.000  C
  C300     1.0000 0.13828  0.95735  0.17757  Biso   1.000  C
  C301     1.0000 0.66981  0.09440  0.50045  Biso   1.000  C
  C302     1.0000 0.51382  0.61644  0.15551  Biso   1.000  C
  C303     1.0000 0.14847  0.46231  0.67453  Biso   1.000  C
  C304     1.0000 0.16418  0.09797  0.02268  Biso   1.000  C
  C305     1.0000 0.02994  0.60657  0.37812  Biso   1.000  C
  C306     1.0000 0.64557  0.45527  0.86588  Biso   1.000  C
  C307     1.0000 0.85808  0.59483  0.52736  Biso   1.000  C
  C308     1.0000 0.99106  0.10477  0.15940  Biso   1.000  C
  C309     1.0000 0.38798  0.95566  0.67438  Biso   1.000  C
  C310     1.0000 0.36328  0.59452  0.01770  Biso   1.000  C
  C311     1.0000 0.50762  0.11420  0.38191  Biso   1.000  C
  C312     1.0000 0.88658  0.97504  0.85317  Biso   1.000  C
  C313     1.0000 0.16589  0.44792  0.38952  Biso   1.000  C
  C314     1.0000 0.38205  0.11605  0.53607  Biso   1.000  C
  C315     1.0000 0.51199  0.33317  0.17235  Biso   1.000  C
  C316     1.0000 0.66380  0.45454  0.15184  Biso   1.000  C
  C317     1.0000 0.87623  0.10949  0.01493  Biso   1.000  C
  C318     1.0000 0.00110  0.31408  0.37171  Biso   1.000  C
  C319     1.0000 0.34563  0.98313  0.39242  Biso   1.000  C
  C320     1.0000 0.14833  0.61613  0.50940  Biso   1.000  C
  C321     1.0000 0.02220  0.81489  0.16757  Biso   1.000  C
  C322     1.0000 0.85301  0.95575  0.13782  Biso   1.000  C
  C323     1.0000 0.65502  0.60564  0.02274  Biso   1.000  C
  C324     1.0000 0.50208  0.83067  0.36714  Biso   1.000  C
  C325     1.0000 0.85521  0.46613  0.65107  Biso   1.000  C
  C326     1.0000 0.64569  0.80737  0.52132  Biso   1.000  C
  C327     1.0000 0.52099  0.59488  0.86403  Biso   1.000  C
  C328     1.0000 0.35710  0.45788  0.89170  Biso   1.000  C
  C329     1.0000 0.15570  0.80970  0.01066  Biso   1.000  C
  C330     1.0000 0.02076  0.60233  0.66552  Biso   1.000  C
  C331     1.0000 0.67592  0.97011  0.63905  Biso   1.000  C
  C332     1.0000 0.87775  0.30336  0.51860  Biso   1.000  C
  C333     1.0000 0.01678  0.10434  0.87196  Biso   1.000  C
  C334     1.0000 0.17645  0.96342  0.89010  Biso   1.000  C
  C335     1.0000 0.37045  0.31462  0.99954  Biso   1.000  C
  C336     1.0000 0.52177  0.09783  0.67053  Biso   1.000  C
  C337     1.0000 0.66650  0.45338  0.88828  Biso   1.000  C
  C338     1.0000 0.87841  0.61585  0.51980  Biso   1.000  C
  C339     1.0000 0.52087  0.83488  0.67405  Biso   1.000  C
  C340     1.0000 0.17086  0.46563  0.65356  Biso   1.000  C
  C341     1.0000 0.38684  0.61421  0.01954  Biso   1.000  C
  C342     1.0000 0.02116  0.83836  0.85409  Biso   1.000  C
  C343     1.0000 0.86414  0.97024  0.87246  Biso   1.000  C
  C344     1.0000 0.64965  0.11717  0.50357  Biso   1.000  C
  C345     1.0000 0.99979  0.33729  0.68005  Biso   1.000  C
  C346     1.0000 0.36506  0.95248  0.65432  Biso   1.000  C
  C347     1.0000 0.14297  0.11930  0.02546  Biso   1.000  C
  C348     1.0000 0.52184  0.32843  0.86658  Biso   1.000  C
  C349     1.0000 0.35270  0.46892  0.15592  Biso   1.000  C
  C350     1.0000 0.14508  0.30644  0.52429  Biso   1.000  C
  C351     1.0000 0.51046  0.09276  0.36048  Biso   1.000  C
  C352     1.0000 0.85259  0.46444  0.38582  Biso   1.000  C
  C353     1.0000 0.63634  0.29731  0.02750  Biso   1.000  C
  C354     1.0000 0.98988  0.08205  0.17888  Biso   1.000  C
  C355     1.0000 0.16073  0.95929  0.15636  Biso   1.000  C
  C356     1.0000 0.37689  0.81369  0.50867  Biso   1.000  C
  C357     1.0000 0.02908  0.58286  0.35820  Biso   1.000  C
  C358     1.0000 0.66136  0.96151  0.37236  Biso   1.000  C
  C359     1.0000 0.88508  0.79523  0.01375  Biso   1.000  C
  C360     1.0000 0.50663  0.59693  0.17750  Biso   1.000  C
  C361     1.0000 0.01765  0.12541  0.89435  Biso   1.000  C
  C362     1.0000 0.87293  0.95529  0.16115  Biso   1.000  C
  C363     1.0000 0.17586  0.83227  0.01391  Biso   1.000  C
  C364     1.0000 0.52676  0.11969  0.65080  Biso   1.000  C
  C365     1.0000 0.36833  0.98365  0.37146  Biso   1.000  C
  C366     1.0000 0.66621  0.82942  0.51826  Biso   1.000  C
  C367     1.0000 0.52218  0.61556  0.88664  Biso   1.000  C
  C368     1.0000 0.64182  0.45896  0.17373  Biso   1.000  C
  C369     1.0000 0.34857  0.33518  0.99916  Biso   1.000  C
  C370     1.0000 0.01575  0.62208  0.64323  Biso   1.000  C
  C371     1.0000 0.14375  0.44616  0.36787  Biso   1.000  C
  C372     1.0000 0.85745  0.32696  0.51760  Biso   1.000  C
  C373     1.0000 0.02460  0.79489  0.14536  Biso   1.000  C
  C374     1.0000 0.15598  0.95825  0.86696  Biso   1.000  C
  C375     1.0000 0.85619  0.08620  0.00643  Biso   1.000  C
  C376     1.0000 0.50803  0.80922  0.38812  Biso   1.000  C
  C377     1.0000 0.65620  0.97193  0.66265  Biso   1.000  C
  C378     1.0000 0.36072  0.09483  0.54007  Biso   1.000  C
  C379     1.0000 0.50651  0.31145  0.15193  Biso   1.000  C
  C380     1.0000 0.37878  0.45703  0.87090  Biso   1.000  C
  C381     1.0000 0.67472  0.58237  0.02753  Biso   1.000  C
  C382     1.0000 0.00400  0.29362  0.39330  Biso   1.000  C
  C383     1.0000 0.87837  0.47000  0.67225  Biso   1.000  C
  C384     1.0000 0.17141  0.59679  0.51270  Biso   1.000  C
  C385     1.0000 0.19136  0.11301  0.01888  Biso   1.000  C
  C386     1.0000 0.99543  0.12983  0.17660  Biso   1.000  C
  C387     1.0000 0.15349  0.95630  0.20463  Biso   1.000  C
  C388     1.0000 0.69720  0.10882  0.49682  Biso   1.000  C
  C389     1.0000 0.50541  0.14170  0.36561  Biso   1.000  C
  C390     1.0000 0.65097  0.96236  0.32433  Biso   1.000  C
  C391     1.0000 0.33851  0.61204  0.02245  Biso   1.000  C
  C392     1.0000 0.51265  0.64467  0.16872  Biso   1.000  C
  C393     1.0000 0.35815  0.46933  0.20461  Biso   1.000  C
  C394     1.0000 0.83034  0.61108  0.53239  Biso   1.000  C
  C395     1.0000 0.03291  0.63198  0.36017  Biso   1.000  C
  C396     1.0000 0.85795  0.45618  0.33789  Biso   1.000  C
  C397     1.0000 0.83679  0.80039  0.01752  Biso   1.000  C
  C398     1.0000 0.02141  0.79085  0.85576  Biso   1.000  C
  C399     1.0000 0.87177  0.98207  0.82673  Biso   1.000  C
  C400     1.0000 0.32839  0.82000  0.49956  Biso   1.000  C
  C401     1.0000 0.51799  0.78507  0.67117  Biso   1.000  C
  C402     1.0000 0.37299  0.95643  0.70197  Biso   1.000  C
  C403     1.0000 0.68508  0.29999  0.02285  Biso   1.000  C
  C404     1.0000 0.52174  0.28085  0.87341  Biso   1.000  C
  C405     1.0000 0.66246  0.45586  0.83941  Biso   1.000  C
  C406     1.0000 0.19271  0.31170  0.52881  Biso   1.000  C
  C407     1.0000 0.00333  0.28859  0.67785  Biso   1.000  C
  C408     1.0000 0.16307  0.46056  0.70161  Biso   1.000  C
  C409     1.0000 0.17214  0.95617  0.84065  Biso   1.000  C
  C410     1.0000 0.82872  0.10026  0.00607  Biso   1.000  C
  C411     1.0000 0.02649  0.76705  0.15886  Biso   1.000  C
  C412     1.0000 0.67405  0.97696  0.68773  Biso   1.000  C
  C413     1.0000 0.33426  0.11238  0.54356  Biso   1.000  C
  C414     1.0000 0.50919  0.78299  0.37223  Biso   1.000  C
  C415     1.0000 0.36299  0.45832  0.84378  Biso   1.000  C
  C416     1.0000 0.70257  0.59559  0.02526  Biso   1.000  C
  C417     1.0000 0.50319  0.28484  0.16860  Biso   1.000  C
  C418     1.0000 0.86248  0.47207  0.69959  Biso   1.000  C
  C419     1.0000 0.19821  0.61181  0.51083  Biso   1.000  C
  C420     1.0000 0.00617  0.26629  0.37871  Biso   1.000  C
  C421     1.0000 0.85504  0.95505  0.18699  Biso   1.000  C
  C422     1.0000 0.20289  0.81774  0.02055  Biso   1.000  C
  C423     1.0000 0.01613  0.15266  0.87845  Biso   1.000  C
  C424     1.0000 0.35412  0.98567  0.34356  Biso   1.000  C
  C425     1.0000 0.69395  0.81377  0.52071  Biso   1.000  C
  C426     1.0000 0.52509  0.14664  0.66674  Biso   1.000  C
  C427     1.0000 0.65609  0.46011  0.20071  Biso   1.000  C
  C428     1.0000 0.32197  0.31807  0.99688  Biso   1.000  C
  C429     1.0000 0.52268  0.64341  0.87212  Biso   1.000  C
  C430     1.0000 0.15871  0.44512  0.34067  Biso   1.000  C
  C431     1.0000 0.82996  0.31223  0.50967  Biso   1.000  C
  C432     1.0000 0.01400  0.64995  0.65675  Biso   1.000  C
  C433     1.0000 0.01376  0.12158  0.84500  Biso   1.000  C
  C434     1.0000 0.82522  0.95986  0.15170  Biso   1.000  C
  C435     1.0000 0.17273  0.78347  0.01506  Biso   1.000  C
  C436     1.0000 0.51565  0.11365  0.69703  Biso   1.000  C
  C437     1.0000 0.31940  0.98038  0.37554  Biso   1.000  C
  C438     1.0000 0.66139  0.78080  0.52576  Biso   1.000  C
  C439     1.0000 0.51948  0.61147  0.83805  Biso   1.000  C
  C440     1.0000 0.68978  0.45406  0.16849  Biso   1.000  C
  C441     1.0000 0.35649  0.28778  0.99360  Biso   1.000  C
  C442     1.0000 0.02303  0.61974  0.69104  Biso   1.000  C
  C443     1.0000 0.19341  0.44738  0.37311  Biso   1.000  C
  C444     1.0000 0.86053  0.27737  0.51419  Biso   1.000  C
  C445     1.0000 0.02430  0.79888  0.19468  Biso   1.000  C
  C446     1.0000 0.20373  0.96238  0.87439  Biso   1.000  C
  C447     1.0000 0.85843  0.13501  0.01944  Biso   1.000  C
  C448     1.0000 0.50002  0.81532  0.33957  Biso   1.000  C
  C449     1.0000 0.70516  0.97404  0.65212  Biso   1.000  C
  C450     1.0000 0.36706  0.14339  0.53620  Biso   1.000  C
  C451     1.0000 0.51279  0.31786  0.20027  Biso   1.000  C
  C452     1.0000 0.33010  0.45897  0.87617  Biso   1.000  C
  C453     1.0000 0.67335  0.63031  0.01830  Biso   1.000  C
  C454     1.0000 0.00065  0.29750  0.34513  Biso   1.000  C
  C455     1.0000 0.82857  0.46702  0.66708  Biso   1.000  C
  C456     1.0000 0.16301  0.64313  0.50956  Biso   1.000  C
  C457     1.0000 0.03462  0.59630  0.33004  Biso   1.000  C
  C458     1.0000 0.33963  0.95094  0.67130  Biso   1.000  C
  C459     1.0000 0.64920  0.26920  0.02632  Biso   1.000  C
  C460     1.0000 0.50365  0.61599  0.20277  Biso   1.000  C
  C461     1.0000 0.83714  0.97103  0.85663  Biso   1.000  C
  C462     1.0000 0.15910  0.27969  0.52583  Biso   1.000  C
  C463     1.0000 0.50936  0.11027  0.33305  Biso   1.000  C
  C464     1.0000 0.19762  0.46670  0.67036  Biso   1.000  C
  C465     1.0000 0.87096  0.76839  0.01383  Biso   1.000  C
  C466     1.0000 0.99170  0.09655  0.20694  Biso   1.000  C
  C467     1.0000 0.69381  0.45245  0.87370  Biso   1.000  C
  C468     1.0000 0.36051  0.78695  0.50211  Biso   1.000  C
  C469     1.0000 0.99733  0.32342  0.70795  Biso   1.000  C
  C470     1.0000 0.68695  0.96364  0.35481  Biso   1.000  C
  C471     1.0000 0.37384  0.64170  0.02305  Biso   1.000  C
  C472     1.0000 0.52189  0.31222  0.83920  Biso   1.000  C
  C473     1.0000 0.18718  0.96089  0.17211  Biso   1.000  C
  C474     1.0000 0.86326  0.64362  0.52311  Biso   1.000  C
  C475     1.0000 0.52395  0.82050  0.70101  Biso   1.000  C
  C476     1.0000 0.82555  0.46246  0.37098  Biso   1.000  C
  C477     1.0000 0.15858  0.14635  0.02170  Biso   1.000  C
  C478     1.0000 0.02048  0.82484  0.82576  Biso   1.000  C
  C479     1.0000 0.32521  0.47342  0.17143  Biso   1.000  C
  C480     1.0000 0.66572  0.14251  0.49926  Biso   1.000  C
  C481     1.0000 0.37595  0.75943  0.50558  Biso   1.000  C
  C482     1.0000 0.51823  0.32788  0.81221  Biso   1.000  C
  C483     1.0000 0.79882  0.46386  0.38895  Biso   1.000  C
  C484     1.0000 0.88996  0.74248  0.01237  Biso   1.000  C
  C485     1.0000 0.98876  0.34099  0.73240  Biso   1.000  C
  C486     1.0000 0.29761  0.47645  0.15485  Biso   1.000  C
  C487     1.0000 0.14281  0.25250  0.52549  Biso   1.000  C
  C488     1.0000 0.01955  0.84355  0.79985  Biso   1.000  C
  C489     1.0000 0.71566  0.96640  0.36941  Biso   1.000  C
  C490     1.0000 0.63158  0.24425  0.02952  Biso   1.000  C
  C491     1.0000 0.52945  0.83568  0.72765  Biso   1.000  C
  C492     1.0000 0.21387  0.96612  0.15721  Biso   1.000  C
  C493     1.0000 0.65104  0.16984  0.49967  Biso   1.000  C
  C494     1.0000 0.50000  0.60240  0.23099  Biso   1.000  C
  C495     1.0000 0.22536  0.46905  0.65497  Biso   1.000  C
  C496     1.0000 0.14107  0.17370  0.02305  Biso   1.000  C
  C497     1.0000 0.03655  0.57815  0.30562  Biso   1.000  C
  C498     1.0000 0.72099  0.45020  0.89159  Biso   1.000  C
  C499     1.0000 0.87692  0.67096  0.52010  Biso   1.000  C
  C500     1.0000 0.98779  0.07927  0.23264  Biso   1.000  C
  C501     1.0000 0.31185  0.94317  0.65592  Biso   1.000  C
  C502     1.0000 0.39186  0.66844  0.02235  Biso   1.000  C
  C503     1.0000 0.51184  0.09526  0.30463  Biso   1.000  C
  C504     1.0000 0.80971  0.95977  0.86982  Biso   1.000  C
  C505     1.0000 0.64790  0.45859  0.81092  Biso   1.000  C
  C506     1.0000 0.80456  0.59187  0.53739  Biso   1.000  C
  C507     1.0000 0.51081  0.75923  0.65535  Biso   1.000  C
  C508     1.0000 0.14486  0.45490  0.72745  Biso   1.000  C
  C509     1.0000 0.30895  0.59940  0.02097  Biso   1.000  C
  C510     1.0000 0.01978  0.76217  0.86972  Biso   1.000  C
  C511     1.0000 0.89064  0.99021  0.80150  Biso   1.000  C
  C512     1.0000 0.72435  0.09352  0.49237  Biso   1.000  C
  C513     1.0000 0.00884  0.25950  0.66432  Biso   1.000  C
  C514     1.0000 0.39236  0.96311  0.72714  Biso   1.000  C
  C515     1.0000 0.21825  0.09632  0.01409  Biso   1.000  C
  C516     1.0000 0.52250  0.25481  0.89093  Biso   1.000  C
  C517     1.0000 0.37359  0.46493  0.23205  Biso   1.000  C
  C518     1.0000 0.22046  0.32677  0.53236  Biso   1.000  C
  C519     1.0000 0.50419  0.16948  0.38092  Biso   1.000  C
  C520     1.0000 0.87511  0.45460  0.30996  Biso   1.000  C
  C521     1.0000 0.71259  0.31450  0.01747  Biso   1.000  C
  C522     1.0000 0.00346  0.15771  0.16343  Biso   1.000  C
  C523     1.0000 0.13784  0.95600  0.23259  Biso   1.000  C
  C524     1.0000 0.30142  0.83624  0.49686  Biso   1.000  C
  C525     1.0000 0.03192  0.66079  0.37405  Biso   1.000  C
  C526     1.0000 0.63214  0.96206  0.29825  Biso   1.000  C
  C527     1.0000 0.80939  0.81624  0.02208  Biso   1.000  C
  C528     1.0000 0.51906  0.66985  0.15261  Biso   1.000  C
  C529     1.0000 0.80146  0.08467  0.99907  Biso   1.000  C
  C530     1.0000 0.03129  0.74253  0.14079  Biso   1.000  C
  C531     1.0000 0.15741  0.95497  0.81275  Biso   1.000  C
  C532     1.0000 0.30820  0.09693  0.54807  Biso   1.000  C
  C533     1.0000 0.51689  0.75531  0.38707  Biso   1.000  C
  C534     1.0000 0.66057  0.98067  0.71551  Biso   1.000  C
  C535     1.0000 0.72798  0.57647  0.02418  Biso   1.000  C
  C536     1.0000 0.49337  0.25995  0.15262  Biso   1.000  C
  C537     1.0000 0.38022  0.45741  0.81609  Biso   1.000  C
  C538     1.0000 0.22651  0.59601  0.51278  Biso   1.000  C
  C539     1.0000 0.01378  0.23950  0.39658  Biso   1.000  C
  C540     1.0000 0.87755  0.47878  0.72596  Biso   1.000  C
  C541     1.0000 0.22877  0.83541  0.02731  Biso   1.000  C
  C542     1.0000 0.01815  0.17872  0.89556  Biso   1.000  C
  C543     1.0000 0.86848  0.95156  0.21465  Biso   1.000  C
  C544     1.0000 0.72145  0.82875  0.51346  Biso   1.000  C
  C545     1.0000 0.52686  0.17304  0.65058  Biso   1.000  C
  C546     1.0000 0.36913  0.99462  0.31748  Biso   1.000  C
  C547     1.0000 0.29513  0.33390  0.00335  Biso   1.000  C
  C548     1.0000 0.52456  0.66998  0.88887  Biso   1.000  C
  C549     1.0000 0.64007  0.46395  0.22764  Biso   1.000  C
  C550     1.0000 0.80443  0.32976  0.50303  Biso   1.000  C
  C551     1.0000 0.01412  0.67853  0.63913  Biso   1.000  C
  C552     1.0000 0.14381  0.43915  0.31369  Biso   1.000  C
  C553     1.0000 0.00725  0.10567  0.81877  Biso   1.000  C
  C554     1.0000 0.79983  0.96280  0.13179  Biso   1.000  C
  C555     1.0000 0.15744  0.75661  0.01281  Biso   1.000  C
  C556     1.0000 0.50728  0.09678  0.72204  Biso   1.000  C
  C557     1.0000 0.29194  0.97442  0.39107  Biso   1.000  C
  C558     1.0000 0.64522  0.75594  0.53311  Biso   1.000  C
  C559     1.0000 0.51685  0.59645  0.81125  Biso   1.000  C
  C560     1.0000 0.71814  0.44555  0.15412  Biso   1.000  C
  C561     1.0000 0.37265  0.26153  0.98836  Biso   1.000  C
  C562     1.0000 0.02637  0.60465  0.71996  Biso   1.000  C
  C563     1.0000 0.22081  0.45147  0.38796  Biso   1.000  C
  C564     1.0000 0.87512  0.24968  0.51819  Biso   1.000  C
  C565     1.0000 0.02164  0.81368  0.22166  Biso   1.000  C
  C566     1.0000 0.23068  0.96212  0.89137  Biso   1.000  C
  C567     1.0000 0.87153  0.16114  0.02845  Biso   1.000  C
  C568     1.0000 0.49164  0.83057  0.31246  Biso   1.000  C
  C569     1.0000 0.73039  0.97654  0.63366  Biso   1.000  C
  C570     1.0000 0.38410  0.16987  0.53370  Biso   1.000  C
  C571     1.0000 0.51918  0.33298  0.22724  Biso   1.000  C
  C572     1.0000 0.30186  0.46018  0.89138  Biso   1.000  C
  C573     1.0000 0.66090  0.65998  0.01479  Biso   1.000  C
  C574     1.0000 0.99724  0.31331  0.31796  Biso   1.000  C
  C575     1.0000 0.79997  0.46105  0.65294  Biso   1.000  C
  C576     1.0000 0.14796  0.67101  0.50868  Biso   1.000  C
  C577     1.0000 0.29939  0.47220  0.12336  Biso   1.000  C
  C578     1.0000 0.11115  0.25271  0.52251  Biso   1.000  C
  C579     1.0000 0.51175  0.06355  0.30761  Biso   1.000  C
  C580     1.0000 0.80040  0.46764  0.42024  Biso   1.000  C
  C581     1.0000 0.59942  0.24760  0.03228  Biso   1.000  C
  C582     1.0000 0.98741  0.04704  0.22992  Biso   1.000  C
  C583     1.0000 0.21472  0.97024  0.12640  Biso   1.000  C
  C584     1.0000 0.40693  0.75773  0.51005  Biso   1.000  C
  C585     1.0000 0.03096  0.54637  0.30878  Biso   1.000  C
  C586     1.0000 0.71676  0.96594  0.40141  Biso   1.000  C
  C587     1.0000 0.92104  0.74540  0.01061  Biso   1.000  C
  C588     1.0000 0.50111  0.56969  0.23280  Biso   1.000  C
  C589     1.0000 0.71827  0.44967  0.92269  Biso   1.000  C
  C590     1.0000 0.90865  0.67135  0.51544  Biso   1.000  C
  C591     1.0000 0.52866  0.86645  0.72755  Biso   1.000  C
  C592     1.0000 0.22547  0.47086  0.62300  Biso   1.000  C
  C593     1.0000 0.42319  0.66607  0.02153  Biso   1.000  C
  C594     1.0000 0.01855  0.87601  0.80309  Biso   1.000  C
  C595     1.0000 0.81207  0.95045  0.89995  Biso   1.000  C
  C596     1.0000 0.61807  0.16961  0.50249  Biso   1.000  C
  C597     1.0000 0.98925  0.37141  0.72910  Biso   1.000  C
  C598     1.0000 0.31255  0.93997  0.62332  Biso   1.000  C
  C599     1.0000 0.10980  0.17370  0.02916  Biso   1.000  C
  C600     1.0000 0.51663  0.35853  0.81215  Biso   1.000  C
  C601     1.0000 0.22913  0.96711  0.92209  Biso   1.000  C
  C602     1.0000 0.90341  0.16199  0.03125  Biso   1.000  C
  C603     1.0000 0.01813  0.84418  0.22181  Biso   1.000  C
  C604     1.0000 0.72612  0.97521  0.60293  Biso   1.000  C
  C605     1.0000 0.41630  0.16841  0.52994  Biso   1.000  C
  C606     1.0000 0.48870  0.86188  0.31323  Biso   1.000  C
  C607     1.0000 0.30037  0.46190  0.92236  Biso   1.000  C
  C608     1.0000 0.62941  0.66278  0.01064  Biso   1.000  C
  C609     1.0000 0.52121  0.36448  0.22555  Biso   1.000  C
  C610     1.0000 0.79915  0.45920  0.62149  Biso   1.000  C
  C611     1.0000 0.11587  0.66977  0.50590  Biso   1.000  C
  C612     1.0000 0.99450  0.34464  0.31808  Biso   1.000  C
  C613     1.0000 0.80286  0.96013  0.10071  Biso   1.000  C
  C614     1.0000 0.12649  0.75529  0.00634  Biso   1.000  C
  C615     1.0000 0.01304  0.07410  0.81709  Biso   1.000  C
  C616     1.0000 0.29340  0.97354  0.42255  Biso   1.000  C
  C617     1.0000 0.61368  0.75741  0.53299  Biso   1.000  C
  C618     1.0000 0.50880  0.06549  0.72072  Biso   1.000  C
  C619     1.0000 0.71745  0.43875  0.12324  Biso   1.000  C
  C620     1.0000 0.40374  0.26251  0.99139  Biso   1.000  C
  C621     1.0000 0.51355  0.56450  0.81077  Biso   1.000  C
  C622     1.0000 0.22360  0.45250  0.41987  Biso   1.000  C
  C623     1.0000 0.90703  0.24887  0.52125  Biso   1.000  C
  C624     1.0000 0.02893  0.57300  0.72154  Biso   1.000  C
  C625     1.0000 0.01753  0.17791  0.92725  Biso   1.000  C
  C626     1.0000 0.90089  0.94959  0.21556  Biso   1.000  C
  C627     1.0000 0.22629  0.86646  0.02570  Biso   1.000  C
  C628     1.0000 0.53134  0.17116  0.61862  Biso   1.000  C
  C629     1.0000 0.40016  0.99301  0.31758  Biso   1.000  C
  C630     1.0000 0.72068  0.85984  0.50887  Biso   1.000  C
  C631     1.0000 0.52831  0.66933  0.91955  Biso   1.000  C
  C632     1.0000 0.60904  0.46587  0.22787  Biso   1.000  C
  C633     1.0000 0.29672  0.36421  0.01209  Biso   1.000  C
  C634     1.0000 0.01203  0.67653  0.60605  Biso   1.000  C
  C635     1.0000 0.11180  0.43944  0.31520  Biso   1.000  C
  C636     1.0000 0.80660  0.36101  0.50433  Biso   1.000  C
  C637     1.0000 0.02974  0.74479  0.10811  Biso   1.000  C
  C638     1.0000 0.12628  0.95483  0.81260  Biso   1.000  C
  C639     1.0000 0.80430  0.05380  0.99183  Biso   1.000  C
  C640     1.0000 0.52333  0.75589  0.41787  Biso   1.000  C
  C641     1.0000 0.62855  0.97443  0.71898  Biso   1.000  C
  C642     1.0000 0.30686  0.06565  0.54905  Biso   1.000  C
  C643     1.0000 0.48964  0.26077  0.12182  Biso   1.000  C
  C644     1.0000 0.41078  0.46140  0.81630  Biso   1.000  C
  C645     1.0000 0.72600  0.54635  0.02915  Biso   1.000  C
  C646     1.0000 0.01587  0.24206  0.42706  Biso   1.000  C
  C647     1.0000 0.90851  0.48237  0.72574  Biso   1.000  C
  C648     1.0000 0.22595  0.56405  0.51340  Biso   1.000  C
  C649     1.0000 0.02544  0.66203  0.40417  Biso   1.000  C
  C650     1.0000 0.42237  0.96566  0.72489  Biso   1.000  C
  C651     1.0000 0.71434  0.34644  0.01399  Biso   1.000  C
  C652     1.0000 0.52720  0.66894  0.12167  Biso   1.000  C
  C653     1.0000 0.92192  0.99162  0.80486  Biso   1.000  C
  C654     1.0000 0.22112  0.35847  0.53305  Biso   1.000  C
  C655     1.0000 0.50334  0.16854  0.41330  Biso   1.000  C
  C656     1.0000 0.11347  0.45393  0.72524  Biso   1.000  C
  C657     1.0000 0.80847  0.84791  0.02101  Biso   1.000  C
  C658     1.0000 0.00353  0.16118  0.13340  Biso   1.000  C
  C659     1.0000 0.61582  0.46141  0.80979  Biso   1.000  C
  C660     1.0000 0.30064  0.86649  0.50494  Biso   1.000  C
  C661     1.0000 0.01092  0.25721  0.63195  Biso   1.000  C
  C662     1.0000 0.60190  0.95715  0.30090  Biso   1.000  C
  C663     1.0000 0.30506  0.56879  0.01995  Biso   1.000  C
  C664     1.0000 0.51918  0.25659  0.92359  Biso   1.000  C
  C665     1.0000 0.10585  0.95437  0.23127  Biso   1.000  C
  C666     1.0000 0.80599  0.55944  0.53813  Biso   1.000  C
  C667     1.0000 0.50821  0.75698  0.62431  Biso   1.000  C
  C668     1.0000 0.90627  0.45341  0.31085  Biso   1.000  C
  C669     1.0000 0.21717  0.06573  0.01464  Biso   1.000  C
  C670     1.0000 0.02272  0.75865  0.90175  Biso   1.000  C
  C671     1.0000 0.40483  0.46112  0.23272  Biso   1.000  C
  C672     1.0000 0.72370  0.06235  0.49239  Biso   1.000  C
  C673     1.0000 0.21985  0.96076  0.82882  Biso   1.000  C
  C674     1.0000 0.80973  0.14448  0.01459  Biso   1.000  C
  C675     1.0000 0.03100  0.75288  0.20432  Biso   1.000  C
  C676     1.0000 0.72006  0.98233  0.69852  Biso   1.000  C
  C677     1.0000 0.31931  0.15878  0.54046  Biso   1.000  C
  C678     1.0000 0.50564  0.76911  0.32412  Biso   1.000  C
  C679     1.0000 0.31675  0.45789  0.82799  Biso   1.000  C
  C680     1.0000 0.72111  0.63876  0.01828  Biso   1.000  C
  C681     1.0000 0.50714  0.27090  0.21401  Biso   1.000  C
  C682     1.0000 0.81583  0.46691  0.71466  Biso   1.000  C
  C683     1.0000 0.20966  0.65874  0.50583  Biso   1.000  C
  C684     1.0000 0.00442  0.24939  0.33272  Biso   1.000  C
  C685     1.0000 0.80699  0.96102  0.19687  Biso   1.000  C
  C686     1.0000 0.22029  0.77244  0.01970  Biso   1.000  C
  C687     1.0000 0.01321  0.16958  0.83197  Biso   1.000  C
  C688     1.0000 0.30691  0.97808  0.32885  Biso   1.000  C
  C689     1.0000 0.70874  0.76711  0.52877  Biso   1.000  C
  C690     1.0000 0.51831  0.15921  0.71405  Biso   1.000  C
  C691     1.0000 0.70183  0.45302  0.21528  Biso   1.000  C
  C692     1.0000 0.30980  0.27132  0.99250  Biso   1.000  C
  C693     1.0000 0.52497  0.65810  0.82469  Biso   1.000  C
  C694     1.0000 0.20482  0.44878  0.32521  Biso   1.000  C
  C695     1.0000 0.81627  0.26604  0.50180  Biso   1.000  C
  C696     1.0000 0.02243  0.66600  0.70259  Biso   1.000  C
  C697     1.0000 0.69651  0.96505  0.30649  Biso   1.000  C
  C698     1.0000 0.32747  0.65890  0.02554  Biso   1.000  C
  C699     1.0000 0.99770  0.27791  0.72477  Biso   1.000  C
  C700     1.0000 0.20073  0.95945  0.21920  Biso   1.000  C
  C701     1.0000 0.81631  0.65615  0.53256  Biso   1.000  C
  C702     1.0000 0.51911  0.26603  0.82576  Biso   1.000  C
  C703     1.0000 0.81087  0.45962  0.32387  Biso   1.000  C
  C704     1.0000 0.20424  0.16067  0.01107  Biso   1.000  C
  C705     1.0000 0.52650  0.77076  0.71575  Biso   1.000  C
  C706     1.0000 0.31076  0.47118  0.21754  Biso   1.000  C
  C707     1.0000 0.71284  0.15438  0.49251  Biso   1.000  C
  C708     1.0000 0.02402  0.78047  0.80683  Biso   1.000  C
  C709     1.0000 0.32698  0.95945  0.71784  Biso   1.000  C
  C710     1.0000 0.69611  0.25292  0.02477  Biso   1.000  C
  C711     1.0000 0.03831  0.64150  0.31157  Biso   1.000  C
  C712     1.0000 0.82370  0.98069  0.81112  Biso   1.000  C
  C713     1.0000 0.20464  0.26326  0.53224  Biso   1.000  C
  C714     1.0000 0.50569  0.66283  0.21410  Biso   1.000  C
  C715     1.0000 0.21127  0.46274  0.71830  Biso   1.000  C
  C716     1.0000 0.82404  0.75389  0.01882  Biso   1.000  C
  C717     1.0000 0.50542  0.15767  0.31914  Biso   1.000  C
  C718     1.0000 0.70964  0.45366  0.82798  Biso   1.000  C
  C719     1.0000 0.31410  0.77298  0.49360  Biso   1.000  C
  C720     1.0000 0.99709  0.14288  0.22254  Biso   1.000  C
  C721     1.0000 0.51638  0.77462  0.29574  Biso   1.000  C
  C722     1.0000 0.32078  0.47387  0.80217  Biso   1.000  C
  C723     1.0000 0.78647  0.26715  0.51387  Biso   1.000  C
  C724     1.0000 0.01637  0.72575  0.20050  Biso   1.000  C
  C725     1.0000 0.78523  0.47707  0.71091  Biso   1.000  C
  C726     1.0000 0.28319  0.27286  0.97668  Biso   1.000  C
  C727     1.0000 0.99335  0.21904  0.33762  Biso   1.000  C
  C728     1.0000 0.24427  0.98063  0.83314  Biso   1.000  C
  C729     1.0000 0.73557  0.77365  0.54421  Biso   1.000  C
  C730     1.0000 0.49535  0.27660  0.24237  Biso   1.000  C
  C731     1.0000 0.74269  0.95934  0.69936  Biso   1.000  C
  C732     1.0000 0.24921  0.77669  0.00709  Biso   1.000  C
  C733     1.0000 0.49711  0.15762  0.73752  Biso   1.000  C
  C734     1.0000 0.69515  0.43719  0.24140  Biso   1.000  C
  C735     1.0000 0.20473  0.68083  0.48405  Biso   1.000  C
  C736     1.0000 0.99638  0.19492  0.83921  Biso   1.000  C
  C737     1.0000 0.23341  0.43543  0.32777  Biso   1.000  C
  C738     1.0000 0.73582  0.64838  0.04442  Biso   1.000  C
  C739     1.0000 0.04388  0.66605  0.72522  Biso   1.000  C
  C740     1.0000 0.77716  0.95068  0.19199  Biso   1.000  C
  C741     1.0000 0.29097  0.15200  0.52555  Biso   1.000  C
  C742     1.0000 0.54289  0.65374  0.79797  Biso   1.000  C
  C743     1.0000 0.31485  0.96495  0.30144  Biso   1.000  C
  C744     1.0000 0.80725  0.16642  0.03699  Biso   1.000  C
  C745     1.0000 0.05646  0.66656  0.31351  Biso   1.000  C
  C746     1.0000 0.29844  0.97329  0.71249  Biso   1.000  C
  C747     1.0000 0.72490  0.25479  0.03935  Biso   1.000  C
  C748     1.0000 0.52444  0.68817  0.21501  Biso   1.000  C
  C749     1.0000 0.83269  0.97464  0.78177  Biso   1.000  C
  C750     1.0000 0.22762  0.26612  0.55488  Biso   1.000  C
  C751     1.0000 0.52454  0.15736  0.29339  Biso   1.000  C
  C752     1.0000 0.24029  0.45331  0.71184  Biso   1.000  C
  C753     1.0000 0.79707  0.75507  0.00200  Biso   1.000  C
  C754     1.0000 0.01463  0.13623  0.24844  Biso   1.000  C
  C755     1.0000 0.70475  0.43963  0.80017  Biso   1.000  C
  C756     1.0000 0.28458  0.77627  0.50557  Biso   1.000  C
  C757     1.0000 0.98364  0.24851  0.72080  Biso   1.000  C
  C758     1.0000 0.69158  0.98123  0.28092  Biso   1.000  C
  C759     1.0000 0.30283  0.65830  0.04559  Biso   1.000  C
  C760     1.0000 0.53210  0.26881  0.79767  Biso   1.000  C
  C761     1.0000 0.22522  0.97903  0.21651  Biso   1.000  C
  C762     1.0000 0.81547  0.68119  0.51195  Biso   1.000  C
  C763     1.0000 0.51584  0.77373  0.74643  Biso   1.000  C
  C764     1.0000 0.78385  0.47761  0.32557  Biso   1.000  C
  C765     1.0000 0.23327  0.15945  0.02510  Biso   1.000  C
  C766     1.0000 0.01106  0.78572  0.77758  Biso   1.000  C
  C767     1.0000 0.31361  0.48703  0.24596  Biso   1.000  C
  C768     1.0000 0.70588  0.18049  0.47753  Biso   1.000  C
  C769     1.0000 0.50760  0.68577  0.82638  Biso   1.000  C
  C770     1.0000 0.82209  0.45287  0.74246  Biso   1.000  C
  C771     1.0000 0.70278  0.73778  0.51795  Biso   1.000  C
  C772     1.0000 0.00228  0.68964  0.69966  Biso   1.000  C
  C773     1.0000 0.28996  0.44186  0.83257  Biso   1.000  C
  C774     1.0000 0.21684  0.74575  0.03792  Biso   1.000  C
  C775     1.0000 0.02355  0.16663  0.80171  Biso   1.000  C
  C776     1.0000 0.71964  0.00493  0.72079  Biso   1.000  C
  C777     1.0000 0.82454  0.24060  0.48754  Biso   1.000  C
  C778     1.0000 0.53891  0.18244  0.71233  Biso   1.000  C
  C779     1.0000 0.21956  0.94217  0.80393  Biso   1.000  C
  C780     1.0000 0.31883  0.24314  0.00632  Biso   1.000  C
  C781     1.0000 0.51819  0.24279  0.20996  Biso   1.000  C
  C782     1.0000 0.19713  0.46391  0.29825  Biso   1.000  C
  C783     1.0000 0.32194  0.18737  0.55274  Biso   1.000  C
  C784     1.0000 0.01576  0.25561  0.30432  Biso   1.000  C
  C785     1.0000 0.73076  0.46616  0.21418  Biso   1.000  C
  C786     1.0000 0.78743  0.14826  0.99101  Biso   1.000  C
  C787     1.0000 0.04981  0.75600  0.23087  Biso   1.000  C
  C788     1.0000 0.27546  0.98618  0.33218  Biso   1.000  C
  C789     1.0000 0.23749  0.66014  0.52081  Biso   1.000  C
  C790     1.0000 0.49334  0.74019  0.32898  Biso   1.000  C
  C791     1.0000 0.81213  0.97619  0.22507  Biso   1.000  C
  C792     1.0000 0.72781  0.65426  0.99249  Biso   1.000  C
  C793     1.0000 0.48729  0.18296  0.32347  Biso   1.000  C
  C794     1.0000 0.28431  0.45385  0.21192  Biso   1.000  C
  C795     1.0000 0.20409  0.23860  0.51285  Biso   1.000  C
  C796     1.0000 0.98208  0.16926  0.22154  Biso   1.000  C
  C797     1.0000 0.81330  0.44005  0.29907  Biso   1.000  C
  C798     1.0000 0.69130  0.22544  0.01007  Biso   1.000  C
  C799     1.0000 0.01903  0.63772  0.28710  Biso   1.000  C
  C800     1.0000 0.19827  0.94027  0.24372  Biso   1.000  C
  C801     1.0000 0.32050  0.74327  0.48278  Biso   1.000  C
  C802     1.0000 0.48363  0.66319  0.23593  Biso   1.000  C
  C803     1.0000 0.72552  0.95090  0.30880  Biso   1.000  C
  C804     1.0000 0.83026  0.72564  0.03214  Biso   1.000  C
  C805     1.0000 0.54100  0.74374  0.70790  Biso   1.000  C
  C806     1.0000 0.73639  0.46978  0.83168  Biso   1.000  C
  C807     1.0000 0.79169  0.65541  0.55251  Biso   1.000  C
  C808     1.0000 0.04268  0.75537  0.81004  Biso   1.000  C
  C809     1.0000 0.20355  0.47046  0.74901  Biso   1.000  C
  C810     1.0000 0.33052  0.68324  0.00508  Biso   1.000  C
  C811     1.0000 0.00937  0.28517  0.75379  Biso   1.000  C
  C812     1.0000 0.79276  0.98797  0.81562  Biso   1.000  C
  C813     1.0000 0.74164  0.14981  0.50685  Biso   1.000  C
  C814     1.0000 0.50470  0.23785  0.83005  Biso   1.000  C
  C815     1.0000 0.33295  0.95316  0.74950  Biso   1.000  C
  C816     1.0000 0.19976  0.18140  0.98911  Biso   1.000  C
  C817     1.0000 0.99295  0.21823  0.81834  Biso   1.000  C
  C818     1.0000 0.75436  0.95408  0.21237  Biso   1.000  C
  C819     1.0000 0.27050  0.75401  0.01045  Biso   1.000  C
  C820     1.0000 0.49776  0.17853  0.75997  Biso   1.000  C
  C821     1.0000 0.29176  0.96013  0.28203  Biso   1.000  C
  C822     1.0000 0.75560  0.75099  0.54527  Biso   1.000  C
  C823     1.0000 0.54371  0.67543  0.77780  Biso   1.000  C
  C824     1.0000 0.71502  0.43810  0.26503  Biso   1.000  C
  C825     1.0000 0.26397  0.24967  0.97715  Biso   1.000  C
  C826     1.0000 0.04602  0.69166  0.74176  Biso   1.000  C
  C827     1.0000 0.25310  0.43974  0.30501  Biso   1.000  C
  C828     1.0000 0.76759  0.24420  0.50845  Biso   1.000  C
  C829     1.0000 0.02055  0.70376  0.21952  Biso   1.000  C
  C830     1.0000 0.26493  0.98189  0.81147  Biso   1.000  C
  C831     1.0000 0.78516  0.18571  0.03860  Biso   1.000  C
  C832     1.0000 0.51192  0.75597  0.27369  Biso   1.000  C
  C833     1.0000 0.76256  0.95923  0.72202  Biso   1.000  C
  C834     1.0000 0.27040  0.17261  0.52063  Biso   1.000  C
  C835     1.0000 0.49284  0.25405  0.26215  Biso   1.000  C
  C836     1.0000 0.30038  0.47418  0.78033  Biso   1.000  C
  C837     1.0000 0.75623  0.67048  0.04231  Biso   1.000  C
  C838     1.0000 0.99765  0.19852  0.31664  Biso   1.000  C
  C839     1.0000 0.76437  0.47304  0.73363  Biso   1.000  C
  C840     1.0000 0.22440  0.70419  0.48076  Biso   1.000  C
  C841     1.0000 0.24083  0.94565  0.78325  Biso   1.000  C
  C842     1.0000 0.76582  0.16917  0.99348  Biso   1.000  C
  C843     1.0000 0.05382  0.73316  0.24936  Biso   1.000  C
  C844     1.0000 0.74047  0.00446  0.74318  Biso   1.000  C
  C845     1.0000 0.29778  0.20478  0.55165  Biso   1.000  C
  C846     1.0000 0.49112  0.71980  0.30760  Biso   1.000  C
  C847     1.0000 0.26906  0.44423  0.81096  Biso   1.000  C
  C848     1.0000 0.74546  0.67889  0.99187  Biso   1.000  C
  C849     1.0000 0.51619  0.22046  0.22927  Biso   1.000  C
  C850     1.0000 0.80106  0.44830  0.76374  Biso   1.000  C
  C851     1.0000 0.25731  0.68132  0.51238  Biso   1.000  C
  C852     1.0000 0.01413  0.23587  0.28234  Biso   1.000  C
  C853     1.0000 0.78825  0.97818  0.24357  Biso   1.000  C
  C854     1.0000 0.23717  0.72416  0.03816  Biso   1.000  C
  C855     1.0000 0.01970  0.18894  0.78191  Biso   1.000  C
  C856     1.0000 0.25334  0.97975  0.31243  Biso   1.000  C
  C857     1.0000 0.72257  0.71482  0.52368  Biso   1.000  C
  C858     1.0000 0.53872  0.20178  0.73482  Biso   1.000  C
  C859     1.0000 0.74948  0.46530  0.23651  Biso   1.000  C
  C860     1.0000 0.29848  0.22103  0.00635  Biso   1.000  C
  C861     1.0000 0.50960  0.70596  0.80391  Biso   1.000  C
  C862     1.0000 0.21887  0.46727  0.27745  Biso   1.000  C
  C863     1.0000 0.80430  0.21785  0.48306  Biso   1.000  C
  C864     1.0000 0.00409  0.71395  0.71903  Biso   1.000  C
  C865     1.0000 0.72456  0.44211  0.77745  Biso   1.000  C
  C866     1.0000 0.79386  0.70299  0.51390  Biso   1.000  C
  C867     1.0000 0.52118  0.75127  0.76604  Biso   1.000  C
  C868     1.0000 0.26004  0.45127  0.73406  Biso   1.000  C
  C869     1.0000 0.28255  0.68050  0.04497  Biso   1.000  C
  C870     1.0000 0.01268  0.76323  0.75750  Biso   1.000  C
  C871     1.0000 0.81148  0.97653  0.75943  Biso   1.000  C
  C872     1.0000 0.72652  0.20207  0.47692  Biso   1.000  C
  C873     1.0000 0.98754  0.22776  0.74294  Biso   1.000  C
  C874     1.0000 0.27746  0.97444  0.73396  Biso   1.000  C
  C875     1.0000 0.25392  0.17980  0.01883  Biso   1.000  C
  C876     1.0000 0.53210  0.24720  0.77770  Biso   1.000  C
  C877     1.0000 0.28942  0.48372  0.26521  Biso   1.000  C
  C878     1.0000 0.24861  0.24484  0.55470  Biso   1.000  C
  C879     1.0000 0.52494  0.17909  0.27318  Biso   1.000  C
  C880     1.0000 0.76201  0.47347  0.30497  Biso   1.000  C
  C881     1.0000 0.74651  0.23363  0.03660  Biso   1.000  C
  C882     1.0000 0.01769  0.15749  0.26898  Biso   1.000  C
  C883     1.0000 0.24599  0.98147  0.23900  Biso   1.000  C
  C884     1.0000 0.26557  0.75354  0.50401  Biso   1.000  C
  C885     1.0000 0.05604  0.68726  0.29190  Biso   1.000  C
  C886     1.0000 0.71215  0.98516  0.25967  Biso   1.000  C
  C887     1.0000 0.77526  0.73379  0.00516  Biso   1.000  C
  C888     1.0000 0.52197  0.70966  0.23564  Biso   1.000  C
  C889     1.0000 0.74474  0.95363  0.28600  Biso   1.000  C
  C890     1.0000 0.30720  0.70335  0.00541  Biso   1.000  C
  C891     1.0000 0.00939  0.26329  0.77418  Biso   1.000  C
  C892     1.0000 0.21886  0.94274  0.26634  Biso   1.000  C
  C893     1.0000 0.76989  0.67616  0.55187  Biso   1.000  C
  C894     1.0000 0.50405  0.21719  0.80937  Biso   1.000  C
  C895     1.0000 0.79100  0.43775  0.27836  Biso   1.000  C
  C896     1.0000 0.22127  0.20266  0.98399  Biso   1.000  C
  C897     1.0000 0.54035  0.72176  0.72841  Biso   1.000  C
  C898     1.0000 0.26396  0.44935  0.23295  Biso   1.000  C
  C899     1.0000 0.76274  0.17097  0.50466  Biso   1.000  C
  C900     1.0000 0.04315  0.73526  0.78815  Biso   1.000  C
  C901     1.0000 0.31162  0.95621  0.77026  Biso   1.000  C
  C902     1.0000 0.71318  0.20376  0.00953  Biso   1.000  C
  C903     1.0000 0.01978  0.65812  0.26461  Biso   1.000  C
  C904     1.0000 0.77173  0.98846  0.79319  Biso   1.000  C
  C905     1.0000 0.22431  0.21788  0.51452  Biso   1.000  C
  C906     1.0000 0.48071  0.68505  0.25622  Biso   1.000  C
  C907     1.0000 0.22539  0.46834  0.77009  Biso   1.000  C
  C908     1.0000 0.80983  0.70370  0.03129  Biso   1.000  C
  C909     1.0000 0.48569  0.20489  0.30218  Biso   1.000  C
  C910     1.0000 0.75712  0.46992  0.81012  Biso   1.000  C
  C911     1.0000 0.29944  0.72127  0.48298  Biso   1.000  C
  C912     1.0000 0.98555  0.18978  0.24324  Biso   1.000  C
  C913     1.0000 0.77279  0.45855  0.75946  Biso   1.000  C
  C914     1.0000 0.74807  0.72283  0.53626  Biso   1.000  C
  C915     1.0000 0.52784  0.70093  0.78007  Biso   1.000  C
  C916     1.0000 0.27488  0.46057  0.78513  Biso   1.000  C
  C917     1.0000 0.26305  0.72788  0.02472  Biso   1.000  C
  C918     1.0000 0.02576  0.71457  0.74025  Biso   1.000  C
  C919     1.0000 0.76017  0.98123  0.74295  Biso   1.000  C
  C920     1.0000 0.77579  0.22088  0.49188  Biso   1.000  C
  C921     1.0000 0.00488  0.21310  0.79010  Biso   1.000  C
  C922     1.0000 0.26260  0.96654  0.78595  Biso   1.000  C
  C923     1.0000 0.27058  0.22561  0.99438  Biso   1.000  C
  C924     1.0000 0.51921  0.19939  0.75885  Biso   1.000  C
  C925     1.0000 0.24630  0.45709  0.28065  Biso   1.000  C
  C926     1.0000 0.27305  0.19948  0.53506  Biso   1.000  C
  C927     1.0000 0.50450  0.22638  0.25643  Biso   1.000  C
  C928     1.0000 0.74198  0.45248  0.26256  Biso   1.000  C
  C929     1.0000 0.76377  0.18632  0.01752  Biso   1.000  C
  C930     1.0000 0.00547  0.20850  0.28900  Biso   1.000  C
  C931     1.0000 0.26253  0.96680  0.28608  Biso   1.000  C
  C932     1.0000 0.25050  0.70341  0.49415  Biso   1.000  C
  C933     1.0000 0.03931  0.70577  0.24405  Biso   1.000  C
  C934     1.0000 0.76021  0.96832  0.23792  Biso   1.000  C
  C935     1.0000 0.76068  0.68626  0.01808  Biso   1.000  C
  C936     1.0000 0.49906  0.72862  0.27919  Biso   1.000  C
  C937     1.0000 0.74142  0.20816  0.02064  Biso   1.000  C
  C938     1.0000 0.03665  0.68403  0.26778  Biso   1.000  C
  C939     1.0000 0.28573  0.96846  0.76303  Biso   1.000  C
  C940     1.0000 0.24794  0.22102  0.53549  Biso   1.000  C
  C941     1.0000 0.50005  0.70704  0.25676  Biso   1.000  C
  C942     1.0000 0.78253  0.98172  0.76586  Biso   1.000  C
  C943     1.0000 0.78284  0.70866  0.01916  Biso   1.000  C
  C944     1.0000 0.50482  0.20236  0.27795  Biso   1.000  C
  C945     1.0000 0.25347  0.46130  0.76212  Biso   1.000  C
  C946     1.0000 0.27269  0.72753  0.49339  Biso   1.000  C
  C947     1.0000 0.00561  0.18555  0.26586  Biso   1.000  C
  C948     1.0000 0.75049  0.45689  0.78251  Biso   1.000  C
  C949     1.0000 0.28514  0.70297  0.02583  Biso   1.000  C
  C950     1.0000 0.00099  0.23522  0.76885  Biso   1.000  C
  C951     1.0000 0.73868  0.96977  0.26135  Biso   1.000  C
  C952     1.0000 0.77189  0.70109  0.53546  Biso   1.000  C
  C953     1.0000 0.51753  0.22034  0.78308  Biso   1.000  C
  C954     1.0000 0.24050  0.96387  0.26385  Biso   1.000  C
  C955     1.0000 0.24784  0.20271  0.99924  Biso   1.000  C
  C956     1.0000 0.53221  0.72426  0.75778  Biso   1.000  C
  C957     1.0000 0.76570  0.45368  0.28285  Biso   1.000  C
  C958     1.0000 0.75411  0.19659  0.49060  Biso   1.000  C
  C959     1.0000 0.02798  0.73910  0.76240  Biso   1.000  C
  C960     1.0000 0.26710  0.46343  0.25838  Biso   1.000  C
  Cu1      1.0000 0.00855  0.46771  0.67102  Biso   1.000  Cu
  Cu2      1.0000 0.66653  0.96049  0.50400  Biso   1.000  Cu
  Cu3      1.0000 0.52445  0.61182  0.01862  Biso   1.000  Cu
  Cu4      1.0000 0.51531  0.46275  0.86737  Biso   1.000  Cu
  Cu5      1.0000 0.16646  0.96646  0.02303  Biso   1.000  Cu
  Cu6      1.0000 0.01202  0.61662  0.50818  Biso   1.000  Cu
  Cu7      1.0000 0.52432  0.96409  0.66853  Biso   1.000  Cu
  Cu8      1.0000 0.86008  0.46221  0.52107  Biso   1.000  Cu
  Cu9      1.0000 0.01021  0.11553  0.02663  Biso   1.000  Cu
  Cu10     1.0000 0.02146  0.97084  0.86469  Biso   1.000  Cu
  Cu11     1.0000 0.35442  0.46352  0.02272  Biso   1.000  Cu
  Cu12     1.0000 0.51616  0.11497  0.51734  Biso   1.000  Cu
  Cu13     1.0000 0.01010  0.44750  0.36901  Biso   1.000  Cu
  Cu14     1.0000 0.35670  0.96625  0.52068  Biso   1.000  Cu
  Cu15     1.0000 0.50447  0.31364  0.02072  Biso   1.000  Cu
  Cu16     1.0000 0.50557  0.46863  0.17564  Biso   1.000  Cu
  Cu17     1.0000 0.86320  0.95041  0.00444  Biso   1.000  Cu
  Cu18     1.0000 0.00998  0.30456  0.52475  Biso   1.000  Cu
  Cu19     1.0000 0.50236  0.96255  0.36481  Biso   1.000  Cu
  Cu20     1.0000 0.16951  0.46323  0.52137  Biso   1.000  Cu
  Cu21     1.0000 0.02042  0.80706  0.00846  Biso   1.000  Cu
  Cu22     1.0000 0.00729  0.94812  0.17072  Biso   1.000  Cu
  Cu23     1.0000 0.66494  0.44886  0.02051  Biso   1.000  Cu
  Cu24     1.0000 0.51067  0.80917  0.52080  Biso   1.000  Cu
  Cu25     1.0000 0.22198  0.96884  0.02583  Biso   1.000  Cu
  Cu26     1.0000 0.00757  0.16952  0.03084  Biso   1.000  Cu
  Cu27     1.0000 0.00459  0.94452  0.22589  Biso   1.000  Cu
  Cu28     1.0000 0.72056  0.96191  0.50467  Biso   1.000  Cu
  Cu29     1.0000 0.51476  0.16845  0.51750  Biso   1.000  Cu
  Cu30     1.0000 0.50069  0.96173  0.30999  Biso   1.000  Cu
  Cu31     1.0000 0.29771  0.46754  0.02330  Biso   1.000  Cu
  Cu32     1.0000 0.52555  0.66658  0.02119  Biso   1.000  Cu
  Cu33     1.0000 0.50596  0.46554  0.22823  Biso   1.000  Cu
  Cu34     1.0000 0.80540  0.46054  0.52171  Biso   1.000  Cu
  Cu35     1.0000 0.01351  0.66891  0.50327  Biso   1.000  Cu
  Cu36     1.0000 0.01072  0.44527  0.31336  Biso   1.000  Cu
  Cu37     1.0000 0.80843  0.94986  0.00107  Biso   1.000  Cu
  Cu38     1.0000 0.02291  0.75258  0.00442  Biso   1.000  Cu
  Cu39     1.0000 0.02514  0.97348  0.81201  Biso   1.000  Cu
  Cu40     1.0000 0.30457  0.96501  0.52363  Biso   1.000  Cu
  Cu41     1.0000 0.51182  0.75512  0.52042  Biso   1.000  Cu
  Cu42     1.0000 0.52643  0.96734  0.72460  Biso   1.000  Cu
  Cu43     1.0000 0.71893  0.44544  0.02266  Biso   1.000  Cu
  Cu44     1.0000 0.49981  0.25864  0.02177  Biso   1.000  Cu
  Cu45     1.0000 0.51231  0.45935  0.81287  Biso   1.000  Cu
  Cu46     1.0000 0.22336  0.46266  0.52020  Biso   1.000  Cu
  Cu47     1.0000 0.00936  0.25259  0.52749  Biso   1.000  Cu
  Cu48     1.0000 0.01176  0.47213  0.72502  Biso   1.000  Cu
  H1       1.0000 0.24263  0.75780  0.50939  Biso   1.000  H
  H2       1.0000 0.54171  0.25315  0.75724  Biso   1.000  H
  H3       1.0000 0.74205  0.48686  0.30522  Biso   1.000  H
  H4       1.0000 0.75611  0.73807  0.99381  Biso   1.000  H
  H5       1.0000 0.97901  0.20590  0.74006  Biso   1.000  H
  H6       1.0000 0.28936  0.49379  0.28583  Biso   1.000  H
  H7       1.0000 0.26552  0.24452  0.57086  Biso   1.000  H
  H8       1.0000 0.00232  0.76590  0.73688  Biso   1.000  H
  H9       1.0000 0.70864  0.99796  0.23948  Biso   1.000  H
  H10      1.0000 0.76732  0.23669  0.04865  Biso   1.000  H
  H11      1.0000 0.51652  0.75565  0.78881  Biso   1.000  H
  H12      1.0000 0.26427  0.99587  0.23625  Biso   1.000  H
  H13      1.0000 0.72372  0.22163  0.46501  Biso   1.000  H
  H14      1.0000 0.53963  0.72643  0.23423  Biso   1.000  H
  H15      1.0000 0.28097  0.44028  0.73358  Biso   1.000  H
  H16      1.0000 0.27348  0.18044  0.03132  Biso   1.000  H
  H17      1.0000 0.06906  0.70583  0.29719  Biso   1.000  H
  H18      1.0000 0.71966  0.42889  0.75786  Biso   1.000  H
  H19      1.0000 0.79393  0.72061  0.49743  Biso   1.000  H
  H20      1.0000 0.03355  0.15269  0.28843  Biso   1.000  H
  H21      1.0000 0.25645  0.98491  0.72913  Biso   1.000  H
  H22      1.0000 0.26484  0.68205  0.06074  Biso   1.000  H
  H23      1.0000 0.54045  0.17885  0.25529  Biso   1.000  H
  H24      1.0000 0.81832  0.97540  0.73697  Biso   1.000  H
  H25      1.0000 0.28087  0.99865  0.81190  Biso   1.000  H
  H26      1.0000 0.78206  0.19864  0.05727  Biso   1.000  H
  H27      1.0000 0.01005  0.68390  0.21450  Biso   1.000  H
  H28      1.0000 0.77591  0.94036  0.72511  Biso   1.000  H
  H29      1.0000 0.25146  0.17024  0.50595  Biso   1.000  H
  H30      1.0000 0.51833  0.76271  0.25285  Biso   1.000  H
  H31      1.0000 0.30214  0.48295  0.75931  Biso   1.000  H
  H32      1.0000 0.77056  0.67541  0.05992  Biso   1.000  H
  H33      1.0000 0.48278  0.25815  0.28268  Biso   1.000  H
  H34      1.0000 0.74281  0.48028  0.72688  Biso   1.000  H
  H35      1.0000 0.21955  0.72251  0.46614  Biso   1.000  H
  H36      1.0000 0.99374  0.17583  0.32164  Biso   1.000  H
  H37      1.0000 0.73189  0.94786  0.20655  Biso   1.000  H
  H38      1.0000 0.29399  0.76031  0.00142  Biso   1.000  H
  H39      1.0000 0.98083  0.23774  0.82341  Biso   1.000  H
  H40      1.0000 0.29803  0.94768  0.26276  Biso   1.000  H
  H41      1.0000 0.77644  0.75387  0.55288  Biso   1.000  H
  H42      1.0000 0.48227  0.18034  0.77712  Biso   1.000  H
  H43      1.0000 0.71128  0.42638  0.28516  Biso   1.000  H
  H44      1.0000 0.24488  0.24888  0.96530  Biso   1.000  H
  H45      1.0000 0.55889  0.67266  0.75956  Biso   1.000  H
  H46      1.0000 0.27265  0.42536  0.30461  Biso   1.000  H
  H47      1.0000 0.74436  0.24382  0.51639  Biso   1.000  H
  H48      1.0000 0.06546  0.69523  0.75487  Biso   1.000  H
  H49      1.0000 0.21532  0.48051  0.25721  Biso   1.000  H
  H50      1.0000 0.29972  0.22461  0.56290  Biso   1.000  H
  H51      1.0000 0.52445  0.19915  0.22221  Biso   1.000  H
  H52      1.0000 0.77051  0.47606  0.23368  Biso   1.000  H
  H53      1.0000 0.74870  0.16881  0.97590  Biso   1.000  H
  H54      1.0000 0.01926  0.23968  0.26023  Biso   1.000  H
  H55      1.0000 0.23075  0.98657  0.31663  Biso   1.000  H
  H56      1.0000 0.27833  0.67972  0.52145  Biso   1.000  H
  H57      1.0000 0.06868  0.73796  0.26589  Biso   1.000  H
  H58      1.0000 0.79034  0.99016  0.26320  Biso   1.000  H
  H59      1.0000 0.74523  0.68984  0.97193  Biso   1.000  H
  H60      1.0000 0.48419  0.69901  0.31490  Biso   1.000  H
  H61      1.0000 0.80647  0.43846  0.78382  Biso   1.000  H
  H62      1.0000 0.72207  0.69383  0.51418  Biso   1.000  H
  H63      1.0000 0.49778  0.72680  0.81098  Biso   1.000  H
  H64      1.0000 0.24891  0.43347  0.81453  Biso   1.000  H
  H65      1.0000 0.23038  0.70505  0.04932  Biso   1.000  H
  H66      1.0000 0.98652  0.72929  0.71821  Biso   1.000  H
  H67      1.0000 0.74125  0.02099  0.76026  Biso   1.000  H
  H68      1.0000 0.81063  0.20023  0.46923  Biso   1.000  H
  H69      1.0000 0.02964  0.18590  0.76081  Biso   1.000  H
  H70      1.0000 0.23820  0.93137  0.76417  Biso   1.000  H
  H71      1.0000 0.30674  0.20194  0.01587  Biso   1.000  H
  H72      1.0000 0.55704  0.21636  0.73438  Biso   1.000  H
  H73      1.0000 0.77620  0.48297  0.81192  Biso   1.000  H
  H74      1.0000 0.75182  0.67537  0.56645  Biso   1.000  H
  H75      1.0000 0.55282  0.70241  0.72498  Biso   1.000  H
  H76      1.0000 0.21892  0.47532  0.79159  Biso   1.000  H
  H77      1.0000 0.30800  0.72120  0.99064  Biso   1.000  H
  H78      1.0000 0.05680  0.71613  0.79211  Biso   1.000  H
  H79      1.0000 0.74926  0.99478  0.79733  Biso   1.000  H
  H80      1.0000 0.78329  0.16703  0.51590  Biso   1.000  H
  H81      1.0000 0.01907  0.26749  0.79474  Biso   1.000  H
  H82      1.0000 0.31834  0.94969  0.79226  Biso   1.000  H
  H83      1.0000 0.21419  0.22111  0.97026  Biso   1.000  H
  H84      1.0000 0.49351  0.19701  0.81664  Biso   1.000  H
  H85      1.0000 0.24418  0.43651  0.23106  Biso   1.000  H
  H86      1.0000 0.22331  0.20289  0.49712  Biso   1.000  H
  H87      1.0000 0.47255  0.22412  0.30501  Biso   1.000  H
  H88      1.0000 0.79276  0.42250  0.26206  Biso   1.000  H
  H89      1.0000 0.70530  0.18345  0.00028  Biso   1.000  H
  H90      1.0000 0.97187  0.20901  0.24451  Biso   1.000  H
  H91      1.0000 0.21564  0.93144  0.28582  Biso   1.000  H
  H92      1.0000 0.30266  0.69817  0.47641  Biso   1.000  H
  H93      1.0000 0.00652  0.65619  0.24566  Biso   1.000  H
  H94      1.0000 0.76437  0.94062  0.28570  Biso   1.000  H
  H95      1.0000 0.81620  0.68419  0.04222  Biso   1.000  H
  H96      1.0000 0.46252  0.68441  0.27182  Biso   1.000  H
  H97      1.0000 0.88433  0.96302  0.91409  Biso   1.000  H
  H98      1.0000 0.92722  0.81897  0.00925  Biso   1.000  H
  H99      1.0000 0.01600  0.87832  0.87860  Biso   1.000  H
  H100     1.0000 0.38693  0.95400  0.61066  Biso   1.000  H
  H101     1.0000 0.41999  0.83146  0.52103  Biso   1.000  H
  H102     1.0000 0.51753  0.87760  0.65179  Biso   1.000  H
  H103     1.0000 0.64327  0.45893  0.92892  Biso   1.000  H
  H104     1.0000 0.59655  0.32375  0.02881  Biso   1.000  H
  H105     1.0000 0.52212  0.37139  0.88754  Biso   1.000  H
  H106     1.0000 0.14934  0.46822  0.60971  Biso   1.000  H
  H107     1.0000 0.10174  0.32795  0.52247  Biso   1.000  H
  H108     1.0000 0.00251  0.37975  0.65494  Biso   1.000  H
  H109     1.0000 0.14032  0.95772  0.11535  Biso   1.000  H
  H110     1.0000 0.10013  0.09863  0.03240  Biso   1.000  H
  H111     1.0000 0.98612  0.03782  0.15522  Biso   1.000  H
  H112     1.0000 0.64142  0.95562  0.41547  Biso   1.000  H
  H113     1.0000 0.60689  0.09517  0.50944  Biso   1.000  H
  H114     1.0000 0.51560  0.05097  0.38307  Biso   1.000  H
  H115     1.0000 0.37545  0.45593  0.11588  Biso   1.000  H
  H116     1.0000 0.42819  0.59016  0.01626  Biso   1.000  H
  H117     1.0000 0.50562  0.55024  0.15879  Biso   1.000  H
  H118     1.0000 0.87583  0.46869  0.42883  Biso   1.000  H
  H119     1.0000 0.91906  0.59500  0.50709  Biso   1.000  H
  H120     1.0000 0.01947  0.54294  0.38343  Biso   1.000  H
  H121     1.0000 0.11046  0.95375  0.88763  Biso   1.000  H
  H122     1.0000 0.87946  0.04632  0.00471  Biso   1.000  H
  H123     1.0000 0.01991  0.81952  0.10269  Biso   1.000  H
  H124     1.0000 0.61239  0.97133  0.64355  Biso   1.000  H
  H125     1.0000 0.37985  0.05068  0.53821  Biso   1.000  H
  H126     1.0000 0.50585  0.82786  0.43230  Biso   1.000  H
  H127     1.0000 0.42209  0.46002  0.89267  Biso   1.000  H
  H128     1.0000 0.64953  0.54194  0.03733  Biso   1.000  H
  H129     1.0000 0.49908  0.33459  0.11103  Biso   1.000  H
  H130     1.0000 0.92161  0.47504  0.64986  Biso   1.000  H
  H131     1.0000 0.14756  0.55557  0.51219  Biso   1.000  H
  H132     1.0000 0.00412  0.31754  0.43397  Biso   1.000  H
  H133     1.0000 0.91703  0.94928  0.14078  Biso   1.000  H
  H134     1.0000 0.15296  0.87267  0.00798  Biso   1.000  H
  H135     1.0000 0.01901  0.10400  0.93564  Biso   1.000  H
  H136     1.0000 0.41207  0.98002  0.39175  Biso   1.000  H
  H137     1.0000 0.64416  0.87127  0.51050  Biso   1.000  H
  H138     1.0000 0.53082  0.09507  0.61001  Biso   1.000  H
  H139     1.0000 0.60122  0.45723  0.15094  Biso   1.000  H
  H140     1.0000 0.37200  0.37393  0.00516  Biso   1.000  H
  H141     1.0000 0.52137  0.59367  0.92890  Biso   1.000  H
  H142     1.0000 0.10126  0.44679  0.38975  Biso   1.000  H
  H143     1.0000 0.87847  0.37134  0.52919  Biso   1.000  H
  H144     1.0000 0.01619  0.59912  0.60259  Biso   1.000  H
  H145     1.0000 0.60272  0.45807  0.88468  Biso   1.000  H
  H146     1.0000 0.88126  0.55132  0.52434  Biso   1.000  H
  H147     1.0000 0.51771  0.83189  0.60883  Biso   1.000  H
  H148     1.0000 0.10670  0.46095  0.65160  Biso   1.000  H
  H149     1.0000 0.38040  0.55118  0.01425  Biso   1.000  H
  H150     1.0000 0.02544  0.83300  0.91923  Biso   1.000  H
  H151     1.0000 0.92786  0.97123  0.87940  Biso   1.000  H
  H152     1.0000 0.64889  0.04922  0.50086  Biso   1.000  H
  H153     1.0000 0.00223  0.33218  0.61630  Biso   1.000  H
  H154     1.0000 0.42806  0.95725  0.64904  Biso   1.000  H
  H155     1.0000 0.14257  0.05477  0.02611  Biso   1.000  H
  H156     1.0000 0.51126  0.33122  0.92788  Biso   1.000  H
  H157     1.0000 0.41692  0.46289  0.15503  Biso   1.000  H
  H158     1.0000 0.14677  0.37218  0.52062  Biso   1.000  H
  H159     1.0000 0.50922  0.09493  0.42529  Biso   1.000  H
  H160     1.0000 0.91687  0.45820  0.38573  Biso   1.000  H
  H161     1.0000 0.63722  0.35845  0.02781  Biso   1.000  H
  H162     1.0000 0.98993  0.08683  0.11442  Biso   1.000  H
  H163     1.0000 0.09430  0.95496  0.15513  Biso   1.000  H
  H164     1.0000 0.37477  0.87811  0.52086  Biso   1.000  H
  H165     1.0000 0.02056  0.58537  0.41861  Biso   1.000  H
  H166     1.0000 0.59673  0.95092  0.37567  Biso   1.000  H
  H167     1.0000 0.88488  0.85579  0.00699  Biso   1.000  H
  H168     1.0000 0.52217  0.59428  0.11403  Biso   1.000  H
  H169     1.0000 0.02175  0.05950  0.89048  Biso   1.000  H
  H170     1.0000 0.87959  0.95133  0.09922  Biso   1.000  H
  H171     1.0000 0.11432  0.82977  0.00440  Biso   1.000  H
  H172     1.0000 0.52923  0.05434  0.64914  Biso   1.000  H
  H173     1.0000 0.36723  0.98939  0.43127  Biso   1.000  H
  H174     1.0000 0.60181  0.83033  0.51509  Biso   1.000  H
  H175     1.0000 0.52255  0.55094  0.88353  Biso   1.000  H
  H176     1.0000 0.64071  0.44996  0.10771  Biso   1.000  H
  H177     1.0000 0.41219  0.33754  0.00744  Biso   1.000  H
  H178     1.0000 0.01415  0.55886  0.64729  Biso   1.000  H
  H179     1.0000 0.14490  0.45289  0.43130  Biso   1.000  H
  H180     1.0000 0.91902  0.32262  0.53212  Biso   1.000  H
  H181     1.0000 0.01679  0.85837  0.14937  Biso   1.000  H
  H182     1.0000 0.15355  0.96404  0.93082  Biso   1.000  H
  H183     1.0000 0.92047  0.09029  0.01396  Biso   1.000  H
  H184     1.0000 0.49258  0.87237  0.39099  Biso   1.000  H
  H185     1.0000 0.65032  0.96474  0.60055  Biso   1.000  H
  H186     1.0000 0.42650  0.09280  0.53480  Biso   1.000  H
  H187     1.0000 0.51064  0.37485  0.14985  Biso   1.000  H
  H188     1.0000 0.37707  0.46099  0.93584  Biso   1.000  H
  H189     1.0000 0.60944  0.59195  0.02496  Biso   1.000  H
  H190     1.0000 0.00298  0.35572  0.39189  Biso   1.000  H
  H191     1.0000 0.87809  0.46042  0.60922  Biso   1.000  H
  H192     1.0000 0.10557  0.59360  0.50326  Biso   1.000  H
  H193     1.0000 0.27921  0.82725  0.49085  Biso   1.000  H
  H194     1.0000 0.52676  0.23362  0.88035  Biso   1.000  H
  H195     1.0000 0.86445  0.45428  0.28897  Biso   1.000  H
  H196     1.0000 0.78713  0.80850  0.02945  Biso   1.000  H
  H197     1.0000 0.01025  0.24026  0.67708  Biso   1.000  H
  H198     1.0000 0.36196  0.46103  0.25200  Biso   1.000  H
  H199     1.0000 0.24037  0.31426  0.53531  Biso   1.000  H
  H200     1.0000 0.01486  0.74376  0.85651  Biso   1.000  H
  H201     1.0000 0.64258  0.96299  0.27754  Biso   1.000  H
  H202     1.0000 0.73147  0.30223  0.01291  Biso   1.000  H
  H203     1.0000 0.50856  0.73995  0.66816  Biso   1.000  H
  H204     1.0000 0.14836  0.95676  0.25356  Biso   1.000  H
  H205     1.0000 0.74495  0.10499  0.48576  Biso   1.000  H
  H206     1.0000 0.51501  0.69032  0.16204  Biso   1.000  H
  H207     1.0000 0.15414  0.45125  0.74801  Biso   1.000  H
  H208     1.0000 0.23958  0.10462  0.00890  Biso   1.000  H
  H209     1.0000 0.03573  0.67984  0.36133  Biso   1.000  H
  H210     1.0000 0.66049  0.46296  0.79042  Biso   1.000  H
  H211     1.0000 0.78361  0.60123  0.54457  Biso   1.000  H
  H212     1.0000 0.01127  0.17721  0.17691  Biso   1.000  H
  H213     1.0000 0.38231  0.96492  0.74740  Biso   1.000  H
  H214     1.0000 0.28852  0.61359  0.02222  Biso   1.000  H
  H215     1.0000 0.50545  0.19082  0.37297  Biso   1.000  H
  H216     1.0000 0.88063  0.99738  0.78060  Biso   1.000  H
  H217     1.0000 0.23833  0.45574  0.37363  Biso   1.000  H
  H218     1.0000 0.37631  0.19227  0.53476  Biso   1.000  H
  H219     1.0000 0.52473  0.32410  0.24713  Biso   1.000  H
  H220     1.0000 0.73872  0.44321  0.16601  Biso   1.000  H
  H221     1.0000 0.85915  0.18063  0.03081  Biso   1.000  H
  H222     1.0000 0.99311  0.30274  0.29731  Biso   1.000  H
  H223     1.0000 0.27186  0.97059  0.37865  Biso   1.000  H
  H224     1.0000 0.16070  0.68989  0.51198  Biso   1.000  H
  H225     1.0000 0.02190  0.80265  0.24122  Biso   1.000  H
  H226     1.0000 0.77788  0.96574  0.14182  Biso   1.000  H
  H227     1.0000 0.67628  0.67965  0.01100  Biso   1.000  H
  H228     1.0000 0.48521  0.81752  0.29441  Biso   1.000  H
  H229     1.0000 0.78013  0.45667  0.66537  Biso   1.000  H
  H230     1.0000 0.65255  0.73421  0.53786  Biso   1.000  H
  H231     1.0000 0.51401  0.60860  0.78987  Biso   1.000  H
  H232     1.0000 0.28205  0.45847  0.87926  Biso   1.000  H
  H233     1.0000 0.16861  0.73565  0.01680  Biso   1.000  H
  H234     1.0000 0.02389  0.61776  0.74002  Biso   1.000  H
  H235     1.0000 0.75286  0.97696  0.64174  Biso   1.000  H
  H236     1.0000 0.86238  0.22945  0.51921  Biso   1.000  H
  H237     1.0000 0.00186  0.11374  0.79737  Biso   1.000  H
  H238     1.0000 0.25292  0.95861  0.88200  Biso   1.000  H
  H239     1.0000 0.36126  0.24235  0.97989  Biso   1.000  H
  H240     1.0000 0.50021  0.10580  0.74219  Biso   1.000  H
  H241     1.0000 0.74193  0.45128  0.88323  Biso   1.000  H
  H242     1.0000 0.86567  0.69078  0.52427  Biso   1.000  H
  H243     1.0000 0.53509  0.82627  0.74821  Biso   1.000  H
  H244     1.0000 0.24616  0.47416  0.66464  Biso   1.000  H
  H245     1.0000 0.38330  0.68896  0.02425  Biso   1.000  H
  H246     1.0000 0.01969  0.83659  0.77691  Biso   1.000  H
  H247     1.0000 0.78855  0.95886  0.85991  Biso   1.000  H
  H248     1.0000 0.66032  0.19056  0.50069  Biso   1.000  H
  H249     1.0000 0.98265  0.33421  0.75490  Biso   1.000  H
  H250     1.0000 0.29262  0.93686  0.66774  Biso   1.000  H
  H251     1.0000 0.15052  0.19377  0.02135  Biso   1.000  H
  H252     1.0000 0.51656  0.31501  0.79123  Biso   1.000  H
  H253     1.0000 0.27658  0.48082  0.16662  Biso   1.000  H
  H254     1.0000 0.15665  0.23248  0.52922  Biso   1.000  H
  H255     1.0000 0.50836  0.10523  0.28317  Biso   1.000  H
  H256     1.0000 0.77767  0.46423  0.37807  Biso   1.000  H
  H257     1.0000 0.64076  0.22307  0.03085  Biso   1.000  H
  H258     1.0000 0.98635  0.08856  0.25381  Biso   1.000  H
  H259     1.0000 0.23438  0.96659  0.16852  Biso   1.000  H
  H260     1.0000 0.36292  0.74005  0.50578  Biso   1.000  H
  H261     1.0000 0.04197  0.58445  0.28441  Biso   1.000  H
  H262     1.0000 0.73546  0.96864  0.35916  Biso   1.000  H
  H263     1.0000 0.88125  0.72074  0.01123  Biso   1.000  H
  H264     1.0000 0.49653  0.61416  0.25023  Biso   1.000  H
  H265     1.0000 0.01982  0.19893  0.88412  Biso   1.000  H
  H266     1.0000 0.85702  0.95267  0.23431  Biso   1.000  H
  H267     1.0000 0.24884  0.82512  0.03241  Biso   1.000  H
  H268     1.0000 0.52354  0.19284  0.66393  Biso   1.000  H
  H269     1.0000 0.35742  0.99957  0.29814  Biso   1.000  H
  H270     1.0000 0.74300  0.81781  0.51252  Biso   1.000  H
  H271     1.0000 0.52823  0.69152  0.87947  Biso   1.000  H
  H272     1.0000 0.64990  0.46769  0.24905  Biso   1.000  H
  H273     1.0000 0.27400  0.32281  0.00346  Biso   1.000  H
  H274     1.0000 0.01858  0.69957  0.64978  Biso   1.000  H
  H275     1.0000 0.15488  0.43681  0.29277  Biso   1.000  H
  H276     1.0000 0.78448  0.31898  0.49712  Biso   1.000  H
  H277     1.0000 0.03383  0.72044  0.15078  Biso   1.000  H
  H278     1.0000 0.16754  0.95491  0.79045  Biso   1.000  H
  H279     1.0000 0.77943  0.09451  0.00101  Biso   1.000  H
  H280     1.0000 0.51948  0.73513  0.37493  Biso   1.000  H
  H281     1.0000 0.67387  0.98277  0.73472  Biso   1.000  H
  H282     1.0000 0.28832  0.10770  0.55341  Biso   1.000  H
  H283     1.0000 0.48746  0.24090  0.16441  Biso   1.000  H
  H284     1.0000 0.37005  0.45746  0.79541  Biso   1.000  H
  H285     1.0000 0.74850  0.58618  0.01903  Biso   1.000  H
  H286     1.0000 0.01572  0.21902  0.38583  Biso   1.000  H
  H287     1.0000 0.86893  0.48166  0.74858  Biso   1.000  H
  H288     1.0000 0.24775  0.60711  0.51132  Biso   1.000  H
  H289     1.0000 0.09761  0.19367  0.03480  Biso   1.000  H
  H290     1.0000 0.98815  0.03515  0.25028  Biso   1.000  H
  H291     1.0000 0.23511  0.97091  0.11436  Biso   1.000  H
  H292     1.0000 0.60671  0.18946  0.50130  Biso   1.000  H
  H293     1.0000 0.50901  0.05264  0.28647  Biso   1.000  H
  H294     1.0000 0.73774  0.96593  0.41019  Biso   1.000  H
  H295     1.0000 0.43722  0.68572  0.02300  Biso   1.000  H
  H296     1.0000 0.49887  0.55883  0.25511  Biso   1.000  H
  H297     1.0000 0.28013  0.47706  0.11086  Biso   1.000  H
  H298     1.0000 0.91945  0.69209  0.51767  Biso   1.000  H
  H299     1.0000 0.03161  0.53179  0.28971  Biso   1.000  H
  H300     1.0000 0.78027  0.46931  0.43162  Biso   1.000  H
  H301     1.0000 0.93384  0.72510  0.01101  Biso   1.000  H
  H302     1.0000 0.01491  0.88701  0.78209  Biso   1.000  H
  H303     1.0000 0.79186  0.94520  0.91242  Biso   1.000  H
  H304     1.0000 0.41839  0.73738  0.51259  Biso   1.000  H
  H305     1.0000 0.53353  0.87963  0.74753  Biso   1.000  H
  H306     1.0000 0.29341  0.93404  0.61220  Biso   1.000  H
  H307     1.0000 0.58491  0.22929  0.03577  Biso   1.000  H
  H308     1.0000 0.51100  0.36812  0.79138  Biso   1.000  H
  H309     1.0000 0.73888  0.44776  0.93527  Biso   1.000  H
  H310     1.0000 0.09973  0.23284  0.52417  Biso   1.000  H
  H311     1.0000 0.98517  0.38516  0.74805  Biso   1.000  H
  H312     1.0000 0.24719  0.47224  0.61121  Biso   1.000  H
  H313     1.0000 0.24809  0.96822  0.93518  Biso   1.000  H
  H314     1.0000 0.91736  0.18251  0.03758  Biso   1.000  H
  H315     1.0000 0.01087  0.85362  0.24381  Biso   1.000  H
  H316     1.0000 0.74503  0.97600  0.58989  Biso   1.000  H
  H317     1.0000 0.43177  0.18742  0.52757  Biso   1.000  H
  H318     1.0000 0.48520  0.87041  0.29130  Biso   1.000  H
  H319     1.0000 0.27927  0.46332  0.93411  Biso   1.000  H
  H320     1.0000 0.62095  0.68436  0.00356  Biso   1.000  H
  H321     1.0000 0.52452  0.37547  0.24568  Biso   1.000  H
  H322     1.0000 0.77733  0.45549  0.61134  Biso   1.000  H
  H323     1.0000 0.10283  0.68825  0.51017  Biso   1.000  H
  H324     1.0000 0.99219  0.35456  0.29638  Biso   1.000  H
  H325     1.0000 0.78321  0.96339  0.08751  Biso   1.000  H
  H326     1.0000 0.11484  0.73527  0.00339  Biso   1.000  H
  H327     1.0000 0.01054  0.06317  0.79644  Biso   1.000  H
  H328     1.0000 0.27294  0.96821  0.43497  Biso   1.000  H
  H329     1.0000 0.60262  0.73831  0.54198  Biso   1.000  H
  H330     1.0000 0.50131  0.05394  0.74027  Biso   1.000  H
  H331     1.0000 0.73749  0.43191  0.11273  Biso   1.000  H
  H332     1.0000 0.41533  0.24330  0.98614  Biso   1.000  H
  H333     1.0000 0.51379  0.55623  0.78987  Biso   1.000  H
  H334     1.0000 0.24434  0.45465  0.43027  Biso   1.000  H
  H335     1.0000 0.92012  0.22934  0.52060  Biso   1.000  H
  H336     1.0000 0.03044  0.56292  0.74242  Biso   1.000  H
  H337     1.0000 0.01562  0.19933  0.93827  Biso   1.000  H
  H338     1.0000 0.91132  0.95110  0.23587  Biso   1.000  H
  H339     1.0000 0.24563  0.87996  0.02965  Biso   1.000  H
  H340     1.0000 0.53141  0.19164  0.60531  Biso   1.000  H
  H341     1.0000 0.41340  0.00014  0.29845  Biso   1.000  H
  H342     1.0000 0.74103  0.87156  0.50527  Biso   1.000  H
  H343     1.0000 0.53250  0.68919  0.93126  Biso   1.000  H
  H344     1.0000 0.59696  0.46950  0.24759  Biso   1.000  H
  H345     1.0000 0.27770  0.37726  0.01647  Biso   1.000  H
  H346     1.0000 0.01139  0.69587  0.59194  Biso   1.000  H
  H347     1.0000 0.10089  0.43570  0.29527  Biso   1.000  H
  H348     1.0000 0.78734  0.37275  0.49739  Biso   1.000  H
  H349     1.0000 0.02898  0.72497  0.09570  Biso   1.000  H
  H350     1.0000 0.11399  0.95332  0.79244  Biso   1.000  H
  H351     1.0000 0.78539  0.04076  0.98668  Biso   1.000  H
  H352     1.0000 0.53268  0.73706  0.43017  Biso   1.000  H
  H353     1.0000 0.61747  0.97488  0.73975  Biso   1.000  H
  H354     1.0000 0.28718  0.05344  0.55385  Biso   1.000  H
  H355     1.0000 0.48143  0.24081  0.11343  Biso   1.000  H
  H356     1.0000 0.42075  0.46524  0.79502  Biso   1.000  H
  H357     1.0000 0.74671  0.53322  0.03073  Biso   1.000  H
  H358     1.0000 0.02525  0.22349  0.43862  Biso   1.000  H
  H359     1.0000 0.91901  0.48373  0.74656  Biso   1.000  H
  H360     1.0000 0.24549  0.55079  0.51310  Biso   1.000  H
  H361     1.0000 0.02292  0.68360  0.41449  Biso   1.000  H
  H362     1.0000 0.43612  0.96768  0.74473  Biso   1.000  H
  H363     1.0000 0.73525  0.35647  0.00947  Biso   1.000  H
  H364     1.0000 0.53294  0.68947  0.11247  Biso   1.000  H
  H365     1.0000 0.93501  0.99661  0.78625  Biso   1.000  H
  H366     1.0000 0.24050  0.37087  0.53807  Biso   1.000  H
  H367     1.0000 0.50206  0.18846  0.42492  Biso   1.000  H
  H368     1.0000 0.09963  0.45370  0.74396  Biso   1.000  H
  H369     1.0000 0.78734  0.86064  0.02148  Biso   1.000  H
  H370     1.0000 0.00938  0.18182  0.12379  Biso   1.000  H
  H371     1.0000 0.60334  0.46491  0.78969  Biso   1.000  H
  H372     1.0000 0.28018  0.88090  0.50327  Biso   1.000  H
  H373     1.0000 0.01448  0.23779  0.62113  Biso   1.000  H
  H374     1.0000 0.58973  0.95913  0.28130  Biso   1.000  H
  H375     1.0000 0.28209  0.56150  0.01772  Biso   1.000  H
  H376     1.0000 0.52214  0.23887  0.93819  Biso   1.000  H
  H377     1.0000 0.09398  0.95069  0.25181  Biso   1.000  H
  H378     1.0000 0.78620  0.54611  0.54198  Biso   1.000  H
  H379     1.0000 0.50337  0.73589  0.61399  Biso   1.000  H
  H380     1.0000 0.91817  0.45263  0.28973  Biso   1.000  H
  H381     1.0000 0.23741  0.05554  0.00925  Biso   1.000  H
  H382     1.0000 0.02267  0.73703  0.90864  Biso   1.000  H
  H383     1.0000 0.41848  0.45515  0.25214  Biso   1.000  H
  H384     1.0000 0.74252  0.04937  0.49045  Biso   1.000  H
  H385     1.0000 0.24003  0.42244  0.34688  Biso   1.000  H
  H386     1.0000 0.28619  0.13047  0.51546  Biso   1.000  H
  H387     1.0000 0.48744  0.29721  0.24935  Biso   1.000  H
  H388     1.0000 0.67417  0.42603  0.24261  Biso   1.000  H
  H389     1.0000 0.82340  0.16663  0.05533  Biso   1.000  H
  H390     1.0000 0.98274  0.21180  0.35799  Biso   1.000  H
  H391     1.0000 0.33552  0.95541  0.29498  Biso   1.000  H
  H392     1.0000 0.18501  0.68169  0.47043  Biso   1.000  H
  H393     1.0000 0.00018  0.71960  0.18233  Biso   1.000  H
  H394     1.0000 0.77013  0.93972  0.17211  Biso   1.000  H
  H395     1.0000 0.73247  0.63893  0.06480  Biso   1.000  H
  H396     1.0000 0.52672  0.79538  0.29052  Biso   1.000  H
  H397     1.0000 0.77803  0.48999  0.69294  Biso   1.000  H
  H398     1.0000 0.74096  0.79481  0.55284  Biso   1.000  H
  H399     1.0000 0.55412  0.63406  0.79767  Biso   1.000  H
  H400     1.0000 0.34294  0.48508  0.79939  Biso   1.000  H
  H401     1.0000 0.25515  0.79454  0.99399  Biso   1.000  H
  H402     1.0000 0.05929  0.64916  0.72643  Biso   1.000  H
  H403     1.0000 0.74343  0.94174  0.68263  Biso   1.000  H
  H404     1.0000 0.78175  0.28037  0.53344  Biso   1.000  H
  H405     1.0000 0.98515  0.19497  0.86031  Biso   1.000  H
  H406     1.0000 0.24541  0.99326  0.85425  Biso   1.000  H
  H407     1.0000 0.27721  0.29309  0.96565  Biso   1.000  H
  H408     1.0000 0.47990  0.14270  0.73816  Biso   1.000  H
  H409     1.0000 0.28373  0.44231  0.19214  Biso   1.000  H
  H410     1.0000 0.18823  0.23921  0.49590  Biso   1.000  H
  H411     1.0000 0.47317  0.18395  0.34315  Biso   1.000  H
  H412     1.0000 0.83178  0.42450  0.29542  Biso   1.000  H
  H413     1.0000 0.67070  0.22226  0.99812  Biso   1.000  H
  H414     1.0000 0.96579  0.17506  0.20422  Biso   1.000  H
  H415     1.0000 0.17984  0.92705  0.24954  Biso   1.000  H
  H416     1.0000 0.34029  0.73825  0.47125  Biso   1.000  H
  H417     1.0000 0.00480  0.61804  0.28790  Biso   1.000  H
  H418     1.0000 0.73245  0.93681  0.32756  Biso   1.000  H
  H419     1.0000 0.84939  0.72336  0.04447  Biso   1.000  H
  H420     1.0000 0.46441  0.64767  0.23683  Biso   1.000  H
  H421     1.0000 0.74183  0.48289  0.85135  Biso   1.000  H
  H422     1.0000 0.78854  0.63669  0.56567  Biso   1.000  H
  H423     1.0000 0.54987  0.74101  0.68626  Biso   1.000  H
  H424     1.0000 0.18263  0.47590  0.75593  Biso   1.000  H
  H425     1.0000 0.34860  0.68590  0.98919  Biso   1.000  H
  H426     1.0000 0.05535  0.75082  0.83012  Biso   1.000  H
  H427     1.0000 0.78408  0.99485  0.83663  Biso   1.000  H
  H428     1.0000 0.74592  0.13101  0.51961  Biso   1.000  H
  H429     1.0000 0.02201  0.30421  0.76118  Biso   1.000  H
  H430     1.0000 0.35191  0.94355  0.75910  Biso   1.000  H
  H431     1.0000 0.17794  0.18347  0.98031  Biso   1.000  H
  H432     1.0000 0.49274  0.23294  0.85026  Biso   1.000  H
  H433     1.0000 0.29032  0.98127  0.69237  Biso   1.000  H
  H434     1.0000 0.72899  0.27247  0.05355  Biso   1.000  H
  H435     1.0000 0.06963  0.67128  0.33222  Biso   1.000  H
  H436     1.0000 0.85511  0.96816  0.77784  Biso   1.000  H
  H437     1.0000 0.22903  0.28402  0.57339  Biso   1.000  H
  H438     1.0000 0.54272  0.68923  0.19967  Biso   1.000  H
  H439     1.0000 0.24858  0.44100  0.69296  Biso   1.000  H
  H440     1.0000 0.78945  0.77353  0.98916  Biso   1.000  H
  H441     1.0000 0.53976  0.13867  0.29043  Biso   1.000  H
  H442     1.0000 0.68595  0.42539  0.79709  Biso   1.000  H
  H443     1.0000 0.27572  0.79462  0.51712  Biso   1.000  H
  H444     1.0000 0.02576  0.11568  0.25372  Biso   1.000  H
  H445     1.0000 0.67033  0.99249  0.27851  Biso   1.000  H
  H446     1.0000 0.29875  0.64229  0.06300  Biso   1.000  H
  H447     1.0000 0.97057  0.24212  0.70108  Biso   1.000  H
  H448     1.0000 0.22678  0.99501  0.19817  Biso   1.000  H
  H449     1.0000 0.83326  0.68559  0.49679  Biso   1.000  H
  H450     1.0000 0.54484  0.28790  0.79168  Biso   1.000  H
  H451     1.0000 0.78059  0.49287  0.34296  Biso   1.000  H
  H452     1.0000 0.23591  0.14201  0.04243  Biso   1.000  H
  H453     1.0000 0.50338  0.79328  0.75171  Biso   1.000  H
  H454     1.0000 0.33321  0.49960  0.25134  Biso   1.000  H
  H455     1.0000 0.68441  0.18521  0.46806  Biso   1.000  H
  H456     1.0000 0.99860  0.80430  0.77154  Biso   1.000  H
  H457     1.0000 0.68471  0.72885  0.50480  Biso   1.000  H
  H458     1.0000 0.49351  0.68846  0.84520  Biso   1.000  H
  H459     1.0000 0.84238  0.44152  0.74575  Biso   1.000  H
  H460     1.0000 0.19622  0.74331  0.05034  Biso   1.000  H
  H461     1.0000 0.98543  0.68805  0.68434  Biso   1.000  H
  H462     1.0000 0.28651  0.42857  0.85238  Biso   1.000  H
  H463     1.0000 0.84632  0.23996  0.47880  Biso   1.000  H
  H464     1.0000 0.03771  0.14809  0.79459  Biso   1.000  H
  H465     1.0000 0.70345  0.02252  0.72155  Biso   1.000  H
  H466     1.0000 0.33864  0.24166  0.01729  Biso   1.000  H
  H467     1.0000 0.55464  0.18501  0.69481  Biso   1.000  H
  H468     1.0000 0.20202  0.92692  0.80291  Biso   1.000  H
  H469     1.0000 0.34049  0.19229  0.56505  Biso   1.000  H
  H470     1.0000 0.52710  0.23547  0.19101  Biso   1.000  H
  H471     1.0000 0.17541  0.47429  0.29277  Biso   1.000  H
  H472     1.0000 0.79309  0.13624  0.97085  Biso   1.000  H
  H473     1.0000 0.02456  0.27722  0.29739  Biso   1.000  H
  H474     1.0000 0.73697  0.47962  0.19631  Biso   1.000  H
  H475     1.0000 0.24365  0.64288  0.53648  Biso   1.000  H
  H476     1.0000 0.06195  0.77515  0.23835  Biso   1.000  H
  H477     1.0000 0.26932  0.00024  0.34997  Biso   1.000  H
  H478     1.0000 0.71714  0.64846  0.97265  Biso   1.000  H
  H479     1.0000 0.48586  0.73243  0.35255  Biso   1.000  H
  H480     1.0000 0.83209  0.98801  0.22913  Biso   1.000  H
  N1       1.0000 0.69250  0.13601  0.49567  Biso   1.000  N
  N2       1.0000 0.50668  0.64235  0.19570  Biso   1.000  N
  N3       1.0000 0.19145  0.46418  0.69878  Biso   1.000  N
  N4       1.0000 0.18553  0.14073  0.01678  Biso   1.000  N
  N5       1.0000 0.03697  0.62407  0.33269  Biso   1.000  N
  N6       1.0000 0.68940  0.45484  0.84678  Biso   1.000  N
  N7       1.0000 0.83636  0.63782  0.52995  Biso   1.000  N
  N8       1.0000 0.99415  0.12357  0.20358  Biso   1.000  N
  N9       1.0000 0.34567  0.95458  0.69824  Biso   1.000  N
  N10      1.0000 0.34611  0.63802  0.02378  Biso   1.000  N
  N11      1.0000 0.50550  0.13750  0.33817  Biso   1.000  N
  N12      1.0000 0.84370  0.97936  0.83093  Biso   1.000  N
  N13      1.0000 0.33326  0.79200  0.49683  Biso   1.000  N
  N14      1.0000 0.52281  0.28525  0.84586  Biso   1.000  N
  N15      1.0000 0.83027  0.45974  0.34363  Biso   1.000  N
  N16      1.0000 0.84354  0.77327  0.01745  Biso   1.000  N
  N17      1.0000 0.99962  0.29580  0.70432  Biso   1.000  N
  N18      1.0000 0.33105  0.47247  0.19918  Biso   1.000  N
  N19      1.0000 0.18704  0.28496  0.52831  Biso   1.000  N
  N20      1.0000 0.02196  0.79809  0.82821  Biso   1.000  N
  N21      1.0000 0.67898  0.96407  0.32807  Biso   1.000  N
  N22      1.0000 0.67719  0.27370  0.02464  Biso   1.000  N
  N23      1.0000 0.52292  0.79123  0.69720  Biso   1.000  N
  N24      1.0000 0.18123  0.95863  0.19951  Biso   1.000  N
  N25      1.0000 0.83483  0.46849  0.69400  Biso   1.000  N
  N26      1.0000 0.68920  0.78679  0.52453  Biso   1.000  N
  N27      1.0000 0.52184  0.63867  0.84379  Biso   1.000  N
  N28      1.0000 0.33534  0.45884  0.84909  Biso   1.000  N
  N29      1.0000 0.19892  0.79016  0.01940  Biso   1.000  N
  N30      1.0000 0.01941  0.64590  0.68323  Biso   1.000  N
  N31      1.0000 0.70088  0.97895  0.67916  Biso   1.000  N
  N32      1.0000 0.83472  0.28516  0.50869  Biso   1.000  N
  N33      1.0000 0.01429  0.14849  0.85039  Biso   1.000  N
  N34      1.0000 0.19962  0.95945  0.84763  Biso   1.000  N
  N35      1.0000 0.32828  0.29174  0.99307  Biso   1.000  N
  N36      1.0000 0.51947  0.14116  0.69383  Biso   1.000  N
  N37      1.0000 0.18738  0.44712  0.34627  Biso   1.000  N
  N38      1.0000 0.33945  0.13930  0.54192  Biso   1.000  N
  N39      1.0000 0.50813  0.29106  0.19440  Biso   1.000  N
  N40      1.0000 0.68346  0.45758  0.19543  Biso   1.000  N
  N41      1.0000 0.83137  0.12786  0.01336  Biso   1.000  N
  N42      1.0000 0.00282  0.27006  0.35100  Biso   1.000  N
  N43      1.0000 0.32519  0.98228  0.34825  Biso   1.000  N
  N44      1.0000 0.19098  0.63875  0.50836  Biso   1.000  N
  N45      1.0000 0.02689  0.77295  0.18644  Biso   1.000  N
  N46      1.0000 0.82792  0.95868  0.17940  Biso   1.000  N
  N47      1.0000 0.69965  0.62190  0.02100  Biso   1.000  N
  N48      1.0000 0.50515  0.78800  0.34403  Biso   1.000  N
  O1       1.0000 0.35060  0.50551  0.02559  Biso   1.000  O
  O2       1.0000 0.01248  0.30541  0.56757  Biso   1.000  O
  O3       1.0000 0.54452  0.95755  0.35647  Biso   1.000  O
  O4       1.0000 0.85753  0.50189  0.52275  Biso   1.000  O
  O5       1.0000 0.51237  0.31148  0.97840  Biso   1.000  O
  O6       1.0000 0.04818  0.95037  0.17684  Biso   1.000  O
  O7       1.0000 0.16564  0.00696  0.02614  Biso   1.000  O
  O8       1.0000 0.50233  0.80469  0.56307  Biso   1.000  O
  O9       1.0000 0.96636  0.45305  0.36302  Biso   1.000  O
  O10      1.0000 0.67025  0.00208  0.49965  Biso   1.000  O
  O11      1.0000 0.01844  0.80271  0.96773  Biso   1.000  O
  O12      1.0000 0.46352  0.46912  0.17889  Biso   1.000  O
  O13      1.0000 0.66594  0.40791  0.01309  Biso   1.000  O
  O14      1.0000 0.01456  0.61648  0.46597  Biso   1.000  O
  O15      1.0000 0.48217  0.96653  0.67137  Biso   1.000  O
  O16      1.0000 0.16871  0.41983  0.52385  Biso   1.000  O
  O17      1.0000 0.52331  0.61343  0.06267  Biso   1.000  O
  O18      1.0000 0.97899  0.97609  0.85999  Biso   1.000  O
  O19      1.0000 0.86080  0.90811  0.00707  Biso   1.000  O
  O20      1.0000 0.50727  0.11549  0.47279  Biso   1.000  O
  O21      1.0000 0.05316  0.46193  0.67333  Biso   1.000  O
  O22      1.0000 0.35489  0.92548  0.51336  Biso   1.000  O
  O23      1.0000 0.00211  0.11264  0.06903  Biso   1.000  O
  O24      1.0000 0.55553  0.46315  0.85916  Biso   1.000  O
  O25      1.0000 0.96417  0.94188  0.16660  Biso   1.000  O
  O26      1.0000 0.17235  0.92353  0.02048  Biso   1.000  O
  O27      1.0000 0.01240  0.12305  0.98255  Biso   1.000  O
  O28      1.0000 0.46140  0.96989  0.36708  Biso   1.000  O
  O29      1.0000 0.66712  0.91944  0.50748  Biso   1.000  O
  O30      1.0000 0.52511  0.11940  0.55879  Biso   1.000  O
  O31      1.0000 0.54763  0.46343  0.17565  Biso   1.000  O
  O32      1.0000 0.35150  0.42112  0.01981  Biso   1.000  O
  O33      1.0000 0.52092  0.61611  0.97671  Biso   1.000  O
  O34      1.0000 0.05223  0.44109  0.36718  Biso   1.000  O
  O35      1.0000 0.85715  0.41785  0.51435  Biso   1.000  O
  O36      1.0000 0.01076  0.61889  0.54904  Biso   1.000  O
  O37      1.0000 0.06459  0.96195  0.86210  Biso   1.000  O
  O38      1.0000 0.85814  0.99268  0.99843  Biso   1.000  O
  O39      1.0000 0.02524  0.80025  0.05095  Biso   1.000  O
  O40      1.0000 0.56665  0.96022  0.67014  Biso   1.000  O
  O41      1.0000 0.35685  0.00662  0.52839  Biso   1.000  O
  O42      1.0000 0.52007  0.80598  0.47995  Biso   1.000  O
  O43      1.0000 0.47223  0.46100  0.86707  Biso   1.000  O
  O44      1.0000 0.67139  0.49039  0.03142  Biso   1.000  O
  O45      1.0000 0.49704  0.31161  0.06206  Biso   1.000  O
  O46      1.0000 0.96640  0.47247  0.67331  Biso   1.000  O
  O47      1.0000 0.17305  0.50531  0.51987  Biso   1.000  O
  O48      1.0000 0.01014  0.30059  0.48296  Biso   1.000  O
  O49      1.0000 0.01364  0.90625  0.17305  Biso   1.000  O
  O50      1.0000 0.17389  0.96871  0.98017  Biso   1.000  O
  O51      1.0000 0.96794  0.11633  0.02355  Biso   1.000  O
  O52      1.0000 0.49860  0.92202  0.36558  Biso   1.000  O
  O53      1.0000 0.66986  0.96169  0.54695  Biso   1.000  O
  O54      1.0000 0.47509  0.11544  0.52703  Biso   1.000  O
  O55      1.0000 0.50293  0.42594  0.17589  Biso   1.000  O
  O56      1.0000 0.35141  0.46601  0.98249  Biso   1.000  O
  O57      1.0000 0.56693  0.61410  0.01524  Biso   1.000  O
  O58      1.0000 0.00385  0.40668  0.36742  Biso   1.000  O
  O59      1.0000 0.85467  0.46027  0.56341  Biso   1.000  O
  O60      1.0000 0.05490  0.61623  0.50777  Biso   1.000  O
  O61      1.0000 0.02851  0.01307  0.86525  Biso   1.000  O
  O62      1.0000 0.85902  0.95165  0.04563  Biso   1.000  O
  O63      1.0000 0.06493  0.80512  0.00717  Biso   1.000  O
  O64      1.0000 0.52312  0.00658  0.67180  Biso   1.000  O
  O65      1.0000 0.34882  0.97803  0.48177  Biso   1.000  O
  O66      1.0000 0.55126  0.81053  0.52993  Biso   1.000  O
  O67      1.0000 0.51534  0.50590  0.86289  Biso   1.000  O
  O68      1.0000 0.66650  0.43925  0.06280  Biso   1.000  O
  O69      1.0000 0.46177  0.31257  0.01273  Biso   1.000  O
  O70      1.0000 0.01498  0.51162  0.67196  Biso   1.000  O
  O71      1.0000 0.17211  0.45986  0.47945  Biso   1.000  O
  O72      1.0000 0.96707  0.29979  0.52386  Biso   1.000  O
  O73      1.0000 0.00149  0.42733  0.67643  Biso   1.000  O
  O74      1.0000 0.66752  0.95613  0.46259  Biso   1.000  O
  O75      1.0000 0.48196  0.61233  0.01782  Biso   1.000  O
  O76      1.0000 0.51687  0.42260  0.86163  Biso   1.000  O
  O77      1.0000 0.16622  0.96324  0.06408  Biso   1.000  O
  O78      1.0000 0.96844  0.62072  0.50419  Biso   1.000  O
  O79      1.0000 0.52302  0.92466  0.67685  Biso   1.000  O
  O80      1.0000 0.85479  0.46197  0.47789  Biso   1.000  O
  O81      1.0000 0.05170  0.11881  0.02630  Biso   1.000  O
  O82      1.0000 0.01603  0.93064  0.86040  Biso   1.000  O
  O83      1.0000 0.35293  0.46252  0.06420  Biso   1.000  O
  O84      1.0000 0.55756  0.12008  0.51374  Biso   1.000  O
  O85      1.0000 0.01532  0.49222  0.36584  Biso   1.000  O
  O86      1.0000 0.35927  0.95724  0.56314  Biso   1.000  O
  O87      1.0000 0.54536  0.30712  0.03245  Biso   1.000  O
  O88      1.0000 0.50831  0.50744  0.18168  Biso   1.000  O
  O89      1.0000 0.86297  0.94917  0.96178  Biso   1.000  O
  O90      1.0000 0.05127  0.30539  0.52513  Biso   1.000  O
  O91      1.0000 0.50788  0.00280  0.36050  Biso   1.000  O
  O92      1.0000 0.17169  0.46553  0.56150  Biso   1.000  O
  O93      1.0000 0.97840  0.80079  0.00881  Biso   1.000  O
  O94      1.0000 0.99963  0.98874  0.17513  Biso   1.000  O
  O95      1.0000 0.66619  0.45802  0.98025  Biso   1.000  O
  O96      1.0000 0.46879  0.80767  0.51332  Biso   1.000  O
  O97      1.0000 0.47452  0.16511  0.52656  Biso   1.000  O
  O98      1.0000 0.50637  0.42409  0.22433  Biso   1.000  O
  O99      1.0000 0.22016  0.45702  0.47992  Biso   1.000  O
  O100     1.0000 0.96387  0.16402  0.02899  Biso   1.000  O
  O101     1.0000 0.00883  0.40209  0.31807  Biso   1.000  O
  O102     1.0000 0.71575  0.43818  0.06326  Biso   1.000  O
  O103     1.0000 0.05698  0.66677  0.50467  Biso   1.000  O
  O104     1.0000 0.00641  0.90166  0.22122  Biso   1.000  O
  O105     1.0000 0.30032  0.97513  0.48440  Biso   1.000  O
  O106     1.0000 0.56839  0.66328  0.01414  Biso   1.000  O
  O107     1.0000 0.49648  0.91962  0.31640  Biso   1.000  O
  O108     1.0000 0.81037  0.95631  0.04200  Biso   1.000  O
  O109     1.0000 0.55262  0.76097  0.53009  Biso   1.000  O
  O110     1.0000 0.50750  0.50208  0.81601  Biso   1.000  O
  O111     1.0000 0.80592  0.45331  0.56278  Biso   1.000  O
  O112     1.0000 0.06530  0.75579  0.00236  Biso   1.000  O
  O113     1.0000 0.01764  0.51325  0.72078  Biso   1.000  O
  O114     1.0000 0.30309  0.46606  0.98223  Biso   1.000  O
  O115     1.0000 0.96744  0.25218  0.53022  Biso   1.000  O
  O116     1.0000 0.03427  0.01587  0.81761  Biso   1.000  O
  O117     1.0000 0.71949  0.96672  0.54705  Biso   1.000  O
  O118     1.0000 0.46156  0.26398  0.01006  Biso   1.000  O
  O119     1.0000 0.52183  0.00844  0.72226  Biso   1.000  O
  O120     1.0000 0.22363  0.97235  0.98368  Biso   1.000  O
  O121     1.0000 0.05328  0.46432  0.72207  Biso   1.000  O
  O122     1.0000 0.71965  0.00212  0.49983  Biso   1.000  O
  O123     1.0000 0.53637  0.66049  0.06240  Biso   1.000  O
  O124     1.0000 0.55554  0.46308  0.81037  Biso   1.000  O
  O125     1.0000 0.21557  0.00861  0.02646  Biso   1.000  O
  O126     1.0000 0.00979  0.66363  0.46217  Biso   1.000  O
  O127     1.0000 0.48370  0.96909  0.71946  Biso   1.000  O
  O128     1.0000 0.80963  0.50182  0.52507  Biso   1.000  O
  O129     1.0000 0.00687  0.16002  0.07158  Biso   1.000  O
  O130     1.0000 0.98250  0.98035  0.81229  Biso   1.000  O
  O131     1.0000 0.30170  0.50837  0.02232  Biso   1.000  O
  O132     1.0000 0.51036  0.16343  0.47417  Biso   1.000  O
  O133     1.0000 0.96776  0.44563  0.31476  Biso   1.000  O
  O134     1.0000 0.30448  0.92507  0.51401  Biso   1.000  O
  O135     1.0000 0.50555  0.26392  0.98184  Biso   1.000  O
  O136     1.0000 0.46545  0.46681  0.22549  Biso   1.000  O
  O137     1.0000 0.81109  0.90913  0.01244  Biso   1.000  O
  O138     1.0000 0.00736  0.25839  0.56963  Biso   1.000  O
  O139     1.0000 0.54107  0.95403  0.30880  Biso   1.000  O
  O140     1.0000 0.21703  0.42088  0.52333  Biso   1.000  O
  O141     1.0000 0.01823  0.75368  0.96225  Biso   1.000  O
  O142     1.0000 0.04510  0.95146  0.22614  Biso   1.000  O
  O143     1.0000 0.71457  0.40506  0.01137  Biso   1.000  O
  O144     1.0000 0.50824  0.75843  0.56316  Biso   1.000  O
  O145     1.0000 0.54786  0.46430  0.22344  Biso   1.000  O
  O146     1.0000 0.22137  0.50551  0.52004  Biso   1.000  O
  O147     1.0000 0.52293  0.16885  0.56006  Biso   1.000  O
  O148     1.0000 0.05044  0.44476  0.31955  Biso   1.000  O
  O149     1.0000 0.71901  0.48646  0.03127  Biso   1.000  O
  O150     1.0000 0.00917  0.17044  0.98827  Biso   1.000  O
  O151     1.0000 0.96208  0.94285  0.21547  Biso   1.000  O
  O152     1.0000 0.30843  0.00710  0.53026  Biso   1.000  O
  O153     1.0000 0.01689  0.66786  0.54745  Biso   1.000  O
  O154     1.0000 0.45828  0.97257  0.31829  Biso   1.000  O
  O155     1.0000 0.80821  0.99184  0.99333  Biso   1.000  O
  O156     1.0000 0.52752  0.66499  0.97940  Biso   1.000  O
  O157     1.0000 0.46900  0.45613  0.81867  Biso   1.000  O
  O158     1.0000 0.80750  0.41827  0.51458  Biso   1.000  O
  O159     1.0000 0.52043  0.75846  0.47846  Biso   1.000  O
  O160     1.0000 0.96973  0.48509  0.72184  Biso   1.000  O
  O161     1.0000 0.30077  0.42420  0.02344  Biso   1.000  O
  O162     1.0000 0.02598  0.74956  0.04920  Biso   1.000  O
  O163     1.0000 0.06568  0.96560  0.81399  Biso   1.000  O
  O164     1.0000 0.71695  0.91988  0.51058  Biso   1.000  O
  O165     1.0000 0.00825  0.25208  0.48725  Biso   1.000  O
  O166     1.0000 0.56671  0.96886  0.71854  Biso   1.000  O
  O167     1.0000 0.22245  0.92700  0.01967  Biso   1.000  O
  O168     1.0000 0.48810  0.26295  0.06284  Biso   1.000  O
  O169     1.0000 0.99868  0.98556  0.22375  Biso   1.000  O
  O170     1.0000 0.21438  0.96630  0.06698  Biso   1.000  O
  O171     1.0000 0.04725  0.16729  0.03197  Biso   1.000  O
  O172     1.0000 0.50631  0.00088  0.31161  Biso   1.000  O
  O173     1.0000 0.71676  0.96047  0.46202  Biso   1.000  O
  O174     1.0000 0.55803  0.16950  0.51155  Biso   1.000  O
  O175     1.0000 0.50605  0.50647  0.23029  Biso   1.000  O
  O176     1.0000 0.30424  0.47320  0.06380  Biso   1.000  O
  O177     1.0000 0.48375  0.65839  0.02661  Biso   1.000  O
  O178     1.0000 0.01529  0.48844  0.31609  Biso   1.000  O
  O179     1.0000 0.80624  0.46291  0.47953  Biso   1.000  O
  O180     1.0000 0.96963  0.66902  0.50863  Biso   1.000  O
  O181     1.0000 0.01413  0.93274  0.81223  Biso   1.000  O
  O182     1.0000 0.81327  0.94403  0.96014  Biso   1.000  O
  O183     1.0000 0.98088  0.75248  0.00754  Biso   1.000  O
  O184     1.0000 0.52906  0.92620  0.72469  Biso   1.000  O
  O185     1.0000 0.30902  0.95599  0.56463  Biso   1.000  O
  O186     1.0000 0.46802  0.75886  0.51585  Biso   1.000  O
  O187     1.0000 0.51730  0.41829  0.81285  Biso   1.000  O
  O188     1.0000 0.71489  0.45381  0.98029  Biso   1.000  O
  O189     1.0000 0.54007  0.25816  0.03164  Biso   1.000  O
  O190     1.0000 0.00062  0.43065  0.72568  Biso   1.000  O
  O191     1.0000 0.22015  0.46638  0.56104  Biso   1.000  O
  O192     1.0000 0.05133  0.25652  0.52550  Biso   1.000  O
