data_image0
_cell_length_a       46.5404
_cell_length_b       46.5609
_cell_length_c       46.6993
_cell_angle_alpha    90
_cell_angle_beta     90
_cell_angle_gamma    90

_symmetry_space_group_name_H-M    "P 1"
_symmetry_int_tables_number       1

loop_
  _symmetry_equiv_pos_as_xyz
  'x, y, z'

loop_
  _atom_site_label
  _atom_site_occupancy
  _atom_site_fract_x
  _atom_site_fract_y
  _atom_site_fract_z
  _atom_site_thermal_displace_type
  _atom_site_B_iso_or_equiv
  _atom_site_type_symbol
  C1       1.0000 0.56940  0.98908  0.34457  Biso   1.000  C
  C2       1.0000 0.33116  0.56882  0.01613  Biso   1.000  C
  C3       1.0000 0.01243  0.31523  0.57939  Biso   1.000  C
  C4       1.0000 0.06937  0.00196  0.20592  Biso   1.000  C
  C5       1.0000 0.83253  0.55070  0.52440  Biso   1.000  C
  C6       1.0000 0.49206  0.32129  0.96651  Biso   1.000  C
  C7       1.0000 0.94879  0.50822  0.34635  Biso   1.000  C
  C8       1.0000 0.18908  0.05936  0.01629  Biso   1.000  C
  C9       1.0000 0.52314  0.82402  0.58174  Biso   1.000  C
  C10      1.0000 0.45113  0.49717  0.19617  Biso   1.000  C
  C11      1.0000 0.70001  0.05273  0.52581  Biso   1.000  C
  C12      1.0000 0.02636  0.81686  0.97353  Biso   1.000  C
  C13      1.0000 0.46197  0.99776  0.70824  Biso   1.000  C
  C14      1.0000 0.68647  0.42928  0.02400  Biso   1.000  C
  C15      1.0000 0.00559  0.68144  0.47465  Biso   1.000  C
  C16      1.0000 0.95976  0.99293  0.84715  Biso   1.000  C
  C17      1.0000 0.19361  0.45028  0.50838  Biso   1.000  C
  C18      1.0000 0.51875  0.67917  0.08000  Biso   1.000  C
  C19      1.0000 0.07143  0.50259  0.69058  Biso   1.000  C
  C20      1.0000 0.83422  0.93006  0.02802  Biso   1.000  C
  C21      1.0000 0.51029  0.17914  0.46259  Biso   1.000  C
  C22      1.0000 0.56842  0.50423  0.84024  Biso   1.000  C
  C23      1.0000 0.33100  0.94844  0.53214  Biso   1.000  C
  C24      1.0000 0.99691  0.17928  0.07849  Biso   1.000  C
  C25      1.0000 0.33400  0.05731  0.51987  Biso   1.000  C
  C26      1.0000 0.50278  0.31096  0.07453  Biso   1.000  C
  C27      1.0000 0.05596  0.49576  0.34265  Biso   1.000  C
  C28      1.0000 0.82847  0.03910  0.01866  Biso   1.000  C
  C29      1.0000 0.02134  0.31530  0.47168  Biso   1.000  C
  C30      1.0000 0.55900  0.49284  0.20184  Biso   1.000  C
  C31      1.0000 0.19759  0.55885  0.51207  Biso   1.000  C
  C32      1.0000 0.02337  0.82139  0.07913  Biso   1.000  C
  C33      1.0000 0.46025  0.99127  0.34795  Biso   1.000  C
  C34      1.0000 0.69616  0.53707  0.01637  Biso   1.000  C
  C35      1.0000 0.50577  0.81985  0.47542  Biso   1.000  C
  C36      1.0000 0.96049  0.99601  0.20580  Biso   1.000  C
  C37      1.0000 0.69424  0.94400  0.51287  Biso   1.000  C
  C38      1.0000 0.53405  0.67743  0.97088  Biso   1.000  C
  C39      1.0000 0.96231  0.49569  0.70098  Biso   1.000  C
  C40      1.0000 0.19349  0.95257  0.03345  Biso   1.000  C
  C41      1.0000 0.01727  0.68660  0.58074  Biso   1.000  C
  C42      1.0000 0.45750  0.50693  0.83736  Biso   1.000  C
  C43      1.0000 0.83375  0.44050  0.53231  Biso   1.000  C
  C44      1.0000 0.00752  0.18147  0.97052  Biso   1.000  C
  C45      1.0000 0.56859  0.01379  0.70177  Biso   1.000  C
  C46      1.0000 0.32509  0.46105  0.01847  Biso   1.000  C
  C47      1.0000 0.51087  0.18557  0.57269  Biso   1.000  C
  C48      1.0000 0.06687  0.00689  0.84592  Biso   1.000  C
  C49      1.0000 0.00709  0.05555  0.84789  Biso   1.000  C
  C50      1.0000 0.83591  0.98779  0.07583  Biso   1.000  C
  C51      1.0000 0.07663  0.81947  0.03058  Biso   1.000  C
  C52      1.0000 0.50652  0.05602  0.69966  Biso   1.000  C
  C53      1.0000 0.33187  0.99598  0.47125  Biso   1.000  C
  C54      1.0000 0.56480  0.82275  0.52336  Biso   1.000  C
  C55      1.0000 0.51787  0.56021  0.83641  Biso   1.000  C
  C56      1.0000 0.68890  0.48268  0.07810  Biso   1.000  C
  C57      1.0000 0.44240  0.32145  0.02753  Biso   1.000  C
  C58      1.0000 0.01537  0.55241  0.69877  Biso   1.000  C
  C59      1.0000 0.19315  0.50410  0.45599  Biso   1.000  C
  C60      1.0000 0.96275  0.31845  0.51727  Biso   1.000  C
  C61      1.0000 0.01763  0.94127  0.20889  Biso   1.000  C
  C62      1.0000 0.19280  0.99965  0.96833  Biso   1.000  C
  C63      1.0000 0.94598  0.17452  0.01825  Biso   1.000  C
  C64      1.0000 0.51226  0.93520  0.34401  Biso   1.000  C
  C65      1.0000 0.69721  0.99184  0.57291  Biso   1.000  C
  C66      1.0000 0.46149  0.18447  0.52086  Biso   1.000  C
  C67      1.0000 0.50709  0.44096  0.19958  Biso   1.000  C
  C68      1.0000 0.32865  0.51281  0.96189  Biso   1.000  C
  C69      1.0000 0.57842  0.67100  0.03425  Biso   1.000  C
  C70      1.0000 0.00092  0.44471  0.34608  Biso   1.000  C
  C71      1.0000 0.83172  0.49809  0.58110  Biso   1.000  C
  C72      1.0000 0.06641  0.68268  0.52470  Biso   1.000  C
  C73      1.0000 0.01293  0.55171  0.34740  Biso   1.000  C
  C74      1.0000 0.33478  0.00781  0.58131  Biso   1.000  C
  C75      1.0000 0.54894  0.31031  0.01374  Biso   1.000  C
  C76      1.0000 0.50846  0.55087  0.20043  Biso   1.000  C
  C77      1.0000 0.83293  0.98126  0.96756  Biso   1.000  C
  C78      1.0000 0.06987  0.31574  0.52769  Biso   1.000  C
  C79      1.0000 0.51516  0.04457  0.34038  Biso   1.000  C
  C80      1.0000 0.19966  0.50520  0.56255  Biso   1.000  C
  C81      1.0000 0.96859  0.81593  0.02167  Biso   1.000  C
  C82      1.0000 0.01115  0.05326  0.20282  Biso   1.000  C
  C83      1.0000 0.69037  0.47730  0.96942  Biso   1.000  C
  C84      1.0000 0.45749  0.81893  0.53318  Biso   1.000  C
  C85      1.0000 0.01771  0.44524  0.69805  Biso   1.000  C
  C86      1.0000 0.69893  0.00159  0.46626  Biso   1.000  C
  C87      1.0000 0.47134  0.68372  0.02169  Biso   1.000  C
  C88      1.0000 0.51257  0.45035  0.83770  Biso   1.000  C
  C89      1.0000 0.19073  0.01931  0.07480  Biso   1.000  C
  C90      1.0000 0.95697  0.68193  0.52960  Biso   1.000  C
  C91      1.0000 0.52542  0.95249  0.70531  Biso   1.000  C
  C92      1.0000 0.82816  0.49072  0.47402  Biso   1.000  C
  C93      1.0000 0.05499  0.17943  0.02695  Biso   1.000  C
  C94      1.0000 0.01446  0.94298  0.84753  Biso   1.000  C
  C95      1.0000 0.32527  0.51463  0.06851  Biso   1.000  C
  C96      1.0000 0.56916  0.18422  0.51936  Biso   1.000  C
  C97      1.0000 0.69901  0.08484  0.52118  Biso   1.000  C
  C98      1.0000 0.51763  0.68148  0.11196  Biso   1.000  C
  C99      1.0000 0.10384  0.50440  0.69039  Biso   1.000  C
  C100     1.0000 0.18797  0.09170  0.01601  Biso   1.000  C
  C101     1.0000 0.00795  0.67863  0.44293  Biso   1.000  C
  C102     1.0000 0.60117  0.50368  0.84284  Biso   1.000  C
  C103     1.0000 0.83257  0.58306  0.52723  Biso   1.000  C
  C104     1.0000 0.00343  0.17963  0.11012  Biso   1.000  C
  C105     1.0000 0.42921  0.00024  0.70843  Biso   1.000  C
  C106     1.0000 0.33400  0.60045  0.01559  Biso   1.000  C
  C107     1.0000 0.50872  0.17682  0.43250  Biso   1.000  C
  C108     1.0000 0.92885  0.98505  0.84581  Biso   1.000  C
  C109     1.0000 0.33121  0.91678  0.53103  Biso   1.000  C
  C110     1.0000 0.49445  0.32305  0.93512  Biso   1.000  C
  C111     1.0000 0.91728  0.50639  0.34671  Biso   1.000  C
  C112     1.0000 0.83540  0.89881  0.03115  Biso   1.000  C
  C113     1.0000 0.01491  0.31385  0.61120  Biso   1.000  C
  C114     1.0000 0.41941  0.49773  0.19439  Biso   1.000  C
  C115     1.0000 0.19330  0.41733  0.50773  Biso   1.000  C
  C116     1.0000 0.02001  0.81541  0.94261  Biso   1.000  C
  C117     1.0000 0.60153  0.98950  0.34317  Biso   1.000  C
  C118     1.0000 0.68319  0.39652  0.02356  Biso   1.000  C
  C119     1.0000 0.53121  0.82534  0.61347  Biso   1.000  C
  C120     1.0000 0.10217  0.00484  0.20515  Biso   1.000  C
  C121     1.0000 0.83646  0.98382  0.10688  Biso   1.000  C
  C122     1.0000 0.10919  0.82110  0.03096  Biso   1.000  C
  C123     1.0000 0.00243  0.08766  0.84584  Biso   1.000  C
  C124     1.0000 0.33198  0.99752  0.43941  Biso   1.000  C
  C125     1.0000 0.59747  0.82112  0.52310  Biso   1.000  C
  C126     1.0000 0.50582  0.08890  0.69988  Biso   1.000  C
  C127     1.0000 0.68746  0.48250  0.11045  Biso   1.000  C
  C128     1.0000 0.40850  0.32458  0.02421  Biso   1.000  C
  C129     1.0000 0.52610  0.59176  0.83778  Biso   1.000  C
  C130     1.0000 0.19104  0.50574  0.42388  Biso   1.000  C
  C131     1.0000 0.93049  0.31619  0.51452  Biso   1.000  C
  C132     1.0000 0.01297  0.58493  0.69990  Biso   1.000  C
  C133     1.0000 0.19447  0.00318  0.93645  Biso   1.000  C
  C134     1.0000 0.91345  0.17347  0.01846  Biso   1.000  C
  C135     1.0000 0.02181  0.90909  0.20761  Biso   1.000  C
  C136     1.0000 0.69455  0.98999  0.60457  Biso   1.000  C
  C137     1.0000 0.42852  0.18654  0.52246  Biso   1.000  C
  C138     1.0000 0.51621  0.90379  0.34588  Biso   1.000  C
  C139     1.0000 0.32822  0.51420  0.92970  Biso   1.000  C
  C140     1.0000 0.61140  0.66992  0.03578  Biso   1.000  C
  C141     1.0000 0.51238  0.40865  0.19958  Biso   1.000  C
  C142     1.0000 0.83474  0.49507  0.61288  Biso   1.000  C
  C143     1.0000 0.09814  0.68151  0.52426  Biso   1.000  C
  C144     1.0000 0.00219  0.41176  0.34693  Biso   1.000  C
  C145     1.0000 0.32456  0.51683  0.10045  Biso   1.000  C
  C146     1.0000 0.10208  0.31839  0.52371  Biso   1.000  C
  C147     1.0000 0.51372  0.07701  0.34093  Biso   1.000  C
  C148     1.0000 0.82594  0.49550  0.44133  Biso   1.000  C
  C149     1.0000 0.58202  0.30695  0.01688  Biso   1.000  C
  C150     1.0000 0.00643  0.08473  0.20374  Biso   1.000  C
  C151     1.0000 0.19164  0.02257  0.10777  Biso   1.000  C
  C152     1.0000 0.42545  0.81963  0.53588  Biso   1.000  C
  C153     1.0000 0.01871  0.58327  0.34786  Biso   1.000  C
  C154     1.0000 0.69971  0.99740  0.43434  Biso   1.000  C
  C155     1.0000 0.93737  0.81048  0.02507  Biso   1.000  C
  C156     1.0000 0.50694  0.58322  0.20198  Biso   1.000  C
  C157     1.0000 0.69205  0.47579  0.93694  Biso   1.000  C
  C158     1.0000 0.92499  0.68159  0.52783  Biso   1.000  C
  C159     1.0000 0.53247  0.92234  0.70632  Biso   1.000  C
  C160     1.0000 0.19894  0.51067  0.59432  Biso   1.000  C
  C161     1.0000 0.43963  0.68542  0.02813  Biso   1.000  C
  C162     1.0000 0.01270  0.91160  0.84818  Biso   1.000  C
  C163     1.0000 0.83190  0.98152  0.93561  Biso   1.000  C
  C164     1.0000 0.60204  0.18118  0.51929  Biso   1.000  C
  C165     1.0000 0.01416  0.41320  0.69857  Biso   1.000  C
  C166     1.0000 0.33580  0.01058  0.61288  Biso   1.000  C
  C167     1.0000 0.08665  0.18233  0.02855  Biso   1.000  C
  C168     1.0000 0.51818  0.42041  0.83956  Biso   1.000  C
  C169     1.0000 0.02552  0.81773  0.11089  Biso   1.000  C
  C170     1.0000 0.09829  0.01448  0.84457  Biso   1.000  C
  C171     1.0000 0.82465  0.07152  0.02295  Biso   1.000  C
  C172     1.0000 0.50286  0.81525  0.44374  Biso   1.000  C
  C173     1.0000 0.60264  0.01124  0.70001  Biso   1.000  C
  C174     1.0000 0.33525  0.08999  0.51592  Biso   1.000  C
  C175     1.0000 0.49996  0.30983  0.10727  Biso   1.000  C
  C176     1.0000 0.42514  0.50713  0.83750  Biso   1.000  C
  C177     1.0000 0.69892  0.56891  0.01383  Biso   1.000  C
  C178     1.0000 0.01857  0.31529  0.44007  Biso   1.000  C
  C179     1.0000 0.93100  0.49406  0.70324  Biso   1.000  C
  C180     1.0000 0.19779  0.59119  0.51466  Biso   1.000  C
  C181     1.0000 0.01205  0.18296  0.93938  Biso   1.000  C
  C182     1.0000 0.92904  0.99641  0.20261  Biso   1.000  C
  C183     1.0000 0.19644  0.92129  0.03273  Biso   1.000  C
  C184     1.0000 0.50634  0.18497  0.60411  Biso   1.000  C
  C185     1.0000 0.42896  0.99144  0.34552  Biso   1.000  C
  C186     1.0000 0.69320  0.91265  0.51109  Biso   1.000  C
  C187     1.0000 0.53703  0.67860  0.93847  Biso   1.000  C
  C188     1.0000 0.59070  0.49434  0.20150  Biso   1.000  C
  C189     1.0000 0.32165  0.42887  0.01969  Biso   1.000  C
  C190     1.0000 0.01755  0.68469  0.61306  Biso   1.000  C
  C191     1.0000 0.08914  0.49732  0.33885  Biso   1.000  C
  C192     1.0000 0.83504  0.40839  0.53438  Biso   1.000  C
  C193     1.0000 0.85966  0.98037  0.92149  Biso   1.000  C
  C194     1.0000 0.91827  0.83593  0.02776  Biso   1.000  C
  C195     1.0000 0.01139  0.89624  0.87601  Biso   1.000  C
  C196     1.0000 0.36240  0.00819  0.62990  Biso   1.000  C
  C197     1.0000 0.40984  0.84586  0.52820  Biso   1.000  C
  C198     1.0000 0.53357  0.90600  0.67958  Biso   1.000  C
  C199     1.0000 0.66713  0.48283  0.92003  Biso   1.000  C
  C200     1.0000 0.60063  0.33261  0.01704  Biso   1.000  C
  C201     1.0000 0.51405  0.40309  0.86655  Biso   1.000  C
  C202     1.0000 0.17166  0.51015  0.61005  Biso   1.000  C
  C203     1.0000 0.11557  0.34560  0.51797  Biso   1.000  C
  C204     1.0000 0.01851  0.39546  0.67336  Biso   1.000  C
  C205     1.0000 0.16520  0.02096  0.12525  Biso   1.000  C
  C206     1.0000 0.10519  0.15705  0.02574  Biso   1.000  C
  C207     1.0000 0.00806  0.10243  0.17637  Biso   1.000  C
  C208     1.0000 0.67272  0.99190  0.41795  Biso   1.000  C
  C209     1.0000 0.61608  0.15325  0.52121  Biso   1.000  C
  C210     1.0000 0.51337  0.09467  0.36711  Biso   1.000  C
  C211     1.0000 0.35015  0.50792  0.11552  Biso   1.000  C
  C212     1.0000 0.42041  0.66052  0.02619  Biso   1.000  C
  C213     1.0000 0.50480  0.60073  0.17661  Biso   1.000  C
  C214     1.0000 0.85079  0.49851  0.42392  Biso   1.000  C
  C215     1.0000 0.90953  0.65348  0.52856  Biso   1.000  C
  C216     1.0000 0.01665  0.59811  0.37543  Biso   1.000  C
  C217     1.0000 0.11340  0.01231  0.87234  Biso   1.000  C
  C218     1.0000 0.85171  0.08834  0.02555  Biso   1.000  C
  C219     1.0000 0.02379  0.84380  0.12894  Biso   1.000  C
  C220     1.0000 0.61776  0.00718  0.67380  Biso   1.000  C
  C221     1.0000 0.36101  0.10712  0.51297  Biso   1.000  C
  C222     1.0000 0.50557  0.84097  0.42716  Biso   1.000  C
  C223     1.0000 0.40869  0.50509  0.86441  Biso   1.000  C
  C224     1.0000 0.67334  0.58733  0.01882  Biso   1.000  C
  C225     1.0000 0.50179  0.33800  0.12260  Biso   1.000  C
  C226     1.0000 0.91314  0.49754  0.67729  Biso   1.000  C
  C227     1.0000 0.17021  0.60558  0.51500  Biso   1.000  C
  C228     1.0000 0.01402  0.34237  0.42435  Biso   1.000  C
  C229     1.0000 0.91331  0.99731  0.17575  Biso   1.000  C
  C230     1.0000 0.17050  0.90421  0.02967  Biso   1.000  C
  C231     1.0000 0.01134  0.15654  0.92239  Biso   1.000  C
  C232     1.0000 0.41285  0.99063  0.37307  Biso   1.000  C
  C233     1.0000 0.66716  0.89720  0.50915  Biso   1.000  C
  C234     1.0000 0.50602  0.15721  0.62074  Biso   1.000  C
  C235     1.0000 0.60726  0.49281  0.17401  Biso   1.000  C
  C236     1.0000 0.34795  0.41138  0.02252  Biso   1.000  C
  C237     1.0000 0.53470  0.65160  0.92113  Biso   1.000  C
  C238     1.0000 0.10759  0.49922  0.36378  Biso   1.000  C
  C239     1.0000 0.86267  0.39333  0.53028  Biso   1.000  C
  C240     1.0000 0.01171  0.65824  0.62824  Biso   1.000  C
  C241     1.0000 0.61691  0.49915  0.87019  Biso   1.000  C
  C242     1.0000 0.85960  0.59950  0.52614  Biso   1.000  C
  C243     1.0000 0.53265  0.85198  0.62960  Biso   1.000  C
  C244     1.0000 0.11902  0.50933  0.66289  Biso   1.000  C
  C245     1.0000 0.36227  0.61482  0.01680  Biso   1.000  C
  C246     1.0000 0.01662  0.84307  0.92794  Biso   1.000  C
  C247     1.0000 0.91251  0.98135  0.87239  Biso   1.000  C
  C248     1.0000 0.67174  0.10020  0.52319  Biso   1.000  C
  C249     1.0000 0.01506  0.34315  0.62595  Biso   1.000  C
  C250     1.0000 0.41406  0.00265  0.68068  Biso   1.000  C
  C251     1.0000 0.15932  0.10698  0.01831  Biso   1.000  C
  C252     1.0000 0.50401  0.35005  0.91915  Biso   1.000  C
  C253     1.0000 0.40299  0.50079  0.16820  Biso   1.000  C
  C254     1.0000 0.16537  0.40139  0.50987  Biso   1.000  C
  C255     1.0000 0.50705  0.14773  0.41821  Biso   1.000  C
  C256     1.0000 0.90033  0.50465  0.37182  Biso   1.000  C
  C257     1.0000 0.65556  0.38163  0.02358  Biso   1.000  C
  C258     1.0000 0.00573  0.15349  0.12675  Biso   1.000  C
  C259     1.0000 0.11603  0.01008  0.17790  Biso   1.000  C
  C260     1.0000 0.35929  0.90157  0.52982  Biso   1.000  C
  C261     1.0000 0.01390  0.65235  0.42790  Biso   1.000  C
  C262     1.0000 0.61982  0.98941  0.36882  Biso   1.000  C
  C263     1.0000 0.86356  0.88328  0.02863  Biso   1.000  C
  C264     1.0000 0.51589  0.65391  0.12742  Biso   1.000  C
  C265     1.0000 0.00585  0.10475  0.87173  Biso   1.000  C
  C266     1.0000 0.86362  0.98909  0.12179  Biso   1.000  C
  C267     1.0000 0.12369  0.84934  0.02755  Biso   1.000  C
  C268     1.0000 0.50489  0.10510  0.67273  Biso   1.000  C
  C269     1.0000 0.35825  0.99342  0.42266  Biso   1.000  C
  C270     1.0000 0.61387  0.84688  0.51513  Biso   1.000  C
  C271     1.0000 0.53146  0.60556  0.86734  Biso   1.000  C
  C272     1.0000 0.66036  0.48559  0.12556  Biso   1.000  C
  C273     1.0000 0.39633  0.35381  0.02493  Biso   1.000  C
  C274     1.0000 0.01199  0.60303  0.67405  Biso   1.000  C
  C275     1.0000 0.16285  0.50411  0.41019  Biso   1.000  C
  C276     1.0000 0.91366  0.34197  0.51768  Biso   1.000  C
  C277     1.0000 0.02341  0.89315  0.18113  Biso   1.000  C
  C278     1.0000 0.16711  0.00672  0.92073  Biso   1.000  C
  C279     1.0000 0.90075  0.14552  0.02278  Biso   1.000  C
  C280     1.0000 0.51396  0.89044  0.37367  Biso   1.000  C
  C281     1.0000 0.66748  0.99439  0.62219  Biso   1.000  C
  C282     1.0000 0.41210  0.15846  0.52111  Biso   1.000  C
  C283     1.0000 0.50813  0.39286  0.17256  Biso   1.000  C
  C284     1.0000 0.35633  0.51431  0.91401  Biso   1.000  C
  C285     1.0000 0.62520  0.64150  0.02769  Biso   1.000  C
  C286     1.0000 0.00769  0.39487  0.37223  Biso   1.000  C
  C287     1.0000 0.86176  0.49873  0.62879  Biso   1.000  C
  C288     1.0000 0.11535  0.65463  0.52053  Biso   1.000  C
  C289     1.0000 0.35706  0.86995  0.53077  Biso   1.000  C
  C290     1.0000 0.50711  0.35018  0.88822  Biso   1.000  C
  C291     1.0000 0.87046  0.50142  0.37081  Biso   1.000  C
  C292     1.0000 0.86467  0.85186  0.02925  Biso   1.000  C
  C293     1.0000 0.01457  0.34230  0.65711  Biso   1.000  C
  C294     1.0000 0.37113  0.50037  0.16984  Biso   1.000  C
  C295     1.0000 0.16695  0.36982  0.51309  Biso   1.000  C
  C296     1.0000 0.01696  0.84190  0.89622  Biso   1.000  C
  C297     1.0000 0.65115  0.99028  0.36657  Biso   1.000  C
  C298     1.0000 0.65400  0.35050  0.02329  Biso   1.000  C
  C299     1.0000 0.53740  0.85236  0.66006  Biso   1.000  C
  C300     1.0000 0.14755  0.01560  0.17786  Biso   1.000  C
  C301     1.0000 0.67134  0.13065  0.52136  Biso   1.000  C
  C302     1.0000 0.51277  0.65445  0.15878  Biso   1.000  C
  C303     1.0000 0.15149  0.51185  0.66307  Biso   1.000  C
  C304     1.0000 0.15907  0.13734  0.02119  Biso   1.000  C
  C305     1.0000 0.01515  0.65152  0.39694  Biso   1.000  C
  C306     1.0000 0.64713  0.49348  0.86900  Biso   1.000  C
  C307     1.0000 0.85811  0.63234  0.52739  Biso   1.000  C
  C308     1.0000 0.00503  0.15522  0.15801  Biso   1.000  C
  C309     1.0000 0.38123  0.00659  0.68117  Biso   1.000  C
  C310     1.0000 0.36442  0.64568  0.02127  Biso   1.000  C
  C311     1.0000 0.50902  0.14730  0.38695  Biso   1.000  C
  C312     1.0000 0.88065  0.98345  0.86910  Biso   1.000  C
  C313     1.0000 0.16222  0.50290  0.37861  Biso   1.000  C
  C314     1.0000 0.38029  0.15993  0.51973  Biso   1.000  C
  C315     1.0000 0.50481  0.36082  0.17466  Biso   1.000  C
  C316     1.0000 0.66023  0.48589  0.15669  Biso   1.000  C
  C317     1.0000 0.86910  0.14186  0.02447  Biso   1.000  C
  C318     1.0000 0.00628  0.36375  0.37117  Biso   1.000  C
  C319     1.0000 0.35859  0.99872  0.39276  Biso   1.000  C
  C320     1.0000 0.14664  0.65765  0.52126  Biso   1.000  C
  C321     1.0000 0.02536  0.86114  0.18308  Biso   1.000  C
  C322     1.0000 0.86200  0.99079  0.15302  Biso   1.000  C
  C323     1.0000 0.65718  0.64078  0.02626  Biso   1.000  C
  C324     1.0000 0.51185  0.85829  0.37488  Biso   1.000  C
  C325     1.0000 0.86094  0.49699  0.66005  Biso   1.000  C
  C326     1.0000 0.64592  0.84569  0.51582  Biso   1.000  C
  C327     1.0000 0.53431  0.63699  0.86665  Biso   1.000  C
  C328     1.0000 0.35569  0.51234  0.88251  Biso   1.000  C
  C329     1.0000 0.15519  0.84945  0.02931  Biso   1.000  C
  C330     1.0000 0.01358  0.63452  0.67997  Biso   1.000  C
  C331     1.0000 0.66921  0.99801  0.65276  Biso   1.000  C
  C332     1.0000 0.88304  0.34007  0.52081  Biso   1.000  C
  C333     1.0000 0.00435  0.13530  0.87056  Biso   1.000  C
  C334     1.0000 0.16731  0.00812  0.88924  Biso   1.000  C
  C335     1.0000 0.36450  0.35552  0.02750  Biso   1.000  C
  C336     1.0000 0.50586  0.13653  0.67270  Biso   1.000  C
  C337     1.0000 0.66889  0.48682  0.88935  Biso   1.000  C
  C338     1.0000 0.87813  0.65386  0.52659  Biso   1.000  C
  C339     1.0000 0.53683  0.87557  0.68067  Biso   1.000  C
  C340     1.0000 0.17286  0.51057  0.64154  Biso   1.000  C
  C341     1.0000 0.38864  0.66448  0.02405  Biso   1.000  C
  C342     1.0000 0.01565  0.86372  0.87545  Biso   1.000  C
  C343     1.0000 0.85841  0.98356  0.89045  Biso   1.000  C
  C344     1.0000 0.64813  0.15275  0.51946  Biso   1.000  C
  C345     1.0000 0.01644  0.36519  0.67644  Biso   1.000  C
  C346     1.0000 0.36054  0.00885  0.66069  Biso   1.000  C
  C347     1.0000 0.13676  0.15849  0.02286  Biso   1.000  C
  C348     1.0000 0.51219  0.37199  0.86682  Biso   1.000  C
  C349     1.0000 0.34907  0.50337  0.14767  Biso   1.000  C
  C350     1.0000 0.14696  0.34685  0.51676  Biso   1.000  C
  C351     1.0000 0.51142  0.12553  0.36533  Biso   1.000  C
  C352     1.0000 0.84998  0.49928  0.39312  Biso   1.000  C
  C353     1.0000 0.63147  0.32976  0.02221  Biso   1.000  C
  C354     1.0000 0.00664  0.13263  0.17796  Biso   1.000  C
  C355     1.0000 0.16844  0.01955  0.15621  Biso   1.000  C
  C356     1.0000 0.37854  0.84656  0.53112  Biso   1.000  C
  C357     1.0000 0.01719  0.63001  0.37572  Biso   1.000  C
  C358     1.0000 0.67321  0.98984  0.38716  Biso   1.000  C
  C359     1.0000 0.88730  0.83138  0.02988  Biso   1.000  C
  C360     1.0000 0.50934  0.63182  0.17793  Biso   1.000  C
  C361     1.0000 0.00694  0.15771  0.89118  Biso   1.000  C
  C362     1.0000 0.88256  0.99412  0.17547  Biso   1.000  C
  C363     1.0000 0.17365  0.87326  0.02881  Biso   1.000  C
  C364     1.0000 0.50553  0.16007  0.65151  Biso   1.000  C
  C365     1.0000 0.38192  0.99734  0.37212  Biso   1.000  C
  C366     1.0000 0.66736  0.86590  0.51421  Biso   1.000  C
  C367     1.0000 0.53523  0.65612  0.88989  Biso   1.000  C
  C368     1.0000 0.63794  0.49013  0.17790  Biso   1.000  C
  C369     1.0000 0.34465  0.37976  0.02479  Biso   1.000  C
  C370     1.0000 0.01553  0.65772  0.65936  Biso   1.000  C
  C371     1.0000 0.13879  0.50196  0.35900  Biso   1.000  C
  C372     1.0000 0.86227  0.36212  0.52601  Biso   1.000  C
  C373     1.0000 0.02548  0.84127  0.15964  Biso   1.000  C
  C374     1.0000 0.14538  0.00995  0.86895  Biso   1.000  C
  C375     1.0000 0.84893  0.11935  0.02471  Biso   1.000  C
  C376     1.0000 0.50948  0.83736  0.39698  Biso   1.000  C
  C377     1.0000 0.64839  0.00251  0.67462  Biso   1.000  C
  C378     1.0000 0.35855  0.13853  0.51630  Biso   1.000  C
  C379     1.0000 0.50096  0.33855  0.15412  Biso   1.000  C
  C380     1.0000 0.37846  0.51033  0.86188  Biso   1.000  C
  C381     1.0000 0.67788  0.61814  0.02101  Biso   1.000  C
  C382     1.0000 0.00956  0.34252  0.39319  Biso   1.000  C
  C383     1.0000 0.88298  0.49364  0.68085  Biso   1.000  C
  C384     1.0000 0.17020  0.63768  0.52000  Biso   1.000  C
  C385     1.0000 0.18533  0.15407  0.02284  Biso   1.000  C
  C386     1.0000 0.00136  0.18179  0.17363  Biso   1.000  C
  C387     1.0000 0.16544  0.01320  0.20336  Biso   1.000  C
  C388     1.0000 0.69759  0.14749  0.51902  Biso   1.000  C
  C389     1.0000 0.50881  0.17404  0.36964  Biso   1.000  C
  C390     1.0000 0.66566  0.99084  0.33887  Biso   1.000  C
  C391     1.0000 0.33941  0.66488  0.02276  Biso   1.000  C
  C392     1.0000 0.51533  0.68033  0.17605  Biso   1.000  C
  C393     1.0000 0.35491  0.49970  0.19565  Biso   1.000  C
  C394     1.0000 0.82986  0.64676  0.52815  Biso   1.000  C
  C395     1.0000 0.01247  0.67856  0.38210  Biso   1.000  C
  C396     1.0000 0.85378  0.50003  0.34331  Biso   1.000  C
  C397     1.0000 0.83851  0.83538  0.03142  Biso   1.000  C
  C398     1.0000 0.01802  0.81525  0.88101  Biso   1.000  C
  C399     1.0000 0.86576  0.98899  0.84233  Biso   1.000  C
  C400     1.0000 0.32997  0.85349  0.53465  Biso   1.000  C
  C401     1.0000 0.54102  0.82681  0.67663  Biso   1.000  C
  C402     1.0000 0.36551  0.00813  0.70798  Biso   1.000  C
  C403     1.0000 0.67965  0.33249  0.02553  Biso   1.000  C
  C404     1.0000 0.50233  0.32460  0.87278  Biso   1.000  C
  C405     1.0000 0.66255  0.49512  0.84137  Biso   1.000  C
  C406     1.0000 0.19370  0.35480  0.51295  Biso   1.000  C
  C407     1.0000 0.01199  0.31661  0.67534  Biso   1.000  C
  C408     1.0000 0.16712  0.51213  0.68985  Biso   1.000  C
  C409     1.0000 0.16150  0.01269  0.84097  Biso   1.000  C
  C410     1.0000 0.82138  0.13248  0.02538  Biso   1.000  C
  C411     1.0000 0.02885  0.81340  0.17370  Biso   1.000  C
  C412     1.0000 0.66428  0.00465  0.70165  Biso   1.000  C
  C413     1.0000 0.33110  0.15375  0.51964  Biso   1.000  C
  C414     1.0000 0.50867  0.81048  0.38187  Biso   1.000  C
  C415     1.0000 0.36273  0.50948  0.83544  Biso   1.000  C
  C416     1.0000 0.70598  0.63051  0.02302  Biso   1.000  C
  C417     1.0000 0.49996  0.31139  0.16916  Biso   1.000  C
  C418     1.0000 0.86773  0.48809  0.70690  Biso   1.000  C
  C419     1.0000 0.19661  0.65429  0.52376  Biso   1.000  C
  C420     1.0000 0.01072  0.31432  0.37769  Biso   1.000  C
  C421     1.0000 0.86576  0.99174  0.20095  Biso   1.000  C
  C422     1.0000 0.20118  0.85999  0.03305  Biso   1.000  C
  C423     1.0000 0.00554  0.18429  0.87534  Biso   1.000  C
  C424     1.0000 0.36548  0.00052  0.34399  Biso   1.000  C
  C425     1.0000 0.69432  0.85011  0.51805  Biso   1.000  C
  C426     1.0000 0.50682  0.18598  0.66767  Biso   1.000  C
  C427     1.0000 0.65316  0.48801  0.20522  Biso   1.000  C
  C428     1.0000 0.31624  0.36657  0.02265  Biso   1.000  C
  C429     1.0000 0.53515  0.68435  0.87610  Biso   1.000  C
  C430     1.0000 0.15218  0.50370  0.33077  Biso   1.000  C
  C431     1.0000 0.83576  0.34588  0.52612  Biso   1.000  C
  C432     1.0000 0.01845  0.68351  0.67645  Biso   1.000  C
  C433     1.0000 0.00009  0.15026  0.84276  Biso   1.000  C
  C434     1.0000 0.83442  0.98820  0.16846  Biso   1.000  C
  C435     1.0000 0.17149  0.82388  0.03183  Biso   1.000  C
  C436     1.0000 0.50611  0.15210  0.69917  Biso   1.000  C
  C437     1.0000 0.33332  0.00665  0.37646  Biso   1.000  C
  C438     1.0000 0.66063  0.81820  0.52142  Biso   1.000  C
  C439     1.0000 0.53197  0.65407  0.84184  Biso   1.000  C
  C440     1.0000 0.68679  0.48229  0.17261  Biso   1.000  C
  C441     1.0000 0.34579  0.33103  0.02742  Biso   1.000  C
  C442     1.0000 0.01272  0.64862  0.70765  Biso   1.000  C
  C443     1.0000 0.18779  0.50607  0.36166  Biso   1.000  C
  C444     1.0000 0.86804  0.31266  0.51944  Biso   1.000  C
  C445     1.0000 0.02604  0.84553  0.20881  Biso   1.000  C
  C446     1.0000 0.19409  0.00832  0.87365  Biso   1.000  C
  C447     1.0000 0.85112  0.16798  0.02348  Biso   1.000  C
  C448     1.0000 0.51439  0.84118  0.34873  Biso   1.000  C
  C449     1.0000 0.69653  0.99737  0.66836  Biso   1.000  C
  C450     1.0000 0.36408  0.18731  0.52425  Biso   1.000  C
  C451     1.0000 0.50796  0.34486  0.20175  Biso   1.000  C
  C452     1.0000 0.32843  0.51122  0.86584  Biso   1.000  C
  C453     1.0000 0.67394  0.66565  0.03182  Biso   1.000  C
  C454     1.0000 0.00006  0.34805  0.34569  Biso   1.000  C
  C455     1.0000 0.83454  0.49238  0.67497  Biso   1.000  C
  C456     1.0000 0.16069  0.68595  0.52272  Biso   1.000  C
  C457     1.0000 0.01564  0.64671  0.34890  Biso   1.000  C
  C458     1.0000 0.33334  0.01175  0.67580  Biso   1.000  C
  C459     1.0000 0.64442  0.30150  0.02104  Biso   1.000  C
  C460     1.0000 0.51117  0.64625  0.20591  Biso   1.000  C
  C461     1.0000 0.83341  0.98788  0.87422  Biso   1.000  C
  C462     1.0000 0.16286  0.32101  0.51797  Biso   1.000  C
  C463     1.0000 0.51005  0.13953  0.33798  Biso   1.000  C
  C464     1.0000 0.19947  0.51308  0.65803  Biso   1.000  C
  C465     1.0000 0.87421  0.80541  0.03028  Biso   1.000  C
  C466     1.0000 0.00286  0.14872  0.20479  Biso   1.000  C
  C467     1.0000 0.69574  0.48665  0.87418  Biso   1.000  C
  C468     1.0000 0.36279  0.82041  0.53757  Biso   1.000  C
  C469     1.0000 0.01461  0.35171  0.70417  Biso   1.000  C
  C470     1.0000 0.69955  0.99210  0.37132  Biso   1.000  C
  C471     1.0000 0.37682  0.69353  0.02788  Biso   1.000  C
  C472     1.0000 0.51337  0.35557  0.84002  Biso   1.000  C
  C473     1.0000 0.19593  0.02166  0.16952  Biso   1.000  C
  C474     1.0000 0.86174  0.67975  0.52646  Biso   1.000  C
  C475     1.0000 0.53736  0.86094  0.70755  Biso   1.000  C
  C476     1.0000 0.82186  0.49982  0.37764  Biso   1.000  C
  C477     1.0000 0.15186  0.18623  0.02752  Biso   1.000  C
  C478     1.0000 0.01617  0.84934  0.84809  Biso   1.000  C
  C479     1.0000 0.32151  0.50362  0.16282  Biso   1.000  C
  C480     1.0000 0.66506  0.18023  0.51807  Biso   1.000  C
  C481     1.0000 0.37792  0.79366  0.54506  Biso   1.000  C
  C482     1.0000 0.52078  0.37119  0.81324  Biso   1.000  C
  C483     1.0000 0.79530  0.49631  0.39560  Biso   1.000  C
  C484     1.0000 0.89262  0.77881  0.02320  Biso   1.000  C
  C485     1.0000 0.01291  0.37054  0.73045  Biso   1.000  C
  C486     1.0000 0.29643  0.51233  0.14584  Biso   1.000  C
  C487     1.0000 0.15035  0.29367  0.52363  Biso   1.000  C
  C488     1.0000 0.01465  0.86391  0.82031  Biso   1.000  C
  C489     1.0000 0.72742  0.99546  0.38865  Biso   1.000  C
  C490     1.0000 0.62675  0.27422  0.01923  Biso   1.000  C
  C491     1.0000 0.53827  0.87676  0.73524  Biso   1.000  C
  C492     1.0000 0.22267  0.02533  0.15400  Biso   1.000  C
  C493     1.0000 0.65068  0.20688  0.51859  Biso   1.000  C
  C494     1.0000 0.51255  0.63001  0.23281  Biso   1.000  C
  C495     1.0000 0.22646  0.51304  0.64228  Biso   1.000  C
  C496     1.0000 0.13311  0.21292  0.03078  Biso   1.000  C
  C497     1.0000 0.01792  0.62991  0.32275  Biso   1.000  C
  C498     1.0000 0.72093  0.47718  0.89119  Biso   1.000  C
  C499     1.0000 0.87737  0.70784  0.52502  Biso   1.000  C
  C500     1.0000 0.00123  0.13197  0.23246  Biso   1.000  C
  C501     1.0000 0.30739  0.01287  0.65969  Biso   1.000  C
  C502     1.0000 0.39506  0.71826  0.03717  Biso   1.000  C
  C503     1.0000 0.50995  0.12250  0.31166  Biso   1.000  C
  C504     1.0000 0.80610  0.98753  0.88841  Biso   1.000  C
  C505     1.0000 0.64903  0.50464  0.81513  Biso   1.000  C
  C506     1.0000 0.80317  0.62891  0.53010  Biso   1.000  C
  C507     1.0000 0.53914  0.79736  0.66110  Biso   1.000  C
  C508     1.0000 0.15026  0.50756  0.71729  Biso   1.000  C
  C509     1.0000 0.31081  0.65141  0.01690  Biso   1.000  C
  C510     1.0000 0.01774  0.78744  0.89628  Biso   1.000  C
  C511     1.0000 0.88196  0.99149  0.81582  Biso   1.000  C
  C512     1.0000 0.72692  0.13298  0.51507  Biso   1.000  C
  C513     1.0000 0.01374  0.28891  0.66105  Biso   1.000  C
  C514     1.0000 0.38061  0.00527  0.73597  Biso   1.000  C
  C515     1.0000 0.21305  0.14020  0.01746  Biso   1.000  C
  C516     1.0000 0.49496  0.29637  0.88656  Biso   1.000  C
  C517     1.0000 0.37212  0.49668  0.22231  Biso   1.000  C
  C518     1.0000 0.22170  0.36874  0.50871  Biso   1.000  C
  C519     1.0000 0.50765  0.20238  0.38521  Biso   1.000  C
  C520     1.0000 0.86936  0.50326  0.31670  Biso   1.000  C
  C521     1.0000 0.70744  0.34851  0.02782  Biso   1.000  C
  C522     1.0000 0.99832  0.20775  0.15796  Biso   1.000  C
  C523     1.0000 0.15105  0.01030  0.23073  Biso   1.000  C
  C524     1.0000 0.30308  0.86955  0.53228  Biso   1.000  C
  C525     1.0000 0.00785  0.70601  0.39527  Biso   1.000  C
  C526     1.0000 0.64845  0.98792  0.31364  Biso   1.000  C
  C527     1.0000 0.81054  0.85065  0.03438  Biso   1.000  C
  C528     1.0000 0.51765  0.70836  0.15971  Biso   1.000  C
  C529     1.0000 0.79454  0.11581  0.02654  Biso   1.000  C
  C530     1.0000 0.03043  0.78682  0.15535  Biso   1.000  C
  C531     1.0000 0.14413  0.01922  0.81589  Biso   1.000  C
  C532     1.0000 0.30504  0.13508  0.52120  Biso   1.000  C
  C533     1.0000 0.50339  0.78463  0.39840  Biso   1.000  C
  C534     1.0000 0.64926  0.01020  0.72948  Biso   1.000  C
  C535     1.0000 0.73328  0.61224  0.01567  Biso   1.000  C
  C536     1.0000 0.49546  0.28384  0.15285  Biso   1.000  C
  C537     1.0000 0.38011  0.50896  0.80924  Biso   1.000  C
  C538     1.0000 0.22484  0.63889  0.52146  Biso   1.000  C
  C539     1.0000 0.01781  0.28757  0.39359  Biso   1.000  C
  C540     1.0000 0.88537  0.48763  0.73356  Biso   1.000  C
  C541     1.0000 0.22694  0.87689  0.03954  Biso   1.000  C
  C542     1.0000 0.00868  0.21087  0.89206  Biso   1.000  C
  C543     1.0000 0.88071  0.98993  0.22777  Biso   1.000  C
  C544     1.0000 0.72162  0.86542  0.51455  Biso   1.000  C
  C545     1.0000 0.50250  0.21264  0.65039  Biso   1.000  C
  C546     1.0000 0.38218  0.99660  0.31706  Biso   1.000  C
  C547     1.0000 0.29139  0.38441  0.02168  Biso   1.000  C
  C548     1.0000 0.53708  0.70973  0.89382  Biso   1.000  C
  C549     1.0000 0.63813  0.49221  0.23227  Biso   1.000  C
  C550     1.0000 0.80772  0.36131  0.52876  Biso   1.000  C
  C551     1.0000 0.02309  0.71226  0.66233  Biso   1.000  C
  C552     1.0000 0.13245  0.50054  0.30535  Biso   1.000  C
  C553     1.0000 0.99589  0.13402  0.81638  Biso   1.000  C
  C554     1.0000 0.80688  0.98360  0.15222  Biso   1.000  C
  C555     1.0000 0.15629  0.79454  0.03244  Biso   1.000  C
  C556     1.0000 0.50526  0.13719  0.72605  Biso   1.000  C
  C557     1.0000 0.30742  0.01479  0.39265  Biso   1.000  C
  C558     1.0000 0.64354  0.79261  0.52819  Biso   1.000  C
  C559     1.0000 0.52767  0.64013  0.81364  Biso   1.000  C
  C560     1.0000 0.71512  0.47989  0.15803  Biso   1.000  C
  C561     1.0000 0.35842  0.30228  0.02528  Biso   1.000  C
  C562     1.0000 0.01157  0.63011  0.73329  Biso   1.000  C
  C563     1.0000 0.21553  0.51067  0.37595  Biso   1.000  C
  C564     1.0000 0.88470  0.28567  0.51611  Biso   1.000  C
  C565     1.0000 0.02552  0.86225  0.23643  Biso   1.000  C
  C566     1.0000 0.22119  0.00407  0.88983  Biso   1.000  C
  C567     1.0000 0.86470  0.19598  0.01831  Biso   1.000  C
  C568     1.0000 0.51497  0.85416  0.32116  Biso   1.000  C
  C569     1.0000 0.72353  0.99285  0.65107  Biso   1.000  C
  C570     1.0000 0.37969  0.21416  0.52757  Biso   1.000  C
  C571     1.0000 0.51572  0.36087  0.22759  Biso   1.000  C
  C572     1.0000 0.30053  0.51257  0.88106  Biso   1.000  C
  C573     1.0000 0.66092  0.69303  0.04117  Biso   1.000  C
  C574     1.0000 0.99444  0.36417  0.31946  Biso   1.000  C
  C575     1.0000 0.80848  0.48901  0.66007  Biso   1.000  C
  C576     1.0000 0.14289  0.71106  0.52428  Biso   1.000  C
  C577     1.0000 0.29729  0.52071  0.11604  Biso   1.000  C
  C578     1.0000 0.11932  0.29307  0.52848  Biso   1.000  C
  C579     1.0000 0.51311  0.09135  0.31372  Biso   1.000  C
  C580     1.0000 0.79714  0.49513  0.42606  Biso   1.000  C
  C581     1.0000 0.59470  0.27848  0.01780  Biso   1.000  C
  C582     1.0000 0.00333  0.10062  0.23154  Biso   1.000  C
  C583     1.0000 0.21965  0.02627  0.12258  Biso   1.000  C
  C584     1.0000 0.41002  0.79392  0.54437  Biso   1.000  C
  C585     1.0000 0.02122  0.59929  0.32111  Biso   1.000  C
  C586     1.0000 0.72733  0.99824  0.41959  Biso   1.000  C
  C587     1.0000 0.92366  0.78175  0.02147  Biso   1.000  C
  C588     1.0000 0.51127  0.59840  0.23001  Biso   1.000  C
  C589     1.0000 0.71838  0.46991  0.92145  Biso   1.000  C
  C590     1.0000 0.90892  0.70875  0.52561  Biso   1.000  C
  C591     1.0000 0.53520  0.90745  0.73422  Biso   1.000  C
  C592     1.0000 0.22660  0.51126  0.61060  Biso   1.000  C
  C593     1.0000 0.42683  0.71417  0.03371  Biso   1.000  C
  C594     1.0000 0.01414  0.89530  0.82125  Biso   1.000  C
  C595     1.0000 0.80493  0.98477  0.92008  Biso   1.000  C
  C596     1.0000 0.61957  0.20642  0.51921  Biso   1.000  C
  C597     1.0000 0.01349  0.40154  0.72732  Biso   1.000  C
  C598     1.0000 0.30834  0.01128  0.62900  Biso   1.000  C
  C599     1.0000 0.10156  0.21073  0.03303  Biso   1.000  C
  C600     1.0000 0.52209  0.40287  0.81305  Biso   1.000  C
  C601     1.0000 0.22196  0.00141  0.92091  Biso   1.000  C
  C602     1.0000 0.89545  0.19945  0.01546  Biso   1.000  C
  C603     1.0000 0.02387  0.89412  0.23523  Biso   1.000  C
  C604     1.0000 0.72232  0.98818  0.62017  Biso   1.000  C
  C605     1.0000 0.41197  0.21399  0.52530  Biso   1.000  C
  C606     1.0000 0.51739  0.88533  0.31916  Biso   1.000  C
  C607     1.0000 0.30044  0.51183  0.91276  Biso   1.000  C
  C608     1.0000 0.62837  0.69404  0.04361  Biso   1.000  C
  C609     1.0000 0.51924  0.39265  0.22639  Biso   1.000  C
  C610     1.0000 0.80735  0.49063  0.62874  Biso   1.000  C
  C611     1.0000 0.11202  0.70937  0.52427  Biso   1.000  C
  C612     1.0000 0.99476  0.39613  0.31983  Biso   1.000  C
  C613     1.0000 0.80886  0.97892  0.12191  Biso   1.000  C
  C614     1.0000 0.12581  0.79374  0.03092  Biso   1.000  C
  C615     1.0000 0.99798  0.10247  0.81792  Biso   1.000  C
  C616     1.0000 0.30647  0.00735  0.42461  Biso   1.000  C
  C617     1.0000 0.61145  0.79450  0.52817  Biso   1.000  C
  C618     1.0000 0.50616  0.10595  0.72662  Biso   1.000  C
  C619     1.0000 0.71460  0.47919  0.12676  Biso   1.000  C
  C620     1.0000 0.38977  0.29869  0.02358  Biso   1.000  C
  C621     1.0000 0.52693  0.60900  0.81092  Biso   1.000  C
  C622     1.0000 0.21826  0.50918  0.40756  Biso   1.000  C
  C623     1.0000 0.91687  0.28805  0.51195  Biso   1.000  C
  C624     1.0000 0.01063  0.59854  0.72948  Biso   1.000  C
  C625     1.0000 0.01200  0.21045  0.92381  Biso   1.000  C
  C626     1.0000 0.91151  0.99304  0.22902  Biso   1.000  C
  C627     1.0000 0.22579  0.90834  0.03706  Biso   1.000  C
  C628     1.0000 0.50196  0.21107  0.61912  Biso   1.000  C
  C629     1.0000 0.41402  0.99114  0.31781  Biso   1.000  C
  C630     1.0000 0.72103  0.89667  0.51233  Biso   1.000  C
  C631     1.0000 0.53975  0.70633  0.92397  Biso   1.000  C
  C632     1.0000 0.60710  0.49552  0.22943  Biso   1.000  C
  C633     1.0000 0.29371  0.41512  0.01744  Biso   1.000  C
  C634     1.0000 0.02403  0.71218  0.63025  Biso   1.000  C
  C635     1.0000 0.10052  0.49584  0.30977  Biso   1.000  C
  C636     1.0000 0.80838  0.39232  0.53216  Biso   1.000  C
  C637     1.0000 0.02964  0.78897  0.12319  Biso   1.000  C
  C638     1.0000 0.11348  0.01756  0.81700  Biso   1.000  C
  C639     1.0000 0.79576  0.08512  0.02417  Biso   1.000  C
  C640     1.0000 0.50164  0.78642  0.42998  Biso   1.000  C
  C641     1.0000 0.61715  0.01361  0.72720  Biso   1.000  C
  C642     1.0000 0.30592  0.10324  0.51807  Biso   1.000  C
  C643     1.0000 0.49505  0.28295  0.12278  Biso   1.000  C
  C644     1.0000 0.41145  0.50819  0.80948  Biso   1.000  C
  C645     1.0000 0.72731  0.58126  0.01258  Biso   1.000  C
  C646     1.0000 0.01964  0.28833  0.42468  Biso   1.000  C
  C647     1.0000 0.91767  0.48909  0.73234  Biso   1.000  C
  C648     1.0000 0.22492  0.60666  0.51822  Biso   1.000  C
  C649     1.0000 0.00564  0.70504  0.42684  Biso   1.000  C
  C650     1.0000 0.41294  0.00132  0.73673  Biso   1.000  C
  C651     1.0000 0.70969  0.37961  0.02614  Biso   1.000  C
  C652     1.0000 0.51856  0.70854  0.12819  Biso   1.000  C
  C653     1.0000 0.91394  0.98963  0.81869  Biso   1.000  C
  C654     1.0000 0.22269  0.40014  0.50565  Biso   1.000  C
  C655     1.0000 0.50870  0.20295  0.41633  Biso   1.000  C
  C656     1.0000 0.11949  0.50375  0.71662  Biso   1.000  C
  C657     1.0000 0.80859  0.88260  0.03384  Biso   1.000  C
  C658     1.0000 0.00140  0.20796  0.12611  Biso   1.000  C
  C659     1.0000 0.61733  0.50829  0.81557  Biso   1.000  C
  C660     1.0000 0.30431  0.90092  0.53007  Biso   1.000  C
  C661     1.0000 0.01609  0.28702  0.62952  Biso   1.000  C
  C662     1.0000 0.61622  0.98733  0.31592  Biso   1.000  C
  C663     1.0000 0.30822  0.61880  0.01593  Biso   1.000  C
  C664     1.0000 0.49286  0.29656  0.91845  Biso   1.000  C
  C665     1.0000 0.11919  0.00591  0.23031  Biso   1.000  C
  C666     1.0000 0.80475  0.59734  0.53034  Biso   1.000  C
  C667     1.0000 0.53420  0.79795  0.62861  Biso   1.000  C
  C668     1.0000 0.90075  0.50595  0.31823  Biso   1.000  C
  C669     1.0000 0.21491  0.10825  0.01589  Biso   1.000  C
  C670     1.0000 0.02056  0.78806  0.92675  Biso   1.000  C
  C671     1.0000 0.40350  0.49572  0.22164  Biso   1.000  C
  C672     1.0000 0.72814  0.10057  0.51769  Biso   1.000  C
  C673     1.0000 0.20978  0.01046  0.82734  Biso   1.000  C
  C674     1.0000 0.80259  0.17839  0.02604  Biso   1.000  C
  C675     1.0000 0.02816  0.79718  0.22029  Biso   1.000  C
  C676     1.0000 0.71194  0.99929  0.71422  Biso   1.000  C
  C677     1.0000 0.31650  0.19990  0.52466  Biso   1.000  C
  C678     1.0000 0.51037  0.79504  0.33593  Biso   1.000  C
  C679     1.0000 0.31759  0.51122  0.81787  Biso   1.000  C
  C680     1.0000 0.72086  0.67782  0.02707  Biso   1.000  C
  C681     1.0000 0.50615  0.29814  0.21451  Biso   1.000  C
  C682     1.0000 0.82085  0.48801  0.72197  Biso   1.000  C
  C683     1.0000 0.20771  0.69988  0.52558  Biso   1.000  C
  C684     1.0000 0.00253  0.29933  0.33109  Biso   1.000  C
  C685     1.0000 0.81814  0.98730  0.21381  Biso   1.000  C
  C686     1.0000 0.22076  0.81648  0.03422  Biso   1.000  C
  C687     1.0000 0.99834  0.19832  0.82922  Biso   1.000  C
  C688     1.0000 0.31883  0.00923  0.32967  Biso   1.000  C
  C689     1.0000 0.70760  0.80408  0.52387  Biso   1.000  C
  C690     1.0000 0.50626  0.19945  0.71458  Biso   1.000  C
  C691     1.0000 0.70009  0.48429  0.21995  Biso   1.000  C
  C692     1.0000 0.29813  0.32013  0.02574  Biso   1.000  C
  C693     1.0000 0.53212  0.70178  0.83144  Biso   1.000  C
  C694     1.0000 0.19958  0.50669  0.31556  Biso   1.000  C
  C695     1.0000 0.82298  0.29763  0.52737  Biso   1.000  C
  C696     1.0000 0.01604  0.69467  0.72388  Biso   1.000  C
  C697     1.0000 0.71342  0.99004  0.32402  Biso   1.000  C
  C698     1.0000 0.33428  0.71329  0.03222  Biso   1.000  C
  C699     1.0000 0.00809  0.30653  0.72273  Biso   1.000  C
  C700     1.0000 0.21175  0.01716  0.21798  Biso   1.000  C
  C701     1.0000 0.81336  0.69355  0.52636  Biso   1.000  C
  C702     1.0000 0.50788  0.30982  0.82384  Biso   1.000  C
  C703     1.0000 0.80729  0.49789  0.33078  Biso   1.000  C
  C704     1.0000 0.19801  0.20179  0.02782  Biso   1.000  C
  C705     1.0000 0.53910  0.81472  0.72435  Biso   1.000  C
  C706     1.0000 0.30785  0.50098  0.20893  Biso   1.000  C
  C707     1.0000 0.71249  0.19413  0.51991  Biso   1.000  C
  C708     1.0000 0.01537  0.80284  0.83471  Biso   1.000  C
  C709     1.0000 0.31973  0.00991  0.72151  Biso   1.000  C
  C710     1.0000 0.68951  0.28499  0.02556  Biso   1.000  C
  C711     1.0000 0.01495  0.69380  0.33396  Biso   1.000  C
  C712     1.0000 0.81808  0.98972  0.82749  Biso   1.000  C
  C713     1.0000 0.20997  0.30776  0.51871  Biso   1.000  C
  C714     1.0000 0.51173  0.69034  0.22522  Biso   1.000  C
  C715     1.0000 0.21402  0.51479  0.70496  Biso   1.000  C
  C716     1.0000 0.82803  0.78838  0.03186  Biso   1.000  C
  C717     1.0000 0.50453  0.18518  0.32177  Biso   1.000  C
  C718     1.0000 0.71008  0.49315  0.82769  Biso   1.000  C
  C719     1.0000 0.31563  0.80715  0.53460  Biso   1.000  C
  C720     1.0000 0.99952  0.19409  0.22081  Biso   1.000  C
  C721     1.0000 0.53422  0.79438  0.31536  Biso   1.000  C
  C722     1.0000 0.32052  0.53446  0.79515  Biso   1.000  C
  C723     1.0000 0.79804  0.29969  0.54602  Biso   1.000  C
  C724     1.0000 0.01444  0.76955  0.21570  Biso   1.000  C
  C725     1.0000 0.79359  0.50411  0.71774  Biso   1.000  C
  C726     1.0000 0.27060  0.32354  0.01005  Biso   1.000  C
  C727     1.0000 0.99362  0.26896  0.33840  Biso   1.000  C
  C728     1.0000 0.23885  0.02148  0.83454  Biso   1.000  C
  C729     1.0000 0.73417  0.80722  0.53923  Biso   1.000  C
  C730     1.0000 0.49597  0.30239  0.24432  Biso   1.000  C
  C731     1.0000 0.73278  0.97680  0.71144  Biso   1.000  C
  C732     1.0000 0.24697  0.82100  0.01797  Biso   1.000  C
  C733     1.0000 0.48909  0.19750  0.74144  Biso   1.000  C
  C734     1.0000 0.69370  0.47024  0.24769  Biso   1.000  C
  C735     1.0000 0.20498  0.72564  0.50828  Biso   1.000  C
  C736     1.0000 0.98354  0.22642  0.83463  Biso   1.000  C
  C737     1.0000 0.22926  0.49522  0.32048  Biso   1.000  C
  C738     1.0000 0.74970  0.67078  0.03713  Biso   1.000  C
  C739     1.0000 0.03229  0.69055  0.75152  Biso   1.000  C
  C740     1.0000 0.79474  0.96494  0.21135  Biso   1.000  C
  C741     1.0000 0.29421  0.20138  0.50133  Biso   1.000  C
  C742     1.0000 0.54856  0.69788  0.80455  Biso   1.000  C
  C743     1.0000 0.28888  0.99802  0.33402  Biso   1.000  C
  C744     1.0000 0.80520  0.20648  0.04157  Biso   1.000  C
  C745     1.0000 0.03379  0.71901  0.33756  Biso   1.000  C
  C746     1.0000 0.29404  0.02827  0.71969  Biso   1.000  C
  C747     1.0000 0.71350  0.28728  0.04639  Biso   1.000  C
  C748     1.0000 0.53073  0.71550  0.22341  Biso   1.000  C
  C749     1.0000 0.82100  0.97218  0.80107  Biso   1.000  C
  C750     1.0000 0.23596  0.31285  0.53509  Biso   1.000  C
  C751     1.0000 0.52231  0.18225  0.29539  Biso   1.000  C
  C752     1.0000 0.24013  0.49603  0.70356  Biso   1.000  C
  C753     1.0000 0.80125  0.79008  0.01656  Biso   1.000  C
  C754     1.0000 0.01823  0.18828  0.24617  Biso   1.000  C
  C755     1.0000 0.70511  0.48171  0.79766  Biso   1.000  C
  C756     1.0000 0.28721  0.81098  0.54771  Biso   1.000  C
  C757     1.0000 0.98834  0.28108  0.71775  Biso   1.000  C
  C758     1.0000 0.71016  0.00147  0.29455  Biso   1.000  C
  C759     1.0000 0.30787  0.70900  0.04855  Biso   1.000  C
  C760     1.0000 0.53151  0.30908  0.80175  Biso   1.000  C
  C761     1.0000 0.23749  0.03526  0.21806  Biso   1.000  C
  C762     1.0000 0.81561  0.72211  0.51098  Biso   1.000  C
  C763     1.0000 0.52020  0.81572  0.74937  Biso   1.000  C
  C764     1.0000 0.77815  0.50982  0.33196  Biso   1.000  C
  C765     1.0000 0.22820  0.19985  0.04127  Biso   1.000  C
  C766     1.0000 0.99539  0.80215  0.80957  Biso   1.000  C
  C767     1.0000 0.31321  0.51416  0.23632  Biso   1.000  C
  C768     1.0000 0.71022  0.22272  0.50622  Biso   1.000  C
  C769     1.0000 0.52020  0.73133  0.83495  Biso   1.000  C
  C770     1.0000 0.82408  0.47217  0.74898  Biso   1.000  C
  C771     1.0000 0.70280  0.77524  0.51047  Biso   1.000  C
  C772     1.0000 0.99894  0.72149  0.72071  Biso   1.000  C
  C773     1.0000 0.29540  0.48861  0.81437  Biso   1.000  C
  C774     1.0000 0.22045  0.79081  0.05263  Biso   1.000  C
  C775     1.0000 0.00806  0.19154  0.79999  Biso   1.000  C
  C776     1.0000 0.71305  0.01981  0.73953  Biso   1.000  C
  C777     1.0000 0.82552  0.27221  0.50895  Biso   1.000  C
  C778     1.0000 0.52323  0.22642  0.71193  Biso   1.000  C
  C779     1.0000 0.20355  0.99711  0.80043  Biso   1.000  C
  C780     1.0000 0.30143  0.29454  0.04484  Biso   1.000  C
  C781     1.0000 0.51828  0.26965  0.20733  Biso   1.000  C
  C782     1.0000 0.19475  0.51871  0.28655  Biso   1.000  C
  C783     1.0000 0.31642  0.22399  0.54662  Biso   1.000  C
  C784     1.0000 0.01421  0.30630  0.30183  Biso   1.000  C
  C785     1.0000 0.72800  0.49850  0.21667  Biso   1.000  C
  C786     1.0000 0.77525  0.17099  0.01061  Biso   1.000  C
  C787     1.0000 0.04344  0.80244  0.24771  Biso   1.000  C
  C788     1.0000 0.32774  0.02215  0.30203  Biso   1.000  C
  C789     1.0000 0.23300  0.69718  0.54465  Biso   1.000  C
  C790     1.0000 0.48911  0.77228  0.33508  Biso   1.000  C
  C791     1.0000 0.81902  0.00462  0.24063  Biso   1.000  C
  C792     1.0000 0.71505  0.70717  0.01711  Biso   1.000  C
  C793     1.0000 0.48760  0.21295  0.32282  Biso   1.000  C
  C794     1.0000 0.28013  0.48877  0.20577  Biso   1.000  C
  C795     1.0000 0.20466  0.28027  0.50490  Biso   1.000  C
  C796     1.0000 0.98252  0.22033  0.22010  Biso   1.000  C
  C797     1.0000 0.81385  0.48101  0.30320  Biso   1.000  C
  C798     1.0000 0.68740  0.26000  0.00508  Biso   1.000  C
  C799     1.0000 0.00007  0.69036  0.30728  Biso   1.000  C
  C800     1.0000 0.21173  0.99398  0.23840  Biso   1.000  C
  C801     1.0000 0.32198  0.78138  0.51603  Biso   1.000  C
  C802     1.0000 0.49391  0.68586  0.25179  Biso   1.000  C
  C803     1.0000 0.73999  0.97465  0.33034  Biso   1.000  C
  C804     1.0000 0.83366  0.75999  0.04402  Biso   1.000  C
  C805     1.0000 0.55926  0.79074  0.72359  Biso   1.000  C
  C806     1.0000 0.73896  0.50403  0.83361  Biso   1.000  C
  C807     1.0000 0.78672  0.68983  0.54152  Biso   1.000  C
  C808     1.0000 0.03651  0.77936  0.83427  Biso   1.000  C
  C809     1.0000 0.20786  0.53242  0.73190  Biso   1.000  C
  C810     1.0000 0.33949  0.74294  0.02187  Biso   1.000  C
  C811     1.0000 0.01916  0.30886  0.75175  Biso   1.000  C
  C812     1.0000 0.79267  0.00745  0.82952  Biso   1.000  C
  C813     1.0000 0.73851  0.18883  0.53723  Biso   1.000  C
  C814     1.0000 0.48368  0.29070  0.82368  Biso   1.000  C
  C815     1.0000 0.32045  0.98946  0.74493  Biso   1.000  C
  C816     1.0000 0.19017  0.23040  0.01521  Biso   1.000  C
  C817     1.0000 0.98089  0.24634  0.81294  Biso   1.000  C
  C818     1.0000 0.77429  0.96283  0.23304  Biso   1.000  C
  C819     1.0000 0.26969  0.80304  0.02208  Biso   1.000  C
  C820     1.0000 0.48954  0.21978  0.76119  Biso   1.000  C
  C821     1.0000 0.26971  0.99986  0.31110  Biso   1.000  C
  C822     1.0000 0.75396  0.78463  0.54193  Biso   1.000  C
  C823     1.0000 0.55142  0.71982  0.78406  Biso   1.000  C
  C824     1.0000 0.71343  0.47133  0.27092  Biso   1.000  C
  C825     1.0000 0.25050  0.30125  0.01254  Biso   1.000  C
  C826     1.0000 0.02999  0.71046  0.77378  Biso   1.000  C
  C827     1.0000 0.25052  0.49733  0.29823  Biso   1.000  C
  C828     1.0000 0.77597  0.27931  0.54641  Biso   1.000  C
  C829     1.0000 0.01306  0.74913  0.23781  Biso   1.000  C
  C830     1.0000 0.26087  0.01870  0.81324  Biso   1.000  C
  C831     1.0000 0.78290  0.22648  0.03863  Biso   1.000  C
  C832     1.0000 0.53777  0.77276  0.29492  Biso   1.000  C
  C833     1.0000 0.75311  0.97460  0.73420  Biso   1.000  C
  C834     1.0000 0.27466  0.22285  0.50130  Biso   1.000  C
  C835     1.0000 0.49611  0.27856  0.26307  Biso   1.000  C
  C836     1.0000 0.29760  0.53496  0.77324  Biso   1.000  C
  C837     1.0000 0.77133  0.69114  0.03549  Biso   1.000  C
  C838     1.0000 0.99479  0.24920  0.31557  Biso   1.000  C
  C839     1.0000 0.77171  0.50523  0.73872  Biso   1.000  C
  C840     1.0000 0.22504  0.74850  0.50900  Biso   1.000  C
  C841     1.0000 0.22604  0.99545  0.78080  Biso   1.000  C
  C842     1.0000 0.75160  0.19051  0.01282  Biso   1.000  C
  C843     1.0000 0.04231  0.78127  0.26844  Biso   1.000  C
  C844     1.0000 0.73569  0.01734  0.75936  Biso   1.000  C
  C845     1.0000 0.29456  0.24460  0.54524  Biso   1.000  C
  C846     1.0000 0.49247  0.75291  0.31457  Biso   1.000  C
  C847     1.0000 0.27607  0.49017  0.79151  Biso   1.000  C
  C848     1.0000 0.73762  0.72623  0.01769  Biso   1.000  C
  C849     1.0000 0.52024  0.24705  0.22658  Biso   1.000  C
  C850     1.0000 0.80296  0.47410  0.77063  Biso   1.000  C
  C851     1.0000 0.25515  0.71803  0.54310  Biso   1.000  C
  C852     1.0000 0.01519  0.28413  0.28195  Biso   1.000  C
  C853     1.0000 0.79931  0.99986  0.26261  Biso   1.000  C
  C854     1.0000 0.24354  0.77188  0.05569  Biso   1.000  C
  C855     1.0000 0.00774  0.21515  0.77952  Biso   1.000  C
  C856     1.0000 0.30789  0.02199  0.28035  Biso   1.000  C
  C857     1.0000 0.72239  0.75257  0.51432  Biso   1.000  C
  C858     1.0000 0.52214  0.24840  0.73311  Biso   1.000  C
  C859     1.0000 0.74841  0.49725  0.23960  Biso   1.000  C
  C860     1.0000 0.28006  0.27446  0.04534  Biso   1.000  C
  C861     1.0000 0.52366  0.75260  0.81465  Biso   1.000  C
  C862     1.0000 0.21552  0.52086  0.26623  Biso   1.000  C
  C863     1.0000 0.80378  0.25218  0.51050  Biso   1.000  C
  C864     1.0000 0.00002  0.74136  0.74313  Biso   1.000  C
  C865     1.0000 0.72601  0.48205  0.77674  Biso   1.000  C
  C866     1.0000 0.79431  0.74326  0.51255  Biso   1.000  C
  C867     1.0000 0.52120  0.79297  0.77133  Biso   1.000  C
  C868     1.0000 0.26172  0.49804  0.72516  Biso   1.000  C
  C869     1.0000 0.28960  0.73177  0.05306  Biso   1.000  C
  C870     1.0000 0.99539  0.77990  0.78824  Biso   1.000  C
  C871     1.0000 0.80179  0.97361  0.77869  Biso   1.000  C
  C872     1.0000 0.73038  0.24457  0.51109  Biso   1.000  C
  C873     1.0000 0.98079  0.26263  0.73964  Biso   1.000  C
  C874     1.0000 0.27403  0.02777  0.74232  Biso   1.000  C
  C875     1.0000 0.24488  0.22487  0.04090  Biso   1.000  C
  C876     1.0000 0.52948  0.28653  0.78190  Biso   1.000  C
  C877     1.0000 0.29172  0.51748  0.25805  Biso   1.000  C
  C878     1.0000 0.25767  0.29271  0.53360  Biso   1.000  C
  C879     1.0000 0.52119  0.20199  0.27195  Biso   1.000  C
  C880     1.0000 0.75722  0.50362  0.31168  Biso   1.000  C
  C881     1.0000 0.73284  0.26342  0.04717  Biso   1.000  C
  C882     1.0000 0.02108  0.20908  0.26870  Biso   1.000  C
  C883     1.0000 0.25965  0.03244  0.23826  Biso   1.000  C
  C884     1.0000 0.26576  0.79017  0.54244  Biso   1.000  C
  C885     1.0000 0.03745  0.73789  0.31498  Biso   1.000  C
  C886     1.0000 0.72988  0.99525  0.27333  Biso   1.000  C
  C887     1.0000 0.78180  0.76725  0.01490  Biso   1.000  C
  C888     1.0000 0.53242  0.73434  0.24701  Biso   1.000  C
  C889     1.0000 0.76143  0.97313  0.30969  Biso   1.000  C
  C890     1.0000 0.31807  0.76467  0.02451  Biso   1.000  C
  C891     1.0000 0.01346  0.28696  0.77252  Biso   1.000  C
  C892     1.0000 0.23395  0.99177  0.25789  Biso   1.000  C
  C893     1.0000 0.76629  0.71115  0.54426  Biso   1.000  C
  C894     1.0000 0.48189  0.27044  0.80164  Biso   1.000  C
  C895     1.0000 0.79053  0.47470  0.28445  Biso   1.000  C
  C896     1.0000 0.20955  0.25302  0.01654  Biso   1.000  C
  C897     1.0000 0.55777  0.76766  0.74377  Biso   1.000  C
  C898     1.0000 0.25825  0.49285  0.22533  Biso   1.000  C
  C899     1.0000 0.75869  0.21103  0.54147  Biso   1.000  C
  C900     1.0000 0.03602  0.75885  0.81255  Biso   1.000  C
  C901     1.0000 0.30119  0.98992  0.76764  Biso   1.000  C
  C902     1.0000 0.70861  0.23887  0.00652  Biso   1.000  C
  C903     1.0000 0.00481  0.71022  0.28425  Biso   1.000  C
  C904     1.0000 0.77201  0.00679  0.80712  Biso   1.000  C
  C905     1.0000 0.22572  0.25926  0.50621  Biso   1.000  C
  C906     1.0000 0.49669  0.70606  0.27388  Biso   1.000  C
  C907     1.0000 0.22898  0.52967  0.75393  Biso   1.000  C
  C908     1.0000 0.81444  0.73731  0.04249  Biso   1.000  C
  C909     1.0000 0.48720  0.23145  0.29975  Biso   1.000  C
  C910     1.0000 0.75999  0.50423  0.81327  Biso   1.000  C
  C911     1.0000 0.30012  0.76137  0.51311  Biso   1.000  C
  C912     1.0000 0.98872  0.24103  0.24152  Biso   1.000  C
  C913     1.0000 0.77749  0.49006  0.76409  Biso   1.000  C
  C914     1.0000 0.74818  0.75815  0.52921  Biso   1.000  C
  C915     1.0000 0.53800  0.74630  0.78846  Biso   1.000  C
  C916     1.0000 0.27660  0.51374  0.77215  Biso   1.000  C
  C917     1.0000 0.26799  0.77793  0.04010  Biso   1.000  C
  C918     1.0000 0.01528  0.73662  0.76830  Biso   1.000  C
  C919     1.0000 0.75598  0.99402  0.75674  Biso   1.000  C
  C920     1.0000 0.77973  0.25653  0.52904  Biso   1.000  C
  C921     1.0000 0.99253  0.24111  0.78534  Biso   1.000  C
  C922     1.0000 0.25505  0.00424  0.78752  Biso   1.000  C
  C923     1.0000 0.25572  0.27722  0.02951  Biso   1.000  C
  C924     1.0000 0.50449  0.24535  0.75771  Biso   1.000  C
  C925     1.0000 0.24283  0.51106  0.27276  Biso   1.000  C
  C926     1.0000 0.27472  0.24361  0.52274  Biso   1.000  C
  C927     1.0000 0.50759  0.25213  0.25379  Biso   1.000  C
  C928     1.0000 0.74104  0.48370  0.26518  Biso   1.000  C
  C929     1.0000 0.75591  0.21781  0.02617  Biso   1.000  C
  C930     1.0000 0.00570  0.25594  0.28775  Biso   1.000  C
  C931     1.0000 0.27916  0.01205  0.28409  Biso   1.000  C
  C932     1.0000 0.25057  0.74364  0.52561  Biso   1.000  C
  C933     1.0000 0.02683  0.75457  0.26389  Biso   1.000  C
  C934     1.0000 0.77739  0.97950  0.25922  Biso   1.000  C
  C935     1.0000 0.76623  0.71755  0.02521  Biso   1.000  C
  C936     1.0000 0.51510  0.75316  0.29371  Biso   1.000  C
  C937     1.0000 0.73244  0.24052  0.02633  Biso   1.000  C
  C938     1.0000 0.02349  0.73451  0.28815  Biso   1.000  C
  C939     1.0000 0.27675  0.00658  0.76442  Biso   1.000  C
  C940     1.0000 0.25103  0.26491  0.52079  Biso   1.000  C
  C941     1.0000 0.51503  0.72961  0.27166  Biso   1.000  C
  C942     1.0000 0.77641  0.99133  0.78112  Biso   1.000  C
  C943     1.0000 0.78757  0.74088  0.02675  Biso   1.000  C
  C944     1.0000 0.50476  0.22741  0.27521  Biso   1.000  C
  C945     1.0000 0.25516  0.51434  0.75010  Biso   1.000  C
  C946     1.0000 0.27234  0.76604  0.52582  Biso   1.000  C
  C947     1.0000 0.00623  0.23490  0.26517  Biso   1.000  C
  C948     1.0000 0.75419  0.49292  0.78547  Biso   1.000  C
  C949     1.0000 0.29242  0.75793  0.03876  Biso   1.000  C
  C950     1.0000 0.99279  0.26621  0.76655  Biso   1.000  C
  C951     1.0000 0.75532  0.98087  0.28111  Biso   1.000  C
  C952     1.0000 0.77085  0.73699  0.53023  Biso   1.000  C
  C953     1.0000 0.50331  0.26867  0.78047  Biso   1.000  C
  C954     1.0000 0.25838  0.01039  0.25886  Biso   1.000  C
  C955     1.0000 0.23624  0.25068  0.02939  Biso   1.000  C
  C956     1.0000 0.53974  0.76956  0.76737  Biso   1.000  C
  C957     1.0000 0.76274  0.48523  0.28852  Biso   1.000  C
  C958     1.0000 0.75485  0.23881  0.52872  Biso   1.000  C
  C959     1.0000 0.01680  0.75884  0.79021  Biso   1.000  C
  C960     1.0000 0.26374  0.50868  0.25045  Biso   1.000  C
  Cu1      1.0000 0.01484  0.49952  0.66958  Biso   1.000  Cu
  Cu2      1.0000 0.67053  0.99878  0.51971  Biso   1.000  Cu
  Cu3      1.0000 0.52221  0.64798  0.02540  Biso   1.000  Cu
  Cu4      1.0000 0.51264  0.50580  0.86604  Biso   1.000  Cu
  Cu5      1.0000 0.16401  0.00541  0.02246  Biso   1.000  Cu
  Cu6      1.0000 0.01135  0.65478  0.52953  Biso   1.000  Cu
  Cu7      1.0000 0.51459  0.00278  0.67551  Biso   1.000  Cu
  Cu8      1.0000 0.85858  0.49592  0.52726  Biso   1.000  Cu
  Cu9      1.0000 0.00270  0.15045  0.02460  Biso   1.000  Cu
  Cu10     1.0000 0.01310  0.99947  0.87188  Biso   1.000  Cu
  Cu11     1.0000 0.35571  0.51345  0.01715  Biso   1.000  Cu
  Cu12     1.0000 0.51537  0.15742  0.51954  Biso   1.000  Cu
  Cu13     1.0000 0.00597  0.49829  0.37358  Biso   1.000  Cu
  Cu14     1.0000 0.36049  0.00149  0.52602  Biso   1.000  Cu
  Cu15     1.0000 0.49887  0.34537  0.02116  Biso   1.000  Cu
  Cu16     1.0000 0.50682  0.49463  0.17268  Biso   1.000  Cu
  Cu17     1.0000 0.85968  0.98556  0.02217  Biso   1.000  Cu
  Cu18     1.0000 0.01584  0.34369  0.52603  Biso   1.000  Cu
  Cu19     1.0000 0.51472  0.99121  0.37162  Biso   1.000  Cu
  Cu20     1.0000 0.16944  0.50464  0.51131  Biso   1.000  Cu
  Cu21     1.0000 0.02062  0.84563  0.02580  Biso   1.000  Cu
  Cu22     1.0000 0.01645  0.99860  0.18015  Biso   1.000  Cu
  Cu23     1.0000 0.66272  0.48398  0.02153  Biso   1.000  Cu
  Cu24     1.0000 0.51011  0.84812  0.52925  Biso   1.000  Cu
  Cu25     1.0000 0.21854  0.00763  0.02249  Biso   1.000  Cu
  Cu26     1.0000 0.99960  0.20508  0.02369  Biso   1.000  Cu
  Cu27     1.0000 0.01480  0.99732  0.23381  Biso   1.000  Cu
  Cu28     1.0000 0.72557  0.99772  0.52036  Biso   1.000  Cu
  Cu29     1.0000 0.51452  0.21061  0.51733  Biso   1.000  Cu
  Cu30     1.0000 0.51333  0.98789  0.31738  Biso   1.000  Cu
  Cu31     1.0000 0.29840  0.51582  0.01369  Biso   1.000  Cu
  Cu32     1.0000 0.52715  0.70385  0.02402  Biso   1.000  Cu
  Cu33     1.0000 0.50307  0.49529  0.22688  Biso   1.000  Cu
  Cu34     1.0000 0.80569  0.49367  0.52898  Biso   1.000  Cu
  Cu35     1.0000 0.01025  0.70912  0.52741  Biso   1.000  Cu
  Cu36     1.0000 0.00029  0.49807  0.31852  Biso   1.000  Cu
  Cu37     1.0000 0.80489  0.98374  0.02138  Biso   1.000  Cu
  Cu38     1.0000 0.02501  0.78915  0.02570  Biso   1.000  Cu
  Cu39     1.0000 0.01299  0.99980  0.82005  Biso   1.000  Cu
  Cu40     1.0000 0.30772  0.00292  0.52702  Biso   1.000  Cu
  Cu41     1.0000 0.51257  0.79506  0.52975  Biso   1.000  Cu
  Cu42     1.0000 0.51516  0.00599  0.72948  Biso   1.000  Cu
  Cu43     1.0000 0.71655  0.48120  0.02399  Biso   1.000  Cu
  Cu44     1.0000 0.49415  0.29127  0.01765  Biso   1.000  Cu
  Cu45     1.0000 0.51466  0.50632  0.80997  Biso   1.000  Cu
  Cu46     1.0000 0.22476  0.50415  0.50831  Biso   1.000  Cu
  Cu47     1.0000 0.01655  0.29007  0.52553  Biso   1.000  Cu
  Cu48     1.0000 0.01953  0.50016  0.72438  Biso   1.000  Cu
  H1       1.0000 0.24425  0.79161  0.55242  Biso   1.000  H
  H2       1.0000 0.54895  0.28264  0.76775  Biso   1.000  H
  H3       1.0000 0.73474  0.51323  0.31442  Biso   1.000  H
  H4       1.0000 0.76103  0.77060  0.00081  Biso   1.000  H
  H5       1.0000 0.96511  0.24495  0.73460  Biso   1.000  H
  H6       1.0000 0.29560  0.53133  0.27659  Biso   1.000  H
  H7       1.0000 0.27857  0.29662  0.54428  Biso   1.000  H
  H8       1.0000 0.97623  0.78041  0.77484  Biso   1.000  H
  H9       1.0000 0.72732  0.00539  0.25217  Biso   1.000  H
  H10      1.0000 0.74839  0.26370  0.06467  Biso   1.000  H
  H11      1.0000 0.50549  0.79708  0.78860  Biso   1.000  H
  H12      1.0000 0.27674  0.04868  0.23782  Biso   1.000  H
  H13      1.0000 0.72646  0.26679  0.50395  Biso   1.000  H
  H14      1.0000 0.54646  0.75344  0.24607  Biso   1.000  H
  H15      1.0000 0.28256  0.48676  0.72149  Biso   1.000  H
  H16      1.0000 0.26487  0.22354  0.05306  Biso   1.000  H
  H17      1.0000 0.05394  0.75394  0.31661  Biso   1.000  H
  H18      1.0000 0.72337  0.47349  0.75537  Biso   1.000  H
  H19      1.0000 0.79509  0.76395  0.50201  Biso   1.000  H
  H20      1.0000 0.03664  0.20363  0.28565  Biso   1.000  H
  H21      1.0000 0.25371  0.04139  0.74057  Biso   1.000  H
  H22      1.0000 0.27078  0.72664  0.06752  Biso   1.000  H
  H23      1.0000 0.53071  0.19783  0.25047  Biso   1.000  H
  H24      1.0000 0.80570  0.95961  0.76077  Biso   1.000  H
  H25      1.0000 0.28361  0.02618  0.81351  Biso   1.000  H
  H26      1.0000 0.78624  0.24846  0.04576  Biso   1.000  H
  H27      1.0000 0.00027  0.73043  0.23477  Biso   1.000  H
  H28      1.0000 0.76602  0.95592  0.73222  Biso   1.000  H
  H29      1.0000 0.25989  0.22289  0.48186  Biso   1.000  H
  H30      1.0000 0.55682  0.77163  0.28285  Biso   1.000  H
  H31      1.0000 0.29782  0.55349  0.75851  Biso   1.000  H
  H32      1.0000 0.79182  0.68535  0.04270  Biso   1.000  H
  H33      1.0000 0.49174  0.27992  0.28725  Biso   1.000  H
  H34      1.0000 0.75113  0.51597  0.73667  Biso   1.000  H
  H35      1.0000 0.22112  0.76869  0.49880  Biso   1.000  H
  H36      1.0000 0.98587  0.22771  0.32037  Biso   1.000  H
  H37      1.0000 0.75841  0.94463  0.23047  Biso   1.000  H
  H38      1.0000 0.28849  0.80851  0.00991  Biso   1.000  H
  H39      1.0000 0.97090  0.26735  0.81572  Biso   1.000  H
  H40      1.0000 0.24762  0.99063  0.31372  Biso   1.000  H
  H41      1.0000 0.77386  0.78706  0.55514  Biso   1.000  H
  H42      1.0000 0.47962  0.21742  0.78187  Biso   1.000  H
  H43      1.0000 0.70958  0.46460  0.29244  Biso   1.000  H
  H44      1.0000 0.23006  0.30370  0.00081  Biso   1.000  H
  H45      1.0000 0.56339  0.71418  0.76542  Biso   1.000  H
  H46      1.0000 0.27328  0.49195  0.30135  Biso   1.000  H
  H47      1.0000 0.75712  0.28435  0.55875  Biso   1.000  H
  H48      1.0000 0.03673  0.70284  0.79617  Biso   1.000  H
  H49      1.0000 0.21132  0.53133  0.24603  Biso   1.000  H
  H50      1.0000 0.28991  0.25923  0.56486  Biso   1.000  H
  H51      1.0000 0.52635  0.22522  0.21821  Biso   1.000  H
  H52      1.0000 0.77024  0.50728  0.23685  Biso   1.000  H
  H53      1.0000 0.72982  0.18487  0.00359  Biso   1.000  H
  H54      1.0000 0.02593  0.28715  0.26164  Biso   1.000  H
  H55      1.0000 0.31425  0.03110  0.25950  Biso   1.000  H
  H56      1.0000 0.27471  0.71630  0.55485  Biso   1.000  H
  H57      1.0000 0.05403  0.78735  0.28951  Biso   1.000  H
  H58      1.0000 0.80249  0.01320  0.28200  Biso   1.000  H
  H59      1.0000 0.73208  0.74897  0.01431  Biso   1.000  H
  H60      1.0000 0.47547  0.73760  0.31372  Biso   1.000  H
  H61      1.0000 0.80846  0.46487  0.79141  Biso   1.000  H
  H62      1.0000 0.71732  0.73000  0.50787  Biso   1.000  H
  H63      1.0000 0.51256  0.77291  0.81837  Biso   1.000  H
  H64      1.0000 0.26059  0.47356  0.78858  Biso   1.000  H
  H65      1.0000 0.23930  0.75318  0.07056  Biso   1.000  H
  H66      1.0000 0.99118  0.76301  0.73695  Biso   1.000  H
  H67      1.0000 0.73856  0.03465  0.77489  Biso   1.000  H
  H68      1.0000 0.80688  0.23376  0.49489  Biso   1.000  H
  H69      1.0000 0.01361  0.21368  0.75806  Biso   1.000  H
  H70      1.0000 0.22141  0.98543  0.76068  Biso   1.000  H
  H71      1.0000 0.28573  0.25750  0.06195  Biso   1.000  H
  H72      1.0000 0.53306  0.26809  0.72868  Biso   1.000  H
  H73      1.0000 0.78285  0.51316  0.81673  Biso   1.000  H
  H74      1.0000 0.74766  0.70746  0.56071  Biso   1.000  H
  H75      1.0000 0.57521  0.75162  0.74251  Biso   1.000  H
  H76      1.0000 0.22459  0.54127  0.77535  Biso   1.000  H
  H77      1.0000 0.32293  0.78556  0.01595  Biso   1.000  H
  H78      1.0000 0.05326  0.74079  0.81242  Biso   1.000  H
  H79      1.0000 0.75060  0.01690  0.81235  Biso   1.000  H
  H80      1.0000 0.77667  0.20701  0.55676  Biso   1.000  H
  H81      1.0000 0.02307  0.28767  0.79401  Biso   1.000  H
  H82      1.0000 0.30417  0.97439  0.78547  Biso   1.000  H
  H83      1.0000 0.20591  0.27370  0.00860  Biso   1.000  H
  H84      1.0000 0.46191  0.25869  0.79749  Biso   1.000  H
  H85      1.0000 0.23587  0.48428  0.22080  Biso   1.000  H
  H86      1.0000 0.22299  0.23858  0.49706  Biso   1.000  H
  H87      1.0000 0.47264  0.24994  0.30389  Biso   1.000  H
  H88      1.0000 0.79344  0.46337  0.26409  Biso   1.000  H
  H89      1.0000 0.70853  0.22165  0.99106  Biso   1.000  H
  H90      1.0000 0.98027  0.26288  0.24046  Biso   1.000  H
  H91      1.0000 0.23234  0.97437  0.27343  Biso   1.000  H
  H92      1.0000 0.30347  0.74189  0.50159  Biso   1.000  H
  H93      1.0000 0.99087  0.70621  0.26551  Biso   1.000  H
  H94      1.0000 0.78257  0.96329  0.31373  Biso   1.000  H
  H95      1.0000 0.82003  0.71833  0.05556  Biso   1.000  H
  H96      1.0000 0.48148  0.70241  0.29232  Biso   1.000  H
  H97      1.0000 0.87988  0.97757  0.93407  Biso   1.000  H
  H98      1.0000 0.92853  0.85709  0.02718  Biso   1.000  H
  H99      1.0000 0.00839  0.90886  0.89405  Biso   1.000  H
  H100     1.0000 0.38269  0.00339  0.61764  Biso   1.000  H
  H101     1.0000 0.42194  0.86458  0.52257  Biso   1.000  H
  H102     1.0000 0.53214  0.91928  0.65903  Biso   1.000  H
  H103     1.0000 0.64585  0.48095  0.93040  Biso   1.000  H
  H104     1.0000 0.58897  0.35301  0.01590  Biso   1.000  H
  H105     1.0000 0.50880  0.41602  0.88663  Biso   1.000  H
  H106     1.0000 0.15058  0.51123  0.59923  Biso   1.000  H
  H107     1.0000 0.10164  0.36439  0.51508  Biso   1.000  H
  H108     1.0000 0.02118  0.40374  0.65190  Biso   1.000  H
  H109     1.0000 0.14459  0.02087  0.11533  Biso   1.000  H
  H110     1.0000 0.09674  0.13566  0.02936  Biso   1.000  H
  H111     1.0000 0.00787  0.09071  0.15521  Biso   1.000  H
  H112     1.0000 0.65280  0.99079  0.43070  Biso   1.000  H
  H113     1.0000 0.60674  0.13244  0.52679  Biso   1.000  H
  H114     1.0000 0.51717  0.08763  0.38861  Biso   1.000  H
  H115     1.0000 0.37044  0.50505  0.10332  Biso   1.000  H
  H116     1.0000 0.43067  0.63941  0.02127  Biso   1.000  H
  H117     1.0000 0.50457  0.59123  0.15545  Biso   1.000  H
  H118     1.0000 0.87196  0.49617  0.43349  Biso   1.000  H
  H119     1.0000 0.92011  0.63225  0.52977  Biso   1.000  H
  H120     1.0000 0.01517  0.58458  0.39620  Biso   1.000  H
  H121     1.0000 0.10365  0.00751  0.89338  Biso   1.000  H
  H122     1.0000 0.87429  0.08000  0.02500  Biso   1.000  H
  H123     1.0000 0.02123  0.86558  0.11904  Biso   1.000  H
  H124     1.0000 0.60539  0.00579  0.65368  Biso   1.000  H
  H125     1.0000 0.38198  0.09593  0.51242  Biso   1.000  H
  H126     1.0000 0.50528  0.86238  0.43836  Biso   1.000  H
  H127     1.0000 0.41891  0.50183  0.88660  Biso   1.000  H
  H128     1.0000 0.65114  0.57927  0.01816  Biso   1.000  H
  H129     1.0000 0.50463  0.35827  0.11008  Biso   1.000  H
  H130     1.0000 0.92312  0.50318  0.65654  Biso   1.000  H
  H131     1.0000 0.14945  0.59651  0.50929  Biso   1.000  H
  H132     1.0000 0.01340  0.36299  0.43533  Biso   1.000  H
  H133     1.0000 0.92291  0.99930  0.15368  Biso   1.000  H
  H134     1.0000 0.14973  0.91494  0.02667  Biso   1.000  H
  H135     1.0000 0.01162  0.13411  0.93381  Biso   1.000  H
  H136     1.0000 0.42183  0.98824  0.39384  Biso   1.000  H
  H137     1.0000 0.64662  0.90991  0.51038  Biso   1.000  H
  H138     1.0000 0.50563  0.13701  0.61030  Biso   1.000  H
  H139     1.0000 0.59672  0.49315  0.15369  Biso   1.000  H
  H140     1.0000 0.36903  0.42120  0.02233  Biso   1.000  H
  H141     1.0000 0.53412  0.62840  0.93024  Biso   1.000  H
  H142     1.0000 0.09766  0.49735  0.38446  Biso   1.000  H
  H143     1.0000 0.88355  0.40602  0.53012  Biso   1.000  H
  H144     1.0000 0.00597  0.63806  0.61760  Biso   1.000  H
  H145     1.0000 0.60523  0.49551  0.89024  Biso   1.000  H
  H146     1.0000 0.88008  0.58858  0.52189  Biso   1.000  H
  H147     1.0000 0.52934  0.87282  0.61712  Biso   1.000  H
  H148     1.0000 0.10596  0.51065  0.64251  Biso   1.000  H
  H149     1.0000 0.38096  0.59994  0.01644  Biso   1.000  H
  H150     1.0000 0.01820  0.86453  0.93880  Biso   1.000  H
  H151     1.0000 0.92252  0.97639  0.89257  Biso   1.000  H
  H152     1.0000 0.65094  0.08883  0.52536  Biso   1.000  H
  H153     1.0000 0.01671  0.36271  0.61414  Biso   1.000  H
  H154     1.0000 0.42537  0.00003  0.65734  Biso   1.000  H
  H155     1.0000 0.13735  0.09645  0.01842  Biso   1.000  H
  H156     1.0000 0.50711  0.36927  0.93099  Biso   1.000  H
  H157     1.0000 0.41519  0.50326  0.14717  Biso   1.000  H
  H158     1.0000 0.14355  0.41136  0.51104  Biso   1.000  H
  H159     1.0000 0.50343  0.12681  0.42763  Biso   1.000  H
  H160     1.0000 0.91060  0.50189  0.39229  Biso   1.000  H
  H161     1.0000 0.63521  0.39452  0.01992  Biso   1.000  H
  H162     1.0000 0.00819  0.13203  0.11516  Biso   1.000  H
  H163     1.0000 0.10229  0.01056  0.15779  Biso   1.000  H
  H164     1.0000 0.37987  0.91422  0.52882  Biso   1.000  H
  H165     1.0000 0.01564  0.63110  0.43879  Biso   1.000  H
  H166     1.0000 0.60925  0.98950  0.38961  Biso   1.000  H
  H167     1.0000 0.88470  0.89472  0.02592  Biso   1.000  H
  H168     1.0000 0.51631  0.63256  0.11540  Biso   1.000  H
  H169     1.0000 0.00875  0.09581  0.89380  Biso   1.000  H
  H170     1.0000 0.88354  0.98906  0.10997  Biso   1.000  H
  H171     1.0000 0.10987  0.86770  0.02557  Biso   1.000  H
  H172     1.0000 0.50270  0.09405  0.65133  Biso   1.000  H
  H173     1.0000 0.37663  0.98625  0.43440  Biso   1.000  H
  H174     1.0000 0.60251  0.86729  0.51276  Biso   1.000  H
  H175     1.0000 0.53202  0.59238  0.88769  Biso   1.000  H
  H176     1.0000 0.64047  0.49152  0.11438  Biso   1.000  H
  H177     1.0000 0.40882  0.37536  0.02276  Biso   1.000  H
  H178     1.0000 0.01366  0.59390  0.65255  Biso   1.000  H
  H179     1.0000 0.14441  0.50451  0.42299  Biso   1.000  H
  H180     1.0000 0.92414  0.36235  0.52086  Biso   1.000  H
  H181     1.0000 0.02306  0.90481  0.16058  Biso   1.000  H
  H182     1.0000 0.14699  0.00859  0.93046  Biso   1.000  H
  H183     1.0000 0.91294  0.12557  0.02285  Biso   1.000  H
  H184     1.0000 0.51239  0.90264  0.39374  Biso   1.000  H
  H185     1.0000 0.64578  0.99662  0.61183  Biso   1.000  H
  H186     1.0000 0.42616  0.13805  0.51887  Biso   1.000  H
  H187     1.0000 0.50979  0.40319  0.15148  Biso   1.000  H
  H188     1.0000 0.37789  0.51489  0.92496  Biso   1.000  H
  H189     1.0000 0.61163  0.62298  0.02088  Biso   1.000  H
  H190     1.0000 0.01168  0.40715  0.39245  Biso   1.000  H
  H191     1.0000 0.88329  0.49827  0.61857  Biso   1.000  H
  H192     1.0000 0.10064  0.63692  0.51858  Biso   1.000  H
  H193     1.0000 0.28125  0.85996  0.52889  Biso   1.000  H
  H194     1.0000 0.49190  0.27598  0.87564  Biso   1.000  H
  H195     1.0000 0.86071  0.50588  0.29570  Biso   1.000  H
  H196     1.0000 0.79167  0.83813  0.03926  Biso   1.000  H
  H197     1.0000 0.01231  0.26993  0.67520  Biso   1.000  H
  H198     1.0000 0.36112  0.49468  0.24212  Biso   1.000  H
  H199     1.0000 0.24167  0.35650  0.50631  Biso   1.000  H
  H200     1.0000 0.01516  0.76675  0.88560  Biso   1.000  H
  H201     1.0000 0.65933  0.98560  0.29232  Biso   1.000  H
  H202     1.0000 0.72857  0.33659  0.02995  Biso   1.000  H
  H203     1.0000 0.53908  0.77761  0.67502  Biso   1.000  H
  H204     1.0000 0.16169  0.00972  0.25124  Biso   1.000  H
  H205     1.0000 0.74840  0.14221  0.51479  Biso   1.000  H
  H206     1.0000 0.51714  0.72869  0.17095  Biso   1.000  H
  H207     1.0000 0.16506  0.50395  0.73593  Biso   1.000  H
  H208     1.0000 0.23262  0.15303  0.01805  Biso   1.000  H
  H209     1.0000 0.00658  0.72694  0.38403  Biso   1.000  H
  H210     1.0000 0.66021  0.50901  0.79494  Biso   1.000  H
  H211     1.0000 0.78009  0.63848  0.52713  Biso   1.000  H
  H212     1.0000 0.99317  0.22734  0.16918  Biso   1.000  H
  H213     1.0000 0.37005  0.00545  0.75757  Biso   1.000  H
  H214     1.0000 0.29091  0.66488  0.01439  Biso   1.000  H
  H215     1.0000 0.51035  0.22297  0.37241  Biso   1.000  H
  H216     1.0000 0.87336  0.99607  0.79426  Biso   1.000  H
  H217     1.0000 0.23556  0.51647  0.36508  Biso   1.000  H
  H218     1.0000 0.36683  0.23391  0.52809  Biso   1.000  H
  H219     1.0000 0.52060  0.35223  0.24919  Biso   1.000  H
  H220     1.0000 0.73518  0.47755  0.16896  Biso   1.000  H
  H221     1.0000 0.85069  0.21471  0.01651  Biso   1.000  H
  H222     1.0000 0.98821  0.35676  0.29823  Biso   1.000  H
  H223     1.0000 0.28798  0.02233  0.38224  Biso   1.000  H
  H224     1.0000 0.15049  0.73255  0.52872  Biso   1.000  H
  H225     1.0000 0.02379  0.85223  0.25821  Biso   1.000  H
  H226     1.0000 0.78620  0.98563  0.16248  Biso   1.000  H
  H227     1.0000 0.67151  0.71403  0.04762  Biso   1.000  H
  H228     1.0000 0.51354  0.84317  0.29988  Biso   1.000  H
  H229     1.0000 0.78927  0.48025  0.66941  Biso   1.000  H
  H230     1.0000 0.65312  0.77082  0.53593  Biso   1.000  H
  H231     1.0000 0.52053  0.65382  0.79577  Biso   1.000  H
  H232     1.0000 0.27980  0.50958  0.86776  Biso   1.000  H
  H233     1.0000 0.16870  0.77429  0.03216  Biso   1.000  H
  H234     1.0000 0.00977  0.64327  0.75204  Biso   1.000  H
  H235     1.0000 0.74624  0.99445  0.65924  Biso   1.000  H
  H236     1.0000 0.87435  0.26462  0.51734  Biso   1.000  H
  H237     1.0000 0.98512  0.14453  0.79798  Biso   1.000  H
  H238     1.0000 0.24229  0.00137  0.87929  Biso   1.000  H
  H239     1.0000 0.34884  0.28203  0.02553  Biso   1.000  H
  H240     1.0000 0.50602  0.14784  0.74729  Biso   1.000  H
  H241     1.0000 0.74076  0.47839  0.87810  Biso   1.000  H
  H242     1.0000 0.86694  0.72815  0.52660  Biso   1.000  H
  H243     1.0000 0.54107  0.86663  0.75580  Biso   1.000  H
  H244     1.0000 0.24638  0.51643  0.65334  Biso   1.000  H
  H245     1.0000 0.38632  0.73819  0.04642  Biso   1.000  H
  H246     1.0000 0.01701  0.85164  0.80065  Biso   1.000  H
  H247     1.0000 0.78577  0.98635  0.87639  Biso   1.000  H
  H248     1.0000 0.65783  0.22847  0.51801  Biso   1.000  H
  H249     1.0000 0.01057  0.36240  0.75183  Biso   1.000  H
  H250     1.0000 0.28451  0.01320  0.66895  Biso   1.000  H
  H251     1.0000 0.14222  0.23428  0.03292  Biso   1.000  H
  H252     1.0000 0.52430  0.35816  0.79295  Biso   1.000  H
  H253     1.0000 0.27498  0.51631  0.15548  Biso   1.000  H
  H254     1.0000 0.16136  0.27259  0.52934  Biso   1.000  H
  H255     1.0000 0.50778  0.13442  0.29107  Biso   1.000  H
  H256     1.0000 0.77435  0.49533  0.38343  Biso   1.000  H
  H257     1.0000 0.63749  0.25368  0.02180  Biso   1.000  H
  H258     1.0000 0.99333  0.14273  0.25255  Biso   1.000  H
  H259     1.0000 0.24541  0.02614  0.16378  Biso   1.000  H
  H260     1.0000 0.36704  0.77404  0.55052  Biso   1.000  H
  H261     1.0000 0.01326  0.63887  0.30115  Biso   1.000  H
  H262     1.0000 0.74679  0.99714  0.37553  Biso   1.000  H
  H263     1.0000 0.88314  0.75878  0.01538  Biso   1.000  H
  H264     1.0000 0.51422  0.63897  0.25474  Biso   1.000  H
  H265     1.0000 0.00579  0.22997  0.87809  Biso   1.000  H
  H266     1.0000 0.86878  0.98806  0.24816  Biso   1.000  H
  H267     1.0000 0.24743  0.86461  0.04238  Biso   1.000  H
  H268     1.0000 0.50020  0.23268  0.66167  Biso   1.000  H
  H269     1.0000 0.37079  0.99550  0.29637  Biso   1.000  H
  H270     1.0000 0.74192  0.85303  0.51391  Biso   1.000  H
  H271     1.0000 0.54010  0.73186  0.88502  Biso   1.000  H
  H272     1.0000 0.64773  0.49239  0.25367  Biso   1.000  H
  H273     1.0000 0.26870  0.37745  0.02340  Biso   1.000  H
  H274     1.0000 0.02562  0.73275  0.67270  Biso   1.000  H
  H275     1.0000 0.14016  0.49698  0.28340  Biso   1.000  H
  H276     1.0000 0.78723  0.35080  0.52546  Biso   1.000  H
  H277     1.0000 0.03557  0.76709  0.16604  Biso   1.000  H
  H278     1.0000 0.15439  0.01869  0.79516  Biso   1.000  H
  H279     1.0000 0.77197  0.12459  0.03059  Biso   1.000  H
  H280     1.0000 0.49765  0.76398  0.38809  Biso   1.000  H
  H281     1.0000 0.66033  0.01175  0.75008  Biso   1.000  H
  H282     1.0000 0.28319  0.14505  0.52536  Biso   1.000  H
  H283     1.0000 0.49592  0.26246  0.16365  Biso   1.000  H
  H284     1.0000 0.37139  0.50641  0.78849  Biso   1.000  H
  H285     1.0000 0.75588  0.62023  0.01486  Biso   1.000  H
  H286     1.0000 0.02176  0.26652  0.38349  Biso   1.000  H
  H287     1.0000 0.87275  0.48428  0.75274  Biso   1.000  H
  H288     1.0000 0.24653  0.65041  0.52185  Biso   1.000  H
  H289     1.0000 0.09029  0.23081  0.03401  Biso   1.000  H
  H290     1.0000 0.00212  0.08715  0.25088  Biso   1.000  H
  H291     1.0000 0.23918  0.02632  0.11004  Biso   1.000  H
  H292     1.0000 0.60815  0.22704  0.51920  Biso   1.000  H
  H293     1.0000 0.51606  0.07906  0.29359  Biso   1.000  H
  H294     1.0000 0.74788  0.00055  0.43213  Biso   1.000  H
  H295     1.0000 0.44040  0.73294  0.03741  Biso   1.000  H
  H296     1.0000 0.51326  0.58499  0.25010  Biso   1.000  H
  H297     1.0000 0.27889  0.52870  0.10358  Biso   1.000  H
  H298     1.0000 0.91832  0.73030  0.52705  Biso   1.000  H
  H299     1.0000 0.02501  0.59188  0.29870  Biso   1.000  H
  H300     1.0000 0.77729  0.49583  0.43851  Biso   1.000  H
  H301     1.0000 0.93400  0.76092  0.01550  Biso   1.000  H
  H302     1.0000 0.01760  0.90821  0.80060  Biso   1.000  H
  H303     1.0000 0.78403  0.98594  0.93095  Biso   1.000  H
  H304     1.0000 0.42300  0.77675  0.54869  Biso   1.000  H
  H305     1.0000 0.53580  0.91911  0.75472  Biso   1.000  H
  H306     1.0000 0.28815  0.00908  0.61628  Biso   1.000  H
  H307     1.0000 0.57935  0.25962  0.01563  Biso   1.000  H
  H308     1.0000 0.52414  0.41394  0.79191  Biso   1.000  H
  H309     1.0000 0.73630  0.46156  0.93299  Biso   1.000  H
  H310     1.0000 0.11102  0.27374  0.53785  Biso   1.000  H
  H311     1.0000 0.00571  0.41674  0.74549  Biso   1.000  H
  H312     1.0000 0.24805  0.51233  0.59925  Biso   1.000  H
  H313     1.0000 0.24296  0.00022  0.93040  Biso   1.000  H
  H314     1.0000 0.90747  0.21881  0.01085  Biso   1.000  H
  H315     1.0000 0.02148  0.90609  0.25547  Biso   1.000  H
  H316     1.0000 0.74235  0.98412  0.60805  Biso   1.000  H
  H317     1.0000 0.42624  0.23277  0.52206  Biso   1.000  H
  H318     1.0000 0.52207  0.89484  0.29860  Biso   1.000  H
  H319     1.0000 0.28109  0.51132  0.92579  Biso   1.000  H
  H320     1.0000 0.61606  0.71333  0.04636  Biso   1.000  H
  H321     1.0000 0.52585  0.40348  0.24562  Biso   1.000  H
  H322     1.0000 0.78598  0.48877  0.61806  Biso   1.000  H
  H323     1.0000 0.09962  0.72940  0.52339  Biso   1.000  H
  H324     1.0000 0.98753  0.40730  0.30067  Biso   1.000  H
  H325     1.0000 0.78926  0.97572  0.10860  Biso   1.000  H
  H326     1.0000 0.11683  0.77325  0.03306  Biso   1.000  H
  H327     1.0000 0.99418  0.09171  0.79768  Biso   1.000  H
  H328     1.0000 0.28640  0.01256  0.43463  Biso   1.000  H
  H329     1.0000 0.59823  0.77506  0.53351  Biso   1.000  H
  H330     1.0000 0.50551  0.09594  0.74857  Biso   1.000  H
  H331     1.0000 0.73312  0.47770  0.11270  Biso   1.000  H
  H332     1.0000 0.39821  0.27681  0.02219  Biso   1.000  H
  H333     1.0000 0.52380  0.59643  0.78970  Biso   1.000  H
  H334     1.0000 0.23946  0.51165  0.41728  Biso   1.000  H
  H335     1.0000 0.93078  0.26800  0.50783  Biso   1.000  H
  H336     1.0000 0.01160  0.58397  0.74738  Biso   1.000  H
  H337     1.0000 0.01120  0.22877  0.93646  Biso   1.000  H
  H338     1.0000 0.92200  0.99517  0.24975  Biso   1.000  H
  H339     1.0000 0.24613  0.91977  0.03834  Biso   1.000  H
  H340     1.0000 0.49893  0.23019  0.60580  Biso   1.000  H
  H341     1.0000 0.42635  0.98857  0.29775  Biso   1.000  H
  H342     1.0000 0.74129  0.90678  0.50761  Biso   1.000  H
  H343     1.0000 0.54313  0.72594  0.93694  Biso   1.000  H
  H344     1.0000 0.59613  0.49947  0.24994  Biso   1.000  H
  H345     1.0000 0.27363  0.42762  0.01505  Biso   1.000  H
  H346     1.0000 0.02665  0.73377  0.62066  Biso   1.000  H
  H347     1.0000 0.08802  0.49339  0.29134  Biso   1.000  H
  H348     1.0000 0.78768  0.40291  0.53288  Biso   1.000  H
  H349     1.0000 0.03325  0.77024  0.10977  Biso   1.000  H
  H350     1.0000 0.09954  0.02136  0.79937  Biso   1.000  H
  H351     1.0000 0.77445  0.07362  0.02536  Biso   1.000  H
  H352     1.0000 0.49737  0.76607  0.44304  Biso   1.000  H
  H353     1.0000 0.60423  0.01558  0.74674  Biso   1.000  H
  H354     1.0000 0.28603  0.09192  0.51807  Biso   1.000  H
  H355     1.0000 0.49300  0.26219  0.11252  Biso   1.000  H
  H356     1.0000 0.42488  0.51033  0.79036  Biso   1.000  H
  H357     1.0000 0.74644  0.56673  0.01116  Biso   1.000  H
  H358     1.0000 0.02129  0.26854  0.43672  Biso   1.000  H
  H359     1.0000 0.93369  0.48387  0.75012  Biso   1.000  H
  H360     1.0000 0.24629  0.59671  0.51744  Biso   1.000  H
  H361     1.0000 0.00287  0.72548  0.43874  Biso   1.000  H
  H362     1.0000 0.42603  0.99713  0.75578  Biso   1.000  H
  H363     1.0000 0.73141  0.38997  0.02589  Biso   1.000  H
  H364     1.0000 0.52576  0.72817  0.11804  Biso   1.000  H
  H365     1.0000 0.92754  0.99182  0.79926  Biso   1.000  H
  H366     1.0000 0.24351  0.41120  0.50547  Biso   1.000  H
  H367     1.0000 0.51165  0.22344  0.42685  Biso   1.000  H
  H368     1.0000 0.10881  0.50178  0.73635  Biso   1.000  H
  H369     1.0000 0.78815  0.89342  0.03788  Biso   1.000  H
  H370     1.0000 0.00213  0.22700  0.11273  Biso   1.000  H
  H371     1.0000 0.60688  0.51951  0.79805  Biso   1.000  H
  H372     1.0000 0.28395  0.91306  0.52794  Biso   1.000  H
  H373     1.0000 0.01965  0.26602  0.61775  Biso   1.000  H
  H374     1.0000 0.60433  0.98793  0.29451  Biso   1.000  H
  H375     1.0000 0.28694  0.60773  0.01323  Biso   1.000  H
  H376     1.0000 0.48721  0.27510  0.92687  Biso   1.000  H
  H377     1.0000 0.10911  0.00167  0.25119  Biso   1.000  H
  H378     1.0000 0.78378  0.58545  0.52977  Biso   1.000  H
  H379     1.0000 0.53401  0.77952  0.61522  Biso   1.000  H
  H380     1.0000 0.91223  0.50986  0.29929  Biso   1.000  H
  H381     1.0000 0.23485  0.09600  0.01536  Biso   1.000  H
  H382     1.0000 0.02025  0.76760  0.93857  Biso   1.000  H
  H383     1.0000 0.41283  0.49362  0.24411  Biso   1.000  H
  H384     1.0000 0.74764  0.08742  0.51388  Biso   1.000  H
  H385     1.0000 0.23548  0.48327  0.33907  Biso   1.000  H
  H386     1.0000 0.29729  0.18693  0.48524  Biso   1.000  H
  H387     1.0000 0.48792  0.32304  0.25376  Biso   1.000  H
  H388     1.0000 0.67344  0.45890  0.24788  Biso   1.000  H
  H389     1.0000 0.82508  0.21405  0.05299  Biso   1.000  H
  H390     1.0000 0.98407  0.26288  0.35800  Biso   1.000  H
  H391     1.0000 0.28007  0.98551  0.35292  Biso   1.000  H
  H392     1.0000 0.18644  0.73067  0.49464  Biso   1.000  H
  H393     1.0000 0.00023  0.76509  0.19636  Biso   1.000  H
  H394     1.0000 0.79273  0.95110  0.19219  Biso   1.000  H
  H395     1.0000 0.75584  0.65071  0.04725  Biso   1.000  H
  H396     1.0000 0.55275  0.80816  0.31742  Biso   1.000  H
  H397     1.0000 0.78896  0.51685  0.69788  Biso   1.000  H
  H398     1.0000 0.73972  0.82743  0.54987  Biso   1.000  H
  H399     1.0000 0.55933  0.67741  0.80191  Biso   1.000  H
  H400     1.0000 0.33787  0.55087  0.79785  Biso   1.000  H
  H401     1.0000 0.24767  0.83819  0.00178  Biso   1.000  H
  H402     1.0000 0.04474  0.67126  0.75543  Biso   1.000  H
  H403     1.0000 0.73108  0.96262  0.69351  Biso   1.000  H
  H404     1.0000 0.79693  0.31574  0.56454  Biso   1.000  H
  H405     1.0000 0.97074  0.23029  0.85418  Biso   1.000  H
  H406     1.0000 0.24495  0.03249  0.85460  Biso   1.000  H
  H407     1.0000 0.26663  0.34065  0.99487  Biso   1.000  H
  H408     1.0000 0.47444  0.17962  0.74541  Biso   1.000  H
  H409     1.0000 0.27437  0.47506  0.18630  Biso   1.000  H
  H410     1.0000 0.18419  0.27766  0.49446  Biso   1.000  H
  H411     1.0000 0.47330  0.21830  0.34166  Biso   1.000  H
  H412     1.0000 0.83480  0.47231  0.29735  Biso   1.000  H
  H413     1.0000 0.67063  0.25691  0.98999  Biso   1.000  H
  H414     1.0000 0.96734  0.22549  0.20179  Biso   1.000  H
  H415     1.0000 0.19511  0.97745  0.23950  Biso   1.000  H
  H416     1.0000 0.34262  0.77879  0.50466  Biso   1.000  H
  H417     1.0000 0.98261  0.67454  0.30391  Biso   1.000  H
  H418     1.0000 0.74318  0.96128  0.35040  Biso   1.000  H
  H419     1.0000 0.85460  0.75643  0.05635  Biso   1.000  H
  H420     1.0000 0.47867  0.66819  0.25071  Biso   1.000  H
  H421     1.0000 0.74563  0.51294  0.85471  Biso   1.000  H
  H422     1.0000 0.78248  0.67123  0.55543  Biso   1.000  H
  H423     1.0000 0.57547  0.79118  0.70652  Biso   1.000  H
  H424     1.0000 0.19075  0.54778  0.73457  Biso   1.000  H
  H425     1.0000 0.35780  0.74680  0.00880  Biso   1.000  H
  H426     1.0000 0.05142  0.77683  0.85101  Biso   1.000  H
  H427     1.0000 0.79310  0.02065  0.84785  Biso   1.000  H
  H428     1.0000 0.74188  0.16936  0.55098  Biso   1.000  H
  H429     1.0000 0.03342  0.32639  0.75776  Biso   1.000  H
  H430     1.0000 0.33856  0.97398  0.74768  Biso   1.000  H
  H431     1.0000 0.17007  0.23128  0.00460  Biso   1.000  H
  H432     1.0000 0.46821  0.29272  0.84001  Biso   1.000  H
  H433     1.0000 0.29036  0.04363  0.70210  Biso   1.000  H
  H434     1.0000 0.71551  0.30649  0.06122  Biso   1.000  H
  H435     1.0000 0.04532  0.72038  0.35752  Biso   1.000  H
  H436     1.0000 0.83867  0.95654  0.79668  Biso   1.000  H
  H437     1.0000 0.23827  0.33206  0.54809  Biso   1.000  H
  H438     1.0000 0.54621  0.71652  0.20700  Biso   1.000  H
  H439     1.0000 0.24417  0.48139  0.68602  Biso   1.000  H
  H440     1.0000 0.79397  0.80932  0.00427  Biso   1.000  H
  H441     1.0000 0.53849  0.16449  0.29475  Biso   1.000  H
  H442     1.0000 0.68380  0.47344  0.79245  Biso   1.000  H
  H443     1.0000 0.27874  0.83024  0.55978  Biso   1.000  H
  H444     1.0000 0.03150  0.16969  0.24496  Biso   1.000  H
  H445     1.0000 0.69130  0.01553  0.28834  Biso   1.000  H
  H446     1.0000 0.30382  0.69005  0.06092  Biso   1.000  H
  H447     1.0000 0.97703  0.27831  0.69686  Biso   1.000  H
  H448     1.0000 0.23927  0.05316  0.20234  Biso   1.000  H
  H449     1.0000 0.83366  0.72633  0.49578  Biso   1.000  H
  H450     1.0000 0.55196  0.32219  0.80413  Biso   1.000  H
  H451     1.0000 0.77020  0.52460  0.34975  Biso   1.000  H
  H452     1.0000 0.23670  0.18103  0.05296  Biso   1.000  H
  H453     1.0000 0.50570  0.83312  0.75265  Biso   1.000  H
  H454     1.0000 0.33454  0.52499  0.24088  Biso   1.000  H
  H455     1.0000 0.69183  0.22936  0.49354  Biso   1.000  H
  H456     1.0000 0.97979  0.81912  0.80785  Biso   1.000  H
  H457     1.0000 0.68164  0.77031  0.50057  Biso   1.000  H
  H458     1.0000 0.50684  0.73654  0.85429  Biso   1.000  H
  H459     1.0000 0.84326  0.45938  0.75318  Biso   1.000  H
  H460     1.0000 0.20089  0.78528  0.06585  Biso   1.000  H
  H461     1.0000 0.98764  0.72659  0.70142  Biso   1.000  H
  H462     1.0000 0.29223  0.47208  0.83081  Biso   1.000  H
  H463     1.0000 0.84195  0.26968  0.49172  Biso   1.000  H
  H464     1.0000 0.01473  0.17078  0.79374  Biso   1.000  H
  H465     1.0000 0.69715  0.03681  0.74225  Biso   1.000  H
  H466     1.0000 0.32039  0.29096  0.05883  Biso   1.000  H
  H467     1.0000 0.53887  0.22929  0.69385  Biso   1.000  H
  H468     1.0000 0.18374  0.98566  0.79370  Biso   1.000  H
  H469     1.0000 0.33276  0.22466  0.56251  Biso   1.000  H
  H470     1.0000 0.52817  0.26575  0.18768  Biso   1.000  H
  H471     1.0000 0.17358  0.53238  0.28077  Biso   1.000  H
  H472     1.0000 0.77215  0.15276  0.99596  Biso   1.000  H
  H473     1.0000 0.02050  0.32772  0.29652  Biso   1.000  H
  H474     1.0000 0.73284  0.51096  0.19804  Biso   1.000  H
  H475     1.0000 0.23581  0.67907  0.55818  Biso   1.000  H
  H476     1.0000 0.05748  0.82156  0.24844  Biso   1.000  H
  H477     1.0000 0.35066  0.03314  0.29953  Biso   1.000  H
  H478     1.0000 0.69569  0.71590  0.00613  Biso   1.000  H
  H479     1.0000 0.47088  0.77192  0.34922  Biso   1.000  H
  H480     1.0000 0.83635  0.02174  0.24232  Biso   1.000  H
  N1       1.0000 0.69242  0.17456  0.51833  Biso   1.000  N
  N2       1.0000 0.51169  0.67374  0.20301  Biso   1.000  N
  N3       1.0000 0.19485  0.51425  0.68523  Biso   1.000  N
  N4       1.0000 0.17960  0.18211  0.02582  Biso   1.000  N
  N5       1.0000 0.01441  0.67437  0.35452  Biso   1.000  N
  N6       1.0000 0.69048  0.49210  0.84634  Biso   1.000  N
  N7       1.0000 0.83366  0.67488  0.52682  Biso   1.000  N
  N8       1.0000 0.00101  0.17568  0.20034  Biso   1.000  N
  N9       1.0000 0.33931  0.01112  0.70292  Biso   1.000  N
  N10      1.0000 0.34912  0.69183  0.02657  Biso   1.000  N
  N11      1.0000 0.50864  0.16751  0.34246  Biso   1.000  N
  N12      1.0000 0.83819  0.98829  0.84663  Biso   1.000  N
  N13      1.0000 0.33529  0.82670  0.53694  Biso   1.000  N
  N14      1.0000 0.50839  0.32884  0.84460  Biso   1.000  N
  N15      1.0000 0.82642  0.50041  0.35023  Biso   1.000  N
  N16      1.0000 0.84574  0.80895  0.03246  Biso   1.000  N
  N17      1.0000 0.01302  0.32397  0.70207  Biso   1.000  N
  N18      1.0000 0.32761  0.50049  0.18969  Biso   1.000  N
  N19      1.0000 0.18963  0.32764  0.51703  Biso   1.000  N
  N20      1.0000 0.01656  0.82175  0.85448  Biso   1.000  N
  N21      1.0000 0.69303  0.99008  0.34401  Biso   1.000  N
  N22      1.0000 0.67181  0.30591  0.02492  Biso   1.000  N
  N23      1.0000 0.53965  0.83341  0.70358  Biso   1.000  N
  N24      1.0000 0.19203  0.01778  0.19745  Biso   1.000  N
  N25      1.0000 0.84031  0.48929  0.70221  Biso   1.000  N
  N26      1.0000 0.68774  0.82325  0.52049  Biso   1.000  N
  N27      1.0000 0.53153  0.68056  0.84910  Biso   1.000  N
  N28      1.0000 0.33517  0.50949  0.83916  Biso   1.000  N
  N29      1.0000 0.19788  0.83242  0.03413  Biso   1.000  N
  N30      1.0000 0.01628  0.67580  0.70388  Biso   1.000  N
  N31      1.0000 0.69181  0.00097  0.69536  Biso   1.000  N
  N32      1.0000 0.84128  0.31833  0.52548  Biso   1.000  N
  N33      1.0000 0.00071  0.17829  0.84765  Biso   1.000  N
  N34      1.0000 0.18967  0.01121  0.84569  Biso   1.000  N
  N35      1.0000 0.31867  0.33893  0.02551  Biso   1.000  N
  N36      1.0000 0.50704  0.18038  0.69513  Biso   1.000  N
  N37      1.0000 0.18056  0.50570  0.33450  Biso   1.000  N
  N38      1.0000 0.33652  0.18065  0.52317  Biso   1.000  N
  N39      1.0000 0.50483  0.31751  0.19563  Biso   1.000  N
  N40      1.0000 0.68000  0.48332  0.19984  Biso   1.000  N
  N41      1.0000 0.82405  0.16013  0.02485  Biso   1.000  N
  N42      1.0000 0.00358  0.31941  0.35021  Biso   1.000  N
  N43      1.0000 0.33808  0.00498  0.34952  Biso   1.000  N
  N44      1.0000 0.18837  0.68086  0.52448  Biso   1.000  N
  N45      1.0000 0.02697  0.81842  0.20251  Biso   1.000  N
  N46      1.0000 0.83838  0.99012  0.19533  Biso   1.000  N
  N47      1.0000 0.70133  0.65844  0.02784  Biso   1.000  N
  N48      1.0000 0.51084  0.81463  0.35519  Biso   1.000  N
  O1       1.0000 0.35517  0.55547  0.01784  Biso   1.000  O
  O2       1.0000 0.00971  0.34020  0.56964  Biso   1.000  O
  O3       1.0000 0.55664  0.98762  0.36870  Biso   1.000  O
  O4       1.0000 0.85715  0.53843  0.52073  Biso   1.000  O
  O5       1.0000 0.49349  0.34588  0.97989  Biso   1.000  O
  O6       1.0000 0.05623  0.99898  0.18201  Biso   1.000  O
  O7       1.0000 0.16603  0.04626  0.01810  Biso   1.000  O
  O8       1.0000 0.51920  0.84797  0.56954  Biso   1.000  O
  O9       1.0000 0.96202  0.50132  0.36894  Biso   1.000  O
  O10      1.0000 0.67542  0.03986  0.52543  Biso   1.000  O
  O11      1.0000 0.02182  0.84188  0.98419  Biso   1.000  O
  O12      1.0000 0.46638  0.49607  0.17298  Biso   1.000  O
  O13      1.0000 0.66252  0.44331  0.02430  Biso   1.000  O
  O14      1.0000 0.00662  0.65882  0.48931  Biso   1.000  O
  O15      1.0000 0.47241  0.99511  0.68338  Biso   1.000  O
  O16      1.0000 0.17063  0.46427  0.51102  Biso   1.000  O
  O17      1.0000 0.51627  0.65445  0.06825  Biso   1.000  O
  O18      1.0000 0.97191  0.99376  0.87173  Biso   1.000  O
  O19      1.0000 0.85973  0.94211  0.02758  Biso   1.000  O
  O20      1.0000 0.51412  0.15610  0.47688  Biso   1.000  O
  O21      1.0000 0.05670  0.50261  0.66783  Biso   1.000  O
  O22      1.0000 0.35606  0.95958  0.53051  Biso   1.000  O
  O23      1.0000 0.99761  0.15505  0.06653  Biso   1.000  O
  O24      1.0000 0.55485  0.50121  0.86433  Biso   1.000  O
  O25      1.0000 0.97408  0.99828  0.18304  Biso   1.000  O
  O26      1.0000 0.16787  0.96375  0.03476  Biso   1.000  O
  O27      1.0000 0.00823  0.15727  0.98367  Biso   1.000  O
  O28      1.0000 0.47173  0.99545  0.37160  Biso   1.000  O
  O29      1.0000 0.67004  0.95687  0.51342  Biso   1.000  O
  O30      1.0000 0.51436  0.16125  0.56004  Biso   1.000  O
  O31      1.0000 0.54668  0.49204  0.17697  Biso   1.000  O
  O32      1.0000 0.34977  0.47184  0.01288  Biso   1.000  O
  O33      1.0000 0.53184  0.65312  0.98276  Biso   1.000  O
  O34      1.0000 0.04595  0.49723  0.36894  Biso   1.000  O
  O35      1.0000 0.85860  0.45328  0.53035  Biso   1.000  O
  O36      1.0000 0.02068  0.66250  0.56873  Biso   1.000  O
  O37      1.0000 0.05570  0.00141  0.86966  Biso   1.000  O
  O38      1.0000 0.85392  0.02719  0.01745  Biso   1.000  O
  O39      1.0000 0.02036  0.84651  0.06931  Biso   1.000  O
  O40      1.0000 0.55516  0.01614  0.67851  Biso   1.000  O
  O41      1.0000 0.35906  0.04439  0.52237  Biso   1.000  O
  O42      1.0000 0.51004  0.84437  0.48707  Biso   1.000  O
  O43      1.0000 0.47050  0.50652  0.86161  Biso   1.000  O
  O44      1.0000 0.67105  0.52657  0.01809  Biso   1.000  O
  O45      1.0000 0.50573  0.33692  0.06369  Biso   1.000  O
  O46      1.0000 0.97291  0.49525  0.67605  Biso   1.000  O
  O47      1.0000 0.17303  0.54561  0.50862  Biso   1.000  O
  O48      1.0000 0.02150  0.33832  0.48508  Biso   1.000  O
  O49      1.0000 0.01502  0.95555  0.18599  Biso   1.000  O
  O50      1.0000 0.16868  0.99596  0.98047  Biso   1.000  O
  O51      1.0000 0.96125  0.15214  0.02038  Biso   1.000  O
  O52      1.0000 0.50948  0.95003  0.36728  Biso   1.000  O
  O53      1.0000 0.67269  0.99469  0.56092  Biso   1.000  O
  O54      1.0000 0.47315  0.16020  0.51985  Biso   1.000  O
  O55      1.0000 0.50596  0.45212  0.17509  Biso   1.000  O
  O56      1.0000 0.35309  0.51584  0.97456  Biso   1.000  O
  O57      1.0000 0.56494  0.64768  0.03237  Biso   1.000  O
  O58      1.0000 0.00707  0.45686  0.36999  Biso   1.000  O
  O59      1.0000 0.85562  0.50115  0.56845  Biso   1.000  O
  O60      1.0000 0.05060  0.65897  0.52372  Biso   1.000  O
  O61      1.0000 0.00832  0.04227  0.87152  Biso   1.000  O
  O62      1.0000 0.85960  0.99074  0.06325  Biso   1.000  O
  O63      1.0000 0.06335  0.84314  0.02929  Biso   1.000  O
  O64      1.0000 0.50636  0.04264  0.67604  Biso   1.000  O
  O65      1.0000 0.35641  0.99540  0.48428  Biso   1.000  O
  O66      1.0000 0.55278  0.84671  0.52707  Biso   1.000  O
  O67      1.0000 0.51345  0.54892  0.85989  Biso   1.000  O
  O68      1.0000 0.66489  0.48353  0.06491  Biso   1.000  O
  O69      1.0000 0.45737  0.34367  0.02664  Biso   1.000  O
  O70      1.0000 0.00911  0.53968  0.67472  Biso   1.000  O
  O71      1.0000 0.16904  0.50282  0.46835  Biso   1.000  O
  O72      1.0000 0.97495  0.34361  0.51704  Biso   1.000  O
  O73      1.0000 0.01906  0.45743  0.67389  Biso   1.000  O
  O74      1.0000 0.67324  0.00271  0.47716  Biso   1.000  O
  O75      1.0000 0.48136  0.65797  0.02159  Biso   1.000  O
  O76      1.0000 0.51162  0.46304  0.86224  Biso   1.000  O
  O77      1.0000 0.16605  0.01347  0.06415  Biso   1.000  O
  O78      1.0000 0.96985  0.65854  0.53367  Biso   1.000  O
  O79      1.0000 0.52360  0.96263  0.67996  Biso   1.000  O
  O80      1.0000 0.85292  0.49093  0.48366  Biso   1.000  O
  O81      1.0000 0.04440  0.15432  0.02741  Biso   1.000  O
  O82      1.0000 0.01340  0.95677  0.87173  Biso   1.000  O
  O83      1.0000 0.34989  0.50776  0.05763  Biso   1.000  O
  O84      1.0000 0.55629  0.16073  0.51795  Biso   1.000  O
  O85      1.0000 0.00635  0.54042  0.37096  Biso   1.000  O
  O86      1.0000 0.35767  0.00471  0.56682  Biso   1.000  O
  O87      1.0000 0.53774  0.33435  0.01865  Biso   1.000  O
  O88      1.0000 0.51156  0.53762  0.17603  Biso   1.000  O
  O89      1.0000 0.85680  0.98030  0.97968  Biso   1.000  O
  O90      1.0000 0.05746  0.33964  0.52997  Biso   1.000  O
  O91      1.0000 0.51668  0.03455  0.36465  Biso   1.000  O
  O92      1.0000 0.17431  0.50365  0.55205  Biso   1.000  O
  O93      1.0000 0.97926  0.84149  0.02533  Biso   1.000  O
  O94      1.0000 0.01247  0.03961  0.17896  Biso   1.000  O
  O95      1.0000 0.66531  0.47930  0.97997  Biso   1.000  O
  O96      1.0000 0.47058  0.84320  0.52983  Biso   1.000  O
  O97      1.0000 0.47425  0.20833  0.51994  Biso   1.000  O
  O98      1.0000 0.50269  0.45281  0.22417  Biso   1.000  O
  O99      1.0000 0.21807  0.50807  0.46772  Biso   1.000  O
  O100     1.0000 0.95632  0.20044  0.01994  Biso   1.000  O
  O101     1.0000 0.99235  0.45835  0.32338  Biso   1.000  O
  O102     1.0000 0.71399  0.48359  0.06534  Biso   1.000  O
  O103     1.0000 0.05388  0.70819  0.52615  Biso   1.000  O
  O104     1.0000 0.01697  0.95308  0.23396  Biso   1.000  O
  O105     1.0000 0.30791  0.99943  0.48473  Biso   1.000  O
  O106     1.0000 0.56799  0.69627  0.03323  Biso   1.000  O
  O107     1.0000 0.51249  0.94614  0.31966  Biso   1.000  O
  O108     1.0000 0.81074  0.98677  0.06483  Biso   1.000  O
  O109     1.0000 0.55270  0.79881  0.52194  Biso   1.000  O
  O110     1.0000 0.51801  0.54761  0.81170  Biso   1.000  O
  O111     1.0000 0.80600  0.49788  0.57066  Biso   1.000  O
  O112     1.0000 0.06603  0.79406  0.03121  Biso   1.000  O
  O113     1.0000 0.01961  0.53927  0.72206  Biso   1.000  O
  O114     1.0000 0.30359  0.51066  0.97283  Biso   1.000  O
  O115     1.0000 0.97532  0.29426  0.51854  Biso   1.000  O
  O116     1.0000 0.01119  0.04349  0.82417  Biso   1.000  O
  O117     1.0000 0.72182  0.98863  0.56033  Biso   1.000  O
  O118     1.0000 0.45235  0.29535  0.02629  Biso   1.000  O
  O119     1.0000 0.50756  0.04506  0.72452  Biso   1.000  O
  O120     1.0000 0.21704  0.00074  0.98169  Biso   1.000  O
  O121     1.0000 0.06158  0.50028  0.71593  Biso   1.000  O
  O122     1.0000 0.72418  0.03973  0.52604  Biso   1.000  O
  O123     1.0000 0.52080  0.70204  0.06671  Biso   1.000  O
  O124     1.0000 0.55730  0.50481  0.81572  Biso   1.000  O
  O125     1.0000 0.21420  0.04921  0.01568  Biso   1.000  O
  O126     1.0000 0.00609  0.70669  0.48447  Biso   1.000  O
  O127     1.0000 0.47526  0.99805  0.73274  Biso   1.000  O
  O128     1.0000 0.80869  0.53720  0.52560  Biso   1.000  O
  O129     1.0000 0.99453  0.20447  0.06583  Biso   1.000  O
  O130     1.0000 0.97177  0.99646  0.82280  Biso   1.000  O
  O131     1.0000 0.30704  0.55817  0.00938  Biso   1.000  O
  O132     1.0000 0.51030  0.20490  0.47452  Biso   1.000  O
  O133     1.0000 0.96138  0.51176  0.32252  Biso   1.000  O
  O134     1.0000 0.30692  0.96301  0.53061  Biso   1.000  O
  O135     1.0000 0.48798  0.29579  0.97740  Biso   1.000  O
  O136     1.0000 0.46203  0.49860  0.22112  Biso   1.000  O
  O137     1.0000 0.80897  0.94234  0.02634  Biso   1.000  O
  O138     1.0000 0.01366  0.29165  0.56575  Biso   1.000  O
  O139     1.0000 0.55580  0.98815  0.32030  Biso   1.000  O
  O140     1.0000 0.21870  0.46254  0.50590  Biso   1.000  O
  O141     1.0000 0.03457  0.79385  0.98589  Biso   1.000  O
  O142     1.0000 0.05686  0.00141  0.23019  Biso   1.000  O
  O143     1.0000 0.71173  0.44089  0.02346  Biso   1.000  O
  O144     1.0000 0.51908  0.79981  0.57032  Biso   1.000  O
  O145     1.0000 0.54668  0.49316  0.22738  Biso   1.000  O
  O146     1.0000 0.22123  0.54565  0.51225  Biso   1.000  O
  O147     1.0000 0.51262  0.20978  0.55964  Biso   1.000  O
  O148     1.0000 0.04165  0.49107  0.31905  Biso   1.000  O
  O149     1.0000 0.72075  0.52271  0.01735  Biso   1.000  O
  O150     1.0000 0.00318  0.20565  0.98250  Biso   1.000  O
  O151     1.0000 0.97234  0.99317  0.23040  Biso   1.000  O
  O152     1.0000 0.30967  0.04420  0.52153  Biso   1.000  O
  O153     1.0000 0.01469  0.70958  0.56777  Biso   1.000  O
  O154     1.0000 0.47357  0.98872  0.32393  Biso   1.000  O
  O155     1.0000 0.80453  0.02525  0.01945  Biso   1.000  O
  O156     1.0000 0.53463  0.70154  0.98359  Biso   1.000  O
  O157     1.0000 0.47131  0.50777  0.81311  Biso   1.000  O
  O158     1.0000 0.80924  0.45252  0.53409  Biso   1.000  O
  O159     1.0000 0.50434  0.79619  0.48880  Biso   1.000  O
  O160     1.0000 0.97525  0.49701  0.72508  Biso   1.000  O
  O161     1.0000 0.30187  0.47437  0.02044  Biso   1.000  O
  O162     1.0000 0.02434  0.79694  0.06525  Biso   1.000  O
  O163     1.0000 0.05390  0.00604  0.82238  Biso   1.000  O
  O164     1.0000 0.72001  0.95647  0.51252  Biso   1.000  O
  O165     1.0000 0.02250  0.29088  0.48335  Biso   1.000  O
  O166     1.0000 0.55642  0.01277  0.72631  Biso   1.000  O
  O167     1.0000 0.21626  0.96687  0.03136  Biso   1.000  O
  O168     1.0000 0.50162  0.28721  0.06052  Biso   1.000  O
  O169     1.0000 0.01107  0.04038  0.22672  Biso   1.000  O
  O170     1.0000 0.21422  0.02109  0.06103  Biso   1.000  O
  O171     1.0000 0.04172  0.20284  0.02600  Biso   1.000  O
  O172     1.0000 0.51657  0.03194  0.31604  Biso   1.000  O
  O173     1.0000 0.72340  0.00451  0.47823  Biso   1.000  O
  O174     1.0000 0.55674  0.20935  0.51874  Biso   1.000  O
  O175     1.0000 0.50714  0.53708  0.22433  Biso   1.000  O
  O176     1.0000 0.30212  0.52134  0.05397  Biso   1.000  O
  O177     1.0000 0.48528  0.70635  0.01714  Biso   1.000  O
  O178     1.0000 0.01397  0.53875  0.32338  Biso   1.000  O
  O179     1.0000 0.80403  0.49139  0.48841  Biso   1.000  O
  O180     1.0000 0.96886  0.70665  0.52883  Biso   1.000  O
  O181     1.0000 0.01610  0.95566  0.82377  Biso   1.000  O
  O182     1.0000 0.80810  0.97799  0.98043  Biso   1.000  O
  O183     1.0000 0.98369  0.79333  0.01704  Biso   1.000  O
  O184     1.0000 0.52489  0.96657  0.72867  Biso   1.000  O
  O185     1.0000 0.31070  0.01072  0.56854  Biso   1.000  O
  O186     1.0000 0.47023  0.79551  0.53851  Biso   1.000  O
  O187     1.0000 0.51144  0.46384  0.81345  Biso   1.000  O
  O188     1.0000 0.71384  0.47836  0.98262  Biso   1.000  O
  O189     1.0000 0.53441  0.28801  0.00936  Biso   1.000  O
  O190     1.0000 0.01783  0.45891  0.72160  Biso   1.000  O
  O191     1.0000 0.22324  0.50383  0.55057  Biso   1.000  O
  O192     1.0000 0.05771  0.29117  0.52736  Biso   1.000  O
