data_image0
_cell_length_a       47.1475
_cell_length_b       46.7315
_cell_length_c       46.6227
_cell_angle_alpha    90
_cell_angle_beta     90
_cell_angle_gamma    90

_symmetry_space_group_name_H-M    "P 1"
_symmetry_int_tables_number       1

loop_
  _symmetry_equiv_pos_as_xyz
  'x, y, z'

loop_
  _atom_site_label
  _atom_site_occupancy
  _atom_site_fract_x
  _atom_site_fract_y
  _atom_site_fract_z
  _atom_site_thermal_displace_type
  _atom_site_B_iso_or_equiv
  _atom_site_type_symbol
  C1       1.0000 0.57232  0.96028  0.34163  Biso   1.000  C
  C2       1.0000 0.31961  0.51564  0.01008  Biso   1.000  C
  C3       1.0000 0.00285  0.28507  0.57095  Biso   1.000  C
  C4       1.0000 0.06865  0.96071  0.19618  Biso   1.000  C
  C5       1.0000 0.81641  0.51687  0.53450  Biso   1.000  C
  C6       1.0000 0.50544  0.28891  0.94785  Biso   1.000  C
  C7       1.0000 0.93427  0.46319  0.34257  Biso   1.000  C
  C8       1.0000 0.18087  0.01903  0.00770  Biso   1.000  C
  C9       1.0000 0.49842  0.78814  0.58088  Biso   1.000  C
  C10      1.0000 0.43718  0.45259  0.19395  Biso   1.000  C
  C11      1.0000 0.67697  0.02016  0.53199  Biso   1.000  C
  C12      1.0000 0.98388  0.77989  0.95956  Biso   1.000  C
  C13      1.0000 0.43113  0.97605  0.68899  Biso   1.000  C
  C14      1.0000 0.67703  0.41680  0.02118  Biso   1.000  C
  C15      1.0000 0.99838  0.64246  0.46033  Biso   1.000  C
  C16      1.0000 0.93397  0.95689  0.84422  Biso   1.000  C
  C17      1.0000 0.17801  0.41668  0.50564  Biso   1.000  C
  C18      1.0000 0.49958  0.64712  0.07784  Biso   1.000  C
  C19      1.0000 0.06213  0.45807  0.69124  Biso   1.000  C
  C20      1.0000 0.81604  0.91583  0.02526  Biso   1.000  C
  C21      1.0000 0.49381  0.14484  0.45035  Biso   1.000  C
  C22      1.0000 0.55864  0.46901  0.83448  Biso   1.000  C
  C23      1.0000 0.32398  0.92019  0.49166  Biso   1.000  C
  C24      1.0000 0.01113  0.14850  0.07826  Biso   1.000  C
  C25      1.0000 0.31880  0.02647  0.50372  Biso   1.000  C
  C26      1.0000 0.50809  0.28179  0.06056  Biso   1.000  C
  C27      1.0000 0.04371  0.46177  0.33153  Biso   1.000  C
  C28      1.0000 0.82030  0.02618  0.03038  Biso   1.000  C
  C29      1.0000 0.99030  0.28766  0.46387  Biso   1.000  C
  C30      1.0000 0.54510  0.46863  0.19646  Biso   1.000  C
  C31      1.0000 0.18176  0.52171  0.51090  Biso   1.000  C
  C32      1.0000 0.00085  0.78636  0.06777  Biso   1.000  C
  C33      1.0000 0.46574  0.97531  0.33046  Biso   1.000  C
  C34      1.0000 0.67608  0.52416  0.00944  Biso   1.000  C
  C35      1.0000 0.50338  0.78393  0.47019  Biso   1.000  C
  C36      1.0000 0.95959  0.96253  0.20256  Biso   1.000  C
  C37      1.0000 0.68475  0.91107  0.53186  Biso   1.000  C
  C38      1.0000 0.49369  0.65070  0.97113  Biso   1.000  C
  C39      1.0000 0.95404  0.47053  0.69563  Biso   1.000  C
  C40      1.0000 0.17857  0.90830  0.99930  Biso   1.000  C
  C41      1.0000 0.00566  0.64398  0.56869  Biso   1.000  C
  C42      1.0000 0.44984  0.47324  0.83375  Biso   1.000  C
  C43      1.0000 0.81466  0.40704  0.52403  Biso   1.000  C
  C44      1.0000 0.98961  0.14716  0.97028  Biso   1.000  C
  C45      1.0000 0.54126  0.97113  0.70252  Biso   1.000  C
  C46      1.0000 0.32100  0.40469  0.01694  Biso   1.000  C
  C47      1.0000 0.50312  0.15386  0.56012  Biso   1.000  C
  C48      1.0000 0.04191  0.97076  0.83886  Biso   1.000  C
  C49      1.0000 0.97934  0.02227  0.84296  Biso   1.000  C
  C50      1.0000 0.82814  0.96157  0.08305  Biso   1.000  C
  C51      1.0000 0.04644  0.78199  0.00213  Biso   1.000  C
  C52      1.0000 0.48925  0.02886  0.68892  Biso   1.000  C
  C53      1.0000 0.32893  0.98168  0.44581  Biso   1.000  C
  C54      1.0000 0.55517  0.78705  0.53443  Biso   1.000  C
  C55      1.0000 0.50862  0.52841  0.84020  Biso   1.000  C
  C56      1.0000 0.67520  0.47814  0.07402  Biso   1.000  C
  C57      1.0000 0.44928  0.28208  0.00535  Biso   1.000  C
  C58      1.0000 0.01470  0.51791  0.69588  Biso   1.000  C
  C59      1.0000 0.17488  0.47407  0.45372  Biso   1.000  C
  C60      1.0000 0.94009  0.28274  0.52555  Biso   1.000  C
  C61      1.0000 0.01336  0.90730  0.19646  Biso   1.000  C
  C62      1.0000 0.18338  0.96153  0.94804  Biso   1.000  C
  C63      1.0000 0.94729  0.14923  0.03113  Biso   1.000  C
  C64      1.0000 0.51076  0.91124  0.33898  Biso   1.000  C
  C65      1.0000 0.67596  0.97294  0.58686  Biso   1.000  C
  C66      1.0000 0.44459  0.15295  0.50907  Biso   1.000  C
  C67      1.0000 0.50108  0.40606  0.19162  Biso   1.000  C
  C68      1.0000 0.32062  0.45883  0.95901  Biso   1.000  C
  C69      1.0000 0.54987  0.64771  0.02078  Biso   1.000  C
  C70      1.0000 0.98819  0.40821  0.33503  Biso   1.000  C
  C71      1.0000 0.81791  0.45126  0.58152  Biso   1.000  C
  C72      1.0000 0.05827  0.64887  0.51121  Biso   1.000  C
  C73      1.0000 0.98252  0.51528  0.33645  Biso   1.000  C
  C74      1.0000 0.31471  0.96663  0.55167  Biso   1.000  C
  C75      1.0000 0.55941  0.28518  0.99989  Biso   1.000  C
  C76      1.0000 0.48777  0.51546  0.19850  Biso   1.000  C
  C77      1.0000 0.81489  0.96947  0.97730  Biso   1.000  C
  C78      1.0000 0.04932  0.28906  0.51118  Biso   1.000  C
  C79      1.0000 0.52775  0.01722  0.33351  Biso   1.000  C
  C80      1.0000 0.18746  0.46385  0.56231  Biso   1.000  C
  C81      1.0000 0.93937  0.79059  0.02032  Biso   1.000  C
  C82      1.0000 0.01349  0.01789  0.20414  Biso   1.000  C
  C83      1.0000 0.67672  0.46381  0.96524  Biso   1.000  C
  C84      1.0000 0.44701  0.78995  0.52088  Biso   1.000  C
  C85      1.0000 0.00269  0.41022  0.69281  Biso   1.000  C
  C86      1.0000 0.68653  0.96264  0.47919  Biso   1.000  C
  C87      1.0000 0.44073  0.64721  0.02715  Biso   1.000  C
  C88      1.0000 0.50218  0.42033  0.83121  Biso   1.000  C
  C89      1.0000 0.18219  0.96337  0.05701  Biso   1.000  C
  C90      1.0000 0.94752  0.63984  0.51371  Biso   1.000  C
  C91      1.0000 0.48786  0.92113  0.70254  Biso   1.000  C
  C92      1.0000 0.81329  0.46890  0.47464  Biso   1.000  C
  C93      1.0000 0.05554  0.14322  0.01492  Biso   1.000  C
  C94      1.0000 0.99368  0.91081  0.84056  Biso   1.000  C
  C95      1.0000 0.31876  0.46594  0.06686  Biso   1.000  C
  C96      1.0000 0.55101  0.14612  0.50835  Biso   1.000  C
  C97      1.0000 0.67644  0.05253  0.53583  Biso   1.000  C
  C98      1.0000 0.50130  0.64670  0.10996  Biso   1.000  C
  C99      1.0000 0.09385  0.44948  0.69031  Biso   1.000  C
  C100     1.0000 0.18190  0.05177  0.01478  Biso   1.000  C
  C101     1.0000 0.99707  0.64258  0.42843  Biso   1.000  C
  C102     1.0000 0.59020  0.46956  0.83545  Biso   1.000  C
  C103     1.0000 0.81748  0.54878  0.53348  Biso   1.000  C
  C104     1.0000 0.01118  0.14661  0.11004  Biso   1.000  C
  C105     1.0000 0.39920  0.97325  0.68510  Biso   1.000  C
  C106     1.0000 0.31698  0.54729  0.01090  Biso   1.000  C
  C107     1.0000 0.49544  0.14577  0.41827  Biso   1.000  C
  C108     1.0000 0.90184  0.95755  0.84464  Biso   1.000  C
  C109     1.0000 0.32482  0.88729  0.48771  Biso   1.000  C
  C110     1.0000 0.50877  0.29037  0.91688  Biso   1.000  C
  C111     1.0000 0.90102  0.46330  0.34312  Biso   1.000  C
  C112     1.0000 0.81490  0.88443  0.02437  Biso   1.000  C
  C113     1.0000 0.00763  0.28475  0.60144  Biso   1.000  C
  C114     1.0000 0.40546  0.45275  0.19291  Biso   1.000  C
  C115     1.0000 0.17575  0.38432  0.50604  Biso   1.000  C
  C116     1.0000 0.97952  0.78034  0.92668  Biso   1.000  C
  C117     1.0000 0.60478  0.96191  0.34636  Biso   1.000  C
  C118     1.0000 0.67854  0.38531  0.01108  Biso   1.000  C
  C119     1.0000 0.50304  0.78880  0.61213  Biso   1.000  C
  C120     1.0000 0.10073  0.96403  0.19353  Biso   1.000  C
  C121     1.0000 0.82867  0.95896  0.11450  Biso   1.000  C
  C122     1.0000 0.08026  0.78062  0.00467  Biso   1.000  C
  C123     1.0000 0.97282  0.05400  0.84448  Biso   1.000  C
  C124     1.0000 0.33108  0.98307  0.41401  Biso   1.000  C
  C125     1.0000 0.58802  0.78717  0.54083  Biso   1.000  C
  C126     1.0000 0.49520  0.06063  0.68768  Biso   1.000  C
  C127     1.0000 0.67703  0.47807  0.10587  Biso   1.000  C
  C128     1.0000 0.41618  0.27884  0.00806  Biso   1.000  C
  C129     1.0000 0.50683  0.56042  0.84303  Biso   1.000  C
  C130     1.0000 0.17286  0.47657  0.42152  Biso   1.000  C
  C131     1.0000 0.90815  0.28149  0.53197  Biso   1.000  C
  C132     1.0000 0.01689  0.55082  0.69379  Biso   1.000  C
  C133     1.0000 0.17929  0.95891  0.91530  Biso   1.000  C
  C134     1.0000 0.91713  0.14808  0.02313  Biso   1.000  C
  C135     1.0000 0.00800  0.87555  0.19662  Biso   1.000  C
  C136     1.0000 0.67479  0.97791  0.61865  Biso   1.000  C
  C137     1.0000 0.41356  0.15449  0.50497  Biso   1.000  C
  C138     1.0000 0.50389  0.88025  0.34018  Biso   1.000  C
  C139     1.0000 0.31979  0.46546  0.92791  Biso   1.000  C
  C140     1.0000 0.58232  0.64897  0.01851  Biso   1.000  C
  C141     1.0000 0.50406  0.37450  0.18784  Biso   1.000  C
  C142     1.0000 0.81818  0.45205  0.61341  Biso   1.000  C
  C143     1.0000 0.09038  0.64842  0.50912  Biso   1.000  C
  C144     1.0000 0.98334  0.37695  0.33666  Biso   1.000  C
  C145     1.0000 0.31628  0.46969  0.09790  Biso   1.000  C
  C146     1.0000 0.08117  0.28825  0.51231  Biso   1.000  C
  C147     1.0000 0.53125  0.04836  0.33085  Biso   1.000  C
  C148     1.0000 0.81243  0.47135  0.44227  Biso   1.000  C
  C149     1.0000 0.59137  0.28770  0.99302  Biso   1.000  C
  C150     1.0000 0.00663  0.04955  0.20508  Biso   1.000  C
  C151     1.0000 0.18755  0.96787  0.08821  Biso   1.000  C
  C152     1.0000 0.41609  0.79126  0.51835  Biso   1.000  C
  C153     1.0000 0.97938  0.54764  0.33650  Biso   1.000  C
  C154     1.0000 0.68997  0.96430  0.44745  Biso   1.000  C
  C155     1.0000 0.90787  0.78874  0.02499  Biso   1.000  C
  C156     1.0000 0.49247  0.54736  0.20064  Biso   1.000  C
  C157     1.0000 0.67823  0.46258  0.93318  Biso   1.000  C
  C158     1.0000 0.91474  0.63952  0.51234  Biso   1.000  C
  C159     1.0000 0.49760  0.89009  0.70531  Biso   1.000  C
  C160     1.0000 0.18842  0.45972  0.59457  Biso   1.000  C
  C161     1.0000 0.40917  0.64448  0.02274  Biso   1.000  C
  C162     1.0000 0.99557  0.87880  0.83836  Biso   1.000  C
  C163     1.0000 0.81372  0.96025  0.94676  Biso   1.000  C
  C164     1.0000 0.58215  0.14570  0.51524  Biso   1.000  C
  C165     1.0000 0.00126  0.37873  0.69246  Biso   1.000  C
  C166     1.0000 0.31150  0.96884  0.58325  Biso   1.000  C
  C167     1.0000 0.08742  0.14411  0.01067  Biso   1.000  C
  C168     1.0000 0.49711  0.39031  0.82905  Biso   1.000  C
  C169     1.0000 0.00347  0.78535  0.09945  Biso   1.000  C
  C170     1.0000 0.07279  0.96564  0.83622  Biso   1.000  C
  C171     1.0000 0.82011  0.05770  0.02997  Biso   1.000  C
  C172     1.0000 0.50246  0.78393  0.43772  Biso   1.000  C
  C173     1.0000 0.57348  0.97098  0.70530  Biso   1.000  C
  C174     1.0000 0.32206  0.05840  0.50692  Biso   1.000  C
  C175     1.0000 0.51200  0.28181  0.09115  Biso   1.000  C
  C176     1.0000 0.41810  0.46578  0.83352  Biso   1.000  C
  C177     1.0000 0.67737  0.55547  0.00885  Biso   1.000  C
  C178     1.0000 0.99296  0.28541  0.43226  Biso   1.000  C
  C179     1.0000 0.92083  0.47028  0.69793  Biso   1.000  C
  C180     1.0000 0.18253  0.55388  0.50786  Biso   1.000  C
  C181     1.0000 0.98908  0.14738  0.93708  Biso   1.000  C
  C182     1.0000 0.92765  0.95857  0.20553  Biso   1.000  C
  C183     1.0000 0.17753  0.87644  0.99957  Biso   1.000  C
  C184     1.0000 0.51250  0.15323  0.59110  Biso   1.000  C
  C185     1.0000 0.43325  0.97860  0.32664  Biso   1.000  C
  C186     1.0000 0.68444  0.87902  0.53290  Biso   1.000  C
  C187     1.0000 0.48789  0.65247  0.93967  Biso   1.000  C
  C188     1.0000 0.57592  0.47509  0.19652  Biso   1.000  C
  C189     1.0000 0.32083  0.37270  0.02278  Biso   1.000  C
  C190     1.0000 0.00824  0.64520  0.59922  Biso   1.000  C
  C191     1.0000 0.07598  0.46179  0.33045  Biso   1.000  C
  C192     1.0000 0.81339  0.37516  0.52188  Biso   1.000  C
  C193     1.0000 0.83934  0.95976  0.92902  Biso   1.000  C
  C194     1.0000 0.89120  0.81654  0.02559  Biso   1.000  C
  C195     1.0000 0.98780  0.86191  0.86329  Biso   1.000  C
  C196     1.0000 0.33864  0.96810  0.60075  Biso   1.000  C
  C197     1.0000 0.39842  0.81816  0.51394  Biso   1.000  C
  C198     1.0000 0.49693  0.87208  0.67923  Biso   1.000  C
  C199     1.0000 0.65363  0.46282  0.91448  Biso   1.000  C
  C200     1.0000 0.60326  0.31603  0.99409  Biso   1.000  C
  C201     1.0000 0.50138  0.37148  0.85427  Biso   1.000  C
  C202     1.0000 0.16187  0.45725  0.61111  Biso   1.000  C
  C203     1.0000 0.09478  0.31631  0.51355  Biso   1.000  C
  C204     1.0000 0.00449  0.36108  0.66652  Biso   1.000  C
  C205     1.0000 0.16195  0.96985  0.10807  Biso   1.000  C
  C206     1.0000 0.10373  0.11789  0.00777  Biso   1.000  C
  C207     1.0000 0.00619  0.06521  0.17749  Biso   1.000  C
  C208     1.0000 0.66470  0.96053  0.42852  Biso   1.000  C
  C209     1.0000 0.59748  0.11836  0.52148  Biso   1.000  C
  C210     1.0000 0.52450  0.06617  0.35718  Biso   1.000  C
  C211     1.0000 0.34160  0.46985  0.11525  Biso   1.000  C
  C212     1.0000 0.39355  0.61689  0.02320  Biso   1.000  C
  C213     1.0000 0.49623  0.56420  0.17414  Biso   1.000  C
  C214     1.0000 0.83793  0.46912  0.42391  Biso   1.000  C
  C215     1.0000 0.89992  0.61152  0.51677  Biso   1.000  C
  C216     1.0000 0.98339  0.56500  0.36341  Biso   1.000  C
  C217     1.0000 0.09217  0.96156  0.85900  Biso   1.000  C
  C218     1.0000 0.84782  0.07334  0.02890  Biso   1.000  C
  C219     1.0000 0.00753  0.81159  0.11640  Biso   1.000  C
  C220     1.0000 0.59313  0.97694  0.68007  Biso   1.000  C
  C221     1.0000 0.34804  0.07465  0.50416  Biso   1.000  C
  C222     1.0000 0.50536  0.81057  0.42033  Biso   1.000  C
  C223     1.0000 0.40061  0.46638  0.85904  Biso   1.000  C
  C224     1.0000 0.64979  0.57195  0.01128  Biso   1.000  C
  C225     1.0000 0.50814  0.30845  0.10771  Biso   1.000  C
  C226     1.0000 0.90251  0.46401  0.67414  Biso   1.000  C
  C227     1.0000 0.15483  0.56952  0.51066  Biso   1.000  C
  C228     1.0000 0.99007  0.31103  0.41445  Biso   1.000  C
  C229     1.0000 0.91052  0.95593  0.17975  Biso   1.000  C
  C230     1.0000 0.14985  0.86085  0.00201  Biso   1.000  C
  C231     1.0000 0.98372  0.12111  0.91979  Biso   1.000  C
  C232     1.0000 0.41591  0.97907  0.35387  Biso   1.000  C
  C233     1.0000 0.65711  0.86409  0.53573  Biso   1.000  C
  C234     1.0000 0.51107  0.12565  0.60723  Biso   1.000  C
  C235     1.0000 0.59409  0.47599  0.16976  Biso   1.000  C
  C236     1.0000 0.34710  0.35711  0.01590  Biso   1.000  C
  C237     1.0000 0.48812  0.62520  0.92348  Biso   1.000  C
  C238     1.0000 0.09141  0.46447  0.35867  Biso   1.000  C
  C239     1.0000 0.84061  0.35996  0.52310  Biso   1.000  C
  C240     1.0000 0.00752  0.61796  0.61593  Biso   1.000  C
  C241     1.0000 0.60576  0.46490  0.86355  Biso   1.000  C
  C242     1.0000 0.84580  0.56117  0.52986  Biso   1.000  C
  C243     1.0000 0.49959  0.81631  0.62721  Biso   1.000  C
  C244     1.0000 0.10832  0.45130  0.66317  Biso   1.000  C
  C245     1.0000 0.34369  0.56386  0.01584  Biso   1.000  C
  C246     1.0000 0.98495  0.80874  0.91255  Biso   1.000  C
  C247     1.0000 0.88721  0.95780  0.87219  Biso   1.000  C
  C248     1.0000 0.65061  0.06867  0.52963  Biso   1.000  C
  C249     1.0000 0.00494  0.31186  0.61748  Biso   1.000  C
  C250     1.0000 0.38556  0.97167  0.65668  Biso   1.000  C
  C251     1.0000 0.15479  0.06891  0.00918  Biso   1.000  C
  C252     1.0000 0.50502  0.31824  0.90283  Biso   1.000  C
  C253     1.0000 0.38979  0.45596  0.16654  Biso   1.000  C
  C254     1.0000 0.14869  0.36829  0.51006  Biso   1.000  C
  C255     1.0000 0.50158  0.11886  0.40373  Biso   1.000  C
  C256     1.0000 0.88487  0.46347  0.37033  Biso   1.000  C
  C257     1.0000 0.65188  0.36878  0.00935  Biso   1.000  C
  C258     1.0000 0.00773  0.11864  0.12554  Biso   1.000  C
  C259     1.0000 0.11394  0.96650  0.16590  Biso   1.000  C
  C260     1.0000 0.35126  0.86982  0.49595  Biso   1.000  C
  C261     1.0000 0.99632  0.61525  0.41322  Biso   1.000  C
  C262     1.0000 0.61804  0.96312  0.37382  Biso   1.000  C
  C263     1.0000 0.84082  0.86735  0.02346  Biso   1.000  C
  C264     1.0000 0.50036  0.61879  0.12483  Biso   1.000  C
  C265     1.0000 0.97387  0.07072  0.87133  Biso   1.000  C
  C266     1.0000 0.85656  0.95726  0.13050  Biso   1.000  C
  C267     1.0000 0.09634  0.80798  0.00637  Biso   1.000  C
  C268     1.0000 0.50169  0.07444  0.66015  Biso   1.000  C
  C269     1.0000 0.35977  0.98045  0.40129  Biso   1.000  C
  C270     1.0000 0.60474  0.81390  0.53987  Biso   1.000  C
  C271     1.0000 0.50401  0.57571  0.87039  Biso   1.000  C
  C272     1.0000 0.64868  0.47913  0.12161  Biso   1.000  C
  C273     1.0000 0.39949  0.30535  0.01146  Biso   1.000  C
  C274     1.0000 0.01627  0.56500  0.66642  Biso   1.000  C
  C275     1.0000 0.14476  0.47415  0.40655  Biso   1.000  C
  C276     1.0000 0.89200  0.30761  0.52795  Biso   1.000  C
  C277     1.0000 0.00814  0.85963  0.16845  Biso   1.000  C
  C278     1.0000 0.15082  0.95851  0.90299  Biso   1.000  C
  C279     1.0000 0.89995  0.12157  0.02504  Biso   1.000  C
  C280     1.0000 0.50459  0.86462  0.36786  Biso   1.000  C
  C281     1.0000 0.64753  0.98040  0.63346  Biso   1.000  C
  C282     1.0000 0.39709  0.12821  0.50267  Biso   1.000  C
  C283     1.0000 0.50097  0.35847  0.15938  Biso   1.000  C
  C284     1.0000 0.34607  0.46672  0.91029  Biso   1.000  C
  C285     1.0000 0.59889  0.62293  0.01434  Biso   1.000  C
  C286     1.0000 0.98606  0.36175  0.36319  Biso   1.000  C
  C287     1.0000 0.84640  0.45469  0.62660  Biso   1.000  C
  C288     1.0000 0.10664  0.62208  0.51063  Biso   1.000  C
  C289     1.0000 0.34795  0.83777  0.49779  Biso   1.000  C
  C290     1.0000 0.50162  0.31693  0.87143  Biso   1.000  C
  C291     1.0000 0.85389  0.46947  0.36911  Biso   1.000  C
  C292     1.0000 0.83827  0.83629  0.02624  Biso   1.000  C
  C293     1.0000 0.00238  0.30915  0.64853  Biso   1.000  C
  C294     1.0000 0.35857  0.45603  0.16707  Biso   1.000  C
  C295     1.0000 0.14880  0.33753  0.51114  Biso   1.000  C
  C296     1.0000 0.98591  0.80790  0.88158  Biso   1.000  C
  C297     1.0000 0.64928  0.96524  0.37484  Biso   1.000  C
  C298     1.0000 0.65416  0.33796  0.00204  Biso   1.000  C
  C299     1.0000 0.50119  0.81876  0.65935  Biso   1.000  C
  C300     1.0000 0.14549  0.97046  0.16281  Biso   1.000  C
  C301     1.0000 0.65140  0.10089  0.53106  Biso   1.000  C
  C302     1.0000 0.50057  0.61732  0.15615  Biso   1.000  C
  C303     1.0000 0.14046  0.45093  0.66369  Biso   1.000  C
  C304     1.0000 0.15565  0.09979  0.01428  Biso   1.000  C
  C305     1.0000 0.99422  0.61745  0.38237  Biso   1.000  C
  C306     1.0000 0.63713  0.46723  0.86162  Biso   1.000  C
  C307     1.0000 0.84569  0.59210  0.52459  Biso   1.000  C
  C308     1.0000 0.00378  0.11774  0.15669  Biso   1.000  C
  C309     1.0000 0.35446  0.96950  0.65546  Biso   1.000  C
  C310     1.0000 0.34167  0.59469  0.01524  Biso   1.000  C
  C311     1.0000 0.50716  0.11889  0.37242  Biso   1.000  C
  C312     1.0000 0.85600  0.95679  0.87298  Biso   1.000  C
  C313     1.0000 0.14441  0.47029  0.37548  Biso   1.000  C
  C314     1.0000 0.36567  0.12835  0.50267  Biso   1.000  C
  C315     1.0000 0.50801  0.32780  0.15982  Biso   1.000  C
  C316     1.0000 0.64822  0.48041  0.15218  Biso   1.000  C
  C317     1.0000 0.86875  0.12546  0.02488  Biso   1.000  C
  C318     1.0000 0.98885  0.33077  0.36231  Biso   1.000  C
  C319     1.0000 0.36115  0.98018  0.36987  Biso   1.000  C
  C320     1.0000 0.13765  0.62335  0.50921  Biso   1.000  C
  C321     1.0000 0.00521  0.82904  0.16934  Biso   1.000  C
  C322     1.0000 0.85688  0.95791  0.16235  Biso   1.000  C
  C323     1.0000 0.63029  0.62416  0.01352  Biso   1.000  C
  C324     1.0000 0.50535  0.83225  0.36685  Biso   1.000  C
  C325     1.0000 0.84836  0.46176  0.65669  Biso   1.000  C
  C326     1.0000 0.63677  0.81126  0.54161  Biso   1.000  C
  C327     1.0000 0.50120  0.60663  0.87096  Biso   1.000  C
  C328     1.0000 0.34605  0.46484  0.87968  Biso   1.000  C
  C329     1.0000 0.12798  0.80606  0.00311  Biso   1.000  C
  C330     1.0000 0.01356  0.59728  0.66730  Biso   1.000  C
  C331     1.0000 0.64778  0.97768  0.66527  Biso   1.000  C
  C332     1.0000 0.86127  0.30635  0.52843  Biso   1.000  C
  C333     1.0000 0.97549  0.10221  0.86797  Biso   1.000  C
  C334     1.0000 0.14746  0.96131  0.87186  Biso   1.000  C
  C335     1.0000 0.36798  0.30313  0.01492  Biso   1.000  C
  C336     1.0000 0.50496  0.10490  0.66072  Biso   1.000  C
  C337     1.0000 0.65651  0.46683  0.88445  Biso   1.000  C
  C338     1.0000 0.86816  0.61197  0.51875  Biso   1.000  C
  C339     1.0000 0.49931  0.84078  0.68049  Biso   1.000  C
  C340     1.0000 0.16294  0.45495  0.64265  Biso   1.000  C
  C341     1.0000 0.36185  0.61665  0.01858  Biso   1.000  C
  C342     1.0000 0.98798  0.83100  0.86048  Biso   1.000  C
  C343     1.0000 0.83737  0.95598  0.89705  Biso   1.000  C
  C344     1.0000 0.62912  0.12161  0.52607  Biso   1.000  C
  C345     1.0000 0.00256  0.33042  0.66932  Biso   1.000  C
  C346     1.0000 0.33546  0.96759  0.63170  Biso   1.000  C
  C347     1.0000 0.13336  0.12042  0.01303  Biso   1.000  C
  C348     1.0000 0.50002  0.34011  0.85121  Biso   1.000  C
  C349     1.0000 0.33815  0.46264  0.14542  Biso   1.000  C
  C350     1.0000 0.12677  0.31578  0.51155  Biso   1.000  C
  C351     1.0000 0.51604  0.09635  0.35297  Biso   1.000  C
  C352     1.0000 0.83379  0.47049  0.39188  Biso   1.000  C
  C353     1.0000 0.63449  0.31519  0.99772  Biso   1.000  C
  C354     1.0000 0.00369  0.09578  0.17859  Biso   1.000  C
  C355     1.0000 0.16476  0.97151  0.13862  Biso   1.000  C
  C356     1.0000 0.36904  0.81591  0.50558  Biso   1.000  C
  C357     1.0000 0.98884  0.59617  0.36103  Biso   1.000  C
  C358     1.0000 0.66898  0.96430  0.39739  Biso   1.000  C
  C359     1.0000 0.86021  0.81517  0.02562  Biso   1.000  C
  C360     1.0000 0.49977  0.59648  0.17758  Biso   1.000  C
  C361     1.0000 0.97962  0.12317  0.88904  Biso   1.000  C
  C362     1.0000 0.87895  0.95882  0.18226  Biso   1.000  C
  C363     1.0000 0.15008  0.82832  0.00172  Biso   1.000  C
  C364     1.0000 0.51082  0.12621  0.63923  Biso   1.000  C
  C365     1.0000 0.38430  0.97930  0.34917  Biso   1.000  C
  C366     1.0000 0.65905  0.83250  0.53929  Biso   1.000  C
  C367     1.0000 0.49331  0.62731  0.89256  Biso   1.000  C
  C368     1.0000 0.62488  0.47793  0.17189  Biso   1.000  C
  C369     1.0000 0.34623  0.32477  0.01627  Biso   1.000  C
  C370     1.0000 0.01079  0.61952  0.64605  Biso   1.000  C
  C371     1.0000 0.12263  0.46701  0.35572  Biso   1.000  C
  C372     1.0000 0.84011  0.32777  0.52590  Biso   1.000  C
  C373     1.0000 0.00475  0.80824  0.14770  Biso   1.000  C
  C374     1.0000 0.12337  0.96143  0.85331  Biso   1.000  C
  C375     1.0000 0.84654  0.10441  0.02591  Biso   1.000  C
  C376     1.0000 0.50480  0.80968  0.38910  Biso   1.000  C
  C377     1.0000 0.62450  0.97511  0.68506  Biso   1.000  C
  C378     1.0000 0.34613  0.10614  0.50469  Biso   1.000  C
  C379     1.0000 0.51144  0.30644  0.13862  Biso   1.000  C
  C380     1.0000 0.36858  0.46504  0.85912  Biso   1.000  C
  C381     1.0000 0.65082  0.60166  0.01304  Biso   1.000  C
  C382     1.0000 0.99100  0.31021  0.38367  Biso   1.000  C
  C383     1.0000 0.87102  0.46556  0.67654  Biso   1.000  C
  C384     1.0000 0.15706  0.60046  0.51046  Biso   1.000  C
  C385     1.0000 0.18089  0.11455  0.02244  Biso   1.000  C
  C386     1.0000 0.00097  0.14585  0.17168  Biso   1.000  C
  C387     1.0000 0.16330  0.97228  0.18845  Biso   1.000  C
  C388     1.0000 0.67781  0.11672  0.53720  Biso   1.000  C
  C389     1.0000 0.50422  0.14494  0.35419  Biso   1.000  C
  C390     1.0000 0.66720  0.96613  0.34997  Biso   1.000  C
  C391     1.0000 0.31508  0.60935  0.00903  Biso   1.000  C
  C392     1.0000 0.50168  0.64330  0.17292  Biso   1.000  C
  C393     1.0000 0.34140  0.45075  0.19258  Biso   1.000  C
  C394     1.0000 0.82025  0.60905  0.52884  Biso   1.000  C
  C395     1.0000 0.99368  0.64481  0.36772  Biso   1.000  C
  C396     1.0000 0.83751  0.47212  0.34276  Biso   1.000  C
  C397     1.0000 0.81137  0.82077  0.02697  Biso   1.000  C
  C398     1.0000 0.98255  0.78265  0.86473  Biso   1.000  C
  C399     1.0000 0.83908  0.95328  0.84738  Biso   1.000  C
  C400     1.0000 0.32199  0.82213  0.49131  Biso   1.000  C
  C401     1.0000 0.50552  0.79317  0.67643  Biso   1.000  C
  C402     1.0000 0.33605  0.96924  0.68046  Biso   1.000  C
  C403     1.0000 0.68233  0.32348  0.00273  Biso   1.000  C
  C404     1.0000 0.50140  0.29142  0.85420  Biso   1.000  C
  C405     1.0000 0.65333  0.47431  0.83725  Biso   1.000  C
  C406     1.0000 0.17623  0.32222  0.50966  Biso   1.000  C
  C407     1.0000 0.99810  0.28251  0.66401  Biso   1.000  C
  C408     1.0000 0.15508  0.44706  0.69033  Biso   1.000  C
  C409     1.0000 0.13552  0.96371  0.82531  Biso   1.000  C
  C410     1.0000 0.82007  0.12122  0.02191  Biso   1.000  C
  C411     1.0000 0.00128  0.78201  0.16254  Biso   1.000  C
  C412     1.0000 0.63772  0.97171  0.71222  Biso   1.000  C
  C413     1.0000 0.31853  0.12077  0.50763  Biso   1.000  C
  C414     1.0000 0.50180  0.78313  0.37348  Biso   1.000  C
  C415     1.0000 0.35298  0.46095  0.83191  Biso   1.000  C
  C416     1.0000 0.67803  0.61683  0.01098  Biso   1.000  C
  C417     1.0000 0.51640  0.28001  0.15321  Biso   1.000  C
  C418     1.0000 0.85706  0.47239  0.70405  Biso   1.000  C
  C419     1.0000 0.18565  0.61634  0.50776  Biso   1.000  C
  C420     1.0000 0.99482  0.28376  0.36896  Biso   1.000  C
  C421     1.0000 0.86456  0.96134  0.20971  Biso   1.000  C
  C422     1.0000 0.17646  0.81174  0.99999  Biso   1.000  C
  C423     1.0000 0.98148  0.15074  0.87466  Biso   1.000  C
  C424     1.0000 0.37051  0.98316  0.32147  Biso   1.000  C
  C425     1.0000 0.68518  0.81534  0.53923  Biso   1.000  C
  C426     1.0000 0.51207  0.15410  0.65426  Biso   1.000  C
  C427     1.0000 0.64011  0.47985  0.19907  Biso   1.000  C
  C428     1.0000 0.32006  0.30974  0.02157  Biso   1.000  C
  C429     1.0000 0.49506  0.65445  0.87800  Biso   1.000  C
  C430     1.0000 0.13716  0.46499  0.32779  Biso   1.000  C
  C431     1.0000 0.81316  0.31141  0.52798  Biso   1.000  C
  C432     1.0000 0.01152  0.64561  0.66178  Biso   1.000  C
  C433     1.0000 0.97664  0.11774  0.84119  Biso   1.000  C
  C434     1.0000 0.82971  0.96159  0.17919  Biso   1.000  C
  C435     1.0000 0.14197  0.77905  0.00053  Biso   1.000  C
  C436     1.0000 0.50356  0.12184  0.68692  Biso   1.000  C
  C437     1.0000 0.33666  0.98429  0.35228  Biso   1.000  C
  C438     1.0000 0.65187  0.78433  0.54398  Biso   1.000  C
  C439     1.0000 0.50367  0.62301  0.84430  Biso   1.000  C
  C440     1.0000 0.67350  0.48051  0.16847  Biso   1.000  C
  C441     1.0000 0.35235  0.27621  0.01407  Biso   1.000  C
  C442     1.0000 0.01421  0.61285  0.69320  Biso   1.000  C
  C443     1.0000 0.17120  0.47014  0.35854  Biso   1.000  C
  C444     1.0000 0.84588  0.27976  0.53364  Biso   1.000  C
  C445     1.0000 0.00303  0.81252  0.19651  Biso   1.000  C
  C446     1.0000 0.17160  0.96444  0.85318  Biso   1.000  C
  C447     1.0000 0.85469  0.15243  0.01990  Biso   1.000  C
  C448     1.0000 0.50369  0.81625  0.33943  Biso   1.000  C
  C449     1.0000 0.67356  0.97372  0.68345  Biso   1.000  C
  C450     1.0000 0.35020  0.15479  0.50613  Biso   1.000  C
  C451     1.0000 0.51230  0.31241  0.18660  Biso   1.000  C
  C452     1.0000 0.31865  0.46082  0.86439  Biso   1.000  C
  C453     1.0000 0.64573  0.64952  0.01884  Biso   1.000  C
  C454     1.0000 0.99024  0.31420  0.33582  Biso   1.000  C
  C455     1.0000 0.82157  0.46548  0.67383  Biso   1.000  C
  C456     1.0000 0.15308  0.65034  0.50610  Biso   1.000  C
  C457     1.0000 0.98472  0.61196  0.33468  Biso   1.000  C
  C458     1.0000 0.30833  0.96620  0.64582  Biso   1.000  C
  C459     1.0000 0.65234  0.28931  0.99671  Biso   1.000  C
  C460     1.0000 0.49771  0.61117  0.20499  Biso   1.000  C
  C461     1.0000 0.80908  0.95314  0.88360  Biso   1.000  C
  C462     1.0000 0.14311  0.28862  0.51106  Biso   1.000  C
  C463     1.0000 0.51797  0.11049  0.32493  Biso   1.000  C
  C464     1.0000 0.18917  0.45282  0.65807  Biso   1.000  C
  C465     1.0000 0.84508  0.78768  0.02917  Biso   1.000  C
  C466     1.0000 0.99893  0.11250  0.20509  Biso   1.000  C
  C467     1.0000 0.68449  0.47076  0.87186  Biso   1.000  C
  C468     1.0000 0.35412  0.78953  0.50255  Biso   1.000  C
  C469     1.0000 0.99759  0.31528  0.69677  Biso   1.000  C
  C470     1.0000 0.69659  0.96620  0.38498  Biso   1.000  C
  C471     1.0000 0.34570  0.64354  0.01353  Biso   1.000  C
  C472     1.0000 0.49808  0.32616  0.82349  Biso   1.000  C
  C473     1.0000 0.19300  0.97268  0.15122  Biso   1.000  C
  C474     1.0000 0.85267  0.63989  0.51791  Biso   1.000  C
  C475     1.0000 0.50411  0.82589  0.70689  Biso   1.000  C
  C476     1.0000 0.80653  0.47326  0.37748  Biso   1.000  C
  C477     1.0000 0.14788  0.14691  0.01942  Biso   1.000  C
  C478     1.0000 0.99179  0.81555  0.83391  Biso   1.000  C
  C479     1.0000 0.31027  0.45916  0.16013  Biso   1.000  C
  C480     1.0000 0.64372  0.14899  0.52902  Biso   1.000  C
  C481     1.0000 0.37029  0.76313  0.51164  Biso   1.000  C
  C482     1.0000 0.49294  0.34664  0.79794  Biso   1.000  C
  C483     1.0000 0.78253  0.47574  0.39713  Biso   1.000  C
  C484     1.0000 0.86217  0.76131  0.03082  Biso   1.000  C
  C485     1.0000 0.99220  0.33309  0.72159  Biso   1.000  C
  C486     1.0000 0.28383  0.46386  0.14422  Biso   1.000  C
  C487     1.0000 0.12812  0.26022  0.51398  Biso   1.000  C
  C488     1.0000 0.00028  0.83342  0.80858  Biso   1.000  C
  C489     1.0000 0.72231  0.96841  0.40414  Biso   1.000  C
  C490     1.0000 0.63895  0.26058  0.99177  Biso   1.000  C
  C491     1.0000 0.50639  0.84252  0.73218  Biso   1.000  C
  C492     1.0000 0.21843  0.96981  0.13150  Biso   1.000  C
  C493     1.0000 0.62647  0.17629  0.52548  Biso   1.000  C
  C494     1.0000 0.49732  0.59254  0.23036  Biso   1.000  C
  C495     1.0000 0.21598  0.45743  0.64340  Biso   1.000  C
  C496     1.0000 0.13271  0.17462  0.01860  Biso   1.000  C
  C497     1.0000 0.97955  0.59671  0.30822  Biso   1.000  C
  C498     1.0000 0.71109  0.46923  0.88919  Biso   1.000  C
  C499     1.0000 0.86651  0.66717  0.51058  Biso   1.000  C
  C500     1.0000 0.99809  0.09815  0.23280  Biso   1.000  C
  C501     1.0000 0.28198  0.96217  0.62762  Biso   1.000  C
  C502     1.0000 0.36059  0.67135  0.01551  Biso   1.000  C
  C503     1.0000 0.52716  0.09412  0.30075  Biso   1.000  C
  C504     1.0000 0.78241  0.95002  0.90205  Biso   1.000  C
  C505     1.0000 0.63862  0.47749  0.80977  Biso   1.000  C
  C506     1.0000 0.79229  0.59711  0.53594  Biso   1.000  C
  C507     1.0000 0.50701  0.76467  0.66054  Biso   1.000  C
  C508     1.0000 0.13912  0.44396  0.71695  Biso   1.000  C
  C509     1.0000 0.28907  0.59208  0.00223  Biso   1.000  C
  C510     1.0000 0.97558  0.75518  0.87846  Biso   1.000  C
  C511     1.0000 0.85554  0.95211  0.81998  Biso   1.000  C
  C512     1.0000 0.70347  0.10196  0.54467  Biso   1.000  C
  C513     1.0000 0.00270  0.25593  0.64833  Biso   1.000  C
  C514     1.0000 0.34924  0.96963  0.70824  Biso   1.000  C
  C515     1.0000 0.20760  0.09716  0.02647  Biso   1.000  C
  C516     1.0000 0.50741  0.26269  0.86847  Biso   1.000  C
  C517     1.0000 0.35758  0.44507  0.21939  Biso   1.000  C
  C518     1.0000 0.20339  0.33652  0.50184  Biso   1.000  C
  C519     1.0000 0.49561  0.17050  0.36912  Biso   1.000  C
  C520     1.0000 0.85428  0.47202  0.31514  Biso   1.000  C
  C521     1.0000 0.70747  0.34037  0.00523  Biso   1.000  C
  C522     1.0000 0.00161  0.17414  0.15640  Biso   1.000  C
  C523     1.0000 0.14920  0.97150  0.21667  Biso   1.000  C
  C524     1.0000 0.29883  0.83922  0.47853  Biso   1.000  C
  C525     1.0000 0.99817  0.67167  0.38219  Biso   1.000  C
  C526     1.0000 0.65307  0.96497  0.32148  Biso   1.000  C
  C527     1.0000 0.78489  0.83918  0.02666  Biso   1.000  C
  C528     1.0000 0.50032  0.67112  0.15760  Biso   1.000  C
  C529     1.0000 0.79212  0.10474  0.02248  Biso   1.000  C
  C530     1.0000 0.99993  0.75611  0.14589  Biso   1.000  C
  C531     1.0000 0.11522  0.96678  0.80119  Biso   1.000  C
  C532     1.0000 0.29148  0.10542  0.51004  Biso   1.000  C
  C533     1.0000 0.49918  0.75681  0.38942  Biso   1.000  C
  C534     1.0000 0.61851  0.96540  0.73643  Biso   1.000  C
  C535     1.0000 0.70593  0.60109  0.00752  Biso   1.000  C
  C536     1.0000 0.51967  0.25412  0.13506  Biso   1.000  C
  C537     1.0000 0.37025  0.45873  0.80416  Biso   1.000  C
  C538     1.0000 0.21240  0.59988  0.50503  Biso   1.000  C
  C539     1.0000 0.99836  0.25680  0.38579  Biso   1.000  C
  C540     1.0000 0.87675  0.47846  0.72911  Biso   1.000  C
  C541     1.0000 0.20468  0.82614  0.99979  Biso   1.000  C
  C542     1.0000 0.98870  0.17712  0.89103  Biso   1.000  C
  C543     1.0000 0.88172  0.96132  0.23574  Biso   1.000  C
  C544     1.0000 0.71307  0.83071  0.53560  Biso   1.000  C
  C545     1.0000 0.51467  0.18159  0.63757  Biso   1.000  C
  C546     1.0000 0.38947  0.98208  0.29564  Biso   1.000  C
  C547     1.0000 0.29301  0.32585  0.02879  Biso   1.000  C
  C548     1.0000 0.49152  0.68171  0.89336  Biso   1.000  C
  C549     1.0000 0.62223  0.47940  0.22502  Biso   1.000  C
  C550     1.0000 0.78626  0.32846  0.52532  Biso   1.000  C
  C551     1.0000 0.01345  0.67239  0.64623  Biso   1.000  C
  C552     1.0000 0.12250  0.45976  0.30201  Biso   1.000  C
  C553     1.0000 0.97208  0.10022  0.81514  Biso   1.000  C
  C554     1.0000 0.80265  0.96668  0.16433  Biso   1.000  C
  C555     1.0000 0.12684  0.75287  0.99621  Biso   1.000  C
  C556     1.0000 0.49873  0.10816  0.71479  Biso   1.000  C
  C557     1.0000 0.30825  0.98514  0.36536  Biso   1.000  C
  C558     1.0000 0.63463  0.75667  0.54797  Biso   1.000  C
  C559     1.0000 0.50517  0.60895  0.81774  Biso   1.000  C
  C560     1.0000 0.70297  0.48015  0.15411  Biso   1.000  C
  C561     1.0000 0.36944  0.24905  0.01035  Biso   1.000  C
  C562     1.0000 0.01656  0.59762  0.72084  Biso   1.000  C
  C563     1.0000 0.19955  0.47416  0.37365  Biso   1.000  C
  C564     1.0000 0.86133  0.25372  0.54082  Biso   1.000  C
  C565     1.0000 0.99984  0.82910  0.22442  Biso   1.000  C
  C566     1.0000 0.20086  0.96192  0.86483  Biso   1.000  C
  C567     1.0000 0.87140  0.17854  0.01425  Biso   1.000  C
  C568     1.0000 0.50012  0.83203  0.31194  Biso   1.000  C
  C569     1.0000 0.70170  0.97304  0.66660  Biso   1.000  C
  C570     1.0000 0.36679  0.18231  0.50608  Biso   1.000  C
  C571     1.0000 0.51294  0.32771  0.21556  Biso   1.000  C
  C572     1.0000 0.29143  0.46336  0.88104  Biso   1.000  C
  C573     1.0000 0.62965  0.67697  0.02405  Biso   1.000  C
  C574     1.0000 0.98405  0.32919  0.30961  Biso   1.000  C
  C575     1.0000 0.79273  0.45952  0.66196  Biso   1.000  C
  C576     1.0000 0.13754  0.67843  0.50671  Biso   1.000  C
  C577     1.0000 0.28797  0.46903  0.11177  Biso   1.000  C
  C578     1.0000 0.09670  0.26062  0.51375  Biso   1.000  C
  C579     1.0000 0.53341  0.06262  0.30280  Biso   1.000  C
  C580     1.0000 0.78417  0.47708  0.42836  Biso   1.000  C
  C581     1.0000 0.60742  0.26032  0.98979  Biso   1.000  C
  C582     1.0000 0.00332  0.06729  0.23185  Biso   1.000  C
  C583     1.0000 0.21540  0.96720  0.10112  Biso   1.000  C
  C584     1.0000 0.40079  0.76304  0.51610  Biso   1.000  C
  C585     1.0000 0.97659  0.56464  0.31016  Biso   1.000  C
  C586     1.0000 0.71824  0.96896  0.43591  Biso   1.000  C
  C587     1.0000 0.89400  0.76035  0.02576  Biso   1.000  C
  C588     1.0000 0.49443  0.56043  0.22852  Biso   1.000  C
  C589     1.0000 0.70757  0.46504  0.91932  Biso   1.000  C
  C590     1.0000 0.89688  0.66587  0.50698  Biso   1.000  C
  C591     1.0000 0.50036  0.87408  0.73318  Biso   1.000  C
  C592     1.0000 0.21610  0.46018  0.61113  Biso   1.000  C
  C593     1.0000 0.39232  0.67145  0.01768  Biso   1.000  C
  C594     1.0000 0.00312  0.86501  0.81064  Biso   1.000  C
  C595     1.0000 0.78515  0.95291  0.93330  Biso   1.000  C
  C596     1.0000 0.59639  0.17314  0.51850  Biso   1.000  C
  C597     1.0000 0.99494  0.36398  0.71988  Biso   1.000  C
  C598     1.0000 0.28394  0.96365  0.59671  Biso   1.000  C
  C599     1.0000 0.10199  0.17241  0.01394  Biso   1.000  C
  C600     1.0000 0.49315  0.37754  0.79995  Biso   1.000  C
  C601     1.0000 0.20516  0.96031  0.89608  Biso   1.000  C
  C602     1.0000 0.90332  0.17545  0.01588  Biso   1.000  C
  C603     1.0000 0.00334  0.86027  0.22400  Biso   1.000  C
  C604     1.0000 0.70085  0.97529  0.63623  Biso   1.000  C
  C605     1.0000 0.39819  0.18185  0.50563  Biso   1.000  C
  C606     1.0000 0.49965  0.86266  0.31298  Biso   1.000  C
  C607     1.0000 0.29279  0.46375  0.91173  Biso   1.000  C
  C608     1.0000 0.59892  0.67507  0.02290  Biso   1.000  C
  C609     1.0000 0.50815  0.35922  0.21714  Biso   1.000  C
  C610     1.0000 0.79176  0.45249  0.63220  Biso   1.000  C
  C611     1.0000 0.10626  0.67778  0.50659  Biso   1.000  C
  C612     1.0000 0.98084  0.36063  0.30949  Biso   1.000  C
  C613     1.0000 0.80112  0.96331  0.13161  Biso   1.000  C
  C614     1.0000 0.09596  0.75353  0.99925  Biso   1.000  C
  C615     1.0000 0.96860  0.06937  0.81796  Biso   1.000  C
  C616     1.0000 0.30520  0.98645  0.39641  Biso   1.000  C
  C617     1.0000 0.60330  0.75853  0.54585  Biso   1.000  C
  C618     1.0000 0.49610  0.07734  0.71435  Biso   1.000  C
  C619     1.0000 0.70348  0.47743  0.12248  Biso   1.000  C
  C620     1.0000 0.40115  0.25135  0.00749  Biso   1.000  C
  C621     1.0000 0.50766  0.57822  0.81702  Biso   1.000  C
  C622     1.0000 0.19838  0.47878  0.40471  Biso   1.000  C
  C623     1.0000 0.89308  0.25480  0.54002  Biso   1.000  C
  C624     1.0000 0.01695  0.56745  0.71997  Biso   1.000  C
  C625     1.0000 0.98891  0.17511  0.92160  Biso   1.000  C
  C626     1.0000 0.91334  0.96187  0.23411  Biso   1.000  C
  C627     1.0000 0.20508  0.85905  0.99949  Biso   1.000  C
  C628     1.0000 0.51464  0.18103  0.60621  Biso   1.000  C
  C629     1.0000 0.42065  0.97820  0.29808  Biso   1.000  C
  C630     1.0000 0.71178  0.86196  0.53367  Biso   1.000  C
  C631     1.0000 0.48606  0.67993  0.92415  Biso   1.000  C
  C632     1.0000 0.59071  0.47659  0.22362  Biso   1.000  C
  C633     1.0000 0.29477  0.35717  0.02899  Biso   1.000  C
  C634     1.0000 0.01067  0.67285  0.61526  Biso   1.000  C
  C635     1.0000 0.09159  0.45669  0.30276  Biso   1.000  C
  C636     1.0000 0.78729  0.35920  0.52360  Biso   1.000  C
  C637     1.0000 0.00094  0.75701  0.11411  Biso   1.000  C
  C638     1.0000 0.08390  0.96585  0.80618  Biso   1.000  C
  C639     1.0000 0.79247  0.07354  0.02609  Biso   1.000  C
  C640     1.0000 0.49985  0.75779  0.42145  Biso   1.000  C
  C641     1.0000 0.58607  0.96728  0.73388  Biso   1.000  C
  C642     1.0000 0.29360  0.07315  0.51050  Biso   1.000  C
  C643     1.0000 0.51852  0.25485  0.10409  Biso   1.000  C
  C644     1.0000 0.40347  0.46093  0.80475  Biso   1.000  C
  C645     1.0000 0.70487  0.56934  0.00604  Biso   1.000  C
  C646     1.0000 0.99824  0.25742  0.41677  Biso   1.000  C
  C647     1.0000 0.90812  0.47580  0.72573  Biso   1.000  C
  C648     1.0000 0.20922  0.56973  0.50486  Biso   1.000  C
  C649     1.0000 0.99736  0.67112  0.41490  Biso   1.000  C
  C650     1.0000 0.38093  0.97379  0.71100  Biso   1.000  C
  C651     1.0000 0.70680  0.37116  0.00760  Biso   1.000  C
  C652     1.0000 0.50154  0.67342  0.12697  Biso   1.000  C
  C653     1.0000 0.88686  0.95449  0.81771  Biso   1.000  C
  C654     1.0000 0.20241  0.36772  0.49981  Biso   1.000  C
  C655     1.0000 0.48971  0.17177  0.40135  Biso   1.000  C
  C656     1.0000 0.10905  0.44462  0.71722  Biso   1.000  C
  C657     1.0000 0.78718  0.86971  0.02551  Biso   1.000  C
  C658     1.0000 0.01005  0.17483  0.12559  Biso   1.000  C
  C659     1.0000 0.60661  0.47548  0.80785  Biso   1.000  C
  C660     1.0000 0.29814  0.87157  0.47980  Biso   1.000  C
  C661     1.0000 0.00862  0.25703  0.61641  Biso   1.000  C
  C662     1.0000 0.62250  0.96314  0.31976  Biso   1.000  C
  C663     1.0000 0.29004  0.56073  0.00361  Biso   1.000  C
  C664     1.0000 0.51164  0.26414  0.89892  Biso   1.000  C
  C665     1.0000 0.11713  0.96721  0.21980  Biso   1.000  C
  C666     1.0000 0.79034  0.56578  0.53711  Biso   1.000  C
  C667     1.0000 0.50718  0.76226  0.62927  Biso   1.000  C
  C668     1.0000 0.88528  0.46678  0.31566  Biso   1.000  C
  C669     1.0000 0.20861  0.06631  0.02408  Biso   1.000  C
  C670     1.0000 0.97448  0.75322  0.91098  Biso   1.000  C
  C671     1.0000 0.38862  0.44749  0.21933  Biso   1.000  C
  C672     1.0000 0.70237  0.06879  0.54393  Biso   1.000  C
  C673     1.0000 0.18094  0.96802  0.80585  Biso   1.000  C
  C674     1.0000 0.80938  0.16961  0.01575  Biso   1.000  C
  C675     1.0000 0.99658  0.76499  0.20930  Biso   1.000  C
  C676     1.0000 0.68285  0.96885  0.73095  Biso   1.000  C
  C677     1.0000 0.30254  0.16522  0.50955  Biso   1.000  C
  C678     1.0000 0.50073  0.76798  0.32755  Biso   1.000  C
  C679     1.0000 0.30815  0.45371  0.81564  Biso   1.000  C
  C680     1.0000 0.69354  0.66221  0.02004  Biso   1.000  C
  C681     1.0000 0.51662  0.26581  0.20077  Biso   1.000  C
  C682     1.0000 0.80926  0.47387  0.71991  Biso   1.000  C
  C683     1.0000 0.19924  0.66475  0.50275  Biso   1.000  C
  C684     1.0000 0.99148  0.26700  0.32419  Biso   1.000  C
  C685     1.0000 0.81976  0.96386  0.22636  Biso   1.000  C
  C686     1.0000 0.18853  0.76394  0.99769  Biso   1.000  C
  C687     1.0000 0.98252  0.16447  0.82807  Biso   1.000  C
  C688     1.0000 0.32513  0.98330  0.30568  Biso   1.000  C
  C689     1.0000 0.69793  0.76842  0.54068  Biso   1.000  C
  C690     1.0000 0.50531  0.16880  0.69947  Biso   1.000  C
  C691     1.0000 0.68703  0.48156  0.21543  Biso   1.000  C
  C692     1.0000 0.30504  0.26308  0.02060  Biso   1.000  C
  C693     1.0000 0.50072  0.66875  0.83110  Biso   1.000  C
  C694     1.0000 0.18289  0.46486  0.31175  Biso   1.000  C
  C695     1.0000 0.80096  0.26464  0.53450  Biso   1.000  C
  C696     1.0000 0.01086  0.65904  0.70771  Biso   1.000  C
  C697     1.0000 0.71547  0.96556  0.33895  Biso   1.000  C
  C698     1.0000 0.29912  0.65553  0.00430  Biso   1.000  C
  C699     1.0000 0.99366  0.26809  0.71225  Biso   1.000  C
  C700     1.0000 0.21321  0.97267  0.19789  Biso   1.000  C
  C701     1.0000 0.80804  0.65559  0.52475  Biso   1.000  C
  C702     1.0000 0.50014  0.28068  0.80653  Biso   1.000  C
  C703     1.0000 0.79146  0.47656  0.32914  Biso   1.000  C
  C704     1.0000 0.19489  0.16229  0.02650  Biso   1.000  C
  C705     1.0000 0.50559  0.77913  0.72250  Biso   1.000  C
  C706     1.0000 0.29518  0.45288  0.20599  Biso   1.000  C
  C707     1.0000 0.69072  0.16464  0.53589  Biso   1.000  C
  C708     1.0000 0.99099  0.76893  0.82006  Biso   1.000  C
  C709     1.0000 0.28821  0.96560  0.69062  Biso   1.000  C
  C710     1.0000 0.69878  0.27741  0.00255  Biso   1.000  C
  C711     1.0000 0.98810  0.65832  0.32243  Biso   1.000  C
  C712     1.0000 0.79207  0.95666  0.83841  Biso   1.000  C
  C713     1.0000 0.18946  0.27516  0.50914  Biso   1.000  C
  C714     1.0000 0.50461  0.65597  0.22139  Biso   1.000  C
  C715     1.0000 0.20171  0.44986  0.70593  Biso   1.000  C
  C716     1.0000 0.79936  0.77466  0.02947  Biso   1.000  C
  C717     1.0000 0.50863  0.15589  0.30784  Biso   1.000  C
  C718     1.0000 0.70082  0.47805  0.82722  Biso   1.000  C
  C719     1.0000 0.30810  0.77491  0.49083  Biso   1.000  C
  C720     1.0000 0.99648  0.15849  0.21907  Biso   1.000  C
  C721     1.0000 0.51686  0.77031  0.30056  Biso   1.000  C
  C722     1.0000 0.30988  0.46834  0.78665  Biso   1.000  C
  C723     1.0000 0.77476  0.27156  0.54900  Biso   1.000  C
  C724     1.0000 0.97886  0.73876  0.20677  Biso   1.000  C
  C725     1.0000 0.78488  0.49239  0.71322  Biso   1.000  C
  C726     1.0000 0.27652  0.26724  0.00890  Biso   1.000  C
  C727     1.0000 0.98209  0.23753  0.33196  Biso   1.000  C
  C728     1.0000 0.20992  0.98144  0.80801  Biso   1.000  C
  C729     1.0000 0.72653  0.76980  0.55398  Biso   1.000  C
  C730     1.0000 0.49976  0.26804  0.22700  Biso   1.000  C
  C731     1.0000 0.70893  0.95018  0.72605  Biso   1.000  C
  C732     1.0000 0.21419  0.76657  0.97843  Biso   1.000  C
  C733     1.0000 0.48252  0.16862  0.72263  Biso   1.000  C
  C734     1.0000 0.68409  0.46663  0.24407  Biso   1.000  C
  C735     1.0000 0.19361  0.69194  0.48863  Biso   1.000  C
  C736     1.0000 0.97160  0.19461  0.83120  Biso   1.000  C
  C737     1.0000 0.20995  0.44880  0.31736  Biso   1.000  C
  C738     1.0000 0.72140  0.65761  0.03207  Biso   1.000  C
  C739     1.0000 0.02268  0.65736  0.73757  Biso   1.000  C
  C740     1.0000 0.79141  0.94892  0.22493  Biso   1.000  C
  C741     1.0000 0.27415  0.16090  0.49606  Biso   1.000  C
  C742     1.0000 0.52549  0.67019  0.81141  Biso   1.000  C
  C743     1.0000 0.30038  0.96333  0.30929  Biso   1.000  C
  C744     1.0000 0.81363  0.19761  0.02870  Biso   1.000  C
  C745     1.0000 0.01121  0.68074  0.32273  Biso   1.000  C
  C746     1.0000 0.26181  0.98458  0.68699  Biso   1.000  C
  C747     1.0000 0.72226  0.27930  0.02211  Biso   1.000  C
  C748     1.0000 0.52275  0.68139  0.21887  Biso   1.000  C
  C749     1.0000 0.79065  0.93855  0.81217  Biso   1.000  C
  C750     1.0000 0.21803  0.27793  0.52544  Biso   1.000  C
  C751     1.0000 0.53270  0.15651  0.28716  Biso   1.000  C
  C752     1.0000 0.22846  0.43335  0.70115  Biso   1.000  C
  C753     1.0000 0.77402  0.77646  0.01090  Biso   1.000  C
  C754     1.0000 0.01118  0.15329  0.24737  Biso   1.000  C
  C755     1.0000 0.70072  0.46376  0.79942  Biso   1.000  C
  C756     1.0000 0.27782  0.78260  0.49603  Biso   1.000  C
  C757     1.0000 0.97876  0.23989  0.70910  Biso   1.000  C
  C758     1.0000 0.71302  0.98354  0.31326  Biso   1.000  C
  C759     1.0000 0.26964  0.65135  0.01577  Biso   1.000  C
  C760     1.0000 0.51083  0.28585  0.77766  Biso   1.000  C
  C761     1.0000 0.24034  0.98656  0.19202  Biso   1.000  C
  C762     1.0000 0.77819  0.65169  0.51321  Biso   1.000  C
  C763     1.0000 0.48886  0.78231  0.74896  Biso   1.000  C
  C764     1.0000 0.76430  0.49399  0.33258  Biso   1.000  C
  C765     1.0000 0.19001  0.18940  0.04207  Biso   1.000  C
  C766     1.0000 0.98101  0.77353  0.79108  Biso   1.000  C
  C767     1.0000 0.30019  0.46742  0.23406  Biso   1.000  C
  C768     1.0000 0.68955  0.19007  0.51741  Biso   1.000  C
  C769     1.0000 0.47889  0.69234  0.82866  Biso   1.000  C
  C770     1.0000 0.81256  0.46239  0.75009  Biso   1.000  C
  C771     1.0000 0.69320  0.74065  0.52466  Biso   1.000  C
  C772     1.0000 0.98977  0.68191  0.70305  Biso   1.000  C
  C773     1.0000 0.28237  0.43635  0.82021  Biso   1.000  C
  C774     1.0000 0.18580  0.73864  0.01684  Biso   1.000  C
  C775     1.0000 0.99957  0.15774  0.80117  Biso   1.000  C
  C776     1.0000 0.67909  0.98354  0.75889  Biso   1.000  C
  C777     1.0000 0.80561  0.23522  0.52476  Biso   1.000  C
  C778     1.0000 0.52556  0.19198  0.69985  Biso   1.000  C
  C779     1.0000 0.17568  0.95637  0.77529  Biso   1.000  C
  C780     1.0000 0.31110  0.23606  0.03598  Biso   1.000  C
  C781     1.0000 0.53443  0.23963  0.19848  Biso   1.000  C
  C782     1.0000 0.18022  0.47698  0.28180  Biso   1.000  C
  C783     1.0000 0.30572  0.19149  0.52560  Biso   1.000  C
  C784     1.0000 0.00075  0.27145  0.29388  Biso   1.000  C
  C785     1.0000 0.71319  0.50003  0.21443  Biso   1.000  C
  C786     1.0000 0.78431  0.16393  0.99885  Biso   1.000  C
  C787     1.0000 0.01146  0.76751  0.23777  Biso   1.000  C
  C788     1.0000 0.32596  0.00003  0.27958  Biso   1.000  C
  C789     1.0000 0.22869  0.66132  0.51491  Biso   1.000  C
  C790     1.0000 0.48306  0.74175  0.33220  Biso   1.000  C
  C791     1.0000 0.82697  0.97741  0.25316  Biso   1.000  C
  C792     1.0000 0.68761  0.69141  0.00873  Biso   1.000  C
  C793     1.0000 0.48552  0.17762  0.30806  Biso   1.000  C
  C794     1.0000 0.26590  0.44183  0.20146  Biso   1.000  C
  C795     1.0000 0.18621  0.24769  0.49335  Biso   1.000  C
  C796     1.0000 0.98155  0.18629  0.21395  Biso   1.000  C
  C797     1.0000 0.79637  0.46318  0.30104  Biso   1.000  C
  C798     1.0000 0.69946  0.25224  0.98252  Biso   1.000  C
  C799     1.0000 0.96631  0.65859  0.29835  Biso   1.000  C
  C800     1.0000 0.21051  0.95906  0.22531  Biso   1.000  C
  C801     1.0000 0.31372  0.74455  0.48452  Biso   1.000  C
  C802     1.0000 0.48607  0.65318  0.24640  Biso   1.000  C
  C803     1.0000 0.74185  0.94812  0.34362  Biso   1.000  C
  C804     1.0000 0.80152  0.74896  0.04792  Biso   1.000  C
  C805     1.0000 0.52551  0.75290  0.71977  Biso   1.000  C
  C806     1.0000 0.72708  0.49526  0.83412  Biso   1.000  C
  C807     1.0000 0.81377  0.68382  0.53710  Biso   1.000  C
  C808     1.0000 0.00223  0.73956  0.82502  Biso   1.000  C
  C809     1.0000 0.19803  0.46439  0.73458  Biso   1.000  C
  C810     1.0000 0.30470  0.68337  0.98860  Biso   1.000  C
  C811     1.0000 0.00308  0.27459  0.74158  Biso   1.000  C
  C812     1.0000 0.76684  0.97423  0.84377  Biso   1.000  C
  C813     1.0000 0.71437  0.16021  0.55797  Biso   1.000  C
  C814     1.0000 0.48530  0.25212  0.80948  Biso   1.000  C
  C815     1.0000 0.28962  0.94880  0.71904  Biso   1.000  C
  C816     1.0000 0.22144  0.15826  0.01045  Biso   1.000  C
  C817     1.0000 0.97564  0.21472  0.80877  Biso   1.000  C
  C818     1.0000 0.77310  0.95229  0.24771  Biso   1.000  C
  C819     1.0000 0.23661  0.74473  0.98065  Biso   1.000  C
  C820     1.0000 0.48012  0.19072  0.74188  Biso   1.000  C
  C821     1.0000 0.27999  0.96087  0.28776  Biso   1.000  C
  C822     1.0000 0.74620  0.74667  0.55063  Biso   1.000  C
  C823     1.0000 0.52522  0.69242  0.79060  Biso   1.000  C
  C824     1.0000 0.70268  0.46813  0.26728  Biso   1.000  C
  C825     1.0000 0.25470  0.24854  0.01329  Biso   1.000  C
  C826     1.0000 0.01608  0.67793  0.75780  Biso   1.000  C
  C827     1.0000 0.23197  0.44835  0.29680  Biso   1.000  C
  C828     1.0000 0.75243  0.25181  0.55034  Biso   1.000  C
  C829     1.0000 0.97908  0.71740  0.22777  Biso   1.000  C
  C830     1.0000 0.22790  0.98320  0.78416  Biso   1.000  C
  C831     1.0000 0.79271  0.21866  0.02415  Biso   1.000  C
  C832     1.0000 0.51697  0.74783  0.28040  Biso   1.000  C
  C833     1.0000 0.72927  0.94806  0.74951  Biso   1.000  C
  C834     1.0000 0.25323  0.18164  0.49761  Biso   1.000  C
  C835     1.0000 0.50066  0.24764  0.24875  Biso   1.000  C
  C836     1.0000 0.29025  0.46127  0.76549  Biso   1.000  C
  C837     1.0000 0.74168  0.67947  0.03454  Biso   1.000  C
  C838     1.0000 0.98206  0.21581  0.31206  Biso   1.000  C
  C839     1.0000 0.76631  0.49894  0.73590  Biso   1.000  C
  C840     1.0000 0.21539  0.71096  0.48320  Biso   1.000  C
  C841     1.0000 0.19553  0.95680  0.75274  Biso   1.000  C
  C842     1.0000 0.76397  0.18619  0.99580  Biso   1.000  C
  C843     1.0000 0.00856  0.74613  0.25990  Biso   1.000  C
  C844     1.0000 0.69999  0.97904  0.78067  Biso   1.000  C
  C845     1.0000 0.28225  0.20958  0.52956  Biso   1.000  C
  C846     1.0000 0.48582  0.71992  0.31214  Biso   1.000  C
  C847     1.0000 0.26336  0.43017  0.79844  Biso   1.000  C
  C848     1.0000 0.70821  0.71223  0.01314  Biso   1.000  C
  C849     1.0000 0.53273  0.21859  0.21953  Biso   1.000  C
  C850     1.0000 0.79240  0.46858  0.77197  Biso   1.000  C
  C851     1.0000 0.24929  0.68364  0.51249  Biso   1.000  C
  C852     1.0000 0.00083  0.24889  0.27434  Biso   1.000  C
  C853     1.0000 0.80602  0.98167  0.27558  Biso   1.000  C
  C854     1.0000 0.20885  0.71942  0.01819  Biso   1.000  C
  C855     1.0000 0.99987  0.17717  0.77933  Biso   1.000  C
  C856     1.0000 0.30536  0.99686  0.25847  Biso   1.000  C
  C857     1.0000 0.71565  0.71825  0.52082  Biso   1.000  C
  C858     1.0000 0.52305  0.21358  0.72062  Biso   1.000  C
  C859     1.0000 0.73296  0.50168  0.23783  Biso   1.000  C
  C860     1.0000 0.28899  0.21571  0.03795  Biso   1.000  C
  C861     1.0000 0.48061  0.71325  0.80715  Biso   1.000  C
  C862     1.0000 0.20091  0.47454  0.26110  Biso   1.000  C
  C863     1.0000 0.78430  0.21393  0.52692  Biso   1.000  C
  C864     1.0000 0.98247  0.70359  0.72422  Biso   1.000  C
  C865     1.0000 0.72466  0.46754  0.78101  Biso   1.000  C
  C866     1.0000 0.75769  0.67332  0.51804  Biso   1.000  C
  C867     1.0000 0.48691  0.75839  0.76860  Biso   1.000  C
  C868     1.0000 0.24884  0.43092  0.72343  Biso   1.000  C
  C869     1.0000 0.24867  0.67257  0.01376  Biso   1.000  C
  C870     1.0000 0.98307  0.75182  0.77020  Biso   1.000  C
  C871     1.0000 0.76796  0.94013  0.79409  Biso   1.000  C
  C872     1.0000 0.71085  0.21076  0.52106  Biso   1.000  C
  C873     1.0000 0.97824  0.21997  0.73235  Biso   1.000  C
  C874     1.0000 0.24112  0.98701  0.71046  Biso   1.000  C
  C875     1.0000 0.21284  0.20866  0.04198  Biso   1.000  C
  C876     1.0000 0.51030  0.26408  0.75795  Biso   1.000  C
  C877     1.0000 0.27898  0.46829  0.25524  Biso   1.000  C
  C878     1.0000 0.23839  0.25507  0.52904  Biso   1.000  C
  C879     1.0000 0.53571  0.17845  0.26870  Biso   1.000  C
  C880     1.0000 0.74286  0.49433  0.31121  Biso   1.000  C
  C881     1.0000 0.74385  0.25891  0.02451  Biso   1.000  C
  C882     1.0000 0.00641  0.17467  0.26919  Biso   1.000  C
  C883     1.0000 0.26368  0.98636  0.21170  Biso   1.000  C
  C884     1.0000 0.25805  0.76010  0.49505  Biso   1.000  C
  C885     1.0000 0.01104  0.70010  0.30002  Biso   1.000  C
  C886     1.0000 0.73562  0.98416  0.29355  Biso   1.000  C
  C887     1.0000 0.75316  0.75454  0.01116  Biso   1.000  C
  C888     1.0000 0.52190  0.70232  0.23970  Biso   1.000  C
  C889     1.0000 0.76505  0.95068  0.32233  Biso   1.000  C
  C890     1.0000 0.28226  0.70359  0.98720  Biso   1.000  C
  C891     1.0000 0.00051  0.25484  0.76414  Biso   1.000  C
  C892     1.0000 0.23301  0.95890  0.24514  Biso   1.000  C
  C893     1.0000 0.79290  0.70443  0.53916  Biso   1.000  C
  C894     1.0000 0.48581  0.23038  0.78861  Biso   1.000  C
  C895     1.0000 0.77529  0.46720  0.27897  Biso   1.000  C
  C896     1.0000 0.24286  0.17873  0.01178  Biso   1.000  C
  C897     1.0000 0.52383  0.73059  0.73961  Biso   1.000  C
  C898     1.0000 0.24465  0.44559  0.22218  Biso   1.000  C
  C899     1.0000 0.73767  0.18162  0.55886  Biso   1.000  C
  C900     1.0000 0.99928  0.71673  0.80528  Biso   1.000  C
  C901     1.0000 0.26732  0.95088  0.73930  Biso   1.000  C
  C902     1.0000 0.72125  0.23222  0.98504  Biso   1.000  C
  C903     1.0000 0.96846  0.67996  0.27850  Biso   1.000  C
  C904     1.0000 0.74487  0.97680  0.82354  Biso   1.000  C
  C905     1.0000 0.20700  0.22645  0.49877  Biso   1.000  C
  C906     1.0000 0.48544  0.67491  0.26748  Biso   1.000  C
  C907     1.0000 0.21960  0.46034  0.75630  Biso   1.000  C
  C908     1.0000 0.78209  0.72667  0.04640  Biso   1.000  C
  C909     1.0000 0.48944  0.19845  0.28699  Biso   1.000  C
  C910     1.0000 0.74780  0.50001  0.81364  Biso   1.000  C
  C911     1.0000 0.29330  0.72290  0.48503  Biso   1.000  C
  C912     1.0000 0.97895  0.20627  0.23616  Biso   1.000  C
  C913     1.0000 0.76961  0.48666  0.76458  Biso   1.000  C
  C914     1.0000 0.74301  0.72221  0.53311  Biso   1.000  C
  C915     1.0000 0.50276  0.71206  0.78648  Biso   1.000  C
  C916     1.0000 0.26674  0.44345  0.77152  Biso   1.000  C
  C917     1.0000 0.23320  0.72232  0.00011  Biso   1.000  C
  C918     1.0000 0.99558  0.70110  0.75151  Biso   1.000  C
  C919     1.0000 0.72462  0.96353  0.77555  Biso   1.000  C
  C920     1.0000 0.75801  0.22545  0.53857  Biso   1.000  C
  C921     1.0000 0.98800  0.20542  0.78187  Biso   1.000  C
  C922     1.0000 0.22140  0.97037  0.75822  Biso   1.000  C
  C923     1.0000 0.26107  0.22314  0.02818  Biso   1.000  C
  C924     1.0000 0.50134  0.21345  0.74119  Biso   1.000  C
  C925     1.0000 0.22787  0.46181  0.26955  Biso   1.000  C
  C926     1.0000 0.25657  0.20728  0.51466  Biso   1.000  C
  C927     1.0000 0.51460  0.22202  0.24416  Biso   1.000  C
  C928     1.0000 0.72727  0.48431  0.26195  Biso   1.000  C
  C929     1.0000 0.76813  0.21289  0.00841  Biso   1.000  C
  C930     1.0000 0.98911  0.22253  0.28397  Biso   1.000  C
  C931     1.0000 0.28197  0.97940  0.26280  Biso   1.000  C
  C932     1.0000 0.24272  0.70725  0.49504  Biso   1.000  C
  C933     1.0000 0.99299  0.72105  0.25471  Biso   1.000  C
  C934     1.0000 0.78081  0.96758  0.27282  Biso   1.000  C
  C935     1.0000 0.73503  0.70780  0.02579  Biso   1.000  C
  C936     1.0000 0.50226  0.72281  0.28582  Biso   1.000  C
  C937     1.0000 0.74454  0.23563  0.00477  Biso   1.000  C
  C938     1.0000 0.99029  0.69941  0.27768  Biso   1.000  C
  C939     1.0000 0.24354  0.96902  0.73481  Biso   1.000  C
  C940     1.0000 0.23365  0.23042  0.51339  Biso   1.000  C
  C941     1.0000 0.50404  0.69940  0.26484  Biso   1.000  C
  C942     1.0000 0.74600  0.96016  0.79810  Biso   1.000  C
  C943     1.0000 0.75741  0.72983  0.02844  Biso   1.000  C
  C944     1.0000 0.51353  0.19927  0.26774  Biso   1.000  C
  C945     1.0000 0.24367  0.44320  0.74995  Biso   1.000  C
  C946     1.0000 0.26505  0.73020  0.49039  Biso   1.000  C
  C947     1.0000 0.99009  0.19929  0.26337  Biso   1.000  C
  C948     1.0000 0.74647  0.48753  0.78580  Biso   1.000  C
  C949     1.0000 0.25524  0.69808  0.99952  Biso   1.000  C
  C950     1.0000 0.98911  0.22727  0.75880  Biso   1.000  C
  C951     1.0000 0.76102  0.96849  0.29755  Biso   1.000  C
  C952     1.0000 0.76564  0.69966  0.52963  Biso   1.000  C
  C953     1.0000 0.49896  0.23689  0.76193  Biso   1.000  C
  C954     1.0000 0.26005  0.97548  0.24013  Biso   1.000  C
  C955     1.0000 0.23802  0.20185  0.02888  Biso   1.000  C
  C956     1.0000 0.50514  0.73394  0.76447  Biso   1.000  C
  C957     1.0000 0.74928  0.48268  0.28460  Biso   1.000  C
  C958     1.0000 0.73432  0.20467  0.53985  Biso   1.000  C
  C959     1.0000 0.99196  0.72335  0.77639  Biso   1.000  C
  C960     1.0000 0.25120  0.45969  0.24856  Biso   1.000  C
  Cu1      1.0000 0.00737  0.46448  0.66827  Biso   1.000  Cu
  Cu2      1.0000 0.65388  0.96409  0.53124  Biso   1.000  Cu
  Cu3      1.0000 0.49719  0.61963  0.02326  Biso   1.000  Cu
  Cu4      1.0000 0.50409  0.47237  0.86250  Biso   1.000  Cu
  Cu5      1.0000 0.15454  0.96571  0.00398  Biso   1.000  Cu
  Cu6      1.0000 0.00336  0.61771  0.51465  Biso   1.000  Cu
  Cu7      1.0000 0.48980  0.97270  0.66836  Biso   1.000  Cu
  Cu8      1.0000 0.84284  0.46132  0.52880  Biso   1.000  Cu
  Cu9      1.0000 0.00079  0.12165  0.02288  Biso   1.000  Cu
  Cu10     1.0000 0.98924  0.96368  0.86832  Biso   1.000  Cu
  Cu11     1.0000 0.34665  0.45925  0.01316  Biso   1.000  Cu
  Cu12     1.0000 0.49782  0.12288  0.50791  Biso   1.000  Cu
  Cu13     1.0000 0.98830  0.46250  0.36400  Biso   1.000  Cu
  Cu14     1.0000 0.34967  0.97252  0.50342  Biso   1.000  Cu
  Cu15     1.0000 0.50279  0.31304  0.00527  Biso   1.000  Cu
  Cu16     1.0000 0.49193  0.46252  0.16972  Biso   1.000  Cu
  Cu17     1.0000 0.84682  0.96764  0.02654  Biso   1.000  Cu
  Cu18     1.0000 0.99185  0.31144  0.51598  Biso   1.000  Cu
  Cu19     1.0000 0.51445  0.96612  0.36447  Biso   1.000  Cu
  Cu20     1.0000 0.15435  0.46902  0.50988  Biso   1.000  Cu
  Cu21     1.0000 0.99208  0.81228  0.01285  Biso   1.000  Cu
  Cu22     1.0000 0.01276  0.96329  0.17103  Biso   1.000  Cu
  Cu23     1.0000 0.64933  0.47102  0.01905  Biso   1.000  Cu
  Cu24     1.0000 0.50082  0.81288  0.52569  Biso   1.000  Cu
  Cu25     1.0000 0.20706  0.96018  0.00074  Biso   1.000  Cu
  Cu26     1.0000 0.00116  0.17583  0.02410  Biso   1.000  Cu
  Cu27     1.0000 0.01517  0.96129  0.22540  Biso   1.000  Cu
  Cu28     1.0000 0.70800  0.96702  0.53497  Biso   1.000  Cu
  Cu29     1.0000 0.49951  0.17537  0.50440  Biso   1.000  Cu
  Cu30     1.0000 0.52194  0.96253  0.31031  Biso   1.000  Cu
  Cu31     1.0000 0.29177  0.45883  0.01284  Biso   1.000  Cu
  Cu32     1.0000 0.49539  0.67409  0.02529  Biso   1.000  Cu
  Cu33     1.0000 0.49062  0.45732  0.22267  Biso   1.000  Cu
  Cu34     1.0000 0.78829  0.46221  0.52960  Biso   1.000  Cu
  Cu35     1.0000 0.00102  0.67099  0.51349  Biso   1.000  Cu
  Cu36     1.0000 0.98707  0.46256  0.31059  Biso   1.000  Cu
  Cu37     1.0000 0.79259  0.97087  0.03130  Biso   1.000  Cu
  Cu38     1.0000 0.99120  0.75767  0.01457  Biso   1.000  Cu
  Cu39     1.0000 0.98535  0.96677  0.81397  Biso   1.000  Cu
  Cu40     1.0000 0.29405  0.97258  0.49474  Biso   1.000  Cu
  Cu41     1.0000 0.49908  0.75958  0.52946  Biso   1.000  Cu
  Cu42     1.0000 0.48422  0.97909  0.72269  Biso   1.000  Cu
  Cu43     1.0000 0.70381  0.47052  0.01868  Biso   1.000  Cu
  Cu44     1.0000 0.50583  0.25896  0.00151  Biso   1.000  Cu
  Cu45     1.0000 0.50534  0.47747  0.80809  Biso   1.000  Cu
  Cu46     1.0000 0.20729  0.46741  0.50559  Biso   1.000  Cu
  Cu47     1.0000 0.99347  0.25897  0.51679  Biso   1.000  Cu
  Cu48     1.0000 0.00756  0.46385  0.72192  Biso   1.000  Cu
  H1       1.0000 0.23609  0.76570  0.49978  Biso   1.000  H
  H2       1.0000 0.51792  0.26809  0.73600  Biso   1.000  H
  H3       1.0000 0.72160  0.50265  0.31521  Biso   1.000  H
  H4       1.0000 0.73477  0.75841  0.99598  Biso   1.000  H
  H5       1.0000 0.97187  0.19748  0.72940  Biso   1.000  H
  H6       1.0000 0.28326  0.47910  0.27507  Biso   1.000  H
  H7       1.0000 0.25577  0.25433  0.54320  Biso   1.000  H
  H8       1.0000 0.97966  0.75834  0.74677  Biso   1.000  H
  H9       1.0000 0.73289  0.99822  0.27459  Biso   1.000  H
  H10      1.0000 0.75927  0.26159  0.04169  Biso   1.000  H
  H11      1.0000 0.47514  0.76253  0.78803  Biso   1.000  H
  H12      1.0000 0.28481  0.99517  0.20453  Biso   1.000  H
  H13      1.0000 0.71142  0.22984  0.50769  Biso   1.000  H
  H14      1.0000 0.53469  0.72118  0.23446  Biso   1.000  H
  H15      1.0000 0.27011  0.42072  0.72066  Biso   1.000  H
  H16      1.0000 0.21082  0.22846  0.05630  Biso   1.000  H
  H17      1.0000 0.02803  0.71717  0.30176  Biso   1.000  H
  H18      1.0000 0.72148  0.45860  0.75978  Biso   1.000  H
  H19      1.0000 0.73418  0.67061  0.51347  Biso   1.000  H
  H20      1.0000 0.01723  0.17035  0.28888  Biso   1.000  H
  H21      1.0000 0.22274  0.00175  0.70956  Biso   1.000  H
  H22      1.0000 0.22787  0.66790  0.02434  Biso   1.000  H
  H23      1.0000 0.55418  0.17933  0.25462  Biso   1.000  H
  H24      1.0000 0.76722  0.92454  0.77563  Biso   1.000  H
  H25      1.0000 0.24796  0.99676  0.78547  Biso   1.000  H
  H26      1.0000 0.79641  0.23898  0.03568  Biso   1.000  H
  H27      1.0000 0.96702  0.69672  0.22276  Biso   1.000  H
  H28      1.0000 0.74905  0.93407  0.74438  Biso   1.000  H
  H29      1.0000 0.23141  0.17906  0.48734  Biso   1.000  H
  H30      1.0000 0.53180  0.74974  0.26129  Biso   1.000  H
  H31      1.0000 0.28866  0.47234  0.74514  Biso   1.000  H
  H32      1.0000 0.76284  0.67329  0.04183  Biso   1.000  H
  H33      1.0000 0.48599  0.25025  0.26696  Biso   1.000  H
  H34      1.0000 0.74898  0.51463  0.73174  Biso   1.000  H
  H35      1.0000 0.20838  0.73123  0.47386  Biso   1.000  H
  H36      1.0000 0.97561  0.19440  0.31789  Biso   1.000  H
  H37      1.0000 0.75076  0.94247  0.24802  Biso   1.000  H
  H38      1.0000 0.25532  0.74586  0.96585  Biso   1.000  H
  H39      1.0000 0.96534  0.23611  0.81126  Biso   1.000  H
  H40      1.0000 0.26361  0.94461  0.29046  Biso   1.000  H
  H41      1.0000 0.76797  0.75044  0.55992  Biso   1.000  H
  H42      1.0000 0.45978  0.19058  0.75378  Biso   1.000  H
  H43      1.0000 0.70097  0.45506  0.28732  Biso   1.000  H
  H44      1.0000 0.23306  0.25276  0.00496  Biso   1.000  H
  H45      1.0000 0.54364  0.69526  0.77645  Biso   1.000  H
  H46      1.0000 0.25399  0.43663  0.30097  Biso   1.000  H
  H47      1.0000 0.73420  0.25703  0.56408  Biso   1.000  H
  H48      1.0000 0.02530  0.67281  0.77787  Biso   1.000  H
  H49      1.0000 0.19898  0.48375  0.23935  Biso   1.000  H
  H50      1.0000 0.28562  0.22817  0.54459  Biso   1.000  H
  H51      1.0000 0.54668  0.19968  0.21716  Biso   1.000  H
  H52      1.0000 0.74911  0.51875  0.23625  Biso   1.000  H
  H53      1.0000 0.74617  0.18261  0.98161  Biso   1.000  H
  H54      1.0000 0.00741  0.25196  0.25194  Biso   1.000  H
  H55      1.0000 0.30809  0.01104  0.23869  Biso   1.000  H
  H56      1.0000 0.26835  0.67956  0.52489  Biso   1.000  H
  H57      1.0000 0.02194  0.74989  0.27977  Biso   1.000  H
  H58      1.0000 0.80983  0.99448  0.29380  Biso   1.000  H
  H59      1.0000 0.70389  0.73361  0.00513  Biso   1.000  H
  H60      1.0000 0.47241  0.70124  0.31884  Biso   1.000  H
  H61      1.0000 0.79256  0.45709  0.79269  Biso   1.000  H
  H62      1.0000 0.70821  0.70068  0.50787  Biso   1.000  H
  H63      1.0000 0.46276  0.72903  0.80897  Biso   1.000  H
  H64      1.0000 0.24649  0.41307  0.80250  Biso   1.000  H
  H65      1.0000 0.20850  0.70275  0.03467  Biso   1.000  H
  H66      1.0000 0.96643  0.72090  0.71997  Biso   1.000  H
  H67      1.0000 0.69814  0.98890  0.80193  Biso   1.000  H
  H68      1.0000 0.78785  0.19225  0.52024  Biso   1.000  H
  H69      1.0000 0.01065  0.17199  0.75891  Biso   1.000  H
  H70      1.0000 0.19196  0.94273  0.73480  Biso   1.000  H
  H71      1.0000 0.29096  0.19740  0.05270  Biso   1.000  H
  H72      1.0000 0.53636  0.23173  0.71942  Biso   1.000  H
  H73      1.0000 0.76590  0.51468  0.81697  Biso   1.000  H
  H74      1.0000 0.79931  0.72498  0.54766  Biso   1.000  H
  H75      1.0000 0.53637  0.71064  0.73388  Biso   1.000  H
  H76      1.0000 0.21777  0.47108  0.77681  Biso   1.000  H
  H77      1.0000 0.28617  0.72328  0.97545  Biso   1.000  H
  H78      1.0000 0.00641  0.69470  0.81240  Biso   1.000  H
  H79      1.0000 0.72611  0.98957  0.82975  Biso   1.000  H
  H80      1.0000 0.75618  0.17922  0.57286  Biso   1.000  H
  H81      1.0000 0.00822  0.26157  0.78517  Biso   1.000  H
  H82      1.0000 0.26897  0.94041  0.76107  Biso   1.000  H
  H83      1.0000 0.26306  0.17435  0.00127  Biso   1.000  H
  H84      1.0000 0.48070  0.20797  0.79493  Biso   1.000  H
  H85      1.0000 0.22204  0.43677  0.21913  Biso   1.000  H
  H86      1.0000 0.20286  0.20509  0.48960  Biso   1.000  H
  H87      1.0000 0.47207  0.21449  0.28874  Biso   1.000  H
  H88      1.0000 0.77984  0.45994  0.25748  Biso   1.000  H
  H89      1.0000 0.72189  0.21502  0.96914  Biso   1.000  H
  H90      1.0000 0.96557  0.22556  0.23231  Biso   1.000  H
  H91      1.0000 0.23074  0.94617  0.26472  Biso   1.000  H
  H92      1.0000 0.30110  0.69997  0.48404  Biso   1.000  H
  H93      1.0000 0.95064  0.68204  0.26234  Biso   1.000  H
  H94      1.0000 0.78528  0.93770  0.32373  Biso   1.000  H
  H95      1.0000 0.78493  0.70736  0.06054  Biso   1.000  H
  H96      1.0000 0.47350  0.67050  0.28693  Biso   1.000  H
  H97      1.0000 0.86026  0.96276  0.93915  Biso   1.000  H
  H98      1.0000 0.90341  0.83805  0.02745  Biso   1.000  H
  H99      1.0000 0.98107  0.87294  0.88265  Biso   1.000  H
  H100     1.0000 0.36145  0.96823  0.59224  Biso   1.000  H
  H101     1.0000 0.40796  0.84024  0.51481  Biso   1.000  H
  H102     1.0000 0.49324  0.88234  0.65733  Biso   1.000  H
  H103     1.0000 0.63287  0.46145  0.92499  Biso   1.000  H
  H104     1.0000 0.59041  0.33581  0.99276  Biso   1.000  H
  H105     1.0000 0.50271  0.37995  0.87648  Biso   1.000  H
  H106     1.0000 0.14097  0.45658  0.60160  Biso   1.000  H
  H107     1.0000 0.08123  0.33590  0.51726  Biso   1.000  H
  H108     1.0000 0.00685  0.37098  0.64592  Biso   1.000  H
  H109     1.0000 0.14066  0.96763  0.10056  Biso   1.000  H
  H110     1.0000 0.09271  0.09763  0.00302  Biso   1.000  H
  H111     1.0000 0.00671  0.05236  0.15649  Biso   1.000  H
  H112     1.0000 0.64180  0.95819  0.43514  Biso   1.000  H
  H113     1.0000 0.58559  0.09761  0.52128  Biso   1.000  H
  H114     1.0000 0.52240  0.05349  0.37673  Biso   1.000  H
  H115     1.0000 0.36425  0.47240  0.10786  Biso   1.000  H
  H116     1.0000 0.40549  0.59622  0.02957  Biso   1.000  H
  H117     1.0000 0.49484  0.55534  0.15224  Biso   1.000  H
  H118     1.0000 0.86009  0.46888  0.43220  Biso   1.000  H
  H119     1.0000 0.91366  0.59096  0.51833  Biso   1.000  H
  H120     1.0000 0.98298  0.55140  0.38327  Biso   1.000  H
  H121     1.0000 0.08405  0.96031  0.88146  Biso   1.000  H
  H122     1.0000 0.86732  0.05990  0.03219  Biso   1.000  H
  H123     1.0000 0.01070  0.83149  0.10542  Biso   1.000  H
  H124     1.0000 0.58308  0.98161  0.65952  Biso   1.000  H
  H125     1.0000 0.36640  0.06039  0.50142  Biso   1.000  H
  H126     1.0000 0.50802  0.83211  0.43021  Biso   1.000  H
  H127     1.0000 0.41182  0.46863  0.88128  Biso   1.000  H
  H128     1.0000 0.62764  0.56371  0.01548  Biso   1.000  H
  H129     1.0000 0.50014  0.32909  0.09866  Biso   1.000  H
  H130     1.0000 0.91422  0.46162  0.65398  Biso   1.000  H
  H131     1.0000 0.13317  0.55900  0.51081  Biso   1.000  H
  H132     1.0000 0.98853  0.33279  0.42501  Biso   1.000  H
  H133     1.0000 0.92192  0.95127  0.15888  Biso   1.000  H
  H134     1.0000 0.12960  0.87288  0.00417  Biso   1.000  H
  H135     1.0000 0.98374  0.10030  0.92975  Biso   1.000  H
  H136     1.0000 0.42529  0.97545  0.37477  Biso   1.000  H
  H137     1.0000 0.63613  0.87554  0.53065  Biso   1.000  H
  H138     1.0000 0.50816  0.10495  0.59606  Biso   1.000  H
  H139     1.0000 0.58546  0.47581  0.14771  Biso   1.000  H
  H140     1.0000 0.36711  0.36904  0.01235  Biso   1.000  H
  H141     1.0000 0.48321  0.60403  0.93401  Biso   1.000  H
  H142     1.0000 0.07999  0.46426  0.38032  Biso   1.000  H
  H143     1.0000 0.86145  0.37200  0.52167  Biso   1.000  H
  H144     1.0000 0.00478  0.59619  0.60709  Biso   1.000  H
  H145     1.0000 0.59313  0.46121  0.88321  Biso   1.000  H
  H146     1.0000 0.86727  0.54805  0.52951  Biso   1.000  H
  H147     1.0000 0.49917  0.83751  0.61663  Biso   1.000  H
  H148     1.0000 0.09745  0.45785  0.64258  Biso   1.000  H
  H149     1.0000 0.36581  0.55529  0.02174  Biso   1.000  H
  H150     1.0000 0.98457  0.82779  0.92566  Biso   1.000  H
  H151     1.0000 0.89874  0.95529  0.89195  Biso   1.000  H
  H152     1.0000 0.63069  0.05751  0.52597  Biso   1.000  H
  H153     1.0000 0.00448  0.33231  0.60694  Biso   1.000  H
  H154     1.0000 0.39897  0.96915  0.63692  Biso   1.000  H
  H155     1.0000 0.13481  0.05926  0.00569  Biso   1.000  H
  H156     1.0000 0.50757  0.33887  0.91379  Biso   1.000  H
  H157     1.0000 0.40146  0.45864  0.14724  Biso   1.000  H
  H158     1.0000 0.12953  0.38083  0.51054  Biso   1.000  H
  H159     1.0000 0.50602  0.09801  0.41531  Biso   1.000  H
  H160     1.0000 0.89738  0.45721  0.39071  Biso   1.000  H
  H161     1.0000 0.63167  0.37806  0.01558  Biso   1.000  H
  H162     1.0000 0.01029  0.09850  0.11543  Biso   1.000  H
  H163     1.0000 0.10197  0.96572  0.14595  Biso   1.000  H
  H164     1.0000 0.37183  0.87927  0.50511  Biso   1.000  H
  H165     1.0000 0.99800  0.59431  0.42423  Biso   1.000  H
  H166     1.0000 0.60411  0.96359  0.39444  Biso   1.000  H
  H167     1.0000 0.86304  0.87650  0.02115  Biso   1.000  H
  H168     1.0000 0.50060  0.59903  0.11233  Biso   1.000  H
  H169     1.0000 0.97584  0.05799  0.89161  Biso   1.000  H
  H170     1.0000 0.87614  0.95631  0.11818  Biso   1.000  H
  H171     1.0000 0.08487  0.82937  0.00864  Biso   1.000  H
  H172     1.0000 0.50532  0.06291  0.63870  Biso   1.000  H
  H173     1.0000 0.37794  0.97514  0.41455  Biso   1.000  H
  H174     1.0000 0.59618  0.83518  0.53893  Biso   1.000  H
  H175     1.0000 0.50157  0.56494  0.89137  Biso   1.000  H
  H176     1.0000 0.62743  0.47553  0.11229  Biso   1.000  H
  H177     1.0000 0.40943  0.32670  0.01039  Biso   1.000  H
  H178     1.0000 0.01778  0.55210  0.64588  Biso   1.000  H
  H179     1.0000 0.12453  0.47506  0.41840  Biso   1.000  H
  H180     1.0000 0.89831  0.32896  0.52224  Biso   1.000  H
  H181     1.0000 0.00854  0.87099  0.14814  Biso   1.000  H
  H182     1.0000 0.13195  0.95873  0.91718  Biso   1.000  H
  H183     1.0000 0.91105  0.10146  0.02550  Biso   1.000  H
  H184     1.0000 0.50597  0.87804  0.38780  Biso   1.000  H
  H185     1.0000 0.62716  0.98361  0.62275  Biso   1.000  H
  H186     1.0000 0.40937  0.10762  0.49912  Biso   1.000  H
  H187     1.0000 0.49059  0.36739  0.14042  Biso   1.000  H
  H188     1.0000 0.36665  0.46829  0.92156  Biso   1.000  H
  H189     1.0000 0.58849  0.60219  0.00966  Biso   1.000  H
  H190     1.0000 0.98498  0.37371  0.38256  Biso   1.000  H
  H191     1.0000 0.86485  0.45721  0.61180  Biso   1.000  H
  H192     1.0000 0.09461  0.60213  0.51303  Biso   1.000  H
  H193     1.0000 0.27990  0.82931  0.46960  Biso   1.000  H
  H194     1.0000 0.51113  0.24208  0.85776  Biso   1.000  H
  H195     1.0000 0.84583  0.47414  0.29331  Biso   1.000  H
  H196     1.0000 0.76430  0.82939  0.02588  Biso   1.000  H
  H197     1.0000 0.00268  0.23652  0.66127  Biso   1.000  H
  H198     1.0000 0.34780  0.43891  0.23932  Biso   1.000  H
  H199     1.0000 0.22449  0.32606  0.49866  Biso   1.000  H
  H200     1.0000 0.97228  0.73605  0.86476  Biso   1.000  H
  H201     1.0000 0.66499  0.96329  0.30088  Biso   1.000  H
  H202     1.0000 0.72801  0.32897  0.00399  Biso   1.000  H
  H203     1.0000 0.51204  0.74399  0.67302  Biso   1.000  H
  H204     1.0000 0.16052  0.97437  0.23752  Biso   1.000  H
  H205     1.0000 0.72341  0.10949  0.55281  Biso   1.000  H
  H206     1.0000 0.50206  0.69042  0.16989  Biso   1.000  H
  H207     1.0000 0.14909  0.43901  0.73828  Biso   1.000  H
  H208     1.0000 0.22704  0.10888  0.03081  Biso   1.000  H
  H209     1.0000 0.99884  0.69169  0.37034  Biso   1.000  H
  H210     1.0000 0.65061  0.48200  0.79026  Biso   1.000  H
  H211     1.0000 0.77404  0.61208  0.54045  Biso   1.000  H
  H212     1.0000 0.00228  0.19407  0.16942  Biso   1.000  H
  H213     1.0000 0.33633  0.96803  0.72778  Biso   1.000  H
  H214     1.0000 0.26814  0.60227  0.99660  Biso   1.000  H
  H215     1.0000 0.49411  0.19131  0.35828  Biso   1.000  H
  H216     1.0000 0.84683  0.94974  0.79862  Biso   1.000  H
  H217     1.0000 0.22134  0.47684  0.36248  Biso   1.000  H
  H218     1.0000 0.35520  0.20232  0.50609  Biso   1.000  H
  H219     1.0000 0.51613  0.31527  0.23606  Biso   1.000  H
  H220     1.0000 0.72195  0.47874  0.16790  Biso   1.000  H
  H221     1.0000 0.86172  0.19877  0.00802  Biso   1.000  H
  H222     1.0000 0.97836  0.31757  0.28987  Biso   1.000  H
  H223     1.0000 0.29017  0.98608  0.35152  Biso   1.000  H
  H224     1.0000 0.14847  0.69877  0.50979  Biso   1.000  H
  H225     1.0000 0.99550  0.81923  0.24524  Biso   1.000  H
  H226     1.0000 0.78202  0.97209  0.17583  Biso   1.000  H
  H227     1.0000 0.63923  0.69825  0.02784  Biso   1.000  H
  H228     1.0000 0.49636  0.82241  0.29083  Biso   1.000  H
  H229     1.0000 0.77401  0.45636  0.67548  Biso   1.000  H
  H230     1.0000 0.64505  0.73647  0.54986  Biso   1.000  H
  H231     1.0000 0.49981  0.61970  0.79817  Biso   1.000  H
  H232     1.0000 0.26946  0.46183  0.87163  Biso   1.000  H
  H233     1.0000 0.13615  0.73139  0.99215  Biso   1.000  H
  H234     1.0000 0.01568  0.60945  0.74173  Biso   1.000  H
  H235     1.0000 0.72242  0.97328  0.67716  Biso   1.000  H
  H236     1.0000 0.85003  0.23324  0.54611  Biso   1.000  H
  H237     1.0000 0.96915  0.10962  0.79322  Biso   1.000  H
  H238     1.0000 0.22075  0.96389  0.85184  Biso   1.000  H
  H239     1.0000 0.35996  0.22649  0.01061  Biso   1.000  H
  H240     1.0000 0.49599  0.12057  0.73501  Biso   1.000  H
  H241     1.0000 0.73293  0.47087  0.88065  Biso   1.000  H
  H242     1.0000 0.85314  0.68553  0.50671  Biso   1.000  H
  H243     1.0000 0.51091  0.83169  0.75109  Biso   1.000  H
  H244     1.0000 0.23650  0.45390  0.65588  Biso   1.000  H
  H245     1.0000 0.34853  0.69091  0.01176  Biso   1.000  H
  H246     1.0000 0.00792  0.82401  0.78828  Biso   1.000  H
  H247     1.0000 0.76020  0.94521  0.89151  Biso   1.000  H
  H248     1.0000 0.63501  0.19686  0.52918  Biso   1.000  H
  H249     1.0000 0.98510  0.32461  0.74151  Biso   1.000  H
  H250     1.0000 0.26079  0.95814  0.63828  Biso   1.000  H
  H251     1.0000 0.14270  0.19507  0.02235  Biso   1.000  H
  H252     1.0000 0.48920  0.33884  0.77538  Biso   1.000  H
  H253     1.0000 0.26046  0.46359  0.15257  Biso   1.000  H
  H254     1.0000 0.13942  0.24144  0.51573  Biso   1.000  H
  H255     1.0000 0.52841  0.10154  0.27798  Biso   1.000  H
  H256     1.0000 0.76125  0.47787  0.38695  Biso   1.000  H
  H257     1.0000 0.65012  0.24055  0.98965  Biso   1.000  H
  H258     1.0000 0.99328  0.10714  0.25245  Biso   1.000  H
  H259     1.0000 0.24014  0.96937  0.14040  Biso   1.000  H
  H260     1.0000 0.35949  0.74213  0.51354  Biso   1.000  H
  H261     1.0000 0.97628  0.60617  0.28596  Biso   1.000  H
  H262     1.0000 0.74661  0.97007  0.39610  Biso   1.000  H
  H263     1.0000 0.85260  0.73971  0.03424  Biso   1.000  H
  H264     1.0000 0.50184  0.60283  0.25025  Biso   1.000  H
  H265     1.0000 0.99346  0.19790  0.87947  Biso   1.000  H
  H266     1.0000 0.87316  0.95751  0.25779  Biso   1.000  H
  H267     1.0000 0.22457  0.81353  0.00095  Biso   1.000  H
  H268     1.0000 0.51585  0.20124  0.64984  Biso   1.000  H
  H269     1.0000 0.37814  0.98575  0.27440  Biso   1.000  H
  H270     1.0000 0.73415  0.82173  0.53546  Biso   1.000  H
  H271     1.0000 0.49056  0.70225  0.88145  Biso   1.000  H
  H272     1.0000 0.63070  0.48106  0.24594  Biso   1.000  H
  H273     1.0000 0.27326  0.31369  0.03345  Biso   1.000  H
  H274     1.0000 0.01782  0.69265  0.65675  Biso   1.000  H
  H275     1.0000 0.13334  0.45386  0.28063  Biso   1.000  H
  H276     1.0000 0.76445  0.31934  0.52177  Biso   1.000  H
  H277     1.0000 0.99510  0.73475  0.15637  Biso   1.000  H
  H278     1.0000 0.12198  0.96917  0.77899  Biso   1.000  H
  H279     1.0000 0.77058  0.11551  0.02141  Biso   1.000  H
  H280     1.0000 0.49781  0.73569  0.38049  Biso   1.000  H
  H281     1.0000 0.62853  0.95903  0.75643  Biso   1.000  H
  H282     1.0000 0.27105  0.11596  0.50989  Biso   1.000  H
  H283     1.0000 0.52659  0.23419  0.14389  Biso   1.000  H
  H284     1.0000 0.36112  0.45376  0.78405  Biso   1.000  H
  H285     1.0000 0.72552  0.61192  0.00317  Biso   1.000  H
  H286     1.0000 0.00160  0.23497  0.37542  Biso   1.000  H
  H287     1.0000 0.86575  0.48161  0.75081  Biso   1.000  H
  H288     1.0000 0.23368  0.60919  0.50170  Biso   1.000  H
  H289     1.0000 0.09096  0.19226  0.01119  Biso   1.000  H
  H290     1.0000 0.99842  0.05627  0.25274  Biso   1.000  H
  H291     1.0000 0.23437  0.96405  0.08897  Biso   1.000  H
  H292     1.0000 0.58365  0.19198  0.51253  Biso   1.000  H
  H293     1.0000 0.54041  0.04986  0.28502  Biso   1.000  H
  H294     1.0000 0.73763  0.97055  0.45028  Biso   1.000  H
  H295     1.0000 0.40385  0.69113  0.01525  Biso   1.000  H
  H296     1.0000 0.49765  0.54885  0.24904  Biso   1.000  H
  H297     1.0000 0.26963  0.47206  0.09733  Biso   1.000  H
  H298     1.0000 0.90739  0.68548  0.50043  Biso   1.000  H
  H299     1.0000 0.97216  0.55133  0.29154  Biso   1.000  H
  H300     1.0000 0.76380  0.47958  0.44089  Biso   1.000  H
  H301     1.0000 0.90796  0.74066  0.02798  Biso   1.000  H
  H302     1.0000 0.01020  0.87685  0.79159  Biso   1.000  H
  H303     1.0000 0.76755  0.94935  0.94730  Biso   1.000  H
  H304     1.0000 0.41139  0.74158  0.52014  Biso   1.000  H
  H305     1.0000 0.50038  0.88536  0.75495  Biso   1.000  H
  H306     1.0000 0.26510  0.96041  0.58313  Biso   1.000  H
  H307     1.0000 0.59775  0.23839  0.98449  Biso   1.000  H
  H308     1.0000 0.49211  0.39150  0.78113  Biso   1.000  H
  H309     1.0000 0.72732  0.46199  0.93192  Biso   1.000  H
  H310     1.0000 0.08510  0.24024  0.51329  Biso   1.000  H
  H311     1.0000 0.98784  0.37695  0.73732  Biso   1.000  H
  H312     1.0000 0.23627  0.45968  0.59703  Biso   1.000  H
  H313     1.0000 0.22691  0.95785  0.90351  Biso   1.000  H
  H314     1.0000 0.91632  0.19526  0.01251  Biso   1.000  H
  H315     1.0000 0.00536  0.87047  0.24598  Biso   1.000  H
  H316     1.0000 0.72173  0.97496  0.62503  Biso   1.000  H
  H317     1.0000 0.41064  0.20139  0.50938  Biso   1.000  H
  H318     1.0000 0.49829  0.87329  0.29226  Biso   1.000  H
  H319     1.0000 0.27254  0.46092  0.92513  Biso   1.000  H
  H320     1.0000 0.58634  0.69538  0.02436  Biso   1.000  H
  H321     1.0000 0.50757  0.36959  0.23721  Biso   1.000  H
  H322     1.0000 0.77021  0.44571  0.62378  Biso   1.000  H
  H323     1.0000 0.09013  0.69538  0.50621  Biso   1.000  H
  H324     1.0000 0.97744  0.37359  0.28943  Biso   1.000  H
  H325     1.0000 0.78013  0.96447  0.12176  Biso   1.000  H
  H326     1.0000 0.08313  0.73169  0.00086  Biso   1.000  H
  H327     1.0000 0.96465  0.05604  0.79861  Biso   1.000  H
  H328     1.0000 0.28544  0.98872  0.40780  Biso   1.000  H
  H329     1.0000 0.59035  0.73972  0.54274  Biso   1.000  H
  H330     1.0000 0.49221  0.06560  0.73508  Biso   1.000  H
  H331     1.0000 0.72379  0.47631  0.11133  Biso   1.000  H
  H332     1.0000 0.41542  0.23258  0.00793  Biso   1.000  H
  H333     1.0000 0.50881  0.56746  0.79607  Biso   1.000  H
  H334     1.0000 0.21874  0.48379  0.41419  Biso   1.000  H
  H335     1.0000 0.90461  0.23485  0.54407  Biso   1.000  H
  H336     1.0000 0.01607  0.55688  0.74110  Biso   1.000  H
  H337     1.0000 0.99050  0.19457  0.93544  Biso   1.000  H
  H338     1.0000 0.92515  0.96312  0.25390  Biso   1.000  H
  H339     1.0000 0.22678  0.86819  0.99983  Biso   1.000  H
  H340     1.0000 0.51802  0.20254  0.59527  Biso   1.000  H
  H341     1.0000 0.43652  0.97678  0.27921  Biso   1.000  H
  H342     1.0000 0.73294  0.87318  0.53188  Biso   1.000  H
  H343     1.0000 0.48228  0.69963  0.93557  Biso   1.000  H
  H344     1.0000 0.58028  0.47386  0.24422  Biso   1.000  H
  H345     1.0000 0.27446  0.37044  0.03191  Biso   1.000  H
  H346     1.0000 0.01326  0.69423  0.60339  Biso   1.000  H
  H347     1.0000 0.07919  0.45144  0.28383  Biso   1.000  H
  H348     1.0000 0.76768  0.37270  0.52669  Biso   1.000  H
  H349     1.0000 0.99803  0.73752  0.10279  Biso   1.000  H
  H350     1.0000 0.07166  0.96819  0.78597  Biso   1.000  H
  H351     1.0000 0.77202  0.06260  0.02753  Biso   1.000  H
  H352     1.0000 0.49701  0.73738  0.43432  Biso   1.000  H
  H353     1.0000 0.57305  0.96151  0.75239  Biso   1.000  H
  H354     1.0000 0.27338  0.06271  0.51017  Biso   1.000  H
  H355     1.0000 0.52134  0.23450  0.09208  Biso   1.000  H
  H356     1.0000 0.41644  0.46018  0.78559  Biso   1.000  H
  H357     1.0000 0.72443  0.55596  0.00352  Biso   1.000  H
  H358     1.0000 0.00117  0.23698  0.42888  Biso   1.000  H
  H359     1.0000 0.92262  0.47873  0.74335  Biso   1.000  H
  H360     1.0000 0.22868  0.55689  0.50375  Biso   1.000  H
  H361     1.0000 0.99855  0.69124  0.42676  Biso   1.000  H
  H362     1.0000 0.38708  0.97295  0.73502  Biso   1.000  H
  H363     1.0000 0.72778  0.38269  0.00695  Biso   1.000  H
  H364     1.0000 0.50349  0.69488  0.11620  Biso   1.000  H
  H365     1.0000 0.89713  0.94905  0.79653  Biso   1.000  H
  H366     1.0000 0.22071  0.37955  0.49296  Biso   1.000  H
  H367     1.0000 0.48404  0.19303  0.41097  Biso   1.000  H
  H368     1.0000 0.09584  0.43850  0.73516  Biso   1.000  H
  H369     1.0000 0.76773  0.88117  0.02289  Biso   1.000  H
  H370     1.0000 0.01648  0.19574  0.11767  Biso   1.000  H
  H371     1.0000 0.59637  0.47934  0.78719  Biso   1.000  H
  H372     1.0000 0.28037  0.88451  0.47127  Biso   1.000  H
  H373     1.0000 0.01318  0.23511  0.60579  Biso   1.000  H
  H374     1.0000 0.61146  0.96085  0.29930  Biso   1.000  H
  H375     1.0000 0.27012  0.54902  0.00085  Biso   1.000  H
  H376     1.0000 0.51346  0.24319  0.90953  Biso   1.000  H
  H377     1.0000 0.10474  0.96792  0.23878  Biso   1.000  H
  H378     1.0000 0.76957  0.55380  0.54133  Biso   1.000  H
  H379     1.0000 0.50918  0.74034  0.61977  Biso   1.000  H
  H380     1.0000 0.89932  0.46634  0.29703  Biso   1.000  H
  H381     1.0000 0.22900  0.05297  0.02416  Biso   1.000  H
  H382     1.0000 0.96914  0.73265  0.92086  Biso   1.000  H
  H383     1.0000 0.39982  0.44381  0.23962  Biso   1.000  H
  H384     1.0000 0.72229  0.05711  0.54912  Biso   1.000  H
  H385     1.0000 0.21369  0.43470  0.33621  Biso   1.000  H
  H386     1.0000 0.26872  0.14255  0.48217  Biso   1.000  H
  H387     1.0000 0.48616  0.28739  0.23128  Biso   1.000  H
  H388     1.0000 0.66718  0.45175  0.24844  Biso   1.000  H
  H389     1.0000 0.83054  0.20262  0.04271  Biso   1.000  H
  H390     1.0000 0.97106  0.23037  0.35050  Biso   1.000  H
  H391     1.0000 0.30176  0.94826  0.32911  Biso   1.000  H
  H392     1.0000 0.17303  0.69767  0.47759  Biso   1.000  H
  H393     1.0000 0.96452  0.73785  0.18823  Biso   1.000  H
  H394     1.0000 0.78607  0.93535  0.20782  Biso   1.000  H
  H395     1.0000 0.72655  0.63514  0.04164  Biso   1.000  H
  H396     1.0000 0.53100  0.78847  0.29583  Biso   1.000  H
  H397     1.0000 0.78051  0.50251  0.69252  Biso   1.000  H
  H398     1.0000 0.73366  0.78942  0.56478  Biso   1.000  H
  H399     1.0000 0.54371  0.65342  0.81194  Biso   1.000  H
  H400     1.0000 0.32319  0.48730  0.78524  Biso   1.000  H
  H401     1.0000 0.21564  0.78279  0.96182  Biso   1.000  H
  H402     1.0000 0.04020  0.64258  0.74477  Biso   1.000  H
  H403     1.0000 0.71283  0.93998  0.70534  Biso   1.000  H
  H404     1.0000 0.76861  0.29194  0.55953  Biso   1.000  H
  H405     1.0000 0.95768  0.19999  0.84979  Biso   1.000  H
  H406     1.0000 0.21890  0.99368  0.82564  Biso   1.000  H
  H407     1.0000 0.27301  0.28595  0.99330  Biso   1.000  H
  H408     1.0000 0.46946  0.15019  0.72249  Biso   1.000  H
  H409     1.0000 0.25995  0.43019  0.18021  Biso   1.000  H
  H410     1.0000 0.16761  0.24355  0.47874  Biso   1.000  H
  H411     1.0000 0.46654  0.17876  0.32326  Biso   1.000  H
  H412     1.0000 0.81482  0.44825  0.29688  Biso   1.000  H
  H413     1.0000 0.68498  0.24837  0.96387  Biso   1.000  H
  H414     1.0000 0.96978  0.18756  0.19356  Biso   1.000  H
  H415     1.0000 0.19143  0.94766  0.23259  Biso   1.000  H
  H416     1.0000 0.33576  0.73551  0.48187  Biso   1.000  H
  H417     1.0000 0.94706  0.64352  0.29394  Biso   1.000  H
  H418     1.0000 0.74694  0.93262  0.36073  Biso   1.000  H
  H419     1.0000 0.81807  0.74719  0.06462  Biso   1.000  H
  H420     1.0000 0.47093  0.63572  0.24689  Biso   1.000  H
  H421     1.0000 0.72541  0.50704  0.85391  Biso   1.000  H
  H422     1.0000 0.83512  0.68765  0.54744  Biso   1.000  H
  H423     1.0000 0.54119  0.75109  0.70266  Biso   1.000  H
  H424     1.0000 0.17933  0.47877  0.73868  Biso   1.000  H
  H425     1.0000 0.32555  0.68708  0.97789  Biso   1.000  H
  H426     1.0000 0.01149  0.73597  0.84564  Biso   1.000  H
  H427     1.0000 0.76300  0.98464  0.86476  Biso   1.000  H
  H428     1.0000 0.71741  0.14170  0.57261  Biso   1.000  H
  H429     1.0000 0.01366  0.29517  0.74843  Biso   1.000  H
  H430     1.0000 0.30810  0.93456  0.72288  Biso   1.000  H
  H431     1.0000 0.22794  0.14049  0.99592  Biso   1.000  H
  H432     1.0000 0.47507  0.24503  0.82954  Biso   1.000  H
  H433     1.0000 0.25913  0.99728  0.66903  Biso   1.000  H
  H434     1.0000 0.72408  0.29926  0.03503  Biso   1.000  H
  H435     1.0000 0.02878  0.68212  0.33751  Biso   1.000  H
  H436     1.0000 0.80774  0.92246  0.81159  Biso   1.000  H
  H437     1.0000 0.21965  0.29721  0.53913  Biso   1.000  H
  H438     1.0000 0.53728  0.68315  0.20071  Biso   1.000  H
  H439     1.0000 0.23163  0.42341  0.68123  Biso   1.000  H
  H440     1.0000 0.77234  0.79390  0.99570  Biso   1.000  H
  H441     1.0000 0.54852  0.13831  0.28761  Biso   1.000  H
  H442     1.0000 0.68288  0.44894  0.79376  Biso   1.000  H
  H443     1.0000 0.26983  0.80444  0.50083  Biso   1.000  H
  H444     1.0000 0.02527  0.13521  0.25042  Biso   1.000  H
  H445     1.0000 0.69567  0.99664  0.30777  Biso   1.000  H
  H446     1.0000 0.26442  0.63389  0.03154  Biso   1.000  H
  H447     1.0000 0.96549  0.23507  0.68849  Biso   1.000  H
  H448     1.0000 0.24371  0.99483  0.16992  Biso   1.000  H
  H449     1.0000 0.77170  0.63275  0.50155  Biso   1.000  H
  H450     1.0000 0.52306  0.30554  0.77342  Biso   1.000  H
  H451     1.0000 0.76053  0.50376  0.35279  Biso   1.000  H
  H452     1.0000 0.17239  0.19693  0.05601  Biso   1.000  H
  H453     1.0000 0.47493  0.80125  0.74954  Biso   1.000  H
  H454     1.0000 0.32118  0.47957  0.23772  Biso   1.000  H
  H455     1.0000 0.67278  0.19263  0.50075  Biso   1.000  H
  H456     1.0000 0.96965  0.79331  0.78397  Biso   1.000  H
  H457     1.0000 0.67197  0.73763  0.51351  Biso   1.000  H
  H458     1.0000 0.46076  0.69148  0.84254  Biso   1.000  H
  H459     1.0000 0.82950  0.44790  0.75388  Biso   1.000  H
  H460     1.0000 0.16827  0.73616  0.03201  Biso   1.000  H
  H461     1.0000 0.97802  0.68248  0.68282  Biso   1.000  H
  H462     1.0000 0.27653  0.42556  0.84072  Biso   1.000  H
  H463     1.0000 0.82414  0.22931  0.51133  Biso   1.000  H
  H464     1.0000 0.01157  0.13714  0.79841  Biso   1.000  H
  H465     1.0000 0.66065  0.99579  0.76434  Biso   1.000  H
  H466     1.0000 0.33158  0.22895  0.04753  Biso   1.000  H
  H467     1.0000 0.54490  0.18989  0.68650  Biso   1.000  H
  H468     1.0000 0.15512  0.94377  0.77176  Biso   1.000  H
  H469     1.0000 0.32457  0.19444  0.53727  Biso   1.000  H
  H470     1.0000 0.54997  0.23622  0.18018  Biso   1.000  H
  H471     1.0000 0.16266  0.49033  0.27386  Biso   1.000  H
  H472     1.0000 0.78204  0.14375  0.98745  Biso   1.000  H
  H473     1.0000 0.01006  0.29281  0.28504  Biso   1.000  H
  H474     1.0000 0.71707  0.51451  0.19595  Biso   1.000  H
  H475     1.0000 0.23553  0.64220  0.52750  Biso   1.000  H
  H476     1.0000 0.02420  0.78597  0.24010  Biso   1.000  H
  H477     1.0000 0.34224  0.01737  0.27717  Biso   1.000  H
  H478     1.0000 0.67000  0.70002  0.99346  Biso   1.000  H
  H479     1.0000 0.46935  0.74236  0.35111  Biso   1.000  H
  H480     1.0000 0.84688  0.98945  0.25657  Biso   1.000  H
  N1       1.0000 0.67125  0.14454  0.53433  Biso   1.000  N
  N2       1.0000 0.50291  0.63767  0.20024  Biso   1.000  N
  N3       1.0000 0.18347  0.44912  0.68559  Biso   1.000  N
  N4       1.0000 0.17523  0.14262  0.02396  Biso   1.000  N
  N5       1.0000 0.98840  0.63866  0.34117  Biso   1.000  N
  N6       1.0000 0.67996  0.47441  0.84432  Biso   1.000  N
  N7       1.0000 0.82632  0.63487  0.52279  Biso   1.000  N
  N8       1.0000 0.99725  0.13898  0.19957  Biso   1.000  N
  N9       1.0000 0.31017  0.96754  0.67309  Biso   1.000  N
  N10      1.0000 0.31931  0.63647  0.00785  Biso   1.000  N
  N11      1.0000 0.51010  0.13778  0.32801  Biso   1.000  N
  N12      1.0000 0.81261  0.95411  0.85596  Biso   1.000  N
  N13      1.0000 0.32757  0.79487  0.49514  Biso   1.000  N
  N14      1.0000 0.49964  0.29834  0.82728  Biso   1.000  N
  N15      1.0000 0.81025  0.47507  0.34946  Biso   1.000  N
  N16      1.0000 0.81813  0.79419  0.02904  Biso   1.000  N
  N17      1.0000 0.99580  0.28716  0.69191  Biso   1.000  N
  N18      1.0000 0.31478  0.45425  0.18729  Biso   1.000  N
  N19      1.0000 0.17080  0.29461  0.50948  Biso   1.000  N
  N20      1.0000 0.98868  0.78886  0.83818  Biso   1.000  N
  N21      1.0000 0.69451  0.96541  0.35699  Biso   1.000  N
  N22      1.0000 0.67832  0.29555  0.00057  Biso   1.000  N
  N23      1.0000 0.50530  0.79884  0.70321  Biso   1.000  N
  N24      1.0000 0.19076  0.97328  0.18000  Biso   1.000  N
  N25      1.0000 0.82929  0.47040  0.70007  Biso   1.000  N
  N26      1.0000 0.67873  0.78868  0.54208  Biso   1.000  N
  N27      1.0000 0.49982  0.64970  0.85091  Biso   1.000  N
  N28      1.0000 0.32584  0.45805  0.83723  Biso   1.000  N
  N29      1.0000 0.16952  0.78432  0.99971  Biso   1.000  N
  N30      1.0000 0.01317  0.63996  0.68897  Biso   1.000  N
  N31      1.0000 0.66542  0.97159  0.71040  Biso   1.000  N
  N32      1.0000 0.81912  0.28398  0.53163  Biso   1.000  N
  N33      1.0000 0.98016  0.14541  0.84798  Biso   1.000  N
  N34      1.0000 0.16298  0.96647  0.82709  Biso   1.000  N
  N35      1.0000 0.32498  0.28240  0.01912  Biso   1.000  N
  N36      1.0000 0.50803  0.14822  0.68110  Biso   1.000  N
  N37      1.0000 0.16420  0.46681  0.33161  Biso   1.000  N
  N38      1.0000 0.32306  0.14759  0.50750  Biso   1.000  N
  N39      1.0000 0.51571  0.28514  0.18041  Biso   1.000  N
  N40      1.0000 0.66773  0.48057  0.19606  Biso   1.000  N
  N41      1.0000 0.82692  0.14843  0.01959  Biso   1.000  N
  N42      1.0000 0.99214  0.28768  0.34168  Biso   1.000  N
  N43      1.0000 0.34358  0.98429  0.32544  Biso   1.000  N
  N44      1.0000 0.18070  0.64432  0.50625  Biso   1.000  N
  N45      1.0000 0.00015  0.78536  0.19040  Biso   1.000  N
  N46      1.0000 0.83752  0.96179  0.20544  Biso   1.000  N
  N47      1.0000 0.67341  0.64417  0.01652  Biso   1.000  N
  N48      1.0000 0.50242  0.78905  0.34614  Biso   1.000  N
  O1       1.0000 0.34523  0.50515  0.00947  Biso   1.000  O
  O2       1.0000 0.99924  0.30892  0.55749  Biso   1.000  O
  O3       1.0000 0.55653  0.96202  0.36383  Biso   1.000  O
  O4       1.0000 0.84055  0.50422  0.53546  Biso   1.000  O
  O5       1.0000 0.50323  0.31192  0.96251  Biso   1.000  O
  O6       1.0000 0.05548  0.96312  0.17250  Biso   1.000  O
  O7       1.0000 0.15725  0.00569  0.00564  Biso   1.000  O
  O8       1.0000 0.49902  0.81222  0.56707  Biso   1.000  O
  O9       1.0000 0.94761  0.45976  0.36649  Biso   1.000  O
  O10      1.0000 0.65322  0.00728  0.53114  Biso   1.000  O
  O11      1.0000 0.98084  0.80474  0.97300  Biso   1.000  O
  O12      1.0000 0.44899  0.45521  0.16922  Biso   1.000  O
  O13      1.0000 0.65231  0.42844  0.02338  Biso   1.000  O
  O14      1.0000 0.99906  0.61829  0.47352  Biso   1.000  O
  O15      1.0000 0.44696  0.97393  0.66605  Biso   1.000  O
  O16      1.0000 0.15414  0.42904  0.50273  Biso   1.000  O
  O17      1.0000 0.50360  0.62306  0.06498  Biso   1.000  O
  O18      1.0000 0.94722  0.95587  0.86845  Biso   1.000  O
  O19      1.0000 0.84162  0.92612  0.02506  Biso   1.000  O
  O20      1.0000 0.49682  0.12205  0.46370  Biso   1.000  O
  O21      1.0000 0.05018  0.46002  0.66682  Biso   1.000  O
  O22      1.0000 0.34852  0.93086  0.49602  Biso   1.000  O
  O23      1.0000 0.00905  0.12495  0.06381  Biso   1.000  O
  O24      1.0000 0.54516  0.46588  0.85836  Biso   1.000  O
  O25      1.0000 0.97057  0.96623  0.17698  Biso   1.000  O
  O26      1.0000 0.15462  0.92289  0.00225  Biso   1.000  O
  O27      1.0000 0.99329  0.12354  0.98269  Biso   1.000  O
  O28      1.0000 0.47556  0.97613  0.35599  Biso   1.000  O
  O29      1.0000 0.66036  0.92479  0.53307  Biso   1.000  O
  O30      1.0000 0.50106  0.12882  0.54887  Biso   1.000  O
  O31      1.0000 0.53367  0.46831  0.17183  Biso   1.000  O
  O32      1.0000 0.34563  0.41691  0.01871  Biso   1.000  O
  O33      1.0000 0.49660  0.62528  0.98156  Biso   1.000  O
  O34      1.0000 0.03089  0.46179  0.35595  Biso   1.000  O
  O35      1.0000 0.83914  0.41862  0.52575  Biso   1.000  O
  O36      1.0000 0.00459  0.61964  0.55688  Biso   1.000  O
  O37      1.0000 0.03159  0.96903  0.86481  Biso   1.000  O
  O38      1.0000 0.84449  0.01376  0.02853  Biso   1.000  O
  O39      1.0000 0.00228  0.81117  0.05478  Biso   1.000  O
  O40      1.0000 0.53175  0.96794  0.67738  Biso   1.000  O
  O41      1.0000 0.34144  0.01252  0.50848  Biso   1.000  O
  O42      1.0000 0.50340  0.80927  0.48155  Biso   1.000  O
  O43      1.0000 0.46086  0.47244  0.85809  Biso   1.000  O
  O44      1.0000 0.65123  0.51215  0.01147  Biso   1.000  O
  O45      1.0000 0.50497  0.30639  0.04874  Biso   1.000  O
  O46      1.0000 0.96514  0.46819  0.67087  Biso   1.000  O
  O47      1.0000 0.15802  0.50952  0.51723  Biso   1.000  O
  O48      1.0000 0.98962  0.31220  0.47528  Biso   1.000  O
  O49      1.0000 0.01154  0.92055  0.17141  Biso   1.000  O
  O50      1.0000 0.16061  0.96335  0.96300  Biso   1.000  O
  O51      1.0000 0.95886  0.12466  0.02970  Biso   1.000  O
  O52      1.0000 0.50866  0.92609  0.36260  Biso   1.000  O
  O53      1.0000 0.65238  0.97251  0.57271  Biso   1.000  O
  O54      1.0000 0.45650  0.12748  0.50928  Biso   1.000  O
  O55      1.0000 0.49823  0.41957  0.16892  Biso   1.000  O
  O56      1.0000 0.34416  0.45659  0.97255  Biso   1.000  O
  O57      1.0000 0.53988  0.62355  0.02105  Biso   1.000  O
  O58      1.0000 0.99089  0.42019  0.35917  Biso   1.000  O
  O59      1.0000 0.84293  0.45272  0.56981  Biso   1.000  O
  O60      1.0000 0.04626  0.62484  0.51367  Biso   1.000  O
  O61      1.0000 0.98246  0.00809  0.86735  Biso   1.000  O
  O62      1.0000 0.85080  0.96397  0.06901  Biso   1.000  O
  O63      1.0000 0.03449  0.80740  0.00408  Biso   1.000  O
  O64      1.0000 0.49255  0.01454  0.66592  Biso   1.000  O
  O65      1.0000 0.35167  0.98169  0.46068  Biso   1.000  O
  O66      1.0000 0.54259  0.80967  0.52796  Biso   1.000  O
  O67      1.0000 0.50909  0.51246  0.86299  Biso   1.000  O
  O68      1.0000 0.64978  0.47713  0.06218  Biso   1.000  O
  O69      1.0000 0.45901  0.30767  0.00420  Biso   1.000  O
  O70      1.0000 0.01401  0.50465  0.67231  Biso   1.000  O
  O71      1.0000 0.15099  0.47451  0.46830  Biso   1.000  O
  O72      1.0000 0.95159  0.30754  0.52385  Biso   1.000  O
  O73      1.0000 0.00629  0.42270  0.66922  Biso   1.000  O
  O74      1.0000 0.66151  0.96258  0.48998  Biso   1.000  O
  O75      1.0000 0.45592  0.62421  0.02663  Biso   1.000  O
  O76      1.0000 0.50143  0.42982  0.85755  Biso   1.000  O
  O77      1.0000 0.15721  0.96785  0.04628  Biso   1.000  O
  O78      1.0000 0.96293  0.61705  0.51853  Biso   1.000  O
  O79      1.0000 0.48694  0.92959  0.67670  Biso   1.000  O
  O80      1.0000 0.83815  0.46582  0.48637  Biso   1.000  O
  O81      1.0000 0.04263  0.11931  0.01495  Biso   1.000  O
  O82      1.0000 0.99486  0.92095  0.86648  Biso   1.000  O
  O83      1.0000 0.34253  0.46575  0.05385  Biso   1.000  O
  O84      1.0000 0.53832  0.12131  0.50584  Biso   1.000  O
  O85      1.0000 0.98440  0.50481  0.36145  Biso   1.000  O
  O86      1.0000 0.34017  0.96484  0.54181  Biso   1.000  O
  O87      1.0000 0.54444  0.30830  0.00206  Biso   1.000  O
  O88      1.0000 0.48907  0.50400  0.17409  Biso   1.000  O
  O89      1.0000 0.84035  0.97106  0.98686  Biso   1.000  O
  O90      1.0000 0.03674  0.31254  0.51143  Biso   1.000  O
  O91      1.0000 0.52556  0.00634  0.35803  Biso   1.000  O
  O92      1.0000 0.16244  0.46207  0.55123  Biso   1.000  O
  O93      1.0000 0.95149  0.81520  0.02012  Biso   1.000  O
  O94      1.0000 0.01541  0.00637  0.17966  Biso   1.000  O
  O95      1.0000 0.65140  0.46357  0.97746  Biso   1.000  O
  O96      1.0000 0.46029  0.81397  0.52109  Biso   1.000  O
  O97      1.0000 0.45822  0.17658  0.51047  Biso   1.000  O
  O98      1.0000 0.49797  0.41578  0.21603  Biso   1.000  O
  O99      1.0000 0.19910  0.46971  0.46516  Biso   1.000  O
  O100     1.0000 0.95994  0.17331  0.03649  Biso   1.000  O
  O101     1.0000 0.98434  0.42039  0.31143  Biso   1.000  O
  O102     1.0000 0.69982  0.47825  0.06126  Biso   1.000  O
  O103     1.0000 0.04468  0.67240  0.50865  Biso   1.000  O
  O104     1.0000 0.01770  0.91969  0.22073  Biso   1.000  O
  O105     1.0000 0.30340  0.97954  0.45433  Biso   1.000  O
  O106     1.0000 0.53748  0.67175  0.02354  Biso   1.000  O
  O107     1.0000 0.51966  0.92053  0.31374  Biso   1.000  O
  O108     1.0000 0.80382  0.96295  0.07046  Biso   1.000  O
  O109     1.0000 0.54257  0.76360  0.53736  Biso   1.000  O
  O110     1.0000 0.50848  0.51728  0.81490  Biso   1.000  O
  O111     1.0000 0.79280  0.45315  0.57007  Biso   1.000  O
  O112     1.0000 0.03350  0.75827  0.00298  Biso   1.000  O
  O113     1.0000 0.01594  0.50523  0.72061  Biso   1.000  O
  O114     1.0000 0.29581  0.46059  0.97104  Biso   1.000  O
  O115     1.0000 0.95422  0.25883  0.52265  Biso   1.000  O
  O116     1.0000 0.97692  0.00965  0.81855  Biso   1.000  O
  O117     1.0000 0.70076  0.96788  0.57568  Biso   1.000  O
  O118     1.0000 0.46554  0.25917  0.00535  Biso   1.000  O
  O119     1.0000 0.48375  0.01735  0.71237  Biso   1.000  O
  O120     1.0000 0.20828  0.96267  0.95842  Biso   1.000  O
  O121     1.0000 0.04906  0.45711  0.71572  Biso   1.000  O
  O122     1.0000 0.70242  0.00866  0.53093  Biso   1.000  O
  O123     1.0000 0.49373  0.67074  0.06690  Biso   1.000  O
  O124     1.0000 0.54710  0.47321  0.81021  Biso   1.000  O
  O125     1.0000 0.20507  0.00566  0.00400  Biso   1.000  O
  O126     1.0000 0.00040  0.66813  0.47050  Biso   1.000  O
  O127     1.0000 0.43968  0.97867  0.71466  Biso   1.000  O
  O128     1.0000 0.79209  0.50455  0.53331  Biso   1.000  O
  O129     1.0000 0.01204  0.17335  0.06653  Biso   1.000  O
  O130     1.0000 0.94530  0.96036  0.81924  Biso   1.000  O
  O131     1.0000 0.29667  0.50132  0.00819  Biso   1.000  O
  O132     1.0000 0.49298  0.16937  0.46167  Biso   1.000  O
  O133     1.0000 0.94512  0.46438  0.31715  Biso   1.000  O
  O134     1.0000 0.29950  0.93215  0.48694  Biso   1.000  O
  O135     1.0000 0.50533  0.26325  0.95886  Biso   1.000  O
  O136     1.0000 0.44829  0.45293  0.21871  Biso   1.000  O
  O137     1.0000 0.79376  0.93004  0.02840  Biso   1.000  O
  O138     1.0000 0.00171  0.26084  0.55975  Biso   1.000  O
  O139     1.0000 0.56320  0.95709  0.31525  Biso   1.000  O
  O140     1.0000 0.20314  0.42701  0.50636  Biso   1.000  O
  O141     1.0000 0.98809  0.75609  0.97276  Biso   1.000  O
  O142     1.0000 0.05632  0.95896  0.22049  Biso   1.000  O
  O143     1.0000 0.70083  0.42922  0.02380  Biso   1.000  O
  O144     1.0000 0.49560  0.76295  0.57016  Biso   1.000  O
  O145     1.0000 0.53159  0.46294  0.21952  Biso   1.000  O
  O146     1.0000 0.20640  0.50964  0.50552  Biso   1.000  O
  O147     1.0000 0.50284  0.17737  0.54598  Biso   1.000  O
  O148     1.0000 0.02990  0.46160  0.30795  Biso   1.000  O
  O149     1.0000 0.70027  0.51101  0.00901  Biso   1.000  O
  O150     1.0000 0.98591  0.16996  0.98466  Biso   1.000  O
  O151     1.0000 0.97439  0.95931  0.22562  Biso   1.000  O
  O152     1.0000 0.29375  0.01456  0.50131  Biso   1.000  O
  O153     1.0000 0.00488  0.66725  0.55471  Biso   1.000  O
  O154     1.0000 0.48119  0.96654  0.30777  Biso   1.000  O
  O155     1.0000 0.79660  0.01352  0.03269  Biso   1.000  O
  O156     1.0000 0.49383  0.67403  0.98383  Biso   1.000  O
  O157     1.0000 0.46321  0.47759  0.81026  Biso   1.000  O
  O158     1.0000 0.79063  0.42096  0.52457  Biso   1.000  O
  O159     1.0000 0.50326  0.76053  0.48483  Biso   1.000  O
  O160     1.0000 0.96709  0.47081  0.71962  Biso   1.000  O
  O161     1.0000 0.29707  0.41657  0.01288  Biso   1.000  O
  O162     1.0000 0.99510  0.76288  0.05589  Biso   1.000  O
  O163     1.0000 0.02726  0.97568  0.81615  Biso   1.000  O
  O164     1.0000 0.70946  0.92373  0.53338  Biso   1.000  O
  O165     1.0000 0.98957  0.26432  0.47679  Biso   1.000  O
  O166     1.0000 0.52672  0.97555  0.72467  Biso   1.000  O
  O167     1.0000 0.20413  0.91766  0.99723  Biso   1.000  O
  O168     1.0000 0.50846  0.25920  0.04536  Biso   1.000  O
  O169     1.0000 0.01373  0.00435  0.22826  Biso   1.000  O
  O170     1.0000 0.20426  0.95720  0.04217  Biso   1.000  O
  O171     1.0000 0.04103  0.16726  0.01548  Biso   1.000  O
  O172     1.0000 0.52702  0.00466  0.30871  Biso   1.000  O
  O173     1.0000 0.71103  0.96299  0.49299  Biso   1.000  O
  O174     1.0000 0.53939  0.17160  0.50486  Biso   1.000  O
  O175     1.0000 0.48547  0.50140  0.22177  Biso   1.000  O
  O176     1.0000 0.29432  0.46423  0.05418  Biso   1.000  O
  O177     1.0000 0.45158  0.67193  0.02582  Biso   1.000  O
  O178     1.0000 0.98398  0.50212  0.31317  Biso   1.000  O
  O179     1.0000 0.78998  0.46562  0.48776  Biso   1.000  O
  O180     1.0000 0.95758  0.66458  0.51335  Biso   1.000  O
  O181     1.0000 0.99073  0.92563  0.81677  Biso   1.000  O
  O182     1.0000 0.79112  0.97371  0.99119  Biso   1.000  O
  O183     1.0000 0.95050  0.76509  0.02056  Biso   1.000  O
  O184     1.0000 0.48520  0.93711  0.72564  Biso   1.000  O
  O185     1.0000 0.29272  0.96766  0.53584  Biso   1.000  O
  O186     1.0000 0.45868  0.76598  0.52108  Biso   1.000  O
  O187     1.0000 0.50246  0.43658  0.80906  Biso   1.000  O
  O188     1.0000 0.70012  0.46484  0.97770  Biso   1.000  O
  O189     1.0000 0.54880  0.26059  0.00060  Biso   1.000  O
  O190     1.0000 0.99871  0.42195  0.71696  Biso   1.000  O
  O191     1.0000 0.21076  0.46817  0.54829  Biso   1.000  O
  O192     1.0000 0.03727  0.26423  0.51011  Biso   1.000  O
