data_image0
_cell_length_a       47.313
_cell_length_b       46.7955
_cell_length_c       46.5878
_cell_angle_alpha    90
_cell_angle_beta     90
_cell_angle_gamma    90

_symmetry_space_group_name_H-M    "P 1"
_symmetry_int_tables_number       1

loop_
  _symmetry_equiv_pos_as_xyz
  'x, y, z'

loop_
  _atom_site_label
  _atom_site_occupancy
  _atom_site_fract_x
  _atom_site_fract_y
  _atom_site_fract_z
  _atom_site_thermal_displace_type
  _atom_site_B_iso_or_equiv
  _atom_site_type_symbol
  C1       1.0000 0.56830  0.98204  0.33422  Biso   1.000  C
  C2       1.0000 0.32342  0.53377  0.01304  Biso   1.000  C
  C3       1.0000 0.00200  0.31390  0.55697  Biso   1.000  C
  C4       1.0000 0.06705  0.99239  0.18354  Biso   1.000  C
  C5       1.0000 0.82359  0.54671  0.49105  Biso   1.000  C
  C6       1.0000 0.51552  0.31304  0.95306  Biso   1.000  C
  C7       1.0000 0.95762  0.49941  0.31788  Biso   1.000  C
  C8       1.0000 0.19256  0.04067  0.00701  Biso   1.000  C
  C9       1.0000 0.50713  0.80857  0.56427  Biso   1.000  C
  C10      1.0000 0.46075  0.48520  0.18511  Biso   1.000  C
  C11      1.0000 0.68358  0.04513  0.50889  Biso   1.000  C
  C12      1.0000 0.00827  0.81047  0.95172  Biso   1.000  C
  C13      1.0000 0.44523  0.98753  0.68803  Biso   1.000  C
  C14      1.0000 0.68802  0.44260  0.99516  Biso   1.000  C
  C15      1.0000 0.00751  0.67104  0.45082  Biso   1.000  C
  C16      1.0000 0.94661  0.99328  0.81961  Biso   1.000  C
  C17      1.0000 0.18614  0.43215  0.51892  Biso   1.000  C
  C18      1.0000 0.49344  0.67035  0.06473  Biso   1.000  C
  C19      1.0000 0.05066  0.48406  0.69097  Biso   1.000  C
  C20      1.0000 0.82607  0.94354  0.00901  Biso   1.000  C
  C21      1.0000 0.50176  0.17435  0.44865  Biso   1.000  C
  C22      1.0000 0.54771  0.48503  0.82626  Biso   1.000  C
  C23      1.0000 0.32633  0.93466  0.49308  Biso   1.000  C
  C24      1.0000 0.00438  0.17889  0.05507  Biso   1.000  C
  C25      1.0000 0.32395  0.04354  0.50979  Biso   1.000  C
  C26      1.0000 0.50911  0.30768  0.06313  Biso   1.000  C
  C27      1.0000 0.06499  0.48758  0.32264  Biso   1.000  C
  C28      1.0000 0.83106  0.05157  0.01068  Biso   1.000  C
  C29      1.0000 0.99475  0.31369  0.44589  Biso   1.000  C
  C30      1.0000 0.56979  0.49187  0.18149  Biso   1.000  C
  C31      1.0000 0.18814  0.54032  0.50325  Biso   1.000  C
  C32      1.0000 0.00574  0.81352  0.06073  Biso   1.000  C
  C33      1.0000 0.46113  0.00444  0.32578  Biso   1.000  C
  C34      1.0000 0.68757  0.55086  0.99783  Biso   1.000  C
  C35      1.0000 0.50997  0.81300  0.45286  Biso   1.000  C
  C36      1.0000 0.95984  0.98761  0.18264  Biso   1.000  C
  C37      1.0000 0.69297  0.93822  0.51925  Biso   1.000  C
  C38      1.0000 0.50469  0.66768  0.95674  Biso   1.000  C
  C39      1.0000 0.94154  0.49225  0.68004  Biso   1.000  C
  C40      1.0000 0.18826  0.93304  0.00516  Biso   1.000  C
  C41      1.0000 0.01498  0.66371  0.55952  Biso   1.000  C
  C42      1.0000 0.43981  0.48815  0.82542  Biso   1.000  C
  C43      1.0000 0.82078  0.44046  0.50668  Biso   1.000  C
  C44      1.0000 0.02297  0.16771  0.94721  Biso   1.000  C
  C45      1.0000 0.55279  0.99634  0.69203  Biso   1.000  C
  C46      1.0000 0.32454  0.42427  0.01202  Biso   1.000  C
  C47      1.0000 0.49712  0.17119  0.56085  Biso   1.000  C
  C48      1.0000 0.05791  0.98498  0.82293  Biso   1.000  C
  C49      1.0000 0.00997  0.04179  0.82472  Biso   1.000  C
  C50      1.0000 0.82659  0.99555  0.06503  Biso   1.000  C
  C51      1.0000 0.05901  0.81159  0.01089  Biso   1.000  C
  C52      1.0000 0.49413  0.04524  0.68997  Biso   1.000  C
  C53      1.0000 0.33281  0.99836  0.44769  Biso   1.000  C
  C54      1.0000 0.56547  0.81583  0.50941  Biso   1.000  C
  C55      1.0000 0.49409  0.54167  0.83112  Biso   1.000  C
  C56      1.0000 0.69313  0.49798  0.04938  Biso   1.000  C
  C57      1.0000 0.45904  0.30792  0.00675  Biso   1.000  C
  C58      1.0000 0.99647  0.54390  0.68760  Biso   1.000  C
  C59      1.0000 0.18586  0.48186  0.45312  Biso   1.000  C
  C60      1.0000 0.94349  0.31007  0.50870  Biso   1.000  C
  C61      1.0000 0.01442  0.93757  0.18587  Biso   1.000  C
  C62      1.0000 0.19158  0.99033  0.94824  Biso   1.000  C
  C63      1.0000 0.96123  0.17458  0.99523  Biso   1.000  C
  C64      1.0000 0.50562  0.93958  0.32368  Biso   1.000  C
  C65      1.0000 0.68653  0.99544  0.56882  Biso   1.000  C
  C66      1.0000 0.44559  0.17422  0.50095  Biso   1.000  C
  C67      1.0000 0.52079  0.43452  0.18603  Biso   1.000  C
  C68      1.0000 0.32225  0.47764  0.95789  Biso   1.000  C
  C69      1.0000 0.55472  0.67019  0.01319  Biso   1.000  C
  C70      1.0000 0.00767  0.43995  0.32181  Biso   1.000  C
  C71      1.0000 0.81875  0.50304  0.55200  Biso   1.000  C
  C72      1.0000 0.06291  0.66813  0.50124  Biso   1.000  C
  C73      1.0000 0.01594  0.54788  0.32080  Biso   1.000  C
  C74      1.0000 0.32512  0.98008  0.55308  Biso   1.000  C
  C75      1.0000 0.56562  0.31358  0.01215  Biso   1.000  C
  C76      1.0000 0.51104  0.54175  0.18710  Biso   1.000  C
  C77      1.0000 0.82636  0.99422  0.95632  Biso   1.000  C
  C78      1.0000 0.05256  0.31307  0.49545  Biso   1.000  C
  C79      1.0000 0.52585  0.04504  0.33164  Biso   1.000  C
  C80      1.0000 0.18175  0.49225  0.56193  Biso   1.000  C
  C81      1.0000 0.95154  0.81229  0.00318  Biso   1.000  C
  C82      1.0000 0.01215  0.04735  0.18223  Biso   1.000  C
  C83      1.0000 0.68107  0.49456  0.94375  Biso   1.000  C
  C84      1.0000 0.45775  0.80947  0.50533  Biso   1.000  C
  C85      1.0000 0.99276  0.43514  0.68318  Biso   1.000  C
  C86      1.0000 0.69540  0.98622  0.46084  Biso   1.000  C
  C87      1.0000 0.44687  0.66550  0.00545  Biso   1.000  C
  C88      1.0000 0.49427  0.43402  0.82544  Biso   1.000  C
  C89      1.0000 0.19383  0.98481  0.05732  Biso   1.000  C
  C90      1.0000 0.95573  0.66390  0.50861  Biso   1.000  C
  C91      1.0000 0.50237  0.93726  0.69107  Biso   1.000  C
  C92      1.0000 0.83113  0.48592  0.44346  Biso   1.000  C
  C93      1.0000 0.06428  0.16584  0.01545  Biso   1.000  C
  C94      1.0000 0.00050  0.93610  0.82282  Biso   1.000  C
  C95      1.0000 0.32794  0.48167  0.06801  Biso   1.000  C
  C96      1.0000 0.55330  0.17533  0.51093  Biso   1.000  C
  C97      1.0000 0.68299  0.07743  0.50821  Biso   1.000  C
  C98      1.0000 0.49151  0.67170  0.09636  Biso   1.000  C
  C99      1.0000 0.08322  0.48344  0.69056  Biso   1.000  C
  C100     1.0000 0.19324  0.07177  0.01206  Biso   1.000  C
  C101     1.0000 0.00871  0.67216  0.41835  Biso   1.000  C
  C102     1.0000 0.57891  0.47889  0.82508  Biso   1.000  C
  C103     1.0000 0.82473  0.57866  0.49055  Biso   1.000  C
  C104     1.0000 0.00368  0.17779  0.08766  Biso   1.000  C
  C105     1.0000 0.41264  0.98380  0.68620  Biso   1.000  C
  C106     1.0000 0.32180  0.56589  0.01434  Biso   1.000  C
  C107     1.0000 0.50631  0.17481  0.41700  Biso   1.000  C
  C108     1.0000 0.91577  0.99055  0.82153  Biso   1.000  C
  C109     1.0000 0.32577  0.90196  0.49055  Biso   1.000  C
  C110     1.0000 0.51605  0.31229  0.92033  Biso   1.000  C
  C111     1.0000 0.92600  0.50151  0.31520  Biso   1.000  C
  C112     1.0000 0.82633  0.91085  0.00840  Biso   1.000  C
  C113     1.0000 0.00716  0.31163  0.58930  Biso   1.000  C
  C114     1.0000 0.42888  0.48226  0.18665  Biso   1.000  C
  C115     1.0000 0.18289  0.40039  0.52373  Biso   1.000  C
  C116     1.0000 0.00926  0.80837  0.91827  Biso   1.000  C
  C117     1.0000 0.59901  0.98518  0.33637  Biso   1.000  C
  C118     1.0000 0.69025  0.41051  0.99814  Biso   1.000  C
  C119     1.0000 0.50470  0.80894  0.59647  Biso   1.000  C
  C120     1.0000 0.10006  0.99177  0.18457  Biso   1.000  C
  C121     1.0000 0.82834  0.98606  0.09481  Biso   1.000  C
  C122     1.0000 0.09057  0.81002  0.00949  Biso   1.000  C
  C123     1.0000 0.01758  0.07320  0.82315  Biso   1.000  C
  C124     1.0000 0.33418  0.00488  0.41601  Biso   1.000  C
  C125     1.0000 0.59744  0.81607  0.50975  Biso   1.000  C
  C126     1.0000 0.49318  0.07745  0.69030  Biso   1.000  C
  C127     1.0000 0.69520  0.49260  0.08108  Biso   1.000  C
  C128     1.0000 0.42724  0.30486  0.01254  Biso   1.000  C
  C129     1.0000 0.48879  0.57444  0.83314  Biso   1.000  C
  C130     1.0000 0.18684  0.48956  0.42225  Biso   1.000  C
  C131     1.0000 0.91109  0.31009  0.50767  Biso   1.000  C
  C132     1.0000 0.99475  0.57584  0.68747  Biso   1.000  C
  C133     1.0000 0.18902  0.99298  0.91655  Biso   1.000  C
  C134     1.0000 0.92926  0.17558  0.00160  Biso   1.000  C
  C135     1.0000 0.01244  0.90543  0.18912  Biso   1.000  C
  C136     1.0000 0.68562  0.99416  0.59994  Biso   1.000  C
  C137     1.0000 0.41383  0.17201  0.49927  Biso   1.000  C
  C138     1.0000 0.50593  0.90821  0.32468  Biso   1.000  C
  C139     1.0000 0.31872  0.47419  0.92607  Biso   1.000  C
  C140     1.0000 0.58756  0.67274  0.01243  Biso   1.000  C
  C141     1.0000 0.52104  0.40348  0.18590  Biso   1.000  C
  C142     1.0000 0.81525  0.50691  0.58436  Biso   1.000  C
  C143     1.0000 0.09515  0.66967  0.50003  Biso   1.000  C
  C144     1.0000 0.01162  0.40820  0.32193  Biso   1.000  C
  C145     1.0000 0.32813  0.48060  0.10115  Biso   1.000  C
  C146     1.0000 0.08508  0.31199  0.49253  Biso   1.000  C
  C147     1.0000 0.53243  0.07675  0.33243  Biso   1.000  C
  C148     1.0000 0.83279  0.48552  0.41060  Biso   1.000  C
  C149     1.0000 0.59803  0.31660  0.01407  Biso   1.000  C
  C150     1.0000 0.01389  0.07903  0.18131  Biso   1.000  C
  C151     1.0000 0.19497  0.98442  0.08960  Biso   1.000  C
  C152     1.0000 0.42413  0.80925  0.50430  Biso   1.000  C
  C153     1.0000 0.01426  0.58003  0.32167  Biso   1.000  C
  C154     1.0000 0.69560  0.98736  0.42911  Biso   1.000  C
  C155     1.0000 0.91937  0.81266  0.00137  Biso   1.000  C
  C156     1.0000 0.50899  0.57310  0.18832  Biso   1.000  C
  C157     1.0000 0.68065  0.49169  0.91140  Biso   1.000  C
  C158     1.0000 0.92234  0.66644  0.50968  Biso   1.000  C
  C159     1.0000 0.49971  0.90553  0.68994  Biso   1.000  C
  C160     1.0000 0.18069  0.49382  0.59394  Biso   1.000  C
  C161     1.0000 0.41423  0.66428  0.00697  Biso   1.000  C
  C162     1.0000 0.99960  0.90404  0.82361  Biso   1.000  C
  C163     1.0000 0.82488  0.99636  0.92431  Biso   1.000  C
  C164     1.0000 0.58515  0.17389  0.51563  Biso   1.000  C
  C165     1.0000 0.98805  0.40365  0.68323  Biso   1.000  C
  C166     1.0000 0.32379  0.97307  0.58499  Biso   1.000  C
  C167     1.0000 0.09538  0.16394  0.02563  Biso   1.000  C
  C168     1.0000 0.50078  0.40341  0.82408  Biso   1.000  C
  C169     1.0000 0.00635  0.81372  0.09243  Biso   1.000  C
  C170     1.0000 0.09053  0.98218  0.82418  Biso   1.000  C
  C171     1.0000 0.83241  0.08329  0.01185  Biso   1.000  C
  C172     1.0000 0.50424  0.81472  0.42135  Biso   1.000  C
  C173     1.0000 0.58481  0.99798  0.69247  Biso   1.000  C
  C174     1.0000 0.32347  0.07552  0.51297  Biso   1.000  C
  C175     1.0000 0.51345  0.30626  0.09498  Biso   1.000  C
  C176     1.0000 0.40788  0.48456  0.82632  Biso   1.000  C
  C177     1.0000 0.68648  0.58177  0.00177  Biso   1.000  C
  C178     1.0000 0.99588  0.31383  0.41407  Biso   1.000  C
  C179     1.0000 0.91014  0.49892  0.67947  Biso   1.000  C
  C180     1.0000 0.18977  0.57365  0.50270  Biso   1.000  C
  C181     1.0000 0.02503  0.16678  0.91486  Biso   1.000  C
  C182     1.0000 0.92918  0.98199  0.18206  Biso   1.000  C
  C183     1.0000 0.18770  0.90138  0.00858  Biso   1.000  C
  C184     1.0000 0.50098  0.16898  0.59399  Biso   1.000  C
  C185     1.0000 0.43072  0.00266  0.32398  Biso   1.000  C
  C186     1.0000 0.69392  0.90701  0.51414  Biso   1.000  C
  C187     1.0000 0.50189  0.66642  0.92446  Biso   1.000  C
  C188     1.0000 0.60234  0.49325  0.17958  Biso   1.000  C
  C189     1.0000 0.32633  0.39300  0.00526  Biso   1.000  C
  C190     1.0000 0.01621  0.66392  0.59252  Biso   1.000  C
  C191     1.0000 0.09683  0.48174  0.32558  Biso   1.000  C
  C192     1.0000 0.81867  0.40807  0.50791  Biso   1.000  C
  C193     1.0000 0.85177  0.99301  0.90662  Biso   1.000  C
  C194     1.0000 0.90268  0.84117  0.00263  Biso   1.000  C
  C195     1.0000 0.00060  0.88942  0.85202  Biso   1.000  C
  C196     1.0000 0.35215  0.97276  0.60194  Biso   1.000  C
  C197     1.0000 0.40785  0.83623  0.50027  Biso   1.000  C
  C198     1.0000 0.50170  0.88890  0.66288  Biso   1.000  C
  C199     1.0000 0.65338  0.49026  0.89678  Biso   1.000  C
  C200     1.0000 0.61247  0.34368  0.00953  Biso   1.000  C
  C201     1.0000 0.50699  0.38913  0.85132  Biso   1.000  C
  C202     1.0000 0.15472  0.49399  0.61078  Biso   1.000  C
  C203     1.0000 0.10171  0.33809  0.49670  Biso   1.000  C
  C204     1.0000 0.99658  0.38861  0.65691  Biso   1.000  C
  C205     1.0000 0.16889  0.98513  0.10687  Biso   1.000  C
  C206     1.0000 0.11333  0.13711  0.02221  Biso   1.000  C
  C207     1.0000 0.01208  0.09599  0.15308  Biso   1.000  C
  C208     1.0000 0.66805  0.98613  0.41395  Biso   1.000  C
  C209     1.0000 0.60073  0.14616  0.51333  Biso   1.000  C
  C210     1.0000 0.52662  0.09425  0.35861  Biso   1.000  C
  C211     1.0000 0.35669  0.47840  0.11416  Biso   1.000  C
  C212     1.0000 0.39972  0.63622  0.00715  Biso   1.000  C
  C213     1.0000 0.50503  0.58913  0.16055  Biso   1.000  C
  C214     1.0000 0.86017  0.48506  0.39398  Biso   1.000  C
  C215     1.0000 0.90682  0.64000  0.50706  Biso   1.000  C
  C216     1.0000 0.01352  0.59574  0.34960  Biso   1.000  C
  C217     1.0000 0.10664  0.98528  0.85115  Biso   1.000  C
  C218     1.0000 0.85974  0.09739  0.01150  Biso   1.000  C
  C219     1.0000 0.00688  0.84010  0.10862  Biso   1.000  C
  C220     1.0000 0.60193  0.99724  0.66485  Biso   1.000  C
  C221     1.0000 0.34931  0.09291  0.51026  Biso   1.000  C
  C222     1.0000 0.50265  0.84149  0.40439  Biso   1.000  C
  C223     1.0000 0.39374  0.48103  0.85529  Biso   1.000  C
  C224     1.0000 0.65919  0.59730  0.00398  Biso   1.000  C
  C225     1.0000 0.51539  0.33402  0.10971  Biso   1.000  C
  C226     1.0000 0.89331  0.50220  0.65376  Biso   1.000  C
  C227     1.0000 0.16317  0.59067  0.50553  Biso   1.000  C
  C228     1.0000 0.99893  0.34031  0.39753  Biso   1.000  C
  C229     1.0000 0.91208  0.98339  0.15663  Biso   1.000  C
  C230     1.0000 0.16088  0.88481  0.00851  Biso   1.000  C
  C231     1.0000 0.02253  0.14036  0.89858  Biso   1.000  C
  C232     1.0000 0.41413  0.00631  0.35114  Biso   1.000  C
  C233     1.0000 0.66790  0.89087  0.51376  Biso   1.000  C
  C234     1.0000 0.49819  0.14215  0.60950  Biso   1.000  C
  C235     1.0000 0.61900  0.49137  0.15234  Biso   1.000  C
  C236     1.0000 0.35323  0.37761  0.00451  Biso   1.000  C
  C237     1.0000 0.49798  0.64100  0.90783  Biso   1.000  C
  C238     1.0000 0.11195  0.48715  0.35257  Biso   1.000  C
  C239     1.0000 0.84492  0.39131  0.50762  Biso   1.000  C
  C240     1.0000 0.00955  0.63823  0.60903  Biso   1.000  C
  C241     1.0000 0.59501  0.48627  0.85048  Biso   1.000  C
  C242     1.0000 0.85232  0.59141  0.49655  Biso   1.000  C
  C243     1.0000 0.50266  0.83724  0.61164  Biso   1.000  C
  C244     1.0000 0.09910  0.48713  0.66408  Biso   1.000  C
  C245     1.0000 0.34882  0.58266  0.01266  Biso   1.000  C
  C246     1.0000 0.00930  0.83511  0.90247  Biso   1.000  C
  C247     1.0000 0.90159  0.98890  0.85048  Biso   1.000  C
  C248     1.0000 0.65605  0.09246  0.51081  Biso   1.000  C
  C249     1.0000 0.00494  0.33819  0.60700  Biso   1.000  C
  C250     1.0000 0.39970  0.97903  0.65854  Biso   1.000  C
  C251     1.0000 0.16619  0.08640  0.01764  Biso   1.000  C
  C252     1.0000 0.51164  0.33859  0.90374  Biso   1.000  C
  C253     1.0000 0.41061  0.48179  0.16078  Biso   1.000  C
  C254     1.0000 0.15496  0.38616  0.51672  Biso   1.000  C
  C255     1.0000 0.50827  0.14673  0.40197  Biso   1.000  C
  C256     1.0000 0.91030  0.49608  0.34231  Biso   1.000  C
  C257     1.0000 0.66347  0.39571  0.00078  Biso   1.000  C
  C258     1.0000 0.00718  0.15078  0.10276  Biso   1.000  C
  C259     1.0000 0.11610  0.98657  0.15841  Biso   1.000  C
  C260     1.0000 0.35316  0.88691  0.49300  Biso   1.000  C
  C261     1.0000 0.00915  0.64564  0.40171  Biso   1.000  C
  C262     1.0000 0.61596  0.98587  0.36281  Biso   1.000  C
  C263     1.0000 0.85212  0.89432  0.00794  Biso   1.000  C
  C264     1.0000 0.49445  0.64376  0.11278  Biso   1.000  C
  C265     1.0000 0.01773  0.09038  0.84906  Biso   1.000  C
  C266     1.0000 0.85597  0.98614  0.11007  Biso   1.000  C
  C267     1.0000 0.10895  0.83586  0.01178  Biso   1.000  C
  C268     1.0000 0.49591  0.09336  0.66231  Biso   1.000  C
  C269     1.0000 0.36168  0.00452  0.40079  Biso   1.000  C
  C270     1.0000 0.61389  0.84325  0.50964  Biso   1.000  C
  C271     1.0000 0.49039  0.59181  0.85847  Biso   1.000  C
  C272     1.0000 0.66812  0.49419  0.09931  Biso   1.000  C
  C273     1.0000 0.40860  0.33008  0.00994  Biso   1.000  C
  C274     1.0000 0.99683  0.59078  0.66069  Biso   1.000  C
  C275     1.0000 0.16106  0.49100  0.40382  Biso   1.000  C
  C276     1.0000 0.89416  0.33850  0.51044  Biso   1.000  C
  C277     1.0000 0.01032  0.88886  0.16206  Biso   1.000  C
  C278     1.0000 0.16154  0.99374  0.90205  Biso   1.000  C
  C279     1.0000 0.91396  0.14946  0.00574  Biso   1.000  C
  C280     1.0000 0.50375  0.89276  0.35185  Biso   1.000  C
  C281     1.0000 0.65838  0.99548  0.61492  Biso   1.000  C
  C282     1.0000 0.39992  0.14461  0.50366  Biso   1.000  C
  C283     1.0000 0.51830  0.38733  0.16074  Biso   1.000  C
  C284     1.0000 0.34412  0.47562  0.90797  Biso   1.000  C
  C285     1.0000 0.60481  0.64664  0.00908  Biso   1.000  C
  C286     1.0000 0.00651  0.39249  0.34887  Biso   1.000  C
  C287     1.0000 0.84142  0.50717  0.60209  Biso   1.000  C
  C288     1.0000 0.11210  0.64361  0.50250  Biso   1.000  C
  C289     1.0000 0.35427  0.85601  0.49377  Biso   1.000  C
  C290     1.0000 0.50937  0.33757  0.87289  Biso   1.000  C
  C291     1.0000 0.87905  0.49360  0.34051  Biso   1.000  C
  C292     1.0000 0.85130  0.86234  0.00636  Biso   1.000  C
  C293     1.0000 0.00162  0.33633  0.63820  Biso   1.000  C
  C294     1.0000 0.38024  0.47690  0.16577  Biso   1.000  C
  C295     1.0000 0.15463  0.35523  0.51143  Biso   1.000  C
  C296     1.0000 0.00506  0.83614  0.87200  Biso   1.000  C
  C297     1.0000 0.64667  0.98681  0.36010  Biso   1.000  C
  C298     1.0000 0.66601  0.36470  0.00478  Biso   1.000  C
  C299     1.0000 0.49800  0.83641  0.64242  Biso   1.000  C
  C300     1.0000 0.14757  0.98829  0.15849  Biso   1.000  C
  C301     1.0000 0.65402  0.12508  0.50874  Biso   1.000  C
  C302     1.0000 0.50182  0.64346  0.14281  Biso   1.000  C
  C303     1.0000 0.13094  0.48969  0.66341  Biso   1.000  C
  C304     1.0000 0.16773  0.11836  0.02211  Biso   1.000  C
  C305     1.0000 0.00812  0.64821  0.37040  Biso   1.000  C
  C306     1.0000 0.62622  0.48256  0.84779  Biso   1.000  C
  C307     1.0000 0.85312  0.62223  0.50197  Biso   1.000  C
  C308     1.0000 0.00613  0.15011  0.13327  Biso   1.000  C
  C309     1.0000 0.36837  0.97452  0.65721  Biso   1.000  C
  C310     1.0000 0.34655  0.61354  0.00985  Biso   1.000  C
  C311     1.0000 0.51802  0.14786  0.37244  Biso   1.000  C
  C312     1.0000 0.87039  0.99054  0.85214  Biso   1.000  C
  C313     1.0000 0.16447  0.48442  0.37332  Biso   1.000  C
  C314     1.0000 0.36903  0.14514  0.50403  Biso   1.000  C
  C315     1.0000 0.52178  0.35697  0.16222  Biso   1.000  C
  C316     1.0000 0.67012  0.49223  0.13093  Biso   1.000  C
  C317     1.0000 0.88299  0.15097  0.00843  Biso   1.000  C
  C318     1.0000 0.00469  0.36174  0.34552  Biso   1.000  C
  C319     1.0000 0.36159  0.00508  0.36982  Biso   1.000  C
  C320     1.0000 0.14283  0.64513  0.50454  Biso   1.000  C
  C321     1.0000 0.01107  0.85834  0.16074  Biso   1.000  C
  C322     1.0000 0.85725  0.98585  0.14174  Biso   1.000  C
  C323     1.0000 0.63637  0.64811  0.00639  Biso   1.000  C
  C324     1.0000 0.50430  0.86226  0.35067  Biso   1.000  C
  C325     1.0000 0.84049  0.50013  0.63342  Biso   1.000  C
  C326     1.0000 0.64620  0.83994  0.51146  Biso   1.000  C
  C327     1.0000 0.49145  0.62247  0.85520  Biso   1.000  C
  C328     1.0000 0.34086  0.47393  0.87714  Biso   1.000  C
  C329     1.0000 0.13908  0.83316  0.00954  Biso   1.000  C
  C330     1.0000 0.99993  0.62107  0.66118  Biso   1.000  C
  C331     1.0000 0.65431  0.99774  0.64659  Biso   1.000  C
  C332     1.0000 0.86207  0.33764  0.50973  Biso   1.000  C
  C333     1.0000 0.01996  0.12114  0.84585  Biso   1.000  C
  C334     1.0000 0.16084  0.99200  0.86950  Biso   1.000  C
  C335     1.0000 0.37720  0.32646  0.01106  Biso   1.000  C
  C336     1.0000 0.49494  0.12418  0.66285  Biso   1.000  C
  C337     1.0000 0.65058  0.48577  0.86598  Biso   1.000  C
  C338     1.0000 0.87571  0.64180  0.50645  Biso   1.000  C
  C339     1.0000 0.49739  0.85803  0.66374  Biso   1.000  C
  C340     1.0000 0.15332  0.49100  0.64164  Biso   1.000  C
  C341     1.0000 0.36827  0.63540  0.00800  Biso   1.000  C
  C342     1.0000 0.00192  0.85755  0.85077  Biso   1.000  C
  C343     1.0000 0.85019  0.99300  0.87531  Biso   1.000  C
  C344     1.0000 0.63209  0.14690  0.50843  Biso   1.000  C
  C345     1.0000 0.99944  0.35803  0.65979  Biso   1.000  C
  C346     1.0000 0.34905  0.97398  0.63373  Biso   1.000  C
  C347     1.0000 0.14581  0.14038  0.02302  Biso   1.000  C
  C348     1.0000 0.50701  0.35852  0.85139  Biso   1.000  C
  C349     1.0000 0.35719  0.47602  0.14561  Biso   1.000  C
  C350     1.0000 0.13264  0.33610  0.50297  Biso   1.000  C
  C351     1.0000 0.52766  0.12557  0.35409  Biso   1.000  C
  C352     1.0000 0.85842  0.48906  0.36189  Biso   1.000  C
  C353     1.0000 0.64421  0.34366  0.00850  Biso   1.000  C
  C354     1.0000 0.00854  0.12690  0.15512  Biso   1.000  C
  C355     1.0000 0.17012  0.98927  0.13775  Biso   1.000  C
  C356     1.0000 0.37638  0.83572  0.49741  Biso   1.000  C
  C357     1.0000 0.00808  0.62709  0.34900  Biso   1.000  C
  C358     1.0000 0.66875  0.98685  0.38177  Biso   1.000  C
  C359     1.0000 0.87242  0.84093  0.00532  Biso   1.000  C
  C360     1.0000 0.50463  0.62127  0.16398  Biso   1.000  C
  C361     1.0000 0.02357  0.14257  0.86774  Biso   1.000  C
  C362     1.0000 0.88047  0.98440  0.16154  Biso   1.000  C
  C363     1.0000 0.16092  0.85342  0.00922  Biso   1.000  C
  C364     1.0000 0.49586  0.14439  0.64150  Biso   1.000  C
  C365     1.0000 0.38324  0.00417  0.34838  Biso   1.000  C
  C366     1.0000 0.66865  0.86011  0.51191  Biso   1.000  C
  C367     1.0000 0.49483  0.64399  0.87684  Biso   1.000  C
  C368     1.0000 0.65052  0.49105  0.15271  Biso   1.000  C
  C369     1.0000 0.35388  0.34675  0.01003  Biso   1.000  C
  C370     1.0000 0.00456  0.64117  0.63957  Biso   1.000  C
  C371     1.0000 0.14236  0.48353  0.35188  Biso   1.000  C
  C372     1.0000 0.84085  0.35976  0.51037  Biso   1.000  C
  C373     1.0000 0.01060  0.83731  0.13876  Biso   1.000  C
  C374     1.0000 0.13815  0.98849  0.84938  Biso   1.000  C
  C375     1.0000 0.86116  0.12855  0.00949  Biso   1.000  C
  C376     1.0000 0.50282  0.84106  0.37193  Biso   1.000  C
  C377     1.0000 0.63236  0.99937  0.66711  Biso   1.000  C
  C378     1.0000 0.34780  0.12396  0.50714  Biso   1.000  C
  C379     1.0000 0.51862  0.33416  0.14158  Biso   1.000  C
  C380     1.0000 0.36335  0.47776  0.85508  Biso   1.000  C
  C381     1.0000 0.66013  0.62802  0.00654  Biso   1.000  C
  C382     1.0000 0.00114  0.33997  0.36620  Biso   1.000  C
  C383     1.0000 0.86222  0.49663  0.65521  Biso   1.000  C
  C384     1.0000 0.16369  0.62254  0.50651  Biso   1.000  C
  C385     1.0000 0.19303  0.13275  0.02542  Biso   1.000  C
  C386     1.0000 0.00343  0.17665  0.15012  Biso   1.000  C
  C387     1.0000 0.16320  0.99277  0.18575  Biso   1.000  C
  C388     1.0000 0.68035  0.14084  0.50451  Biso   1.000  C
  C389     1.0000 0.52147  0.17371  0.35575  Biso   1.000  C
  C390     1.0000 0.66147  0.98948  0.33300  Biso   1.000  C
  C391     1.0000 0.31848  0.62878  0.00997  Biso   1.000  C
  C392     1.0000 0.50282  0.67049  0.15914  Biso   1.000  C
  C393     1.0000 0.36794  0.47501  0.19341  Biso   1.000  C
  C394     1.0000 0.82743  0.64014  0.50313  Biso   1.000  C
  C395     1.0000 0.00706  0.67532  0.35627  Biso   1.000  C
  C396     1.0000 0.86393  0.49635  0.31416  Biso   1.000  C
  C397     1.0000 0.82449  0.84719  0.00334  Biso   1.000  C
  C398     1.0000 0.00550  0.80934  0.85583  Biso   1.000  C
  C399     1.0000 0.85329  0.99221  0.82683  Biso   1.000  C
  C400     1.0000 0.32777  0.83980  0.49359  Biso   1.000  C
  C401     1.0000 0.49502  0.80970  0.65737  Biso   1.000  C
  C402     1.0000 0.35121  0.97113  0.68229  Biso   1.000  C
  C403     1.0000 0.69331  0.34871  0.00505  Biso   1.000  C
  C404     1.0000 0.51126  0.30996  0.85723  Biso   1.000  C
  C405     1.0000 0.64084  0.47627  0.82027  Biso   1.000  C
  C406     1.0000 0.18069  0.33734  0.51397  Biso   1.000  C
  C407     1.0000 0.00364  0.30924  0.65298  Biso   1.000  C
  C408     1.0000 0.14667  0.48872  0.69145  Biso   1.000  C
  C409     1.0000 0.15289  0.98911  0.82174  Biso   1.000  C
  C410     1.0000 0.83437  0.14542  0.01162  Biso   1.000  C
  C411     1.0000 0.01231  0.81053  0.15378  Biso   1.000  C
  C412     1.0000 0.64740  0.00137  0.69456  Biso   1.000  C
  C413     1.0000 0.32048  0.13753  0.50735  Biso   1.000  C
  C414     1.0000 0.50413  0.81305  0.35654  Biso   1.000  C
  C415     1.0000 0.34665  0.47554  0.82854  Biso   1.000  C
  C416     1.0000 0.68593  0.64580  0.00263  Biso   1.000  C
  C417     1.0000 0.52466  0.30804  0.15815  Biso   1.000  C
  C418     1.0000 0.84474  0.49089  0.68198  Biso   1.000  C
  C419     1.0000 0.19152  0.63797  0.50341  Biso   1.000  C
  C420     1.0000 0.99909  0.31505  0.34956  Biso   1.000  C
  C421     1.0000 0.86618  0.98302  0.19025  Biso   1.000  C
  C422     1.0000 0.18731  0.83787  0.00614  Biso   1.000  C
  C423     1.0000 0.02651  0.16908  0.85124  Biso   1.000  C
  C424     1.0000 0.36776  0.00135  0.32076  Biso   1.000  C
  C425     1.0000 0.69409  0.84395  0.51316  Biso   1.000  C
  C426     1.0000 0.49776  0.17036  0.65641  Biso   1.000  C
  C427     1.0000 0.66578  0.49292  0.17944  Biso   1.000  C
  C428     1.0000 0.32778  0.33056  0.01154  Biso   1.000  C
  C429     1.0000 0.49293  0.67130  0.86172  Biso   1.000  C
  C430     1.0000 0.15833  0.47482  0.32705  Biso   1.000  C
  C431     1.0000 0.81343  0.34492  0.51308  Biso   1.000  C
  C432     1.0000 0.00701  0.66863  0.65383  Biso   1.000  C
  C433     1.0000 0.02117  0.13636  0.81846  Biso   1.000  C
  C434     1.0000 0.83106  0.98713  0.15921  Biso   1.000  C
  C435     1.0000 0.15382  0.80705  0.00667  Biso   1.000  C
  C436     1.0000 0.49239  0.14055  0.68912  Biso   1.000  C
  C437     1.0000 0.33528  0.00515  0.35439  Biso   1.000  C
  C438     1.0000 0.66082  0.81344  0.51195  Biso   1.000  C
  C439     1.0000 0.48601  0.63907  0.82843  Biso   1.000  C
  C440     1.0000 0.69708  0.49220  0.14490  Biso   1.000  C
  C441     1.0000 0.36371  0.29906  0.01439  Biso   1.000  C
  C442     1.0000 0.99823  0.63820  0.68695  Biso   1.000  C
  C443     1.0000 0.19093  0.48122  0.36016  Biso   1.000  C
  C444     1.0000 0.84576  0.31105  0.51151  Biso   1.000  C
  C445     1.0000 0.01460  0.84247  0.18707  Biso   1.000  C
  C446     1.0000 0.18740  0.99329  0.85298  Biso   1.000  C
  C447     1.0000 0.86801  0.17797  0.00770  Biso   1.000  C
  C448     1.0000 0.50680  0.84562  0.32351  Biso   1.000  C
  C449     1.0000 0.68085  0.99866  0.66209  Biso   1.000  C
  C450     1.0000 0.35151  0.17067  0.50460  Biso   1.000  C
  C451     1.0000 0.52782  0.34301  0.18929  Biso   1.000  C
  C452     1.0000 0.31333  0.47218  0.86253  Biso   1.000  C
  C453     1.0000 0.64980  0.67490  0.00541  Biso   1.000  C
  C454     1.0000 0.00502  0.34729  0.31802  Biso   1.000  C
  C455     1.0000 0.81372  0.49536  0.64666  Biso   1.000  C
  C456     1.0000 0.15824  0.67186  0.50461  Biso   1.000  C
  C457     1.0000 0.00786  0.64171  0.32239  Biso   1.000  C
  C458     1.0000 0.32094  0.97247  0.64774  Biso   1.000  C
  C459     1.0000 0.66070  0.31699  0.00990  Biso   1.000  C
  C460     1.0000 0.50590  0.63645  0.19099  Biso   1.000  C
  C461     1.0000 0.82199  0.99473  0.86224  Biso   1.000  C
  C462     1.0000 0.14761  0.30803  0.50431  Biso   1.000  C
  C463     1.0000 0.53622  0.13872  0.32795  Biso   1.000  C
  C464     1.0000 0.17978  0.49056  0.65907  Biso   1.000  C
  C465     1.0000 0.85769  0.81483  0.00201  Biso   1.000  C
  C466     1.0000 0.00766  0.14245  0.18239  Biso   1.000  C
  C467     1.0000 0.67597  0.48319  0.84922  Biso   1.000  C
  C468     1.0000 0.35995  0.80930  0.50069  Biso   1.000  C
  C469     1.0000 0.99744  0.34132  0.68621  Biso   1.000  C
  C470     1.0000 0.69562  0.98843  0.36512  Biso   1.000  C
  C471     1.0000 0.35089  0.66207  0.00603  Biso   1.000  C
  C472     1.0000 0.50562  0.34208  0.82422  Biso   1.000  C
  C473     1.0000 0.19661  0.99112  0.15405  Biso   1.000  C
  C474     1.0000 0.85945  0.66937  0.50950  Biso   1.000  C
  C475     1.0000 0.49215  0.84232  0.69038  Biso   1.000  C
  C476     1.0000 0.83083  0.48983  0.34746  Biso   1.000  C
  C477     1.0000 0.16093  0.16753  0.02552  Biso   1.000  C
  C478     1.0000 0.00212  0.84165  0.82368  Biso   1.000  C
  C479     1.0000 0.33272  0.47386  0.16315  Biso   1.000  C
  C480     1.0000 0.64876  0.17357  0.50699  Biso   1.000  C
  C481     1.0000 0.37610  0.78156  0.50718  Biso   1.000  C
  C482     1.0000 0.50239  0.35732  0.79604  Biso   1.000  C
  C483     1.0000 0.80350  0.48575  0.36414  Biso   1.000  C
  C484     1.0000 0.87225  0.78741  0.99865  Biso   1.000  C
  C485     1.0000 0.99265  0.35924  0.71298  Biso   1.000  C
  C486     1.0000 0.30380  0.47231  0.15091  Biso   1.000  C
  C487     1.0000 0.13045  0.28174  0.50052  Biso   1.000  C
  C488     1.0000 0.99947  0.85659  0.79547  Biso   1.000  C
  C489     1.0000 0.72309  0.98990  0.37950  Biso   1.000  C
  C490     1.0000 0.64582  0.28966  0.01569  Biso   1.000  C
  C491     1.0000 0.49044  0.85874  0.71704  Biso   1.000  C
  C492     1.0000 0.22383  0.98910  0.13607  Biso   1.000  C
  C493     1.0000 0.63282  0.19978  0.51241  Biso   1.000  C
  C494     1.0000 0.50794  0.61879  0.21820  Biso   1.000  C
  C495     1.0000 0.20862  0.49544  0.64184  Biso   1.000  C
  C496     1.0000 0.14313  0.19338  0.02992  Biso   1.000  C
  C497     1.0000 0.01141  0.62705  0.29491  Biso   1.000  C
  C498     1.0000 0.70403  0.48560  0.86340  Biso   1.000  C
  C499     1.0000 0.87449  0.69583  0.51286  Biso   1.000  C
  C500     1.0000 0.01202  0.12687  0.20921  Biso   1.000  C
  C501     1.0000 0.29488  0.96715  0.63127  Biso   1.000  C
  C502     1.0000 0.36605  0.68952  0.00591  Biso   1.000  C
  C503     1.0000 0.54472  0.12032  0.30282  Biso   1.000  C
  C504     1.0000 0.79474  0.99370  0.87929  Biso   1.000  C
  C505     1.0000 0.62433  0.46864  0.79561  Biso   1.000  C
  C506     1.0000 0.79895  0.62668  0.49920  Biso   1.000  C
  C507     1.0000 0.49548  0.78294  0.64151  Biso   1.000  C
  C508     1.0000 0.12944  0.48628  0.71963  Biso   1.000  C
  C509     1.0000 0.29120  0.61269  0.01270  Biso   1.000  C
  C510     1.0000 0.00424  0.78193  0.87065  Biso   1.000  C
  C511     1.0000 0.86661  0.99311  0.79726  Biso   1.000  C
  C512     1.0000 0.70798  0.12630  0.49826  Biso   1.000  C
  C513     1.0000 0.01276  0.28293  0.63491  Biso   1.000  C
  C514     1.0000 0.36458  0.97608  0.71021  Biso   1.000  C
  C515     1.0000 0.22015  0.11716  0.02030  Biso   1.000  C
  C516     1.0000 0.51596  0.28309  0.87453  Biso   1.000  C
  C517     1.0000 0.38542  0.47597  0.21954  Biso   1.000  C
  C518     1.0000 0.20758  0.35144  0.52218  Biso   1.000  C
  C519     1.0000 0.52029  0.20114  0.37107  Biso   1.000  C
  C520     1.0000 0.87891  0.50560  0.28759  Biso   1.000  C
  C521     1.0000 0.72075  0.36576  0.00163  Biso   1.000  C
  C522     1.0000 0.00090  0.20524  0.13433  Biso   1.000  C
  C523     1.0000 0.14726  0.99782  0.21191  Biso   1.000  C
  C524     1.0000 0.30027  0.85392  0.48846  Biso   1.000  C
  C525     1.0000 0.00793  0.70235  0.37272  Biso   1.000  C
  C526     1.0000 0.64560  0.98838  0.30586  Biso   1.000  C
  C527     1.0000 0.79719  0.86492  0.00558  Biso   1.000  C
  C528     1.0000 0.49731  0.69721  0.14321  Biso   1.000  C
  C529     1.0000 0.80723  0.13035  0.01495  Biso   1.000  C
  C530     1.0000 0.01393  0.78394  0.13645  Biso   1.000  C
  C531     1.0000 0.13654  0.98514  0.79716  Biso   1.000  C
  C532     1.0000 0.29403  0.12187  0.51368  Biso   1.000  C
  C533     1.0000 0.50335  0.78608  0.37318  Biso   1.000  C
  C534     1.0000 0.63054  0.99897  0.72291  Biso   1.000  C
  C535     1.0000 0.71332  0.63025  0.99810  Biso   1.000  C
  C536     1.0000 0.52265  0.28042  0.14194  Biso   1.000  C
  C537     1.0000 0.36157  0.47496  0.80145  Biso   1.000  C
  C538     1.0000 0.21782  0.61916  0.49893  Biso   1.000  C
  C539     1.0000 0.99429  0.28773  0.36450  Biso   1.000  C
  C540     1.0000 0.86088  0.49223  0.70890  Biso   1.000  C
  C541     1.0000 0.21577  0.85453  0.00694  Biso   1.000  C
  C542     1.0000 0.02844  0.19506  0.86776  Biso   1.000  C
  C543     1.0000 0.88399  0.98052  0.21555  Biso   1.000  C
  C544     1.0000 0.72193  0.85916  0.51416  Biso   1.000  C
  C545     1.0000 0.50345  0.19649  0.64041  Biso   1.000  C
  C546     1.0000 0.38447  0.99670  0.29390  Biso   1.000  C
  C547     1.0000 0.29934  0.34525  0.01112  Biso   1.000  C
  C548     1.0000 0.49902  0.69687  0.87772  Biso   1.000  C
  C549     1.0000 0.65031  0.49213  0.20751  Biso   1.000  C
  C550     1.0000 0.78779  0.36231  0.51470  Biso   1.000  C
  C551     1.0000 0.01266  0.69463  0.63718  Biso   1.000  C
  C552     1.0000 0.14386  0.46736  0.30102  Biso   1.000  C
  C553     1.0000 0.01876  0.11984  0.79292  Biso   1.000  C
  C554     1.0000 0.80235  0.98709  0.14451  Biso   1.000  C
  C555     1.0000 0.13694  0.78126  0.00412  Biso   1.000  C
  C556     1.0000 0.48855  0.12362  0.71671  Biso   1.000  C
  C557     1.0000 0.30802  0.00892  0.36984  Biso   1.000  C
  C558     1.0000 0.64446  0.78621  0.51545  Biso   1.000  C
  C559     1.0000 0.47959  0.62071  0.80301  Biso   1.000  C
  C560     1.0000 0.72300  0.49084  0.12638  Biso   1.000  C
  C561     1.0000 0.38223  0.27402  0.01657  Biso   1.000  C
  C562     1.0000 0.99224  0.62391  0.71456  Biso   1.000  C
  C563     1.0000 0.21699  0.48656  0.37612  Biso   1.000  C
  C564     1.0000 0.86270  0.28371  0.51229  Biso   1.000  C
  C565     1.0000 0.01377  0.85720  0.21513  Biso   1.000  C
  C566     1.0000 0.21530  0.99155  0.86791  Biso   1.000  C
  C567     1.0000 0.88398  0.20577  0.00509  Biso   1.000  C
  C568     1.0000 0.50950  0.86184  0.29653  Biso   1.000  C
  C569     1.0000 0.70905  0.00096  0.64796  Biso   1.000  C
  C570     1.0000 0.36582  0.19824  0.50327  Biso   1.000  C
  C571     1.0000 0.53067  0.35985  0.21560  Biso   1.000  C
  C572     1.0000 0.28568  0.47088  0.87956  Biso   1.000  C
  C573     1.0000 0.63175  0.70100  0.00869  Biso   1.000  C
  C574     1.0000 0.01364  0.36325  0.29081  Biso   1.000  C
  C575     1.0000 0.78605  0.49753  0.63089  Biso   1.000  C
  C576     1.0000 0.14125  0.69822  0.50474  Biso   1.000  C
  C577     1.0000 0.30134  0.47636  0.11967  Biso   1.000  C
  C578     1.0000 0.09951  0.28386  0.49409  Biso   1.000  C
  C579     1.0000 0.54307  0.09017  0.30623  Biso   1.000  C
  C580     1.0000 0.80501  0.48321  0.39457  Biso   1.000  C
  C581     1.0000 0.61378  0.28944  0.01824  Biso   1.000  C
  C582     1.0000 0.01640  0.09529  0.20802  Biso   1.000  C
  C583     1.0000 0.22326  0.98600  0.10481  Biso   1.000  C
  C584     1.0000 0.40728  0.78288  0.50824  Biso   1.000  C
  C585     1.0000 0.01398  0.59601  0.29509  Biso   1.000  C
  C586     1.0000 0.72312  0.99118  0.41245  Biso   1.000  C
  C587     1.0000 0.90469  0.78550  0.99780  Biso   1.000  C
  C588     1.0000 0.51182  0.58794  0.21515  Biso   1.000  C
  C589     1.0000 0.70678  0.49325  0.89503  Biso   1.000  C
  C590     1.0000 0.90589  0.69481  0.51379  Biso   1.000  C
  C591     1.0000 0.49380  0.88950  0.71600  Biso   1.000  C
  C592     1.0000 0.20699  0.49433  0.61069  Biso   1.000  C
  C593     1.0000 0.39692  0.69137  0.00436  Biso   1.000  C
  C594     1.0000 0.99874  0.88753  0.79574  Biso   1.000  C
  C595     1.0000 0.79681  0.99686  0.91095  Biso   1.000  C
  C596     1.0000 0.60141  0.20025  0.51541  Biso   1.000  C
  C597     1.0000 0.98545  0.38893  0.71121  Biso   1.000  C
  C598     1.0000 0.29607  0.96795  0.60005  Biso   1.000  C
  C599     1.0000 0.11093  0.19085  0.03187  Biso   1.000  C
  C600     1.0000 0.49956  0.38812  0.79704  Biso   1.000  C
  C601     1.0000 0.21598  0.99273  0.89974  Biso   1.000  C
  C602     1.0000 0.91528  0.20529  0.00251  Biso   1.000  C
  C603     1.0000 0.01339  0.88950  0.21471  Biso   1.000  C
  C604     1.0000 0.71133  0.99681  0.61744  Biso   1.000  C
  C605     1.0000 0.39831  0.19958  0.49896  Biso   1.000  C
  C606     1.0000 0.51059  0.89305  0.29648  Biso   1.000  C
  C607     1.0000 0.28996  0.47260  0.91150  Biso   1.000  C
  C608     1.0000 0.60063  0.70017  0.01244  Biso   1.000  C
  C609     1.0000 0.52590  0.39019  0.21363  Biso   1.000  C
  C610     1.0000 0.78733  0.50483  0.60050  Biso   1.000  C
  C611     1.0000 0.10938  0.69756  0.50274  Biso   1.000  C
  C612     1.0000 0.01601  0.39373  0.29369  Biso   1.000  C
  C613     1.0000 0.80214  0.98488  0.11286  Biso   1.000  C
  C614     1.0000 0.10585  0.78295  0.00578  Biso   1.000  C
  C615     1.0000 0.01688  0.08912  0.79449  Biso   1.000  C
  C616     1.0000 0.30753  0.00996  0.40140  Biso   1.000  C
  C617     1.0000 0.61285  0.78908  0.51232  Biso   1.000  C
  C618     1.0000 0.48877  0.09290  0.71719  Biso   1.000  C
  C619     1.0000 0.72253  0.49227  0.09478  Biso   1.000  C
  C620     1.0000 0.41332  0.27727  0.01530  Biso   1.000  C
  C621     1.0000 0.48216  0.58946  0.80477  Biso   1.000  C
  C622     1.0000 0.21499  0.49027  0.40770  Biso   1.000  C
  C623     1.0000 0.89616  0.28273  0.50652  Biso   1.000  C
  C624     1.0000 0.99109  0.59217  0.71462  Biso   1.000  C
  C625     1.0000 0.02879  0.19494  0.89999  Biso   1.000  C
  C626     1.0000 0.91547  0.98165  0.21071  Biso   1.000  C
  C627     1.0000 0.21539  0.88624  0.00773  Biso   1.000  C
  C628     1.0000 0.50544  0.19562  0.60915  Biso   1.000  C
  C629     1.0000 0.41623  0.99854  0.29562  Biso   1.000  C
  C630     1.0000 0.72075  0.89063  0.51437  Biso   1.000  C
  C631     1.0000 0.50243  0.69435  0.90858  Biso   1.000  C
  C632     1.0000 0.61860  0.49368  0.20610  Biso   1.000  C
  C633     1.0000 0.29902  0.37627  0.00723  Biso   1.000  C
  C634     1.0000 0.01812  0.69178  0.60687  Biso   1.000  C
  C635     1.0000 0.11272  0.47022  0.30053  Biso   1.000  C
  C636     1.0000 0.78954  0.39439  0.51177  Biso   1.000  C
  C637     1.0000 0.01197  0.78579  0.10538  Biso   1.000  C
  C638     1.0000 0.10536  0.98286  0.79750  Biso   1.000  C
  C639     1.0000 0.80493  0.09963  0.01528  Biso   1.000  C
  C640     1.0000 0.50366  0.78682  0.40478  Biso   1.000  C
  C641     1.0000 0.59867  0.99655  0.72038  Biso   1.000  C
  C642     1.0000 0.29653  0.08985  0.51501  Biso   1.000  C
  C643     1.0000 0.51807  0.27960  0.11160  Biso   1.000  C
  C644     1.0000 0.39193  0.48157  0.79867  Biso   1.000  C
  C645     1.0000 0.71337  0.59840  0.99869  Biso   1.000  C
  C646     1.0000 0.99453  0.28708  0.39564  Biso   1.000  C
  C647     1.0000 0.89226  0.49491  0.70685  Biso   1.000  C
  C648     1.0000 0.21685  0.58896  0.49977  Biso   1.000  C
  C649     1.0000 0.00886  0.70117  0.40451  Biso   1.000  C
  C650     1.0000 0.39604  0.98320  0.71138  Biso   1.000  C
  C651     1.0000 0.71806  0.39664  0.99740  Biso   1.000  C
  C652     1.0000 0.49475  0.69874  0.11199  Biso   1.000  C
  C653     1.0000 0.89817  0.99101  0.79486  Biso   1.000  C
  C654     1.0000 0.20719  0.38192  0.53155  Biso   1.000  C
  C655     1.0000 0.51138  0.20210  0.40161  Biso   1.000  C
  C656     1.0000 0.09800  0.48259  0.71836  Biso   1.000  C
  C657     1.0000 0.79808  0.89550  0.00829  Biso   1.000  C
  C658     1.0000 0.00106  0.20525  0.10300  Biso   1.000  C
  C659     1.0000 0.59359  0.46847  0.79848  Biso   1.000  C
  C660     1.0000 0.29959  0.88476  0.48694  Biso   1.000  C
  C661     1.0000 0.01402  0.28485  0.60364  Biso   1.000  C
  C662     1.0000 0.61379  0.98586  0.30886  Biso   1.000  C
  C663     1.0000 0.29314  0.58090  0.01294  Biso   1.000  C
  C664     1.0000 0.51950  0.28434  0.90602  Biso   1.000  C
  C665     1.0000 0.11586  0.99861  0.21190  Biso   1.000  C
  C666     1.0000 0.79761  0.59604  0.49218  Biso   1.000  C
  C667     1.0000 0.50102  0.78276  0.61125  Biso   1.000  C
  C668     1.0000 0.91075  0.50903  0.28813  Biso   1.000  C
  C669     1.0000 0.22185  0.08755  0.01533  Biso   1.000  C
  C670     1.0000 0.00847  0.78165  0.90154  Biso   1.000  C
  C671     1.0000 0.41688  0.47787  0.21636  Biso   1.000  C
  C672     1.0000 0.70852  0.09424  0.50196  Biso   1.000  C
  C673     1.0000 0.19964  0.98852  0.80660  Biso   1.000  C
  C674     1.0000 0.82048  0.19109  0.00762  Biso   1.000  C
  C675     1.0000 0.01680  0.79520  0.19799  Biso   1.000  C
  C676     1.0000 0.69494  0.99723  0.70927  Biso   1.000  C
  C677     1.0000 0.30393  0.18350  0.50833  Biso   1.000  C
  C678     1.0000 0.50374  0.79798  0.31092  Biso   1.000  C
  C679     1.0000 0.29943  0.47693  0.81582  Biso   1.000  C
  C680     1.0000 0.69847  0.69213  0.00123  Biso   1.000  C
  C681     1.0000 0.53855  0.29875  0.20528  Biso   1.000  C
  C682     1.0000 0.79519  0.48668  0.69068  Biso   1.000  C
  C683     1.0000 0.20571  0.68312  0.50363  Biso   1.000  C
  C684     1.0000 0.00112  0.29990  0.30234  Biso   1.000  C
  C685     1.0000 0.82025  0.98676  0.20735  Biso   1.000  C
  C686     1.0000 0.19982  0.79083  0.00593  Biso   1.000  C
  C687     1.0000 0.02327  0.18371  0.80528  Biso   1.000  C
  C688     1.0000 0.32095  0.00173  0.30798  Biso   1.000  C
  C689     1.0000 0.70795  0.79763  0.51412  Biso   1.000  C
  C690     1.0000 0.49988  0.18603  0.70332  Biso   1.000  C
  C691     1.0000 0.71339  0.49162  0.19176  Biso   1.000  C
  C692     1.0000 0.31742  0.28389  0.01649  Biso   1.000  C
  C693     1.0000 0.48646  0.68584  0.81508  Biso   1.000  C
  C694     1.0000 0.20716  0.47046  0.31522  Biso   1.000  C
  C695     1.0000 0.79949  0.29918  0.51231  Biso   1.000  C
  C696     1.0000 0.00237  0.68536  0.69909  Biso   1.000  C
  C697     1.0000 0.70837  0.99100  0.31744  Biso   1.000  C
  C698     1.0000 0.30341  0.67412  0.00863  Biso   1.000  C
  C699     1.0000 0.00304  0.29449  0.69991  Biso   1.000  C
  C700     1.0000 0.20981  0.99478  0.19979  Biso   1.000  C
  C701     1.0000 0.81351  0.68532  0.51045  Biso   1.000  C
  C702     1.0000 0.50966  0.29770  0.80873  Biso   1.000  C
  C703     1.0000 0.81825  0.49675  0.30042  Biso   1.000  C
  C704     1.0000 0.20775  0.17935  0.02734  Biso   1.000  C
  C705     1.0000 0.48874  0.79625  0.70471  Biso   1.000  C
  C706     1.0000 0.32167  0.46895  0.20957  Biso   1.000  C
  C707     1.0000 0.69772  0.18609  0.50290  Biso   1.000  C
  C708     1.0000 0.00508  0.79560  0.80794  Biso   1.000  C
  C709     1.0000 0.30389  0.97079  0.69392  Biso   1.000  C
  C710     1.0000 0.70888  0.30211  0.01068  Biso   1.000  C
  C711     1.0000 0.00710  0.68726  0.30707  Biso   1.000  C
  C712     1.0000 0.80612  0.99463  0.81625  Biso   1.000  C
  C713     1.0000 0.19338  0.29194  0.51132  Biso   1.000  C
  C714     1.0000 0.50792  0.68347  0.20555  Biso   1.000  C
  C715     1.0000 0.19174  0.48610  0.70741  Biso   1.000  C
  C716     1.0000 0.81074  0.80147  0.99961  Biso   1.000  C
  C717     1.0000 0.53586  0.18541  0.31309  Biso   1.000  C
  C718     1.0000 0.68589  0.47412  0.80264  Biso   1.000  C
  C719     1.0000 0.31394  0.79302  0.49740  Biso   1.000  C
  C720     1.0000 0.00135  0.18839  0.19637  Biso   1.000  C
  C721     1.0000 0.52411  0.79817  0.28689  Biso   1.000  C
  C722     1.0000 0.29978  0.49861  0.79326  Biso   1.000  C
  C723     1.0000 0.77072  0.30201  0.52562  Biso   1.000  C
  C724     1.0000 0.99728  0.77045  0.19524  Biso   1.000  C
  C725     1.0000 0.76901  0.50469  0.68864  Biso   1.000  C
  C726     1.0000 0.29201  0.28414  0.99846  Biso   1.000  C
  C727     1.0000 0.98940  0.30328  0.27335  Biso   1.000  C
  C728     1.0000 0.22692  0.00324  0.80461  Biso   1.000  C
  C729     1.0000 0.73376  0.79743  0.53247  Biso   1.000  C
  C730     1.0000 0.52511  0.30279  0.23320  Biso   1.000  C
  C731     1.0000 0.72333  0.98296  0.70458  Biso   1.000  C
  C732     1.0000 0.22586  0.79041  0.98742  Biso   1.000  C
  C733     1.0000 0.47903  0.18940  0.72677  Biso   1.000  C
  C734     1.0000 0.70919  0.47659  0.21948  Biso   1.000  C
  C735     1.0000 0.20295  0.71316  0.49450  Biso   1.000  C
  C736     1.0000 0.00313  0.20910  0.81159  Biso   1.000  C
  C737     1.0000 0.23514  0.45748  0.32184  Biso   1.000  C
  C738     1.0000 0.72654  0.68754  0.01422  Biso   1.000  C
  C739     1.0000 0.01494  0.68023  0.72705  Biso   1.000  C
  C740     1.0000 0.79183  0.97415  0.20467  Biso   1.000  C
  C741     1.0000 0.27763  0.18022  0.49048  Biso   1.000  C
  C742     1.0000 0.49846  0.68145  0.78571  Biso   1.000  C
  C743     1.0000 0.29466  0.98391  0.31194  Biso   1.000  C
  C744     1.0000 0.82198  0.21737  0.02400  Biso   1.000  C
  C745     1.0000 0.02506  0.71296  0.31165  Biso   1.000  C
  C746     1.0000 0.27887  0.98875  0.69032  Biso   1.000  C
  C747     1.0000 0.73430  0.30554  0.02665  Biso   1.000  C
  C748     1.0000 0.52187  0.71112  0.20168  Biso   1.000  C
  C749     1.0000 0.80539  0.97424  0.79283  Biso   1.000  C
  C750     1.0000 0.21430  0.28917  0.53459  Biso   1.000  C
  C751     1.0000 0.55998  0.18445  0.28906  Biso   1.000  C
  C752     1.0000 0.21964  0.47075  0.70382  Biso   1.000  C
  C753     1.0000 0.78317  0.80559  0.98488  Biso   1.000  C
  C754     1.0000 0.02270  0.18777  0.21951  Biso   1.000  C
  C755     1.0000 0.67757  0.48490  0.77338  Biso   1.000  C
  C756     1.0000 0.28936  0.79574  0.51698  Biso   1.000  C
  C757     1.0000 0.99518  0.26564  0.69355  Biso   1.000  C
  C758     1.0000 0.70945  0.00950  0.29218  Biso   1.000  C
  C759     1.0000 0.27620  0.67474  0.02440  Biso   1.000  C
  C760     1.0000 0.52343  0.30126  0.77908  Biso   1.000  C
  C761     1.0000 0.23513  0.01364  0.19600  Biso   1.000  C
  C762     1.0000 0.81481  0.71055  0.49253  Biso   1.000  C
  C763     1.0000 0.46859  0.79806  0.72899  Biso   1.000  C
  C764     1.0000 0.79003  0.50878  0.30512  Biso   1.000  C
  C765     1.0000 0.23635  0.17311  0.03914  Biso   1.000  C
  C766     1.0000 0.98282  0.79436  0.78597  Biso   1.000  C
  C767     1.0000 0.32274  0.48764  0.23431  Biso   1.000  C
  C768     1.0000 0.69005  0.21555  0.49330  Biso   1.000  C
  C769     1.0000 0.47237  0.71457  0.81983  Biso   1.000  C
  C770     1.0000 0.79612  0.46723  0.71405  Biso   1.000  C
  C771     1.0000 0.70444  0.77140  0.49586  Biso   1.000  C
  C772     1.0000 0.98795  0.71232  0.69444  Biso   1.000  C
  C773     1.0000 0.27512  0.45863  0.81757  Biso   1.000  C
  C774     1.0000 0.19645  0.76531  0.02249  Biso   1.000  C
  C775     1.0000 0.03367  0.18063  0.77682  Biso   1.000  C
  C776     1.0000 0.69003  0.01190  0.73680  Biso   1.000  C
  C777     1.0000 0.80534  0.27356  0.49325  Biso   1.000  C
  C778     1.0000 0.52492  0.20568  0.70130  Biso   1.000  C
  C779     1.0000 0.19575  0.96945  0.78152  Biso   1.000  C
  C780     1.0000 0.32050  0.25989  0.03616  Biso   1.000  C
  C781     1.0000 0.55772  0.27443  0.20173  Biso   1.000  C
  C782     1.0000 0.20528  0.47962  0.28407  Biso   1.000  C
  C783     1.0000 0.30674  0.20981  0.52560  Biso   1.000  C
  C784     1.0000 0.01648  0.27273  0.30702  Biso   1.000  C
  C785     1.0000 0.73953  0.50932  0.18558  Biso   1.000  C
  C786     1.0000 0.79391  0.18809  0.99147  Biso   1.000  C
  C787     1.0000 0.03510  0.79712  0.22381  Biso   1.000  C
  C788     1.0000 0.32326  0.01596  0.27952  Biso   1.000  C
  C789     1.0000 0.23339  0.67793  0.51905  Biso   1.000  C
  C790     1.0000 0.48322  0.77450  0.31190  Biso   1.000  C
  C791     1.0000 0.82512  0.99958  0.23580  Biso   1.000  C
  C792     1.0000 0.69581  0.72089  0.98693  Biso   1.000  C
  C793     1.0000 0.51566  0.20988  0.31166  Biso   1.000  C
  C794     1.0000 0.29893  0.44747  0.20707  Biso   1.000  C
  C795     1.0000 0.19393  0.26951  0.48853  Biso   1.000  C
  C796     1.0000 0.98019  0.21292  0.19520  Biso   1.000  C
  C797     1.0000 0.82334  0.48280  0.27211  Biso   1.000  C
  C798     1.0000 0.70657  0.27458  0.99420  Biso   1.000  C
  C799     1.0000 0.99058  0.68564  0.27972  Biso   1.000  C
  C800     1.0000 0.21117  0.97555  0.22424  Biso   1.000  C
  C801     1.0000 0.31783  0.76524  0.48302  Biso   1.000  C
  C802     1.0000 0.49360  0.67996  0.23415  Biso   1.000  C
  C803     1.0000 0.73288  0.97161  0.31977  Biso   1.000  C
  C804     1.0000 0.81420  0.77385  0.01413  Biso   1.000  C
  C805     1.0000 0.50646  0.77118  0.70264  Biso   1.000  C
  C806     1.0000 0.71617  0.46192  0.80577  Biso   1.000  C
  C807     1.0000 0.78832  0.68250  0.52961  Biso   1.000  C
  C808     1.0000 0.02534  0.77152  0.80988  Biso   1.000  C
  C809     1.0000 0.18660  0.49977  0.73570  Biso   1.000  C
  C810     1.0000 0.30763  0.69946  0.98922  Biso   1.000  C
  C811     1.0000 0.01519  0.29878  0.73016  Biso   1.000  C
  C812     1.0000 0.78151  0.01357  0.81978  Biso   1.000  C
  C813     1.0000 0.72705  0.18183  0.51257  Biso   1.000  C
  C814     1.0000 0.49523  0.26932  0.81302  Biso   1.000  C
  C815     1.0000 0.30567  0.95447  0.72018  Biso   1.000  C
  C816     1.0000 0.20252  0.20833  0.01562  Biso   1.000  C
  C817     1.0000 0.99638  0.22821  0.79020  Biso   1.000  C
  C818     1.0000 0.77043  0.97612  0.22643  Biso   1.000  C
  C819     1.0000 0.24525  0.76878  0.98852  Biso   1.000  C
  C820     1.0000 0.48176  0.21164  0.74544  Biso   1.000  C
  C821     1.0000 0.27381  0.98219  0.28962  Biso   1.000  C
  C822     1.0000 0.75289  0.77385  0.53371  Biso   1.000  C
  C823     1.0000 0.49663  0.70267  0.76405  Biso   1.000  C
  C824     1.0000 0.72957  0.47995  0.24046  Biso   1.000  C
  C825     1.0000 0.27058  0.26417  0.00399  Biso   1.000  C
  C826     1.0000 0.01578  0.70313  0.74618  Biso   1.000  C
  C827     1.0000 0.25748  0.45356  0.30031  Biso   1.000  C
  C828     1.0000 0.75056  0.27972  0.52250  Biso   1.000  C
  C829     1.0000 0.99479  0.75171  0.21757  Biso   1.000  C
  C830     1.0000 0.24679  0.99892  0.78317  Biso   1.000  C
  C831     1.0000 0.80088  0.23832  0.02593  Biso   1.000  C
  C832     1.0000 0.52634  0.77452  0.26756  Biso   1.000  C
  C833     1.0000 0.74299  0.98390  0.72627  Biso   1.000  C
  C834     1.0000 0.25627  0.20122  0.49117  Biso   1.000  C
  C835     1.0000 0.52956  0.28222  0.25486  Biso   1.000  C
  C836     1.0000 0.27672  0.49945  0.77268  Biso   1.000  C
  C837     1.0000 0.74788  0.70869  0.01362  Biso   1.000  C
  C838     1.0000 0.99129  0.28137  0.25397  Biso   1.000  C
  C839     1.0000 0.74720  0.50222  0.71046  Biso   1.000  C
  C840     1.0000 0.22360  0.73432  0.49443  Biso   1.000  C
  C841     1.0000 0.21497  0.96674  0.75889  Biso   1.000  C
  C842     1.0000 0.77213  0.20830  0.99354  Biso   1.000  C
  C843     1.0000 0.03559  0.77465  0.24319  Biso   1.000  C
  C844     1.0000 0.71026  0.00936  0.75875  Biso   1.000  C
  C845     1.0000 0.28366  0.22901  0.52582  Biso   1.000  C
  C846     1.0000 0.48644  0.75246  0.29278  Biso   1.000  C
  C847     1.0000 0.25219  0.46307  0.79979  Biso   1.000  C
  C848     1.0000 0.71617  0.74162  0.98725  Biso   1.000  C
  C849     1.0000 0.55760  0.25342  0.22215  Biso   1.000  C
  C850     1.0000 0.77489  0.46355  0.73444  Biso   1.000  C
  C851     1.0000 0.25490  0.70011  0.51812  Biso   1.000  C
  C852     1.0000 0.01900  0.25211  0.28614  Biso   1.000  C
  C853     1.0000 0.80353  0.00135  0.25653  Biso   1.000  C
  C854     1.0000 0.21609  0.74327  0.02248  Biso   1.000  C
  C855     1.0000 0.02660  0.20174  0.75634  Biso   1.000  C
  C856     1.0000 0.30373  0.01110  0.25735  Biso   1.000  C
  C857     1.0000 0.72623  0.74855  0.49666  Biso   1.000  C
  C858     1.0000 0.52638  0.22780  0.72234  Biso   1.000  C
  C859     1.0000 0.75937  0.51156  0.20735  Biso   1.000  C
  C860     1.0000 0.30061  0.23743  0.03725  Biso   1.000  C
  C861     1.0000 0.47169  0.73573  0.79825  Biso   1.000  C
  C862     1.0000 0.22903  0.47737  0.26599  Biso   1.000  C
  C863     1.0000 0.78275  0.25365  0.48900  Biso   1.000  C
  C864     1.0000 0.98775  0.73241  0.71615  Biso   1.000  C
  C865     1.0000 0.69808  0.48782  0.75113  Biso   1.000  C
  C866     1.0000 0.79304  0.73218  0.49574  Biso   1.000  C
  C867     1.0000 0.46778  0.77620  0.74860  Biso   1.000  C
  C868     1.0000 0.24057  0.47127  0.72610  Biso   1.000  C
  C869     1.0000 0.25508  0.69691  0.02209  Biso   1.000  C
  C870     1.0000 0.98333  0.77315  0.76560  Biso   1.000  C
  C871     1.0000 0.78167  0.97289  0.77511  Biso   1.000  C
  C872     1.0000 0.70920  0.23826  0.49469  Biso   1.000  C
  C873     1.0000 0.99725  0.24339  0.71347  Biso   1.000  C
  C874     1.0000 0.25833  0.99115  0.71245  Biso   1.000  C
  C875     1.0000 0.25747  0.19224  0.03640  Biso   1.000  C
  C876     1.0000 0.52221  0.27975  0.75813  Biso   1.000  C
  C877     1.0000 0.30013  0.48682  0.25420  Biso   1.000  C
  C878     1.0000 0.23511  0.26773  0.53220  Biso   1.000  C
  C879     1.0000 0.56234  0.20845  0.27045  Biso   1.000  C
  C880     1.0000 0.76799  0.50910  0.28372  Biso   1.000  C
  C881     1.0000 0.75394  0.28236  0.02842  Biso   1.000  C
  C882     1.0000 0.02466  0.21075  0.23877  Biso   1.000  C
  C883     1.0000 0.25778  0.01201  0.21479  Biso   1.000  C
  C884     1.0000 0.26834  0.77456  0.51867  Biso   1.000  C
  C885     1.0000 0.02881  0.73307  0.28947  Biso   1.000  C
  C886     1.0000 0.73188  0.01080  0.27215  Biso   1.000  C
  C887     1.0000 0.76168  0.78344  0.98575  Biso   1.000  C
  C888     1.0000 0.52238  0.73323  0.22160  Biso   1.000  C
  C889     1.0000 0.75528  0.97171  0.29951  Biso   1.000  C
  C890     1.0000 0.28723  0.72254  0.98916  Biso   1.000  C
  C891     1.0000 0.01913  0.27463  0.74850  Biso   1.000  C
  C892     1.0000 0.23291  0.97572  0.24484  Biso   1.000  C
  C893     1.0000 0.76806  0.70444  0.53265  Biso   1.000  C
  C894     1.0000 0.49398  0.24865  0.79234  Biso   1.000  C
  C895     1.0000 0.80205  0.48389  0.25064  Biso   1.000  C
  C896     1.0000 0.22432  0.22682  0.01525  Biso   1.000  C
  C897     1.0000 0.50502  0.74980  0.72394  Biso   1.000  C
  C898     1.0000 0.27819  0.44568  0.23042  Biso   1.000  C
  C899     1.0000 0.74614  0.20465  0.51274  Biso   1.000  C
  C900     1.0000 0.02401  0.75089  0.78752  Biso   1.000  C
  C901     1.0000 0.28480  0.95666  0.74158  Biso   1.000  C
  C902     1.0000 0.72745  0.25282  0.99331  Biso   1.000  C
  C903     1.0000 0.99439  0.70770  0.25945  Biso   1.000  C
  C904     1.0000 0.75908  0.01334  0.80035  Biso   1.000  C
  C905     1.0000 0.21599  0.25035  0.48854  Biso   1.000  C
  C906     1.0000 0.49413  0.70212  0.25404  Biso   1.000  C
  C907     1.0000 0.20629  0.49715  0.75807  Biso   1.000  C
  C908     1.0000 0.79304  0.75313  0.01295  Biso   1.000  C
  C909     1.0000 0.52017  0.23078  0.29045  Biso   1.000  C
  C910     1.0000 0.73467  0.46573  0.78263  Biso   1.000  C
  C911     1.0000 0.29691  0.74296  0.48598  Biso   1.000  C
  C912     1.0000 0.98023  0.23247  0.21814  Biso   1.000  C
  C913     1.0000 0.75026  0.48222  0.73324  Biso   1.000  C
  C914     1.0000 0.74888  0.75044  0.51528  Biso   1.000  C
  C915     1.0000 0.48393  0.73005  0.77052  Biso   1.000  C
  C916     1.0000 0.25480  0.48067  0.77620  Biso   1.000  C
  C917     1.0000 0.23976  0.74292  0.00257  Biso   1.000  C
  C918     1.0000 0.00179  0.72930  0.74255  Biso   1.000  C
  C919     1.0000 0.73802  0.99587  0.75326  Biso   1.000  C
  C920     1.0000 0.75688  0.25673  0.50490  Biso   1.000  C
  C921     1.0000 0.00757  0.22438  0.76161  Biso   1.000  C
  C922     1.0000 0.24136  0.97916  0.76141  Biso   1.000  C
  C923     1.0000 0.27556  0.24164  0.02197  Biso   1.000  C
  C924     1.0000 0.50489  0.23102  0.74277  Biso   1.000  C
  C925     1.0000 0.25567  0.46599  0.27413  Biso   1.000  C
  C926     1.0000 0.25927  0.22566  0.50798  Biso   1.000  C
  C927     1.0000 0.54475  0.25718  0.24987  Biso   1.000  C
  C928     1.0000 0.75395  0.49735  0.23390  Biso   1.000  C
  C929     1.0000 0.77611  0.23469  0.01076  Biso   1.000  C
  C930     1.0000 0.00639  0.25597  0.25974  Biso   1.000  C
  C931     1.0000 0.27898  0.99540  0.26320  Biso   1.000  C
  C932     1.0000 0.25072  0.72709  0.50581  Biso   1.000  C
  C933     1.0000 0.01475  0.75309  0.24065  Biso   1.000  C
  C934     1.0000 0.77688  0.98912  0.25146  Biso   1.000  C
  C935     1.0000 0.74332  0.73576  0.99899  Biso   1.000  C
  C936     1.0000 0.50699  0.75270  0.27061  Biso   1.000  C
  C937     1.0000 0.75233  0.25674  0.01065  Biso   1.000  C
  C938     1.0000 0.01101  0.73196  0.26520  Biso   1.000  C
  C939     1.0000 0.26254  0.97549  0.73772  Biso   1.000  C
  C940     1.0000 0.23627  0.24840  0.50929  Biso   1.000  C
  C941     1.0000 0.50821  0.72846  0.24837  Biso   1.000  C
  C942     1.0000 0.75974  0.99328  0.77808  Biso   1.000  C
  C943     1.0000 0.76517  0.75846  0.00292  Biso   1.000  C
  C944     1.0000 0.54349  0.23078  0.27152  Biso   1.000  C
  C945     1.0000 0.23247  0.48322  0.75333  Biso   1.000  C
  C946     1.0000 0.27385  0.74877  0.50402  Biso   1.000  C
  C947     1.0000 0.00327  0.23170  0.23952  Biso   1.000  C
  C948     1.0000 0.72660  0.47918  0.75474  Biso   1.000  C
  C949     1.0000 0.26281  0.72127  0.00673  Biso   1.000  C
  C950     1.0000 0.00737  0.24758  0.74096  Biso   1.000  C
  C951     1.0000 0.75403  0.99103  0.27590  Biso   1.000  C
  C952     1.0000 0.76988  0.72789  0.51524  Biso   1.000  C
  C953     1.0000 0.50811  0.25354  0.76477  Biso   1.000  C
  C954     1.0000 0.25646  0.99363  0.23908  Biso   1.000  C
  C955     1.0000 0.25184  0.21983  0.02484  Biso   1.000  C
  C956     1.0000 0.48636  0.75212  0.74770  Biso   1.000  C
  C957     1.0000 0.77594  0.49826  0.25605  Biso   1.000  C
  C958     1.0000 0.73767  0.23179  0.50308  Biso   1.000  C
  C959     1.0000 0.00501  0.75275  0.76436  Biso   1.000  C
  C960     1.0000 0.27862  0.46581  0.25239  Biso   1.000  C
  Cu1      1.0000 0.99725  0.48868  0.65955  Biso   1.000  Cu
  Cu2      1.0000 0.66294  0.99069  0.51431  Biso   1.000  Cu
  Cu3      1.0000 0.50236  0.64202  0.01190  Biso   1.000  Cu
  Cu4      1.0000 0.49673  0.48707  0.85408  Biso   1.000  Cu
  Cu5      1.0000 0.16532  0.98711  0.00260  Biso   1.000  Cu
  Cu6      1.0000 0.00988  0.63953  0.50232  Biso   1.000  Cu
  Cu7      1.0000 0.50046  0.99188  0.66375  Biso   1.000  Cu
  Cu8      1.0000 0.85214  0.49121  0.50045  Biso   1.000  Cu
  Cu9      1.0000 0.01213  0.14329  0.00022  Biso   1.000  Cu
  Cu10     1.0000 0.00291  0.99043  0.85119  Biso   1.000  Cu
  Cu11     1.0000 0.35217  0.47935  0.01117  Biso   1.000  Cu
  Cu12     1.0000 0.49912  0.14601  0.50355  Biso   1.000  Cu
  Cu13     1.0000 0.00944  0.49323  0.34565  Biso   1.000  Cu
  Cu14     1.0000 0.35572  0.98875  0.50254  Biso   1.000  Cu
  Cu15     1.0000 0.50987  0.33627  0.00766  Biso   1.000  Cu
  Cu16     1.0000 0.51634  0.48725  0.15637  Biso   1.000  Cu
  Cu17     1.0000 0.85545  0.99695  0.00884  Biso   1.000  Cu
  Cu18     1.0000 0.99608  0.33988  0.50243  Biso   1.000  Cu
  Cu19     1.0000 0.51080  0.99047  0.35508  Biso   1.000  Cu
  Cu20     1.0000 0.15854  0.48863  0.50856  Biso   1.000  Cu
  Cu21     1.0000 0.00685  0.83914  0.00456  Biso   1.000  Cu
  Cu22     1.0000 0.01541  0.98967  0.15789  Biso   1.000  Cu
  Cu23     1.0000 0.66112  0.49813  0.99999  Biso   1.000  Cu
  Cu24     1.0000 0.50975  0.83938  0.51001  Biso   1.000  Cu
  Cu25     1.0000 0.21939  0.98552  0.00191  Biso   1.000  Cu
  Cu26     1.0000 0.01335  0.20070  0.00162  Biso   1.000  Cu
  Cu27     1.0000 0.01254  0.99424  0.21097  Biso   1.000  Cu
  Cu28     1.0000 0.71806  0.99087  0.51545  Biso   1.000  Cu
  Cu29     1.0000 0.49820  0.20128  0.50535  Biso   1.000  Cu
  Cu30     1.0000 0.51741  0.99303  0.30147  Biso   1.000  Cu
  Cu31     1.0000 0.29854  0.47980  0.01567  Biso   1.000  Cu
  Cu32     1.0000 0.49901  0.69451  0.00997  Biso   1.000  Cu
  Cu33     1.0000 0.51665  0.48788  0.21047  Biso   1.000  Cu
  Cu34     1.0000 0.79722  0.49613  0.49586  Biso   1.000  Cu
  Cu35     1.0000 0.00882  0.69548  0.50639  Biso   1.000  Cu
  Cu36     1.0000 0.01324  0.49284  0.29192  Biso   1.000  Cu
  Cu37     1.0000 0.80022  0.99843  0.01253  Biso   1.000  Cu
  Cu38     1.0000 0.00507  0.78567  0.00834  Biso   1.000  Cu
  Cu39     1.0000 0.00230  0.98962  0.79704  Biso   1.000  Cu
  Cu40     1.0000 0.29956  0.98917  0.49766  Biso   1.000  Cu
  Cu41     1.0000 0.51269  0.78503  0.50668  Biso   1.000  Cu
  Cu42     1.0000 0.49696  0.99294  0.71753  Biso   1.000  Cu
  Cu43     1.0000 0.71549  0.49837  0.99399  Biso   1.000  Cu
  Cu44     1.0000 0.51604  0.28382  0.00809  Biso   1.000  Cu
  Cu45     1.0000 0.49076  0.48981  0.80116  Biso   1.000  Cu
  Cu46     1.0000 0.21381  0.48464  0.50798  Biso   1.000  Cu
  Cu47     1.0000 0.99896  0.28580  0.50041  Biso   1.000  Cu
  Cu48     1.0000 0.99367  0.48910  0.71170  Biso   1.000  Cu
  H1       1.0000 0.25068  0.77693  0.53258  Biso   1.000  H
  H2       1.0000 0.53172  0.28221  0.73635  Biso   1.000  H
  H3       1.0000 0.74783  0.51651  0.28872  Biso   1.000  H
  H4       1.0000 0.74171  0.78949  0.97299  Biso   1.000  H
  H5       1.0000 0.99029  0.22180  0.70584  Biso   1.000  H
  H6       1.0000 0.30120  0.50133  0.27383  Biso   1.000  H
  H7       1.0000 0.25248  0.26725  0.54844  Biso   1.000  H
  H8       1.0000 0.96307  0.77363  0.75133  Biso   1.000  H
  H9       1.0000 0.73263  0.02556  0.25428  Biso   1.000  H
  H10      1.0000 0.77195  0.28547  0.04365  Biso   1.000  H
  H11      1.0000 0.45126  0.77821  0.76634  Biso   1.000  H
  H12      1.0000 0.27355  0.02883  0.21319  Biso   1.000  H
  H13      1.0000 0.70151  0.25979  0.48660  Biso   1.000  H
  H14      1.0000 0.53343  0.75256  0.21663  Biso   1.000  H
  H15      1.0000 0.26073  0.46013  0.72471  Biso   1.000  H
  H16      1.0000 0.27886  0.18768  0.04464  Biso   1.000  H
  H17      1.0000 0.04585  0.74849  0.29365  Biso   1.000  H
  H18      1.0000 0.68994  0.49757  0.73045  Biso   1.000  H
  H19      1.0000 0.79417  0.75217  0.48541  Biso   1.000  H
  H20      1.0000 0.04418  0.21427  0.25084  Biso   1.000  H
  H21      1.0000 0.23982  0.00505  0.70771  Biso   1.000  H
  H22      1.0000 0.23524  0.69400  0.03490  Biso   1.000  H
  H23      1.0000 0.57919  0.20867  0.25511  Biso   1.000  H
  H24      1.0000 0.78039  0.95712  0.75798  Biso   1.000  H
  H25      1.0000 0.26741  0.00800  0.78666  Biso   1.000  H
  H26      1.0000 0.80810  0.25803  0.03700  Biso   1.000  H
  H27      1.0000 0.97545  0.73932  0.21789  Biso   1.000  H
  H28      1.0000 0.76559  0.97807  0.72083  Biso   1.000  H
  H29      1.0000 0.23934  0.19954  0.47477  Biso   1.000  H
  H30      1.0000 0.54341  0.77550  0.25117  Biso   1.000  H
  H31      1.0000 0.27418  0.51563  0.75616  Biso   1.000  H
  H32      1.0000 0.76707  0.70351  0.02446  Biso   1.000  H
  H33      1.0000 0.51919  0.28232  0.27689  Biso   1.000  H
  H34      1.0000 0.72735  0.51362  0.70911  Biso   1.000  H
  H35      1.0000 0.21966  0.75495  0.48431  Biso   1.000  H
  H36      1.0000 0.98282  0.28595  0.23297  Biso   1.000  H
  H37      1.0000 0.74929  0.96604  0.22470  Biso   1.000  H
  H38      1.0000 0.26506  0.77061  0.97605  Biso   1.000  H
  H39      1.0000 0.98286  0.24711  0.79249  Biso   1.000  H
  H40      1.0000 0.25516  0.96949  0.29577  Biso   1.000  H
  H41      1.0000 0.77095  0.77351  0.54788  Biso   1.000  H
  H42      1.0000 0.46507  0.21311  0.76427  Biso   1.000  H
  H43      1.0000 0.73053  0.46725  0.26043  Biso   1.000  H
  H44      1.0000 0.25050  0.26733  0.99142  Biso   1.000  H
  H45      1.0000 0.50591  0.69731  0.74313  Biso   1.000  H
  H46      1.0000 0.27728  0.44463  0.30742  Biso   1.000  H
  H47      1.0000 0.73025  0.27958  0.53305  Biso   1.000  H
  H48      1.0000 0.02882  0.70113  0.76745  Biso   1.000  H
  H49      1.0000 0.22579  0.48372  0.24365  Biso   1.000  H
  H50      1.0000 0.28855  0.24644  0.54241  Biso   1.000  H
  H51      1.0000 0.56674  0.23149  0.21595  Biso   1.000  H
  H52      1.0000 0.78002  0.52251  0.20372  Biso   1.000  H
  H53      1.0000 0.75051  0.20307  0.98568  Biso   1.000  H
  H54      1.0000 0.02994  0.23213  0.28857  Biso   1.000  H
  H55      1.0000 0.30672  0.02174  0.23679  Biso   1.000  H
  H56      1.0000 0.27461  0.69572  0.53085  Biso   1.000  H
  H57      1.0000 0.05380  0.77609  0.25904  Biso   1.000  H
  H58      1.0000 0.80921  0.01099  0.27583  Biso   1.000  H
  H59      1.0000 0.71148  0.76267  0.97780  Biso   1.000  H
  H60      1.0000 0.47134  0.73476  0.29412  Biso   1.000  H
  H61      1.0000 0.77575  0.44600  0.74917  Biso   1.000  H
  H62      1.0000 0.72330  0.73140  0.48051  Biso   1.000  H
  H63      1.0000 0.45862  0.75518  0.80348  Biso   1.000  H
  H64      1.0000 0.23092  0.45074  0.80052  Biso   1.000  H
  H65      1.0000 0.21135  0.72572  0.03782  Biso   1.000  H
  H66      1.0000 0.97747  0.75231  0.71120  Biso   1.000  H
  H67      1.0000 0.70291  0.01601  0.78019  Biso   1.000  H
  H68      1.0000 0.78694  0.23882  0.47148  Biso   1.000  H
  H69      1.0000 0.03648  0.20153  0.73570  Biso   1.000  H
  H70      1.0000 0.21016  0.95447  0.73902  Biso   1.000  H
  H71      1.0000 0.30623  0.21820  0.04814  Biso   1.000  H
  H72      1.0000 0.54515  0.24045  0.72319  Biso   1.000  H
  H73      1.0000 0.75536  0.45621  0.78332  Biso   1.000  H
  H74      1.0000 0.75020  0.70368  0.54788  Biso   1.000  H
  H75      1.0000 0.51908  0.73171  0.71978  Biso   1.000  H
  H76      1.0000 0.20217  0.50791  0.77933  Biso   1.000  H
  H77      1.0000 0.29234  0.74115  0.97681  Biso   1.000  H
  H78      1.0000 0.04042  0.73362  0.78916  Biso   1.000  H
  H79      1.0000 0.74005  0.02694  0.80445  Biso   1.000  H
  H80      1.0000 0.76894  0.19930  0.52073  Biso   1.000  H
  H81      1.0000 0.02739  0.27836  0.76964  Biso   1.000  H
  H82      1.0000 0.28906  0.94359  0.76112  Biso   1.000  H
  H83      1.0000 0.21804  0.24818  0.00860  Biso   1.000  H
  H84      1.0000 0.48582  0.22760  0.80074  Biso   1.000  H
  H85      1.0000 0.26100  0.42939  0.23079  Biso   1.000  H
  H86      1.0000 0.21876  0.23523  0.47053  Biso   1.000  H
  H87      1.0000 0.50726  0.25004  0.29318  Biso   1.000  H
  H88      1.0000 0.80424  0.47239  0.22950  Biso   1.000  H
  H89      1.0000 0.72483  0.23511  0.97752  Biso   1.000  H
  H90      1.0000 0.96561  0.25022  0.21949  Biso   1.000  H
  H91      1.0000 0.23232  0.95996  0.26200  Biso   1.000  H
  H92      1.0000 0.29924  0.72300  0.47414  Biso   1.000  H
  H93      1.0000 0.98034  0.70609  0.24026  Biso   1.000  H
  H94      1.0000 0.77290  0.95645  0.30036  Biso   1.000  H
  H95      1.0000 0.79905  0.73437  0.02463  Biso   1.000  H
  H96      1.0000 0.48457  0.69659  0.27632  Biso   1.000  H
  H97      1.0000 0.87187  0.99052  0.91910  Biso   1.000  H
  H98      1.0000 0.91530  0.86138  0.00450  Biso   1.000  H
  H99      1.0000 0.00406  0.89910  0.87352  Biso   1.000  H
  H100     1.0000 0.37422  0.97365  0.59108  Biso   1.000  H
  H101     1.0000 0.42065  0.85705  0.49688  Biso   1.000  H
  H102     1.0000 0.50911  0.89686  0.64128  Biso   1.000  H
  H103     1.0000 0.63437  0.49304  0.90791  Biso   1.000  H
  H104     1.0000 0.60156  0.36241  0.00364  Biso   1.000  H
  H105     1.0000 0.51127  0.39925  0.87222  Biso   1.000  H
  H106     1.0000 0.13514  0.49777  0.60020  Biso   1.000  H
  H107     1.0000 0.09048  0.35940  0.49498  Biso   1.000  H
  H108     1.0000 0.99781  0.39984  0.63629  Biso   1.000  H
  H109     1.0000 0.14858  0.97830  0.09802  Biso   1.000  H
  H110     1.0000 0.10442  0.11725  0.01412  Biso   1.000  H
  H111     1.0000 0.01128  0.08257  0.13373  Biso   1.000  H
  H112     1.0000 0.64800  0.98301  0.42582  Biso   1.000  H
  H113     1.0000 0.58903  0.12597  0.51730  Biso   1.000  H
  H114     1.0000 0.51784  0.08569  0.37828  Biso   1.000  H
  H115     1.0000 0.37718  0.48066  0.10139  Biso   1.000  H
  H116     1.0000 0.41273  0.61624  0.00563  Biso   1.000  H
  H117     1.0000 0.50152  0.57954  0.13961  Biso   1.000  H
  H118     1.0000 0.88037  0.48281  0.40435  Biso   1.000  H
  H119     1.0000 0.91892  0.61933  0.50650  Biso   1.000  H
  H120     1.0000 0.01440  0.58363  0.36965  Biso   1.000  H
  H121     1.0000 0.09739  0.98685  0.87349  Biso   1.000  H
  H122     1.0000 0.88164  0.08758  0.01071  Biso   1.000  H
  H123     1.0000 0.00297  0.86087  0.09815  Biso   1.000  H
  H124     1.0000 0.58952  0.99930  0.64383  Biso   1.000  H
  H125     1.0000 0.37012  0.08173  0.51164  Biso   1.000  H
  H126     1.0000 0.50318  0.86202  0.41525  Biso   1.000  H
  H127     1.0000 0.40528  0.48285  0.87585  Biso   1.000  H
  H128     1.0000 0.63905  0.58422  0.00345  Biso   1.000  H
  H129     1.0000 0.51561  0.35544  0.09843  Biso   1.000  H
  H130     1.0000 0.90465  0.50878  0.63322  Biso   1.000  H
  H131     1.0000 0.14087  0.58096  0.50535  Biso   1.000  H
  H132     1.0000 0.00053  0.36081  0.40830  Biso   1.000  H
  H133     1.0000 0.92115  0.98574  0.13510  Biso   1.000  H
  H134     1.0000 0.13963  0.89547  0.00706  Biso   1.000  H
  H135     1.0000 0.01878  0.12044  0.90909  Biso   1.000  H
  H136     1.0000 0.42352  0.00961  0.37148  Biso   1.000  H
  H137     1.0000 0.64817  0.90217  0.51054  Biso   1.000  H
  H138     1.0000 0.49587  0.12243  0.59791  Biso   1.000  H
  H139     1.0000 0.60586  0.48917  0.13280  Biso   1.000  H
  H140     1.0000 0.37430  0.38883  0.00357  Biso   1.000  H
  H141     1.0000 0.49646  0.61957  0.91816  Biso   1.000  H
  H142     1.0000 0.10019  0.49316  0.37271  Biso   1.000  H
  H143     1.0000 0.86601  0.39936  0.50260  Biso   1.000  H
  H144     1.0000 0.00946  0.61574  0.60025  Biso   1.000  H
  H145     1.0000 0.58483  0.49422  0.87056  Biso   1.000  H
  H146     1.0000 0.87066  0.57677  0.49496  Biso   1.000  H
  H147     1.0000 0.50314  0.85720  0.59940  Biso   1.000  H
  H148     1.0000 0.08539  0.48450  0.64432  Biso   1.000  H
  H149     1.0000 0.37083  0.57368  0.01676  Biso   1.000  H
  H150     1.0000 0.01031  0.85386  0.91638  Biso   1.000  H
  H151     1.0000 0.91458  0.98596  0.87031  Biso   1.000  H
  H152     1.0000 0.63652  0.08116  0.51652  Biso   1.000  H
  H153     1.0000 0.00336  0.35658  0.59642  Biso   1.000  H
  H154     1.0000 0.41045  0.98092  0.63661  Biso   1.000  H
  H155     1.0000 0.14557  0.07640  0.01519  Biso   1.000  H
  H156     1.0000 0.50575  0.35960  0.91355  Biso   1.000  H
  H157     1.0000 0.42054  0.48449  0.13990  Biso   1.000  H
  H158     1.0000 0.13570  0.40187  0.51832  Biso   1.000  H
  H159     1.0000 0.50439  0.12639  0.41264  Biso   1.000  H
  H160     1.0000 0.92196  0.49357  0.36173  Biso   1.000  H
  H161     1.0000 0.64468  0.40933  0.00029  Biso   1.000  H
  H162     1.0000 0.01165  0.13164  0.08803  Biso   1.000  H
  H163     1.0000 0.10460  0.98484  0.13978  Biso   1.000  H
  H164     1.0000 0.37329  0.89863  0.49756  Biso   1.000  H
  H165     1.0000 0.00981  0.62497  0.41374  Biso   1.000  H
  H166     1.0000 0.60538  0.98141  0.38426  Biso   1.000  H
  H167     1.0000 0.87352  0.90318  0.00688  Biso   1.000  H
  H168     1.0000 0.49488  0.62336  0.10009  Biso   1.000  H
  H169     1.0000 0.01700  0.07897  0.87035  Biso   1.000  H
  H170     1.0000 0.87565  0.98682  0.09766  Biso   1.000  H
  H171     1.0000 0.09995  0.85801  0.01363  Biso   1.000  H
  H172     1.0000 0.50234  0.08509  0.64156  Biso   1.000  H
  H173     1.0000 0.38236  0.00350  0.41486  Biso   1.000  H
  H174     1.0000 0.60257  0.86370  0.50830  Biso   1.000  H
  H175     1.0000 0.49370  0.58461  0.88091  Biso   1.000  H
  H176     1.0000 0.64790  0.49628  0.08854  Biso   1.000  H
  H177     1.0000 0.41555  0.35174  0.00646  Biso   1.000  H
  H178     1.0000 0.99537  0.57825  0.64114  Biso   1.000  H
  H179     1.0000 0.14008  0.49538  0.41196  Biso   1.000  H
  H180     1.0000 0.90255  0.36151  0.51170  Biso   1.000  H
  H181     1.0000 0.01189  0.90041  0.14123  Biso   1.000  H
  H182     1.0000 0.14252  0.99453  0.91430  Biso   1.000  H
  H183     1.0000 0.92378  0.12884  0.00642  Biso   1.000  H
  H184     1.0000 0.50101  0.90198  0.37359  Biso   1.000  H
  H185     1.0000 0.63647  0.99400  0.60406  Biso   1.000  H
  H186     1.0000 0.41080  0.12442  0.50595  Biso   1.000  H
  H187     1.0000 0.51463  0.39532  0.13923  Biso   1.000  H
  H188     1.0000 0.36552  0.47760  0.91762  Biso   1.000  H
  H189     1.0000 0.59487  0.62592  0.01221  Biso   1.000  H
  H190     1.0000 0.01074  0.40372  0.36921  Biso   1.000  H
  H191     1.0000 0.86222  0.51137  0.59358  Biso   1.000  H
  H192     1.0000 0.10076  0.62365  0.50345  Biso   1.000  H
  H193     1.0000 0.28073  0.84201  0.48171  Biso   1.000  H
  H194     1.0000 0.51861  0.26199  0.86414  Biso   1.000  H
  H195     1.0000 0.86760  0.50998  0.26779  Biso   1.000  H
  H196     1.0000 0.77640  0.85316  0.00916  Biso   1.000  H
  H197     1.0000 0.02004  0.26458  0.64580  Biso   1.000  H
  H198     1.0000 0.37540  0.47347  0.24124  Biso   1.000  H
  H199     1.0000 0.22668  0.33892  0.52494  Biso   1.000  H
  H200     1.0000 0.00036  0.76230  0.85866  Biso   1.000  H
  H201     1.0000 0.65368  0.98556  0.28450  Biso   1.000  H
  H202     1.0000 0.74253  0.35551  0.00107  Biso   1.000  H
  H203     1.0000 0.49535  0.76287  0.65304  Biso   1.000  H
  H204     1.0000 0.16028  0.00158  0.23107  Biso   1.000  H
  H205     1.0000 0.72919  0.13535  0.49372  Biso   1.000  H
  H206     1.0000 0.49751  0.71738  0.15460  Biso   1.000  H
  H207     1.0000 0.13808  0.48711  0.74156  Biso   1.000  H
  H208     1.0000 0.24079  0.12773  0.02003  Biso   1.000  H
  H209     1.0000 0.00605  0.72428  0.36345  Biso   1.000  H
  H210     1.0000 0.63205  0.46160  0.77542  Biso   1.000  H
  H211     1.0000 0.77721  0.63944  0.49977  Biso   1.000  H
  H212     1.0000 0.99885  0.22497  0.14713  Biso   1.000  H
  H213     1.0000 0.35196  0.97393  0.73031  Biso   1.000  H
  H214     1.0000 0.27054  0.62291  0.01433  Biso   1.000  H
  H215     1.0000 0.52656  0.21983  0.35874  Biso   1.000  H
  H216     1.0000 0.85388  0.99508  0.77850  Biso   1.000  H
  H217     1.0000 0.23871  0.48714  0.36612  Biso   1.000  H
  H218     1.0000 0.35382  0.21935  0.50251  Biso   1.000  H
  H219     1.0000 0.53595  0.35100  0.23683  Biso   1.000  H
  H220     1.0000 0.74487  0.48775  0.13508  Biso   1.000  H
  H221     1.0000 0.87196  0.22604  0.00348  Biso   1.000  H
  H222     1.0000 0.01783  0.35415  0.26840  Biso   1.000  H
  H223     1.0000 0.28846  0.01260  0.35903  Biso   1.000  H
  H224     1.0000 0.15066  0.71862  0.50852  Biso   1.000  H
  H225     1.0000 0.01438  0.84659  0.23637  Biso   1.000  H
  H226     1.0000 0.78324  0.98899  0.15829  Biso   1.000  H
  H227     1.0000 0.64076  0.72217  0.01073  Biso   1.000  H
  H228     1.0000 0.51211  0.85127  0.27733  Biso   1.000  H
  H229     1.0000 0.76588  0.49069  0.63970  Biso   1.000  H
  H230     1.0000 0.65343  0.76523  0.51840  Biso   1.000  H
  H231     1.0000 0.47160  0.63172  0.78409  Biso   1.000  H
  H232     1.0000 0.26633  0.47219  0.86770  Biso   1.000  H
  H233     1.0000 0.14609  0.75960  0.00062  Biso   1.000  H
  H234     1.0000 0.98706  0.63783  0.73442  Biso   1.000  H
  H235     1.0000 0.72775  0.00817  0.65838  Biso   1.000  H
  H236     1.0000 0.85115  0.26252  0.51708  Biso   1.000  H
  H237     1.0000 0.02016  0.13041  0.77215  Biso   1.000  H
  H238     1.0000 0.23555  0.99026  0.85470  Biso   1.000  H
  H239     1.0000 0.37283  0.25333  0.01941  Biso   1.000  H
  H240     1.0000 0.48426  0.13478  0.73919  Biso   1.000  H
  H241     1.0000 0.72448  0.48209  0.85112  Biso   1.000  H
  H242     1.0000 0.86528  0.71832  0.51753  Biso   1.000  H
  H243     1.0000 0.48871  0.84874  0.73744  Biso   1.000  H
  H244     1.0000 0.23022  0.49601  0.65091  Biso   1.000  H
  H245     1.0000 0.35224  0.70873  0.00562  Biso   1.000  H
  H246     1.0000 0.00235  0.84469  0.77510  Biso   1.000  H
  H247     1.0000 0.77314  0.99065  0.86909  Biso   1.000  H
  H248     1.0000 0.64197  0.22085  0.51703  Biso   1.000  H
  H249     1.0000 0.99552  0.35157  0.73554  Biso   1.000  H
  H250     1.0000 0.27453  0.96083  0.64189  Biso   1.000  H
  H251     1.0000 0.15196  0.21398  0.03284  Biso   1.000  H
  H252     1.0000 0.50319  0.34674  0.77480  Biso   1.000  H
  H253     1.0000 0.28480  0.46829  0.16490  Biso   1.000  H
  H254     1.0000 0.13976  0.26009  0.50247  Biso   1.000  H
  H255     1.0000 0.54789  0.12818  0.27990  Biso   1.000  H
  H256     1.0000 0.78219  0.48586  0.35452  Biso   1.000  H
  H257     1.0000 0.65726  0.26986  0.01861  Biso   1.000  H
  H258     1.0000 0.01197  0.13663  0.22915  Biso   1.000  H
  H259     1.0000 0.24448  0.98738  0.14783  Biso   1.000  H
  H260     1.0000 0.36775  0.76014  0.51412  Biso   1.000  H
  H261     1.0000 0.00887  0.63453  0.27326  Biso   1.000  H
  H262     1.0000 0.74257  0.99071  0.36766  Biso   1.000  H
  H263     1.0000 0.85993  0.76642  0.99382  Biso   1.000  H
  H264     1.0000 0.50873  0.62883  0.24040  Biso   1.000  H
  H265     1.0000 0.02845  0.21506  0.85651  Biso   1.000  H
  H266     1.0000 0.87720  0.97833  0.23835  Biso   1.000  H
  H267     1.0000 0.23810  0.84350  0.00476  Biso   1.000  H
  H268     1.0000 0.50514  0.21580  0.65213  Biso   1.000  H
  H269     1.0000 0.37200  0.99266  0.27417  Biso   1.000  H
  H270     1.0000 0.74273  0.84751  0.51424  Biso   1.000  H
  H271     1.0000 0.50154  0.71794  0.86945  Biso   1.000  H
  H272     1.0000 0.65957  0.49081  0.22874  Biso   1.000  H
  H273     1.0000 0.27953  0.33326  0.01333  Biso   1.000  H
  H274     1.0000 0.01276  0.71533  0.64681  Biso   1.000  H
  H275     1.0000 0.15399  0.45653  0.28211  Biso   1.000  H
  H276     1.0000 0.76721  0.35335  0.51545  Biso   1.000  H
  H277     1.0000 0.01706  0.76368  0.14717  Biso   1.000  H
  H278     1.0000 0.14662  0.98637  0.77662  Biso   1.000  H
  H279     1.0000 0.78665  0.14277  0.01821  Biso   1.000  H
  H280     1.0000 0.50431  0.76444  0.36305  Biso   1.000  H
  H281     1.0000 0.63993  0.99784  0.74372  Biso   1.000  H
  H282     1.0000 0.27398  0.13335  0.51943  Biso   1.000  H
  H283     1.0000 0.52882  0.26054  0.15339  Biso   1.000  H
  H284     1.0000 0.34855  0.46833  0.78399  Biso   1.000  H
  H285     1.0000 0.73217  0.64263  0.99318  Biso   1.000  H
  H286     1.0000 0.99114  0.26607  0.35249  Biso   1.000  H
  H287     1.0000 0.84965  0.49092  0.73019  Biso   1.000  H
  H288     1.0000 0.23788  0.62926  0.49364  Biso   1.000  H
  H289     1.0000 0.10015  0.21167  0.03581  Biso   1.000  H
  H290     1.0000 0.01813  0.08352  0.22793  Biso   1.000  H
  H291     1.0000 0.24216  0.98167  0.09121  Biso   1.000  H
  H292     1.0000 0.59126  0.22145  0.51720  Biso   1.000  H
  H293     1.0000 0.54966  0.07749  0.28663  Biso   1.000  H
  H294     1.0000 0.74280  0.99257  0.42262  Biso   1.000  H
  H295     1.0000 0.40749  0.71239  0.00234  Biso   1.000  H
  H296     1.0000 0.51370  0.57564  0.23524  Biso   1.000  H
  H297     1.0000 0.28019  0.47836  0.11130  Biso   1.000  H
  H298     1.0000 0.91849  0.71401  0.51639  Biso   1.000  H
  H299     1.0000 0.01401  0.58461  0.27392  Biso   1.000  H
  H300     1.0000 0.78572  0.48377  0.40899  Biso   1.000  H
  H301     1.0000 0.91654  0.76553  0.99171  Biso   1.000  H
  H302     1.0000 0.99941  0.89690  0.77530  Biso   1.000  H
  H303     1.0000 0.77616  0.99622  0.92356  Biso   1.000  H
  H304     1.0000 0.42092  0.76473  0.51443  Biso   1.000  H
  H305     1.0000 0.48911  0.89886  0.73710  Biso   1.000  H
  H306     1.0000 0.27719  0.96492  0.58803  Biso   1.000  H
  H307     1.0000 0.60279  0.26922  0.01716  Biso   1.000  H
  H308     1.0000 0.49749  0.40129  0.77760  Biso   1.000  H
  H309     1.0000 0.72848  0.49728  0.90628  Biso   1.000  H
  H310     1.0000 0.08821  0.26345  0.49291  Biso   1.000  H
  H311     1.0000 0.97893  0.40215  0.73003  Biso   1.000  H
  H312     1.0000 0.22712  0.49536  0.59661  Biso   1.000  H
  H313     1.0000 0.23555  0.98992  0.91158  Biso   1.000  H
  H314     1.0000 0.92724  0.22573  0.00134  Biso   1.000  H
  H315     1.0000 0.01309  0.89814  0.23737  Biso   1.000  H
  H316     1.0000 0.73161  0.99600  0.60717  Biso   1.000  H
  H317     1.0000 0.41023  0.21904  0.49945  Biso   1.000  H
  H318     1.0000 0.51152  0.90500  0.27589  Biso   1.000  H
  H319     1.0000 0.27288  0.46900  0.92740  Biso   1.000  H
  H320     1.0000 0.59016  0.72086  0.01436  Biso   1.000  H
  H321     1.0000 0.52913  0.40503  0.23259  Biso   1.000  H
  H322     1.0000 0.76938  0.50379  0.58622  Biso   1.000  H
  H323     1.0000 0.09629  0.71749  0.50521  Biso   1.000  H
  H324     1.0000 0.02442  0.40505  0.27547  Biso   1.000  H
  H325     1.0000 0.78136  0.98570  0.10268  Biso   1.000  H
  H326     1.0000 0.09548  0.76202  0.00486  Biso   1.000  H
  H327     1.0000 0.01771  0.07529  0.77414  Biso   1.000  H
  H328     1.0000 0.28874  0.01412  0.41432  Biso   1.000  H
  H329     1.0000 0.60162  0.76826  0.51050  Biso   1.000  H
  H330     1.0000 0.48552  0.08081  0.73641  Biso   1.000  H
  H331     1.0000 0.74135  0.49256  0.08271  Biso   1.000  H
  H332     1.0000 0.42877  0.25910  0.01838  Biso   1.000  H
  H333     1.0000 0.47618  0.57551  0.78627  Biso   1.000  H
  H334     1.0000 0.23469  0.49134  0.41967  Biso   1.000  H
  H335     1.0000 0.90840  0.26299  0.50062  Biso   1.000  H
  H336     1.0000 0.98668  0.58140  0.73575  Biso   1.000  H
  H337     1.0000 0.03076  0.21302  0.91430  Biso   1.000  H
  H338     1.0000 0.92988  0.97715  0.22958  Biso   1.000  H
  H339     1.0000 0.23659  0.89529  0.00609  Biso   1.000  H
  H340     1.0000 0.50745  0.21604  0.59989  Biso   1.000  H
  H341     1.0000 0.42971  0.99582  0.27641  Biso   1.000  H
  H342     1.0000 0.74142  0.90288  0.51197  Biso   1.000  H
  H343     1.0000 0.50632  0.71393  0.92203  Biso   1.000  H
  H344     1.0000 0.60614  0.49129  0.22636  Biso   1.000  H
  H345     1.0000 0.28056  0.38901  0.00323  Biso   1.000  H
  H346     1.0000 0.02470  0.71146  0.59557  Biso   1.000  H
  H347     1.0000 0.10029  0.46146  0.28258  Biso   1.000  H
  H348     1.0000 0.76896  0.40525  0.51038  Biso   1.000  H
  H349     1.0000 0.01322  0.76733  0.09220  Biso   1.000  H
  H350     1.0000 0.09254  0.97848  0.77779  Biso   1.000  H
  H351     1.0000 0.78389  0.09111  0.01842  Biso   1.000  H
  H352     1.0000 0.50607  0.76632  0.41614  Biso   1.000  H
  H353     1.0000 0.58646  0.00309  0.73871  Biso   1.000  H
  H354     1.0000 0.27617  0.07744  0.51930  Biso   1.000  H
  H355     1.0000 0.52201  0.25989  0.09997  Biso   1.000  H
  H356     1.0000 0.40229  0.48556  0.77691  Biso   1.000  H
  H357     1.0000 0.73340  0.58632  0.99970  Biso   1.000  H
  H358     1.0000 0.99449  0.26660  0.40679  Biso   1.000  H
  H359     1.0000 0.90134  0.49264  0.72907  Biso   1.000  H
  H360     1.0000 0.23826  0.57812  0.49880  Biso   1.000  H
  H361     1.0000 0.00983  0.72182  0.41755  Biso   1.000  H
  H362     1.0000 0.40709  0.98306  0.73229  Biso   1.000  H
  H363     1.0000 0.73836  0.40719  0.99090  Biso   1.000  H
  H364     1.0000 0.49420  0.71865  0.10168  Biso   1.000  H
  H365     1.0000 0.90815  0.98714  0.77310  Biso   1.000  H
  H366     1.0000 0.22700  0.39037  0.53943  Biso   1.000  H
  H367     1.0000 0.51043  0.22261  0.41295  Biso   1.000  H
  H368     1.0000 0.08379  0.47856  0.73593  Biso   1.000  H
  H369     1.0000 0.77809  0.90715  0.00751  Biso   1.000  H
  H370     1.0000 0.00291  0.22575  0.09219  Biso   1.000  H
  H371     1.0000 0.58011  0.46158  0.77989  Biso   1.000  H
  H372     1.0000 0.28089  0.89612  0.48101  Biso   1.000  H
  H373     1.0000 0.02311  0.26663  0.58995  Biso   1.000  H
  H374     1.0000 0.60179  0.98562  0.28833  Biso   1.000  H
  H375     1.0000 0.27443  0.56654  0.01349  Biso   1.000  H
  H376     1.0000 0.52512  0.26488  0.91954  Biso   1.000  H
  H377     1.0000 0.10666  0.00169  0.23324  Biso   1.000  H
  H378     1.0000 0.77778  0.58498  0.48850  Biso   1.000  H
  H379     1.0000 0.50564  0.76211  0.59976  Biso   1.000  H
  H380     1.0000 0.92171  0.51524  0.26813  Biso   1.000  H
  H381     1.0000 0.24332  0.07696  0.01294  Biso   1.000  H
  H382     1.0000 0.00777  0.76150  0.91213  Biso   1.000  H
  H383     1.0000 0.43022  0.47937  0.23637  Biso   1.000  H
  H384     1.0000 0.72938  0.08201  0.50032  Biso   1.000  H
  H385     1.0000 0.23940  0.44670  0.34288  Biso   1.000  H
  H386     1.0000 0.27302  0.16256  0.47520  Biso   1.000  H
  H387     1.0000 0.50838  0.32002  0.23675  Biso   1.000  H
  H388     1.0000 0.69161  0.46212  0.22389  Biso   1.000  H
  H389     1.0000 0.84244  0.22043  0.03586  Biso   1.000  H
  H390     1.0000 0.97722  0.32361  0.26789  Biso   1.000  H
  H391     1.0000 0.29373  0.97072  0.33108  Biso   1.000  H
  H392     1.0000 0.18309  0.72166  0.48539  Biso   1.000  H
  H393     1.0000 0.98254  0.76958  0.17673  Biso   1.000  H
  H394     1.0000 0.78821  0.95951  0.18690  Biso   1.000  H
  H395     1.0000 0.73139  0.66809  0.02551  Biso   1.000  H
  H396     1.0000 0.53952  0.81545  0.28290  Biso   1.000  H
  H397     1.0000 0.76896  0.52285  0.67305  Biso   1.000  H
  H398     1.0000 0.73713  0.81592  0.54680  Biso   1.000  H
  H399     1.0000 0.51097  0.66211  0.78125  Biso   1.000  H
  H400     1.0000 0.31694  0.51298  0.79359  Biso   1.000  H
  H401     1.0000 0.23370  0.80907  0.97537  Biso   1.000  H
  H402     1.0000 0.02424  0.65669  0.73134  Biso   1.000  H
  H403     1.0000 0.72833  0.97016  0.68412  Biso   1.000  H
  H404     1.0000 0.76436  0.32025  0.53925  Biso   1.000  H
  H405     1.0000 0.99245  0.21504  0.83244  Biso   1.000  H
  H406     1.0000 0.23262  0.01924  0.82166  Biso   1.000  H
  H407     1.0000 0.28933  0.30160  0.98315  Biso   1.000  H
  H408     1.0000 0.46166  0.17236  0.72865  Biso   1.000  H
  H409     1.0000 0.29814  0.43147  0.18965  Biso   1.000  H
  H410     1.0000 0.17710  0.26719  0.47213  Biso   1.000  H
  H411     1.0000 0.49658  0.21373  0.32826  Biso   1.000  H
  H412     1.0000 0.84412  0.47337  0.26710  Biso   1.000  H
  H413     1.0000 0.68795  0.27250  0.97852  Biso   1.000  H
  H414     1.0000 0.96398  0.21434  0.17755  Biso   1.000  H
  H415     1.0000 0.19022  0.96188  0.22832  Biso   1.000  H
  H416     1.0000 0.33825  0.76305  0.47065  Biso   1.000  H
  H417     1.0000 0.97697  0.66730  0.27346  Biso   1.000  H
  H418     1.0000 0.73468  0.95668  0.33752  Biso   1.000  H
  H419     1.0000 0.83148  0.76845  0.02956  Biso   1.000  H
  H420     1.0000 0.48040  0.66004  0.24088  Biso   1.000  H
  H421     1.0000 0.72239  0.45152  0.82514  Biso   1.000  H
  H422     1.0000 0.78568  0.66447  0.54370  Biso   1.000  H
  H423     1.0000 0.52343  0.77035  0.68540  Biso   1.000  H
  H424     1.0000 0.16780  0.51289  0.73993  Biso   1.000  H
  H425     1.0000 0.32577  0.69807  0.97309  Biso   1.000  H
  H426     1.0000 0.03834  0.76822  0.82832  Biso   1.000  H
  H427     1.0000 0.77987  0.02977  0.83694  Biso   1.000  H
  H428     1.0000 0.73639  0.16139  0.52218  Biso   1.000  H
  H429     1.0000 0.02213  0.31944  0.73944  Biso   1.000  H
  H430     1.0000 0.32203  0.93958  0.72671  Biso   1.000  H
  H431     1.0000 0.18070  0.21293  0.00587  Biso   1.000  H
  H432     1.0000 0.48259  0.26618  0.83442  Biso   1.000  H
  H433     1.0000 0.27461  0.00083  0.66929  Biso   1.000  H
  H434     1.0000 0.73550  0.32719  0.03797  Biso   1.000  H
  H435     1.0000 0.04040  0.71440  0.33070  Biso   1.000  H
  H436     1.0000 0.82261  0.95894  0.79115  Biso   1.000  H
  H437     1.0000 0.21422  0.30324  0.55467  Biso   1.000  H
  H438     1.0000 0.53266  0.71665  0.18218  Biso   1.000  H
  H439     1.0000 0.22251  0.45773  0.68497  Biso   1.000  H
  H440     1.0000 0.77895  0.82337  0.97121  Biso   1.000  H
  H441     1.0000 0.57610  0.16666  0.28561  Biso   1.000  H
  H442     1.0000 0.65598  0.49366  0.76809  Biso   1.000  H
  H443     1.0000 0.28692  0.81539  0.53094  Biso   1.000  H
  H444     1.0000 0.04142  0.17273  0.21641  Biso   1.000  H
  H445     1.0000 0.69319  0.02658  0.28842  Biso   1.000  H
  H446     1.0000 0.27367  0.65599  0.03808  Biso   1.000  H
  H447     1.0000 0.98564  0.26177  0.67315  Biso   1.000  H
  H448     1.0000 0.23896  0.03000  0.18025  Biso   1.000  H
  H449     1.0000 0.83368  0.71033  0.47808  Biso   1.000  H
  H450     1.0000 0.53621  0.32052  0.77393  Biso   1.000  H
  H451     1.0000 0.78403  0.51977  0.32566  Biso   1.000  H
  H452     1.0000 0.24125  0.15136  0.04876  Biso   1.000  H
  H453     1.0000 0.45377  0.81618  0.73237  Biso   1.000  H
  H454     1.0000 0.33926  0.50481  0.23452  Biso   1.000  H
  H455     1.0000 0.66766  0.21975  0.48370  Biso   1.000  H
  H456     1.0000 0.96389  0.80869  0.78795  Biso   1.000  H
  H457     1.0000 0.68567  0.76761  0.48242  Biso   1.000  H
  H458     1.0000 0.46248  0.72206  0.83992  Biso   1.000  H
  H459     1.0000 0.81506  0.45188  0.71694  Biso   1.000  H
  H460     1.0000 0.17823  0.76212  0.03731  Biso   1.000  H
  H461     1.0000 0.97768  0.71513  0.67320  Biso   1.000  H
  H462     1.0000 0.27440  0.44045  0.83176  Biso   1.000  H
  H463     1.0000 0.82562  0.27402  0.48197  Biso   1.000  H
  H464     1.0000 0.04880  0.16352  0.76927  Biso   1.000  H
  H465     1.0000 0.66954  0.02126  0.74066  Biso   1.000  H
  H466     1.0000 0.34013  0.25998  0.04947  Biso   1.000  H
  H467     1.0000 0.53995  0.20438  0.68333  Biso   1.000  H
  H468     1.0000 0.17614  0.95498  0.77936  Biso   1.000  H
  H469     1.0000 0.32279  0.21448  0.54070  Biso   1.000  H
  H470     1.0000 0.57013  0.27047  0.18259  Biso   1.000  H
  H471     1.0000 0.18517  0.49071  0.27659  Biso   1.000  H
  H472     1.0000 0.78946  0.16899  0.97839  Biso   1.000  H
  H473     1.0000 0.02937  0.27012  0.32560  Biso   1.000  H
  H474     1.0000 0.74295  0.52141  0.16655  Biso   1.000  H
  H475     1.0000 0.23756  0.65708  0.52891  Biso   1.000  H
  H476     1.0000 0.05050  0.81590  0.22611  Biso   1.000  H
  H477     1.0000 0.34370  0.02812  0.27150  Biso   1.000  H
  H478     1.0000 0.67545  0.72893  0.97584  Biso   1.000  H
  H479     1.0000 0.46641  0.77365  0.32644  Biso   1.000  H
  H480     1.0000 0.84552  0.00924  0.23669  Biso   1.000  H
  N1       1.0000 0.67642  0.16809  0.50418  Biso   1.000  N
  N2       1.0000 0.50551  0.66406  0.18624  Biso   1.000  N
  N3       1.0000 0.17384  0.48798  0.68687  Biso   1.000  N
  N4       1.0000 0.18782  0.16008  0.02637  Biso   1.000  N
  N5       1.0000 0.00701  0.66886  0.32896  Biso   1.000  N
  N6       1.0000 0.66871  0.47691  0.82374  Biso   1.000  N
  N7       1.0000 0.83258  0.66609  0.50839  Biso   1.000  N
  N8       1.0000 0.00380  0.16923  0.17710  Biso   1.000  N
  N9       1.0000 0.32404  0.97058  0.67474  Biso   1.000  N
  N10      1.0000 0.32453  0.65581  0.00867  Biso   1.000  N
  N11      1.0000 0.53111  0.16543  0.33035  Biso   1.000  N
  N12      1.0000 0.82634  0.99408  0.83439  Biso   1.000  N
  N13      1.0000 0.33225  0.81312  0.49693  Biso   1.000  N
  N14      1.0000 0.51004  0.31530  0.82991  Biso   1.000  N
  N15      1.0000 0.83733  0.49364  0.31947  Biso   1.000  N
  N16      1.0000 0.83025  0.82019  0.00082  Biso   1.000  N
  N17      1.0000 0.00012  0.31430  0.68036  Biso   1.000  N
  N18      1.0000 0.34073  0.47153  0.18971  Biso   1.000  N
  N19      1.0000 0.17431  0.31135  0.50951  Biso   1.000  N
  N20      1.0000 0.00456  0.81445  0.82863  Biso   1.000  N
  N21      1.0000 0.68865  0.99022  0.33717  Biso   1.000  N
  N22      1.0000 0.68906  0.32155  0.00822  Biso   1.000  N
  N23      1.0000 0.49041  0.81557  0.68460  Biso   1.000  N
  N24      1.0000 0.19030  0.99294  0.18107  Biso   1.000  N
  N25      1.0000 0.81739  0.49090  0.67395  Biso   1.000  N
  N26      1.0000 0.68821  0.81705  0.51283  Biso   1.000  N
  N27      1.0000 0.48796  0.66658  0.83470  Biso   1.000  N
  N28      1.0000 0.31886  0.47448  0.83480  Biso   1.000  N
  N29      1.0000 0.18143  0.81097  0.00566  Biso   1.000  N
  N30      1.0000 0.00272  0.66506  0.68082  Biso   1.000  N
  N31      1.0000 0.67559  0.99870  0.69051  Biso   1.000  N
  N32      1.0000 0.81906  0.31777  0.51312  Biso   1.000  N
  N33      1.0000 0.02488  0.16399  0.82408  Biso   1.000  N
  N34      1.0000 0.18053  0.99086  0.82643  Biso   1.000  N
  N35      1.0000 0.33556  0.30366  0.01498  Biso   1.000  N
  N36      1.0000 0.49615  0.16694  0.68383  Biso   1.000  N
  N37      1.0000 0.18578  0.47486  0.33329  Biso   1.000  N
  N38      1.0000 0.32440  0.16393  0.50635  Biso   1.000  N
  N39      1.0000 0.53019  0.31521  0.18462  Biso   1.000  N
  N40      1.0000 0.69267  0.49161  0.17314  Biso   1.000  N
  N41      1.0000 0.84073  0.17277  0.00882  Biso   1.000  N
  N42      1.0000 0.00007  0.32008  0.32192  Biso   1.000  N
  N43      1.0000 0.34042  0.00377  0.32638  Biso   1.000  N
  N44      1.0000 0.18562  0.66481  0.50462  Biso   1.000  N
  N45      1.0000 0.01527  0.81578  0.18066  Biso   1.000  N
  N46      1.0000 0.83780  0.98622  0.18642  Biso   1.000  N
  N47      1.0000 0.67827  0.67313  0.00209  Biso   1.000  N
  N48      1.0000 0.50397  0.81821  0.32916  Biso   1.000  N
  O1       1.0000 0.34702  0.52226  0.00806  Biso   1.000  O
  O2       1.0000 0.99974  0.33874  0.54524  Biso   1.000  O
  O3       1.0000 0.55384  0.97985  0.35756  Biso   1.000  O
  O4       1.0000 0.84756  0.53270  0.49283  Biso   1.000  O
  O5       1.0000 0.51031  0.33670  0.96523  Biso   1.000  O
  O6       1.0000 0.05599  0.98843  0.15848  Biso   1.000  O
  O7       1.0000 0.16892  0.02970  0.00386  Biso   1.000  O
  O8       1.0000 0.50492  0.83273  0.55247  Biso   1.000  O
  O9       1.0000 0.96866  0.49674  0.34184  Biso   1.000  O
  O10      1.0000 0.65985  0.03252  0.50677  Biso   1.000  O
  O11      1.0000 0.00821  0.83580  0.96279  Biso   1.000  O
  O12      1.0000 0.47232  0.48381  0.16164  Biso   1.000  O
  O13      1.0000 0.66443  0.45505  0.99977  Biso   1.000  O
  O14      1.0000 0.00878  0.64583  0.46067  Biso   1.000  O
  O15      1.0000 0.45904  0.98553  0.66423  Biso   1.000  O
  O16      1.0000 0.16220  0.44620  0.51570  Biso   1.000  O
  O17      1.0000 0.49770  0.64676  0.05275  Biso   1.000  O
  O18      1.0000 0.95957  0.99397  0.84401  Biso   1.000  O
  O19      1.0000 0.85085  0.95512  0.01014  Biso   1.000  O
  O20      1.0000 0.50192  0.14947  0.46079  Biso   1.000  O
  O21      1.0000 0.03900  0.48337  0.66637  Biso   1.000  O
  O22      1.0000 0.35093  0.94675  0.49491  Biso   1.000  O
  O23      1.0000 0.00106  0.15416  0.04307  Biso   1.000  O
  O24      1.0000 0.53564  0.48339  0.85132  Biso   1.000  O
  O25      1.0000 0.97345  0.98722  0.15782  Biso   1.000  O
  O26      1.0000 0.16401  0.94808  0.00269  Biso   1.000  O
  O27      1.0000 0.02356  0.14384  0.96029  Biso   1.000  O
  O28      1.0000 0.47103  0.00578  0.35113  Biso   1.000  O
  O29      1.0000 0.66883  0.94899  0.52099  Biso   1.000  O
  O30      1.0000 0.49493  0.14816  0.54584  Biso   1.000  O
  O31      1.0000 0.55816  0.48962  0.15650  Biso   1.000  O
  O32      1.0000 0.34841  0.43661  0.01369  Biso   1.000  O
  O33      1.0000 0.50555  0.64314  0.96795  Biso   1.000  O
  O34      1.0000 0.05283  0.48827  0.34791  Biso   1.000  O
  O35      1.0000 0.84504  0.45083  0.51039  Biso   1.000  O
  O36      1.0000 0.01578  0.64018  0.54643  Biso   1.000  O
  O37      1.0000 0.04516  0.98731  0.84603  Biso   1.000  O
  O38      1.0000 0.85413  0.03770  0.00895  Biso   1.000  O
  O39      1.0000 0.00759  0.83712  0.04788  Biso   1.000  O
  O40      1.0000 0.54178  0.99599  0.66640  Biso   1.000  O
  O41      1.0000 0.34706  0.02990  0.51247  Biso   1.000  O
  O42      1.0000 0.51185  0.83603  0.46506  Biso   1.000  O
  O43      1.0000 0.45414  0.49030  0.84964  Biso   1.000  O
  O44      1.0000 0.66292  0.53901  0.99878  Biso   1.000  O
  O45      1.0000 0.50827  0.33270  0.05067  Biso   1.000  O
  O46      1.0000 0.95508  0.48826  0.65648  Biso   1.000  O
  O47      1.0000 0.16427  0.53002  0.50439  Biso   1.000  O
  O48      1.0000 0.99476  0.33771  0.45991  Biso   1.000  O
  O49      1.0000 0.01626  0.94689  0.16008  Biso   1.000  O
  O50      1.0000 0.16826  0.99067  0.96202  Biso   1.000  O
  O51      1.0000 0.97185  0.15040  0.99237  Biso   1.000  O
  O52      1.0000 0.50273  0.95341  0.34874  Biso   1.000  O
  O53      1.0000 0.66389  0.99697  0.55488  Biso   1.000  O
  O54      1.0000 0.45866  0.15015  0.49919  Biso   1.000  O
  O55      1.0000 0.51901  0.44600  0.16196  Biso   1.000  O
  O56      1.0000 0.34744  0.47506  0.96761  Biso   1.000  O
  O57      1.0000 0.54359  0.64567  0.01458  Biso   1.000  O
  O58      1.0000 0.00468  0.45351  0.34567  Biso   1.000  O
  O59      1.0000 0.84391  0.50033  0.54124  Biso   1.000  O
  O60      1.0000 0.05183  0.64308  0.50078  Biso   1.000  O
  O61      1.0000 0.00567  0.03220  0.84994  Biso   1.000  O
  O62      1.0000 0.84986  0.99500  0.05099  Biso   1.000  O
  O63      1.0000 0.04824  0.83575  0.01032  Biso   1.000  O
  O64      1.0000 0.49313  0.03246  0.66616  Biso   1.000  O
  O65      1.0000 0.35626  0.99415  0.46156  Biso   1.000  O
  O66      1.0000 0.55241  0.83971  0.51309  Biso   1.000  O
  O67      1.0000 0.49815  0.52746  0.85484  Biso   1.000  O
  O68      1.0000 0.66786  0.49785  0.04010  Biso   1.000  O
  O69      1.0000 0.46907  0.33402  0.00733  Biso   1.000  O
  O70      1.0000 0.99769  0.53064  0.66368  Biso   1.000  O
  O71      1.0000 0.16067  0.48271  0.46577  Biso   1.000  O
  O72      1.0000 0.95469  0.33377  0.50778  Biso   1.000  O
  O73      1.0000 0.99765  0.44698  0.65931  Biso   1.000  O
  O74      1.0000 0.67009  0.98710  0.47382  Biso   1.000  O
  O75      1.0000 0.46018  0.64250  0.00412  Biso   1.000  O
  O76      1.0000 0.49350  0.44369  0.85068  Biso   1.000  O
  O77      1.0000 0.16933  0.98653  0.04555  Biso   1.000  O
  O78      1.0000 0.96796  0.64019  0.50499  Biso   1.000  O
  O79      1.0000 0.50496  0.95022  0.66738  Biso   1.000  O
  O80      1.0000 0.85426  0.48349  0.45813  Biso   1.000  O
  O81      1.0000 0.05241  0.14187  0.01232  Biso   1.000  O
  O82      1.0000 0.00224  0.94849  0.84730  Biso   1.000  O
  O83      1.0000 0.35240  0.48394  0.05466  Biso   1.000  O
  O84      1.0000 0.53968  0.15130  0.50915  Biso   1.000  O
  O85      1.0000 0.01461  0.53418  0.34419  Biso   1.000  O
  O86      1.0000 0.34985  0.98222  0.54183  Biso   1.000  O
  O87      1.0000 0.55035  0.33592  0.00848  Biso   1.000  O
  O88      1.0000 0.51230  0.53048  0.16235  Biso   1.000  O
  O89      1.0000 0.85254  0.99371  0.96608  Biso   1.000  O
  O90      1.0000 0.04116  0.33812  0.49583  Biso   1.000  O
  O91      1.0000 0.52086  0.03145  0.35456  Biso   1.000  O
  O92      1.0000 0.15766  0.49373  0.55065  Biso   1.000  O
  O93      1.0000 0.96466  0.83686  0.00396  Biso   1.000  O
  O94      1.0000 0.01493  0.03370  0.15892  Biso   1.000  O
  O95      1.0000 0.65724  0.49747  0.95731  Biso   1.000  O
  O96      1.0000 0.46750  0.83392  0.50955  Biso   1.000  O
  O97      1.0000 0.45764  0.19847  0.50340  Biso   1.000  O
  O98      1.0000 0.52078  0.44741  0.21017  Biso   1.000  O
  O99      1.0000 0.20969  0.47865  0.46697  Biso   1.000  O
  O100     1.0000 0.97553  0.19740  0.99698  Biso   1.000  O
  O101     1.0000 0.00860  0.45075  0.29638  Biso   1.000  O
  O102     1.0000 0.71720  0.49888  0.03702  Biso   1.000  O
  O103     1.0000 0.04873  0.69151  0.50305  Biso   1.000  O
  O104     1.0000 0.01390  0.95154  0.20930  Biso   1.000  O
  O105     1.0000 0.30675  0.99781  0.45780  Biso   1.000  O
  O106     1.0000 0.54040  0.69345  0.01449  Biso   1.000  O
  O107     1.0000 0.50915  0.95225  0.30013  Biso   1.000  O
  O108     1.0000 0.80117  0.00027  0.05494  Biso   1.000  O
  O109     1.0000 0.55247  0.79203  0.50666  Biso   1.000  O
  O110     1.0000 0.49316  0.53074  0.80575  Biso   1.000  O
  O111     1.0000 0.79559  0.50092  0.53744  Biso   1.000  O
  O112     1.0000 0.04678  0.78705  0.01029  Biso   1.000  O
  O113     1.0000 0.99618  0.53059  0.71151  Biso   1.000  O
  O114     1.0000 0.29981  0.47810  0.97342  Biso   1.000  O
  O115     1.0000 0.95719  0.28675  0.50662  Biso   1.000  O
  O116     1.0000 0.00825  0.02818  0.80207  Biso   1.000  O
  O117     1.0000 0.71127  0.99251  0.55759  Biso   1.000  O
  O118     1.0000 0.47411  0.28556  0.00239  Biso   1.000  O
  O119     1.0000 0.49648  0.03352  0.71536  Biso   1.000  O
  O120     1.0000 0.21617  0.98794  0.96083  Biso   1.000  O
  O121     1.0000 0.03701  0.48105  0.71433  Biso   1.000  O
  O122     1.0000 0.70867  0.03324  0.51223  Biso   1.000  O
  O123     1.0000 0.49195  0.69393  0.05084  Biso   1.000  O
  O124     1.0000 0.53480  0.48642  0.80151  Biso   1.000  O
  O125     1.0000 0.21646  0.02822  0.00623  Biso   1.000  O
  O126     1.0000 0.00554  0.69417  0.46536  Biso   1.000  O
  O127     1.0000 0.45701  0.99231  0.71266  Biso   1.000  O
  O128     1.0000 0.79917  0.53522  0.49043  Biso   1.000  O
  O129     1.0000 0.00716  0.20188  0.04107  Biso   1.000  O
  O130     1.0000 0.95991  0.99352  0.79631  Biso   1.000  O
  O131     1.0000 0.30021  0.52046  0.01516  Biso   1.000  O
  O132     1.0000 0.50013  0.19788  0.46351  Biso   1.000  O
  O133     1.0000 0.97003  0.49830  0.29427  Biso   1.000  O
  O134     1.0000 0.30230  0.94807  0.49362  Biso   1.000  O
  O135     1.0000 0.52111  0.29032  0.96530  Biso   1.000  O
  O136     1.0000 0.47388  0.48945  0.20918  Biso   1.000  O
  O137     1.0000 0.80195  0.95609  0.00809  Biso   1.000  O
  O138     1.0000 0.00234  0.28973  0.54289  Biso   1.000  O
  O139     1.0000 0.55770  0.98273  0.30911  Biso   1.000  O
  O140     1.0000 0.21118  0.44308  0.51410  Biso   1.000  O
  O141     1.0000 0.00640  0.78695  0.96588  Biso   1.000  O
  O142     1.0000 0.05432  0.99310  0.20750  Biso   1.000  O
  O143     1.0000 0.71046  0.45629  0.99100  Biso   1.000  O
  O144     1.0000 0.51314  0.78539  0.54961  Biso   1.000  O
  O145     1.0000 0.55933  0.49042  0.20737  Biso   1.000  O
  O146     1.0000 0.21134  0.52592  0.50347  Biso   1.000  O
  O147     1.0000 0.49825  0.19587  0.55097  Biso   1.000  O
  O148     1.0000 0.05300  0.49048  0.29814  Biso   1.000  O
  O149     1.0000 0.71230  0.53836  0.99412  Biso   1.000  O
  O150     1.0000 0.02399  0.19218  0.95973  Biso   1.000  O
  O151     1.0000 0.97213  0.99212  0.20636  Biso   1.000  O
  O152     1.0000 0.30008  0.03130  0.50145  Biso   1.000  O
  O153     1.0000 0.01347  0.68788  0.54742  Biso   1.000  O
  O154     1.0000 0.47619  0.00264  0.30221  Biso   1.000  O
  O155     1.0000 0.80683  0.03985  0.01442  Biso   1.000  O
  O156     1.0000 0.50389  0.69160  0.96901  Biso   1.000  O
  O157     1.0000 0.45029  0.48780  0.80059  Biso   1.000  O
  O158     1.0000 0.79811  0.45441  0.50315  Biso   1.000  O
  O159     1.0000 0.51099  0.78816  0.46498  Biso   1.000  O
  O160     1.0000 0.95146  0.49492  0.70400  Biso   1.000  O
  O161     1.0000 0.29979  0.43618  0.01316  Biso   1.000  O
  O162     1.0000 0.00228  0.78895  0.04910  Biso   1.000  O
  O163     1.0000 0.04526  0.98478  0.79806  Biso   1.000  O
  O164     1.0000 0.71725  0.95182  0.51959  Biso   1.000  O
  O165     1.0000 0.99384  0.28905  0.45659  Biso   1.000  O
  O166     1.0000 0.53856  0.99576  0.71519  Biso   1.000  O
  O167     1.0000 0.21240  0.94475  0.00342  Biso   1.000  O
  O168     1.0000 0.50745  0.28434  0.04991  Biso   1.000  O
  O169     1.0000 0.00878  0.03680  0.20734  Biso   1.000  O
  O170     1.0000 0.21921  0.98488  0.04564  Biso   1.000  O
  O171     1.0000 0.05325  0.19087  0.01186  Biso   1.000  O
  O172     1.0000 0.52463  0.03372  0.30697  Biso   1.000  O
  O173     1.0000 0.71964  0.98643  0.47320  Biso   1.000  O
  O174     1.0000 0.54083  0.19994  0.50650  Biso   1.000  O
  O175     1.0000 0.51534  0.52876  0.21138  Biso   1.000  O
  O176     1.0000 0.30361  0.47628  0.05691  Biso   1.000  O
  O177     1.0000 0.45805  0.69096  0.00442  Biso   1.000  O
  O178     1.0000 0.01865  0.53419  0.29689  Biso   1.000  O
  O179     1.0000 0.80617  0.49081  0.45523  Biso   1.000  O
  O180     1.0000 0.96845  0.68790  0.50950  Biso   1.000  O
  O181     1.0000 0.99985  0.94776  0.79895  Biso   1.000  O
  O182     1.0000 0.80359  0.99805  0.97110  Biso   1.000  O
  O183     1.0000 0.96281  0.78780  0.00540  Biso   1.000  O
  O184     1.0000 0.49995  0.95047  0.71444  Biso   1.000  O
  O185     1.0000 0.30116  0.98429  0.54080  Biso   1.000  O
  O186     1.0000 0.47046  0.78561  0.50463  Biso   1.000  O
  O187     1.0000 0.49183  0.44801  0.80226  Biso   1.000  O
  O188     1.0000 0.70597  0.49544  0.95434  Biso   1.000  O
  O189     1.0000 0.55622  0.28809  0.01261  Biso   1.000  O
  O190     1.0000 0.98957  0.44749  0.70734  Biso   1.000  O
  O191     1.0000 0.20579  0.48887  0.55022  Biso   1.000  O
  O192     1.0000 0.03951  0.28919  0.49588  Biso   1.000  O
