data_image0
_cell_length_a       47.75
_cell_length_b       46.8742
_cell_length_c       46.4902
_cell_angle_alpha    90
_cell_angle_beta     90
_cell_angle_gamma    90

_symmetry_space_group_name_H-M    "P 1"
_symmetry_int_tables_number       1

loop_
  _symmetry_equiv_pos_as_xyz
  'x, y, z'

loop_
  _atom_site_label
  _atom_site_occupancy
  _atom_site_fract_x
  _atom_site_fract_y
  _atom_site_fract_z
  _atom_site_thermal_displace_type
  _atom_site_B_iso_or_equiv
  _atom_site_type_symbol
  C1       1.0000 0.54554  0.01173  0.30680  Biso   1.000  C
  C2       1.0000 0.32580  0.56576  0.00096  Biso   1.000  C
  C3       1.0000 0.00739  0.33574  0.54668  Biso   1.000  C
  C4       1.0000 0.04504  0.00715  0.17304  Biso   1.000  C
  C5       1.0000 0.82624  0.55839  0.47678  Biso   1.000  C
  C6       1.0000 0.48776  0.31812  0.93632  Biso   1.000  C
  C7       1.0000 0.95724  0.51110  0.30463  Biso   1.000  C
  C8       1.0000 0.18565  0.06845  0.01214  Biso   1.000  C
  C9       1.0000 0.51156  0.82998  0.54156  Biso   1.000  C
  C10      1.0000 0.45565  0.49295  0.16603  Biso   1.000  C
  C11      1.0000 0.68804  0.06631  0.48020  Biso   1.000  C
  C12      1.0000 0.01914  0.82055  0.94417  Biso   1.000  C
  C13      1.0000 0.45969  0.01174  0.67654  Biso   1.000  C
  C14      1.0000 0.67700  0.43457  0.97910  Biso   1.000  C
  C15      1.0000 0.01111  0.68361  0.43695  Biso   1.000  C
  C16      1.0000 0.96272  0.99245  0.80847  Biso   1.000  C
  C17      1.0000 0.18738  0.45130  0.50235  Biso   1.000  C
  C18      1.0000 0.51572  0.68402  0.03805  Biso   1.000  C
  C19      1.0000 0.04667  0.49904  0.67402  Biso   1.000  C
  C20      1.0000 0.82314  0.93152  0.98005  Biso   1.000  C
  C21      1.0000 0.49603  0.19232  0.43911  Biso   1.000  C
  C22      1.0000 0.54756  0.51357  0.80721  Biso   1.000  C
  C23      1.0000 0.31838  0.94810  0.49624  Biso   1.000  C
  C24      1.0000 0.99458  0.18335  0.04351  Biso   1.000  C
  C25      1.0000 0.32480  0.05797  0.50967  Biso   1.000  C
  C26      1.0000 0.49977  0.31541  0.04387  Biso   1.000  C
  C27      1.0000 0.06348  0.49873  0.32141  Biso   1.000  C
  C28      1.0000 0.81736  0.04005  0.98457  Biso   1.000  C
  C29      1.0000 0.99754  0.33017  0.43818  Biso   1.000  C
  C30      1.0000 0.56629  0.50584  0.16284  Biso   1.000  C
  C31      1.0000 0.18479  0.56163  0.50595  Biso   1.000  C
  C32      1.0000 0.01438  0.82738  0.05139  Biso   1.000  C
  C33      1.0000 0.43790  0.00557  0.31513  Biso   1.000  C
  C34      1.0000 0.68772  0.54267  0.97181  Biso   1.000  C
  C35      1.0000 0.50897  0.82471  0.43424  Biso   1.000  C
  C36      1.0000 0.93674  0.00864  0.16741  Biso   1.000  C
  C37      1.0000 0.69015  0.95391  0.48566  Biso   1.000  C
  C38      1.0000 0.51262  0.68499  0.92670  Biso   1.000  C
  C39      1.0000 0.94050  0.51187  0.66908  Biso   1.000  C
  C40      1.0000 0.18777  0.95964  0.99617  Biso   1.000  C
  C41      1.0000 0.99743  0.68858  0.54475  Biso   1.000  C
  C42      1.0000 0.44081  0.49374  0.81023  Biso   1.000  C
  C43      1.0000 0.82232  0.44926  0.47598  Biso   1.000  C
  C44      1.0000 0.99438  0.18169  0.93132  Biso   1.000  C
  C45      1.0000 0.56874  0.01156  0.67214  Biso   1.000  C
  C46      1.0000 0.32133  0.45647  0.00025  Biso   1.000  C
  C47      1.0000 0.50867  0.19135  0.54889  Biso   1.000  C
  C48      1.0000 0.06993  0.01386  0.81361  Biso   1.000  C
  C49      1.0000 0.00444  0.05337  0.81031  Biso   1.000  C
  C50      1.0000 0.81861  0.98576  0.03684  Biso   1.000  C
  C51      1.0000 0.07032  0.82375  0.99907  Biso   1.000  C
  C52      1.0000 0.51798  0.06474  0.67327  Biso   1.000  C
  C53      1.0000 0.31822  0.01156  0.44649  Biso   1.000  C
  C54      1.0000 0.56325  0.82965  0.48549  Biso   1.000  C
  C55      1.0000 0.48451  0.55982  0.80642  Biso   1.000  C
  C56      1.0000 0.68611  0.49371  0.03016  Biso   1.000  C
  C57      1.0000 0.43924  0.31979  0.99899  Biso   1.000  C
  C58      1.0000 0.99746  0.56137  0.67261  Biso   1.000  C
  C59      1.0000 0.19136  0.51109  0.45008  Biso   1.000  C
  C60      1.0000 0.94792  0.32773  0.49898  Biso   1.000  C
  C61      1.0000 0.98872  0.95221  0.17471  Biso   1.000  C
  C62      1.0000 0.19100  0.01781  0.94988  Biso   1.000  C
  C63      1.0000 0.93877  0.17546  0.98561  Biso   1.000  C
  C64      1.0000 0.49752  0.95326  0.31021  Biso   1.000  C
  C65      1.0000 0.69329  0.01449  0.53783  Biso   1.000  C
  C66      1.0000 0.44790  0.18989  0.50011  Biso   1.000  C
  C67      1.0000 0.51784  0.44604  0.16521  Biso   1.000  C
  C68      1.0000 0.32012  0.51173  0.94242  Biso   1.000  C
  C69      1.0000 0.56843  0.67818  0.98352  Biso   1.000  C
  C70      1.0000 0.00641  0.44961  0.31134  Biso   1.000  C
  C71      1.0000 0.82333  0.50227  0.52966  Biso   1.000  C
  C72      1.0000 0.06016  0.68835  0.49741  Biso   1.000  C
  C73      1.0000 0.01524  0.55859  0.31336  Biso   1.000  C
  C74      1.0000 0.32819  0.99289  0.55466  Biso   1.000  C
  C75      1.0000 0.54549  0.31554  0.98240  Biso   1.000  C
  C76      1.0000 0.50647  0.55335  0.17009  Biso   1.000  C
  C77      1.0000 0.82594  0.99013  0.92920  Biso   1.000  C
  C78      1.0000 0.05590  0.33324  0.48835  Biso   1.000  C
  C79      1.0000 0.48818  0.05947  0.31528  Biso   1.000  C
  C80      1.0000 0.18055  0.50322  0.55559  Biso   1.000  C
  C81      1.0000 0.96370  0.81651  0.99444  Biso   1.000  C
  C82      1.0000 0.99214  0.05940  0.16894  Biso   1.000  C
  C83      1.0000 0.68100  0.48640  0.92280  Biso   1.000  C
  C84      1.0000 0.45281  0.82829  0.48979  Biso   1.000  C
  C85      1.0000 0.98606  0.45174  0.67523  Biso   1.000  C
  C86      1.0000 0.68165  0.00781  0.43181  Biso   1.000  C
  C87      1.0000 0.45942  0.68594  0.98127  Biso   1.000  C
  C88      1.0000 0.50080  0.44957  0.81195  Biso   1.000  C
  C89      1.0000 0.18185  0.00468  0.05657  Biso   1.000  C
  C90      1.0000 0.95066  0.68598  0.48502  Biso   1.000  C
  C91      1.0000 0.51690  0.95881  0.67121  Biso   1.000  C
  C92      1.0000 0.82748  0.50426  0.42286  Biso   1.000  C
  C93      1.0000 0.04802  0.18860  0.98974  Biso   1.000  C
  C94      1.0000 0.02852  0.94535  0.81238  Biso   1.000  C
  C95      1.0000 0.32322  0.50829  0.05175  Biso   1.000  C
  C96      1.0000 0.55689  0.18968  0.49155  Biso   1.000  C
  C97      1.0000 0.68653  0.09835  0.47939  Biso   1.000  C
  C98      1.0000 0.51625  0.68357  0.07109  Biso   1.000  C
  C99      1.0000 0.07755  0.49310  0.67629  Biso   1.000  C
  C100     1.0000 0.18311  0.09967  0.01371  Biso   1.000  C
  C101     1.0000 0.01618  0.68581  0.40420  Biso   1.000  C
  C102     1.0000 0.58046  0.51592  0.80698  Biso   1.000  C
  C103     1.0000 0.82637  0.59078  0.47585  Biso   1.000  C
  C104     1.0000 0.99808  0.18563  0.07565  Biso   1.000  C
  C105     1.0000 0.42871  0.00603  0.67651  Biso   1.000  C
  C106     1.0000 0.32717  0.59588  0.01093  Biso   1.000  C
  C107     1.0000 0.49453  0.19156  0.40736  Biso   1.000  C
  C108     1.0000 0.92988  0.99463  0.80701  Biso   1.000  C
  C109     1.0000 0.31941  0.91658  0.49702  Biso   1.000  C
  C110     1.0000 0.48562  0.32040  0.90455  Biso   1.000  C
  C111     1.0000 0.92591  0.51079  0.29932  Biso   1.000  C
  C112     1.0000 0.82752  0.89982  0.98070  Biso   1.000  C
  C113     1.0000 0.00528  0.33158  0.58056  Biso   1.000  C
  C114     1.0000 0.42385  0.49235  0.17050  Biso   1.000  C
  C115     1.0000 0.18748  0.41915  0.50673  Biso   1.000  C
  C116     1.0000 0.02047  0.82155  0.91134  Biso   1.000  C
  C117     1.0000 0.57744  0.01305  0.30643  Biso   1.000  C
  C118     1.0000 0.67473  0.40277  0.97530  Biso   1.000  C
  C119     1.0000 0.51491  0.83171  0.57405  Biso   1.000  C
  C120     1.0000 0.07671  0.00978  0.17512  Biso   1.000  C
  C121     1.0000 0.81587  0.99069  0.06870  Biso   1.000  C
  C122     1.0000 0.10164  0.82588  0.00284  Biso   1.000  C
  C123     1.0000 0.00135  0.08449  0.80832  Biso   1.000  C
  C124     1.0000 0.31735  0.01059  0.41403  Biso   1.000  C
  C125     1.0000 0.59486  0.82946  0.48196  Biso   1.000  C
  C126     1.0000 0.52412  0.09632  0.67453  Biso   1.000  C
  C127     1.0000 0.68911  0.49503  0.06154  Biso   1.000  C
  C128     1.0000 0.40838  0.32158  0.00795  Biso   1.000  C
  C129     1.0000 0.48122  0.59081  0.80611  Biso   1.000  C
  C130     1.0000 0.19196  0.50412  0.41769  Biso   1.000  C
  C131     1.0000 0.91571  0.32685  0.49865  Biso   1.000  C
  C132     1.0000 0.00457  0.59299  0.67184  Biso   1.000  C
  C133     1.0000 0.19236  0.01125  0.91695  Biso   1.000  C
  C134     1.0000 0.90696  0.17331  0.98879  Biso   1.000  C
  C135     1.0000 0.98681  0.92095  0.17351  Biso   1.000  C
  C136     1.0000 0.69535  0.01643  0.57024  Biso   1.000  C
  C137     1.0000 0.41490  0.18896  0.50509  Biso   1.000  C
  C138     1.0000 0.49771  0.92067  0.30948  Biso   1.000  C
  C139     1.0000 0.31949  0.51297  0.90996  Biso   1.000  C
  C140     1.0000 0.59932  0.67527  0.98556  Biso   1.000  C
  C141     1.0000 0.52414  0.41433  0.16577  Biso   1.000  C
  C142     1.0000 0.82201  0.50277  0.56314  Biso   1.000  C
  C143     1.0000 0.09364  0.68872  0.49946  Biso   1.000  C
  C144     1.0000 0.00177  0.41904  0.30908  Biso   1.000  C
  C145     1.0000 0.32390  0.50702  0.08349  Biso   1.000  C
  C146     1.0000 0.08872  0.33173  0.48875  Biso   1.000  C
  C147     1.0000 0.48741  0.09327  0.31372  Biso   1.000  C
  C148     1.0000 0.82758  0.50470  0.39012  Biso   1.000  C
  C149     1.0000 0.57745  0.31358  0.98251  Biso   1.000  C
  C150     1.0000 0.98596  0.09067  0.16878  Biso   1.000  C
  C151     1.0000 0.17931  0.00076  0.08813  Biso   1.000  C
  C152     1.0000 0.42082  0.82950  0.49202  Biso   1.000  C
  C153     1.0000 0.01960  0.58941  0.31355  Biso   1.000  C
  C154     1.0000 0.67821  0.00791  0.39984  Biso   1.000  C
  C155     1.0000 0.93159  0.81368  0.99151  Biso   1.000  C
  C156     1.0000 0.51114  0.58664  0.16919  Biso   1.000  C
  C157     1.0000 0.67923  0.48726  0.89029  Biso   1.000  C
  C158     1.0000 0.91858  0.68491  0.48095  Biso   1.000  C
  C159     1.0000 0.52114  0.92679  0.67044  Biso   1.000  C
  C160     1.0000 0.17703  0.49654  0.58656  Biso   1.000  C
  C161     1.0000 0.42609  0.68749  0.98663  Biso   1.000  C
  C162     1.0000 0.02908  0.91344  0.81243  Biso   1.000  C
  C163     1.0000 0.82995  0.98869  0.89765  Biso   1.000  C
  C164     1.0000 0.58958  0.19003  0.49444  Biso   1.000  C
  C165     1.0000 0.98327  0.41885  0.67712  Biso   1.000  C
  C166     1.0000 0.33109  0.98656  0.58677  Biso   1.000  C
  C167     1.0000 0.07965  0.19121  0.99676  Biso   1.000  C
  C168     1.0000 0.49873  0.41816  0.81225  Biso   1.000  C
  C169     1.0000 0.01914  0.82566  0.08258  Biso   1.000  C
  C170     1.0000 0.10124  0.01382  0.81731  Biso   1.000  C
  C171     1.0000 0.81795  0.07245  0.98360  Biso   1.000  C
  C172     1.0000 0.51283  0.82466  0.40180  Biso   1.000  C
  C173     1.0000 0.59979  0.01153  0.67025  Biso   1.000  C
  C174     1.0000 0.32500  0.09086  0.51117  Biso   1.000  C
  C175     1.0000 0.50615  0.31727  0.07613  Biso   1.000  C
  C176     1.0000 0.40878  0.49242  0.81076  Biso   1.000  C
  C177     1.0000 0.68928  0.57417  0.97364  Biso   1.000  C
  C178     1.0000 0.99248  0.32715  0.40493  Biso   1.000  C
  C179     1.0000 0.90881  0.51785  0.66584  Biso   1.000  C
  C180     1.0000 0.18655  0.59478  0.50622  Biso   1.000  C
  C181     1.0000 0.99402  0.18054  0.89965  Biso   1.000  C
  C182     1.0000 0.90522  0.00978  0.16657  Biso   1.000  C
  C183     1.0000 0.18844  0.92810  0.99710  Biso   1.000  C
  C184     1.0000 0.51620  0.19123  0.57979  Biso   1.000  C
  C185     1.0000 0.40637  0.01154  0.31522  Biso   1.000  C
  C186     1.0000 0.69075  0.92248  0.47895  Biso   1.000  C
  C187     1.0000 0.50735  0.68722  0.89432  Biso   1.000  C
  C188     1.0000 0.60030  0.50629  0.16137  Biso   1.000  C
  C189     1.0000 0.32048  0.42475  0.00330  Biso   1.000  C
  C190     1.0000 0.99975  0.68795  0.57702  Biso   1.000  C
  C191     1.0000 0.09434  0.48970  0.32295  Biso   1.000  C
  C192     1.0000 0.82057  0.41705  0.47930  Biso   1.000  C
  C193     1.0000 0.85776  0.99043  0.88298  Biso   1.000  C
  C194     1.0000 0.91199  0.83942  0.99056  Biso   1.000  C
  C195     1.0000 0.02413  0.89857  0.84025  Biso   1.000  C
  C196     1.0000 0.35823  0.99094  0.60121  Biso   1.000  C
  C197     1.0000 0.40347  0.85547  0.49476  Biso   1.000  C
  C198     1.0000 0.52108  0.91197  0.64237  Biso   1.000  C
  C199     1.0000 0.65127  0.49332  0.87802  Biso   1.000  C
  C200     1.0000 0.59389  0.33861  0.97588  Biso   1.000  C
  C201     1.0000 0.49622  0.40351  0.84005  Biso   1.000  C
  C202     1.0000 0.14851  0.49243  0.60089  Biso   1.000  C
  C203     1.0000 0.10591  0.35687  0.49348  Biso   1.000  C
  C204     1.0000 0.99030  0.40333  0.65104  Biso   1.000  C
  C205     1.0000 0.15083  0.00376  0.10287  Biso   1.000  C
  C206     1.0000 0.09825  0.16546  0.99759  Biso   1.000  C
  C207     1.0000 0.98778  0.10633  0.14070  Biso   1.000  C
  C208     1.0000 0.64852  0.00923  0.38553  Biso   1.000  C
  C209     1.0000 0.60671  0.16327  0.49150  Biso   1.000  C
  C210     1.0000 0.49048  0.11001  0.34142  Biso   1.000  C
  C211     1.0000 0.35079  0.50045  0.09854  Biso   1.000  C
  C212     1.0000 0.40933  0.66105  0.99001  Biso   1.000  C
  C213     1.0000 0.51087  0.60381  0.14171  Biso   1.000  C
  C214     1.0000 0.85446  0.50584  0.37414  Biso   1.000  C
  C215     1.0000 0.90367  0.65831  0.47818  Biso   1.000  C
  C216     1.0000 0.01863  0.60590  0.33999  Biso   1.000  C
  C217     1.0000 0.11620  0.01211  0.84528  Biso   1.000  C
  C218     1.0000 0.84446  0.08943  0.98536  Biso   1.000  C
  C219     1.0000 0.00827  0.85242  0.09603  Biso   1.000  C
  C220     1.0000 0.61582  0.01238  0.64316  Biso   1.000  C
  C221     1.0000 0.35144  0.10775  0.50524  Biso   1.000  C
  C222     1.0000 0.50859  0.85187  0.38729  Biso   1.000  C
  C223     1.0000 0.39359  0.49299  0.83957  Biso   1.000  C
  C224     1.0000 0.66424  0.59210  0.98180  Biso   1.000  C
  C225     1.0000 0.51463  0.34534  0.09023  Biso   1.000  C
  C226     1.0000 0.89523  0.51318  0.63782  Biso   1.000  C
  C227     1.0000 0.15978  0.61166  0.50717  Biso   1.000  C
  C228     1.0000 0.98936  0.35464  0.38700  Biso   1.000  C
  C229     1.0000 0.89131  0.00795  0.13914  Biso   1.000  C
  C230     1.0000 0.16173  0.91068  0.99812  Biso   1.000  C
  C231     1.0000 0.99499  0.15399  0.88398  Biso   1.000  C
  C232     1.0000 0.39162  0.01098  0.34270  Biso   1.000  C
  C233     1.0000 0.66472  0.90686  0.47956  Biso   1.000  C
  C234     1.0000 0.51935  0.16415  0.59571  Biso   1.000  C
  C235     1.0000 0.61494  0.50188  0.13446  Biso   1.000  C
  C236     1.0000 0.34552  0.40609  0.00441  Biso   1.000  C
  C237     1.0000 0.49741  0.66120  0.87969  Biso   1.000  C
  C238     1.0000 0.10928  0.49316  0.34948  Biso   1.000  C
  C239     1.0000 0.84696  0.40141  0.48425  Biso   1.000  C
  C240     1.0000 0.00102  0.66002  0.59297  Biso   1.000  C
  C241     1.0000 0.59745  0.50939  0.83265  Biso   1.000  C
  C242     1.0000 0.85380  0.60749  0.47590  Biso   1.000  C
  C243     1.0000 0.51389  0.85919  0.58884  Biso   1.000  C
  C244     1.0000 0.09582  0.48767  0.65142  Biso   1.000  C
  C245     1.0000 0.35437  0.60995  0.00462  Biso   1.000  C
  C246     1.0000 0.02108  0.84835  0.89478  Biso   1.000  C
  C247     1.0000 0.91382  0.99082  0.83517  Biso   1.000  C
  C248     1.0000 0.65891  0.11264  0.48549  Biso   1.000  C
  C249     1.0000 0.99992  0.35649  0.59829  Biso   1.000  C
  C250     1.0000 0.41146  0.00061  0.65026  Biso   1.000  C
  C251     1.0000 0.15399  0.11317  0.00815  Biso   1.000  C
  C252     1.0000 0.48665  0.34873  0.88985  Biso   1.000  C
  C253     1.0000 0.40499  0.49402  0.14477  Biso   1.000  C
  C254     1.0000 0.16051  0.40503  0.50620  Biso   1.000  C
  C255     1.0000 0.49309  0.16426  0.39254  Biso   1.000  C
  C256     1.0000 0.90686  0.51240  0.32430  Biso   1.000  C
  C257     1.0000 0.64619  0.38788  0.97294  Biso   1.000  C
  C258     1.0000 0.99585  0.15800  0.09204  Biso   1.000  C
  C259     1.0000 0.09576  0.00850  0.15008  Biso   1.000  C
  C260     1.0000 0.34841  0.90208  0.50088  Biso   1.000  C
  C261     1.0000 0.01814  0.65750  0.38986  Biso   1.000  C
  C262     1.0000 0.59522  0.01168  0.33305  Biso   1.000  C
  C263     1.0000 0.85553  0.88657  0.98651  Biso   1.000  C
  C264     1.0000 0.51360  0.65658  0.08849  Biso   1.000  C
  C265     1.0000 0.00060  0.10194  0.83507  Biso   1.000  C
  C266     1.0000 0.84072  0.99866  0.08546  Biso   1.000  C
  C267     1.0000 0.11492  0.85529  0.00462  Biso   1.000  C
  C268     1.0000 0.52768  0.11248  0.64830  Biso   1.000  C
  C269     1.0000 0.34288  0.00788  0.39634  Biso   1.000  C
  C270     1.0000 0.61093  0.85659  0.47960  Biso   1.000  C
  C271     1.0000 0.48516  0.60870  0.83222  Biso   1.000  C
  C272     1.0000 0.66347  0.49776  0.08000  Biso   1.000  C
  C273     1.0000 0.39361  0.34888  0.01098  Biso   1.000  C
  C274     1.0000 0.00183  0.60940  0.64411  Biso   1.000  C
  C275     1.0000 0.16535  0.50066  0.40121  Biso   1.000  C
  C276     1.0000 0.89942  0.35409  0.49342  Biso   1.000  C
  C277     1.0000 0.99263  0.90549  0.14629  Biso   1.000  C
  C278     1.0000 0.16597  0.01198  0.89992  Biso   1.000  C
  C279     1.0000 0.89236  0.14405  0.98973  Biso   1.000  C
  C280     1.0000 0.50159  0.90382  0.33704  Biso   1.000  C
  C281     1.0000 0.66884  0.01500  0.58744  Biso   1.000  C
  C282     1.0000 0.40059  0.16177  0.50610  Biso   1.000  C
  C283     1.0000 0.52031  0.39722  0.13960  Biso   1.000  C
  C284     1.0000 0.34648  0.50621  0.89386  Biso   1.000  C
  C285     1.0000 0.61337  0.64713  0.98464  Biso   1.000  C
  C286     1.0000 0.00106  0.40249  0.33480  Biso   1.000  C
  C287     1.0000 0.84715  0.50407  0.58118  Biso   1.000  C
  C288     1.0000 0.11029  0.66260  0.50049  Biso   1.000  C
  C289     1.0000 0.34914  0.87068  0.50234  Biso   1.000  C
  C290     1.0000 0.48857  0.34941  0.85871  Biso   1.000  C
  C291     1.0000 0.87689  0.50792  0.32291  Biso   1.000  C
  C292     1.0000 0.85772  0.85589  0.98467  Biso   1.000  C
  C293     1.0000 0.99283  0.35213  0.62908  Biso   1.000  C
  C294     1.0000 0.37345  0.49395  0.14857  Biso   1.000  C
  C295     1.0000 0.15888  0.37399  0.50297  Biso   1.000  C
  C296     1.0000 0.02154  0.84650  0.86328  Biso   1.000  C
  C297     1.0000 0.62630  0.01009  0.33247  Biso   1.000  C
  C298     1.0000 0.64735  0.35623  0.97738  Biso   1.000  C
  C299     1.0000 0.51651  0.86083  0.62094  Biso   1.000  C
  C300     1.0000 0.12709  0.00508  0.15467  Biso   1.000  C
  C301     1.0000 0.65892  0.14437  0.48846  Biso   1.000  C
  C302     1.0000 0.51403  0.65749  0.12091  Biso   1.000  C
  C303     1.0000 0.12647  0.49110  0.65298  Biso   1.000  C
  C304     1.0000 0.15243  0.14487  0.00770  Biso   1.000  C
  C305     1.0000 0.02078  0.65907  0.35866  Biso   1.000  C
  C306     1.0000 0.62904  0.50314  0.82895  Biso   1.000  C
  C307     1.0000 0.85168  0.63871  0.47529  Biso   1.000  C
  C308     1.0000 0.99344  0.16065  0.12257  Biso   1.000  C
  C309     1.0000 0.38019  0.99689  0.65420  Biso   1.000  C
  C310     1.0000 0.35560  0.64232  0.00419  Biso   1.000  C
  C311     1.0000 0.49193  0.16375  0.36064  Biso   1.000  C
  C312     1.0000 0.88198  0.98880  0.83154  Biso   1.000  C
  C313     1.0000 0.16397  0.49895  0.36933  Biso   1.000  C
  C314     1.0000 0.36962  0.16164  0.50945  Biso   1.000  C
  C315     1.0000 0.52030  0.36645  0.14182  Biso   1.000  C
  C316     1.0000 0.66712  0.49799  0.11097  Biso   1.000  C
  C317     1.0000 0.86142  0.14329  0.99101  Biso   1.000  C
  C318     1.0000 0.99370  0.37165  0.33379  Biso   1.000  C
  C319     1.0000 0.34083  0.00818  0.36550  Biso   1.000  C
  C320     1.0000 0.14221  0.66452  0.50178  Biso   1.000  C
  C321     1.0000 0.00024  0.87470  0.14904  Biso   1.000  C
  C322     1.0000 0.83992  0.99823  0.11693  Biso   1.000  C
  C323     1.0000 0.64621  0.64593  0.98424  Biso   1.000  C
  C324     1.0000 0.50410  0.87261  0.33472  Biso   1.000  C
  C325     1.0000 0.84358  0.50674  0.61294  Biso   1.000  C
  C326     1.0000 0.64209  0.85432  0.47684  Biso   1.000  C
  C327     1.0000 0.48635  0.64044  0.82894  Biso   1.000  C
  C328     1.0000 0.34311  0.50490  0.86225  Biso   1.000  C
  C329     1.0000 0.14553  0.85589  0.00318  Biso   1.000  C
  C330     1.0000 0.00461  0.63977  0.64541  Biso   1.000  C
  C331     1.0000 0.66888  0.01248  0.61949  Biso   1.000  C
  C332     1.0000 0.86796  0.35051  0.49219  Biso   1.000  C
  C333     1.0000 0.99706  0.13245  0.83203  Biso   1.000  C
  C334     1.0000 0.16903  0.01040  0.86832  Biso   1.000  C
  C335     1.0000 0.36139  0.35154  0.00851  Biso   1.000  C
  C336     1.0000 0.52328  0.14325  0.64884  Biso   1.000  C
  C337     1.0000 0.65211  0.49683  0.84749  Biso   1.000  C
  C338     1.0000 0.87353  0.66036  0.47461  Biso   1.000  C
  C339     1.0000 0.51851  0.88110  0.64304  Biso   1.000  C
  C340     1.0000 0.14917  0.49302  0.63296  Biso   1.000  C
  C341     1.0000 0.37859  0.66260  0.99840  Biso   1.000  C
  C342     1.0000 0.02179  0.86724  0.84183  Biso   1.000  C
  C343     1.0000 0.85952  0.99050  0.85183  Biso   1.000  C
  C344     1.0000 0.63672  0.16483  0.49091  Biso   1.000  C
  C345     1.0000 0.98957  0.37206  0.65135  Biso   1.000  C
  C346     1.0000 0.35844  0.99151  0.63371  Biso   1.000  C
  C347     1.0000 0.12914  0.16555  0.00415  Biso   1.000  C
  C348     1.0000 0.49355  0.37169  0.83843  Biso   1.000  C
  C349     1.0000 0.35067  0.49618  0.12880  Biso   1.000  C
  C350     1.0000 0.13674  0.35298  0.49735  Biso   1.000  C
  C351     1.0000 0.48991  0.14152  0.34033  Biso   1.000  C
  C352     1.0000 0.85418  0.50715  0.34356  Biso   1.000  C
  C353     1.0000 0.62505  0.33633  0.97807  Biso   1.000  C
  C354     1.0000 0.98952  0.13830  0.14358  Biso   1.000  C
  C355     1.0000 0.15059  0.00409  0.13458  Biso   1.000  C
  C356     1.0000 0.37262  0.85119  0.49927  Biso   1.000  C
  C357     1.0000 0.02005  0.63711  0.33809  Biso   1.000  C
  C358     1.0000 0.64772  0.00834  0.35434  Biso   1.000  C
  C359     1.0000 0.88055  0.83605  0.98674  Biso   1.000  C
  C360     1.0000 0.51309  0.63559  0.14242  Biso   1.000  C
  C361     1.0000 0.99469  0.15438  0.85213  Biso   1.000  C
  C362     1.0000 0.86014  0.00212  0.13942  Biso   1.000  C
  C363     1.0000 0.16521  0.87854  0.00106  Biso   1.000  C
  C364     1.0000 0.52087  0.16575  0.62724  Biso   1.000  C
  C365     1.0000 0.36083  0.00943  0.34242  Biso   1.000  C
  C366     1.0000 0.66459  0.87466  0.47712  Biso   1.000  C
  C367     1.0000 0.49179  0.66243  0.84880  Biso   1.000  C
  C368     1.0000 0.64593  0.49946  0.13275  Biso   1.000  C
  C369     1.0000 0.34128  0.37481  0.00609  Biso   1.000  C
  C370     1.0000 0.00293  0.66071  0.62453  Biso   1.000  C
  C371     1.0000 0.14147  0.49552  0.34888  Biso   1.000  C
  C372     1.0000 0.84597  0.37071  0.48730  Biso   1.000  C
  C373     1.0000 0.00658  0.85204  0.12829  Biso   1.000  C
  C374     1.0000 0.14829  0.01126  0.84607  Biso   1.000  C
  C375     1.0000 0.84170  0.12144  0.98927  Biso   1.000  C
  C376     1.0000 0.50621  0.85122  0.35504  Biso   1.000  C
  C377     1.0000 0.64706  0.01120  0.64240  Biso   1.000  C
  C378     1.0000 0.34932  0.13882  0.50981  Biso   1.000  C
  C379     1.0000 0.51480  0.34457  0.12137  Biso   1.000  C
  C380     1.0000 0.36274  0.49983  0.83913  Biso   1.000  C
  C381     1.0000 0.66687  0.62312  0.98182  Biso   1.000  C
  C382     1.0000 0.99015  0.35072  0.35529  Biso   1.000  C
  C383     1.0000 0.86325  0.51103  0.63573  Biso   1.000  C
  C384     1.0000 0.16294  0.64319  0.50396  Biso   1.000  C
  C385     1.0000 0.17606  0.16261  0.01612  Biso   1.000  C
  C386     1.0000 0.99585  0.18686  0.13850  Biso   1.000  C
  C387     1.0000 0.14065  0.00413  0.18311  Biso   1.000  C
  C388     1.0000 0.68489  0.15987  0.48735  Biso   1.000  C
  C389     1.0000 0.49447  0.19060  0.34454  Biso   1.000  C
  C390     1.0000 0.64167  0.00993  0.30550  Biso   1.000  C
  C391     1.0000 0.32990  0.65900  0.01156  Biso   1.000  C
  C392     1.0000 0.51670  0.68328  0.13678  Biso   1.000  C
  C393     1.0000 0.35895  0.49058  0.17651  Biso   1.000  C
  C394     1.0000 0.82431  0.65390  0.47357  Biso   1.000  C
  C395     1.0000 0.02530  0.68570  0.34283  Biso   1.000  C
  C396     1.0000 0.86386  0.50285  0.29522  Biso   1.000  C
  C397     1.0000 0.83272  0.83776  0.97891  Biso   1.000  C
  C398     1.0000 0.02282  0.81920  0.84798  Biso   1.000  C
  C399     1.0000 0.86831  0.99150  0.80422  Biso   1.000  C
  C400     1.0000 0.32207  0.85480  0.50265  Biso   1.000  C
  C401     1.0000 0.51741  0.83300  0.63613  Biso   1.000  C
  C402     1.0000 0.36636  0.99891  0.68118  Biso   1.000  C
  C403     1.0000 0.67331  0.33882  0.98000  Biso   1.000  C
  C404     1.0000 0.48763  0.32434  0.84197  Biso   1.000  C
  C405     1.0000 0.64289  0.50426  0.80077  Biso   1.000  C
  C406     1.0000 0.18562  0.35562  0.50542  Biso   1.000  C
  C407     1.0000 0.98879  0.32445  0.64171  Biso   1.000  C
  C408     1.0000 0.13962  0.49526  0.68109  Biso   1.000  C
  C409     1.0000 0.16457  0.00802  0.82020  Biso   1.000  C
  C410     1.0000 0.81364  0.13506  0.98972  Biso   1.000  C
  C411     1.0000 0.01494  0.82743  0.14553  Biso   1.000  C
  C412     1.0000 0.66377  0.00919  0.66869  Biso   1.000  C
  C413     1.0000 0.32229  0.15324  0.51570  Biso   1.000  C
  C414     1.0000 0.50992  0.82498  0.33792  Biso   1.000  C
  C415     1.0000 0.34590  0.50376  0.81226  Biso   1.000  C
  C416     1.0000 0.69490  0.63744  0.97979  Biso   1.000  C
  C417     1.0000 0.51420  0.31792  0.13748  Biso   1.000  C
  C418     1.0000 0.84525  0.51023  0.66125  Biso   1.000  C
  C419     1.0000 0.18982  0.65784  0.50328  Biso   1.000  C
  C420     1.0000 0.98589  0.32312  0.34096  Biso   1.000  C
  C421     1.0000 0.84402  0.99828  0.16633  Biso   1.000  C
  C422     1.0000 0.19444  0.86487  0.00351  Biso   1.000  C
  C423     1.0000 0.98889  0.18028  0.83584  Biso   1.000  C
  C424     1.0000 0.34474  0.00970  0.31577  Biso   1.000  C
  C425     1.0000 0.69021  0.85781  0.47408  Biso   1.000  C
  C426     1.0000 0.51926  0.19224  0.64311  Biso   1.000  C
  C427     1.0000 0.66382  0.50036  0.15882  Biso   1.000  C
  C428     1.0000 0.31322  0.36177  0.00800  Biso   1.000  C
  C429     1.0000 0.49413  0.68833  0.83154  Biso   1.000  C
  C430     1.0000 0.15764  0.49168  0.32205  Biso   1.000  C
  C431     1.0000 0.81955  0.35633  0.48755  Biso   1.000  C
  C432     1.0000 0.00585  0.68853  0.64025  Biso   1.000  C
  C433     1.0000 0.99176  0.14685  0.80475  Biso   1.000  C
  C434     1.0000 0.81351  0.99234  0.13200  Biso   1.000  C
  C435     1.0000 0.16474  0.83033  0.00386  Biso   1.000  C
  C436     1.0000 0.51911  0.15838  0.67617  Biso   1.000  C
  C437     1.0000 0.31342  0.00884  0.35148  Biso   1.000  C
  C438     1.0000 0.65668  0.82676  0.47549  Biso   1.000  C
  C439     1.0000 0.48538  0.65489  0.80155  Biso   1.000  C
  C440     1.0000 0.69475  0.49789  0.12501  Biso   1.000  C
  C441     1.0000 0.34396  0.32666  0.00918  Biso   1.000  C
  C442     1.0000 0.00940  0.65474  0.67167  Biso   1.000  C
  C443     1.0000 0.19069  0.49940  0.35394  Biso   1.000  C
  C444     1.0000 0.85198  0.32329  0.49642  Biso   1.000  C
  C445     1.0000 0.00406  0.86000  0.17573  Biso   1.000  C
  C446     1.0000 0.19637  0.00672  0.85393  Biso   1.000  C
  C447     1.0000 0.84354  0.16948  0.99564  Biso   1.000  C
  C448     1.0000 0.50413  0.85710  0.30718  Biso   1.000  C
  C449     1.0000 0.69679  0.00934  0.63555  Biso   1.000  C
  C450     1.0000 0.35306  0.18892  0.51199  Biso   1.000  C
  C451     1.0000 0.52073  0.35265  0.16888  Biso   1.000  C
  C452     1.0000 0.31506  0.51140  0.84770  Biso   1.000  C
  C453     1.0000 0.66248  0.67249  0.98248  Biso   1.000  C
  C454     1.0000 0.98783  0.35647  0.30658  Biso   1.000  C
  C455     1.0000 0.81473  0.50448  0.62663  Biso   1.000  C
  C456     1.0000 0.15681  0.69135  0.50032  Biso   1.000  C
  C457     1.0000 0.02453  0.65227  0.31121  Biso   1.000  C
  C458     1.0000 0.33291  0.98900  0.65152  Biso   1.000  C
  C459     1.0000 0.63987  0.30776  0.98321  Biso   1.000  C
  C460     1.0000 0.51335  0.65088  0.16985  Biso   1.000  C
  C461     1.0000 0.83371  0.99137  0.83541  Biso   1.000  C
  C462     1.0000 0.15112  0.32520  0.49899  Biso   1.000  C
  C463     1.0000 0.49005  0.15608  0.31279  Biso   1.000  C
  C464     1.0000 0.17423  0.49625  0.65054  Biso   1.000  C
  C465     1.0000 0.86777  0.80840  0.98401  Biso   1.000  C
  C466     1.0000 0.98740  0.15365  0.17070  Biso   1.000  C
  C467     1.0000 0.67699  0.49511  0.82839  Biso   1.000  C
  C468     1.0000 0.35806  0.82452  0.49787  Biso   1.000  C
  C469     1.0000 0.98185  0.35432  0.67697  Biso   1.000  C
  C470     1.0000 0.67368  0.00936  0.33669  Biso   1.000  C
  C471     1.0000 0.36389  0.68987  0.00171  Biso   1.000  C
  C472     1.0000 0.49640  0.35721  0.81113  Biso   1.000  C
  C473     1.0000 0.17619  0.99985  0.15126  Biso   1.000  C
  C474     1.0000 0.85729  0.68601  0.47625  Biso   1.000  C
  C475     1.0000 0.51724  0.86500  0.66939  Biso   1.000  C
  C476     1.0000 0.82811  0.50296  0.32742  Biso   1.000  C
  C477     1.0000 0.14291  0.19249  0.00836  Biso   1.000  C
  C478     1.0000 0.02318  0.85159  0.81467  Biso   1.000  C
  C479     1.0000 0.32439  0.49641  0.14584  Biso   1.000  C
  C480     1.0000 0.65183  0.19257  0.49410  Biso   1.000  C
  C481     1.0000 0.37616  0.79831  0.49677  Biso   1.000  C
  C482     1.0000 0.50015  0.37177  0.78426  Biso   1.000  C
  C483     1.0000 0.80072  0.50085  0.34293  Biso   1.000  C
  C484     1.0000 0.88621  0.78196  0.98605  Biso   1.000  C
  C485     1.0000 0.97675  0.36981  0.70394  Biso   1.000  C
  C486     1.0000 0.29829  0.50464  0.13250  Biso   1.000  C
  C487     1.0000 0.13473  0.29789  0.49941  Biso   1.000  C
  C488     1.0000 0.02750  0.86728  0.78736  Biso   1.000  C
  C489     1.0000 0.70214  0.00797  0.35000  Biso   1.000  C
  C490     1.0000 0.62328  0.28192  0.98828  Biso   1.000  C
  C491     1.0000 0.51737  0.87966  0.69621  Biso   1.000  C
  C492     1.0000 0.20451  0.99623  0.13652  Biso   1.000  C
  C493     1.0000 0.63469  0.21910  0.49910  Biso   1.000  C
  C494     1.0000 0.51556  0.63459  0.19743  Biso   1.000  C
  C495     1.0000 0.20086  0.50003  0.63512  Biso   1.000  C
  C496     1.0000 0.12416  0.21950  0.00661  Biso   1.000  C
  C497     1.0000 0.02815  0.63558  0.28466  Biso   1.000  C
  C498     1.0000 0.70452  0.48568  0.84045  Biso   1.000  C
  C499     1.0000 0.87209  0.71393  0.47996  Biso   1.000  C
  C500     1.0000 0.98037  0.13530  0.19674  Biso   1.000  C
  C501     1.0000 0.30651  0.98431  0.63703  Biso   1.000  C
  C502     1.0000 0.38107  0.71644  0.99703  Biso   1.000  C
  C503     1.0000 0.48672  0.14084  0.28650  Biso   1.000  C
  C504     1.0000 0.80558  0.99081  0.84936  Biso   1.000  C
  C505     1.0000 0.62531  0.51379  0.77491  Biso   1.000  C
  C506     1.0000 0.79722  0.63869  0.47036  Biso   1.000  C
  C507     1.0000 0.51364  0.80559  0.62088  Biso   1.000  C
  C508     1.0000 0.12153  0.49687  0.70807  Biso   1.000  C
  C509     1.0000 0.30270  0.64355  0.02105  Biso   1.000  C
  C510     1.0000 0.02224  0.79221  0.86506  Biso   1.000  C
  C511     1.0000 0.88409  0.99557  0.77764  Biso   1.000  C
  C512     1.0000 0.71225  0.14616  0.47867  Biso   1.000  C
  C513     1.0000 0.99295  0.29967  0.62270  Biso   1.000  C
  C514     1.0000 0.38322  0.00597  0.70607  Biso   1.000  C
  C515     1.0000 0.20425  0.14783  0.02272  Biso   1.000  C
  C516     1.0000 0.48552  0.29509  0.85460  Biso   1.000  C
  C517     1.0000 0.37733  0.48757  0.20229  Biso   1.000  C
  C518     1.0000 0.21398  0.37041  0.50656  Biso   1.000  C
  C519     1.0000 0.49737  0.21806  0.35940  Biso   1.000  C
  C520     1.0000 0.88301  0.50288  0.26917  Biso   1.000  C
  C521     1.0000 0.70107  0.35436  0.97879  Biso   1.000  C
  C522     1.0000 0.00122  0.21402  0.12158  Biso   1.000  C
  C523     1.0000 0.12129  0.00693  0.20784  Biso   1.000  C
  C524     1.0000 0.29452  0.86885  0.50082  Biso   1.000  C
  C525     1.0000 0.02397  0.71324  0.35765  Biso   1.000  C
  C526     1.0000 0.62506  0.00599  0.27916  Biso   1.000  C
  C527     1.0000 0.80465  0.85169  0.97329  Biso   1.000  C
  C528     1.0000 0.51887  0.70888  0.12049  Biso   1.000  C
  C529     1.0000 0.78625  0.11919  0.98700  Biso   1.000  C
  C530     1.0000 0.02879  0.80254  0.13227  Biso   1.000  C
  C531     1.0000 0.15118  0.01176  0.79145  Biso   1.000  C
  C532     1.0000 0.29596  0.13766  0.52328  Biso   1.000  C
  C533     1.0000 0.51850  0.79807  0.35275  Biso   1.000  C
  C534     1.0000 0.64715  0.00665  0.69604  Biso   1.000  C
  C535     1.0000 0.72014  0.61972  0.97573  Biso   1.000  C
  C536     1.0000 0.50845  0.29019  0.12305  Biso   1.000  C
  C537     1.0000 0.36108  0.49973  0.78342  Biso   1.000  C
  C538     1.0000 0.21577  0.63997  0.50277  Biso   1.000  C
  C539     1.0000 0.98923  0.29655  0.35844  Biso   1.000  C
  C540     1.0000 0.85840  0.51706  0.69118  Biso   1.000  C
  C541     1.0000 0.22007  0.88249  0.00460  Biso   1.000  C
  C542     1.0000 0.98636  0.20709  0.85156  Biso   1.000  C
  C543     1.0000 0.85848  0.00142  0.19486  Biso   1.000  C
  C544     1.0000 0.71735  0.87418  0.47287  Biso   1.000  C
  C545     1.0000 0.51645  0.22109  0.62687  Biso   1.000  C
  C546     1.0000 0.36011  0.01371  0.28782  Biso   1.000  C
  C547     1.0000 0.28652  0.37990  0.00688  Biso   1.000  C
  C548     1.0000 0.50092  0.71548  0.84814  Biso   1.000  C
  C549     1.0000 0.64856  0.50678  0.18691  Biso   1.000  C
  C550     1.0000 0.79212  0.37121  0.48154  Biso   1.000  C
  C551     1.0000 0.00544  0.71565  0.62347  Biso   1.000  C
  C552     1.0000 0.14167  0.48475  0.29536  Biso   1.000  C
  C553     1.0000 0.99317  0.13005  0.77829  Biso   1.000  C
  C554     1.0000 0.78722  0.98672  0.11440  Biso   1.000  C
  C555     1.0000 0.15107  0.80144  0.00344  Biso   1.000  C
  C556     1.0000 0.52172  0.14229  0.70315  Biso   1.000  C
  C557     1.0000 0.28670  0.01003  0.36809  Biso   1.000  C
  C558     1.0000 0.64032  0.80091  0.47788  Biso   1.000  C
  C559     1.0000 0.47786  0.63800  0.77605  Biso   1.000  C
  C560     1.0000 0.72037  0.49497  0.10634  Biso   1.000  C
  C561     1.0000 0.35892  0.29873  0.00949  Biso   1.000  C
  C562     1.0000 0.01306  0.63826  0.69833  Biso   1.000  C
  C563     1.0000 0.21796  0.50538  0.36835  Biso   1.000  C
  C564     1.0000 0.86948  0.29814  0.50415  Biso   1.000  C
  C565     1.0000 0.99256  0.87515  0.20187  Biso   1.000  C
  C566     1.0000 0.22326  0.00604  0.87150  Biso   1.000  C
  C567     1.0000 0.85638  0.19699  0.99813  Biso   1.000  C
  C568     1.0000 0.49952  0.87557  0.27956  Biso   1.000  C
  C569     1.0000 0.72449  0.01237  0.61793  Biso   1.000  C
  C570     1.0000 0.36676  0.21595  0.50629  Biso   1.000  C
  C571     1.0000 0.52617  0.36936  0.19632  Biso   1.000  C
  C572     1.0000 0.28884  0.51721  0.86474  Biso   1.000  C
  C573     1.0000 0.64866  0.70062  0.98623  Biso   1.000  C
  C574     1.0000 0.98760  0.37422  0.28005  Biso   1.000  C
  C575     1.0000 0.79027  0.49900  0.60763  Biso   1.000  C
  C576     1.0000 0.13870  0.71781  0.49784  Biso   1.000  C
  C577     1.0000 0.29807  0.50873  0.10110  Biso   1.000  C
  C578     1.0000 0.10357  0.30062  0.49293  Biso   1.000  C
  C579     1.0000 0.48492  0.10902  0.28603  Biso   1.000  C
  C580     1.0000 0.80009  0.50192  0.37354  Biso   1.000  C
  C581     1.0000 0.59058  0.28530  0.99053  Biso   1.000  C
  C582     1.0000 0.97893  0.10435  0.19612  Biso   1.000  C
  C583     1.0000 0.20565  0.99669  0.10472  Biso   1.000  C
  C584     1.0000 0.40762  0.80031  0.49206  Biso   1.000  C
  C585     1.0000 0.02626  0.60418  0.28648  Biso   1.000  C
  C586     1.0000 0.70474  0.00853  0.38183  Biso   1.000  C
  C587     1.0000 0.91702  0.78547  0.99045  Biso   1.000  C
  C588     1.0000 0.51168  0.60270  0.19725  Biso   1.000  C
  C589     1.0000 0.70406  0.48275  0.87170  Biso   1.000  C
  C590     1.0000 0.90313  0.71325  0.48251  Biso   1.000  C
  C591     1.0000 0.51741  0.91075  0.69751  Biso   1.000  C
  C592     1.0000 0.20292  0.50044  0.60393  Biso   1.000  C
  C593     1.0000 0.41190  0.71542  0.98857  Biso   1.000  C
  C594     1.0000 0.02904  0.89746  0.78563  Biso   1.000  C
  C595     1.0000 0.80426  0.98767  0.87986  Biso   1.000  C
  C596     1.0000 0.60285  0.21791  0.49781  Biso   1.000  C
  C597     1.0000 0.97710  0.40254  0.70300  Biso   1.000  C
  C598     1.0000 0.30507  0.98226  0.60511  Biso   1.000  C
  C599     1.0000 0.09380  0.21893  0.00086  Biso   1.000  C
  C600     1.0000 0.50110  0.40352  0.78366  Biso   1.000  C
  C601     1.0000 0.22117  0.00838  0.90339  Biso   1.000  C
  C602     1.0000 0.88822  0.19872  0.99350  Biso   1.000  C
  C603     1.0000 0.98508  0.90564  0.20033  Biso   1.000  C
  C604     1.0000 0.72343  0.01474  0.58519  Biso   1.000  C
  C605     1.0000 0.39745  0.21664  0.50555  Biso   1.000  C
  C606     1.0000 0.49623  0.90718  0.28178  Biso   1.000  C
  C607     1.0000 0.29211  0.51962  0.89542  Biso   1.000  C
  C608     1.0000 0.61736  0.70098  0.98791  Biso   1.000  C
  C609     1.0000 0.52992  0.39972  0.19347  Biso   1.000  C
  C610     1.0000 0.79405  0.49994  0.57639  Biso   1.000  C
  C611     1.0000 0.10694  0.71630  0.49752  Biso   1.000  C
  C612     1.0000 0.99497  0.40531  0.28322  Biso   1.000  C
  C613     1.0000 0.78711  0.98862  0.08291  Biso   1.000  C
  C614     1.0000 0.11918  0.79839  0.00201  Biso   1.000  C
  C615     1.0000 0.99783  0.09857  0.77947  Biso   1.000  C
  C616     1.0000 0.28912  0.01130  0.40004  Biso   1.000  C
  C617     1.0000 0.60850  0.80145  0.48121  Biso   1.000  C
  C618     1.0000 0.52433  0.11063  0.70264  Biso   1.000  C
  C619     1.0000 0.71746  0.49291  0.07457  Biso   1.000  C
  C620     1.0000 0.39120  0.29539  0.00796  Biso   1.000  C
  C621     1.0000 0.47622  0.60651  0.77820  Biso   1.000  C
  C622     1.0000 0.21830  0.50576  0.40096  Biso   1.000  C
  C623     1.0000 0.90002  0.29873  0.50428  Biso   1.000  C
  C624     1.0000 0.01235  0.60732  0.69938  Biso   1.000  C
  C625     1.0000 0.99030  0.20773  0.88343  Biso   1.000  C
  C626     1.0000 0.88903  0.00838  0.19470  Biso   1.000  C
  C627     1.0000 0.21719  0.91392  0.00160  Biso   1.000  C
  C628     1.0000 0.51597  0.22026  0.59494  Biso   1.000  C
  C629     1.0000 0.39134  0.01309  0.28733  Biso   1.000  C
  C630     1.0000 0.71761  0.90531  0.47540  Biso   1.000  C
  C631     1.0000 0.50668  0.71479  0.87906  Biso   1.000  C
  C632     1.0000 0.61644  0.51080  0.18797  Biso   1.000  C
  C633     1.0000 0.29121  0.41038  0.00355  Biso   1.000  C
  C634     1.0000 0.00131  0.71547  0.59194  Biso   1.000  C
  C635     1.0000 0.11039  0.48298  0.29622  Biso   1.000  C
  C636     1.0000 0.79358  0.40216  0.47596  Biso   1.000  C
  C637     1.0000 0.03115  0.80095  0.10002  Biso   1.000  C
  C638     1.0000 0.11945  0.01480  0.79117  Biso   1.000  C
  C639     1.0000 0.78837  0.08786  0.98405  Biso   1.000  C
  C640     1.0000 0.52048  0.79848  0.38652  Biso   1.000  C
  C641     1.0000 0.61627  0.00925  0.69770  Biso   1.000  C
  C642     1.0000 0.29841  0.10574  0.52111  Biso   1.000  C
  C643     1.0000 0.50113  0.29040  0.09244  Biso   1.000  C
  C644     1.0000 0.39288  0.49385  0.78462  Biso   1.000  C
  C645     1.0000 0.71778  0.58836  0.96859  Biso   1.000  C
  C646     1.0000 0.99399  0.29909  0.39004  Biso   1.000  C
  C647     1.0000 0.88933  0.52181  0.69159  Biso   1.000  C
  C648     1.0000 0.21456  0.60873  0.50546  Biso   1.000  C
  C649     1.0000 0.02009  0.71283  0.38891  Biso   1.000  C
  C650     1.0000 0.41456  0.00884  0.70426  Biso   1.000  C
  C651     1.0000 0.70204  0.38504  0.97719  Biso   1.000  C
  C652     1.0000 0.52057  0.71025  0.08802  Biso   1.000  C
  C653     1.0000 0.91567  0.99831  0.77932  Biso   1.000  C
  C654     1.0000 0.21494  0.40259  0.50772  Biso   1.000  C
  C655     1.0000 0.49733  0.21971  0.39106  Biso   1.000  C
  C656     1.0000 0.09029  0.49594  0.70484  Biso   1.000  C
  C657     1.0000 0.80246  0.88233  0.97656  Biso   1.000  C
  C658     1.0000 0.00187  0.21338  0.09036  Biso   1.000  C
  C659     1.0000 0.59361  0.52111  0.77924  Biso   1.000  C
  C660     1.0000 0.29258  0.89963  0.49749  Biso   1.000  C
  C661     1.0000 0.00254  0.30236  0.59350  Biso   1.000  C
  C662     1.0000 0.59345  0.01098  0.27864  Biso   1.000  C
  C663     1.0000 0.30080  0.61253  0.01985  Biso   1.000  C
  C664     1.0000 0.48599  0.29347  0.88649  Biso   1.000  C
  C665     1.0000 0.08954  0.01069  0.20391  Biso   1.000  C
  C666     1.0000 0.79923  0.60655  0.47242  Biso   1.000  C
  C667     1.0000 0.51467  0.80425  0.58925  Biso   1.000  C
  C668     1.0000 0.91330  0.50863  0.27159  Biso   1.000  C
  C669     1.0000 0.20830  0.11717  0.02133  Biso   1.000  C
  C670     1.0000 0.01988  0.79383  0.89589  Biso   1.000  C
  C671     1.0000 0.40840  0.48922  0.19979  Biso   1.000  C
  C672     1.0000 0.71227  0.11629  0.47331  Biso   1.000  C
  C673     1.0000 0.21199  0.00043  0.80814  Biso   1.000  C
  C674     1.0000 0.79775  0.18211  0.99583  Biso   1.000  C
  C675     1.0000 0.01432  0.81331  0.19337  Biso   1.000  C
  C676     1.0000 0.71082  0.00353  0.68178  Biso   1.000  C
  C677     1.0000 0.30607  0.19985  0.51516  Biso   1.000  C
  C678     1.0000 0.50602  0.80973  0.29136  Biso   1.000  C
  C679     1.0000 0.29869  0.50799  0.80080  Biso   1.000  C
  C680     1.0000 0.70968  0.68451  0.97718  Biso   1.000  C
  C681     1.0000 0.51408  0.30691  0.18494  Biso   1.000  C
  C682     1.0000 0.79664  0.50531  0.67139  Biso   1.000  C
  C683     1.0000 0.20341  0.70462  0.49891  Biso   1.000  C
  C684     1.0000 0.98282  0.31028  0.29316  Biso   1.000  C
  C685     1.0000 0.79741  0.99226  0.17912  Biso   1.000  C
  C686     1.0000 0.21082  0.81904  0.00805  Biso   1.000  C
  C687     1.0000 0.98522  0.19234  0.78890  Biso   1.000  C
  C688     1.0000 0.29718  0.00769  0.30601  Biso   1.000  C
  C689     1.0000 0.70329  0.81139  0.47288  Biso   1.000  C
  C690     1.0000 0.51680  0.20340  0.69010  Biso   1.000  C
  C691     1.0000 0.71175  0.50326  0.17118  Biso   1.000  C
  C692     1.0000 0.29658  0.31626  0.01223  Biso   1.000  C
  C693     1.0000 0.49195  0.69973  0.78341  Biso   1.000  C
  C694     1.0000 0.20616  0.49054  0.30768  Biso   1.000  C
  C695     1.0000 0.80587  0.30955  0.49784  Biso   1.000  C
  C696     1.0000 0.01280  0.70139  0.68830  Biso   1.000  C
  C697     1.0000 0.68659  0.00321  0.29016  Biso   1.000  C
  C698     1.0000 0.31830  0.70701  0.01002  Biso   1.000  C
  C699     1.0000 0.98329  0.30591  0.68698  Biso   1.000  C
  C700     1.0000 0.18653  0.00007  0.19840  Biso   1.000  C
  C701     1.0000 0.80996  0.70023  0.47607  Biso   1.000  C
  C702     1.0000 0.49594  0.31163  0.79492  Biso   1.000  C
  C703     1.0000 0.81903  0.50029  0.27970  Biso   1.000  C
  C704     1.0000 0.18755  0.20959  0.02039  Biso   1.000  C
  C705     1.0000 0.51352  0.81708  0.68144  Biso   1.000  C
  C706     1.0000 0.31186  0.49296  0.19345  Biso   1.000  C
  C707     1.0000 0.69881  0.20581  0.49580  Biso   1.000  C
  C708     1.0000 0.02442  0.80513  0.80137  Biso   1.000  C
  C709     1.0000 0.32056  0.99260  0.70015  Biso   1.000  C
  C710     1.0000 0.68658  0.29148  0.98738  Biso   1.000  C
  C711     1.0000 0.02657  0.70004  0.29790  Biso   1.000  C
  C712     1.0000 0.82271  0.99327  0.78752  Biso   1.000  C
  C713     1.0000 0.19642  0.30886  0.50728  Biso   1.000  C
  C714     1.0000 0.51743  0.69720  0.18327  Biso   1.000  C
  C715     1.0000 0.18535  0.49832  0.69777  Biso   1.000  C
  C716     1.0000 0.82280  0.79097  0.97745  Biso   1.000  C
  C717     1.0000 0.49454  0.20275  0.29885  Biso   1.000  C
  C718     1.0000 0.68745  0.49822  0.78023  Biso   1.000  C
  C719     1.0000 0.31204  0.80968  0.49629  Biso   1.000  C
  C720     1.0000 0.99212  0.20118  0.18484  Biso   1.000  C
  C721     1.0000 0.51691  0.81598  0.26185  Biso   1.000  C
  C722     1.0000 0.30193  0.52053  0.77150  Biso   1.000  C
  C723     1.0000 0.77950  0.31484  0.51514  Biso   1.000  C
  C724     1.0000 0.00680  0.78390  0.18658  Biso   1.000  C
  C725     1.0000 0.76704  0.51497  0.66376  Biso   1.000  C
  C726     1.0000 0.26908  0.32032  0.99788  Biso   1.000  C
  C727     1.0000 0.96899  0.28307  0.29772  Biso   1.000  C
  C728     1.0000 0.23961  0.01348  0.81064  Biso   1.000  C
  C729     1.0000 0.72882  0.81423  0.49149  Biso   1.000  C
  C730     1.0000 0.49989  0.31436  0.21127  Biso   1.000  C
  C731     1.0000 0.73663  0.98704  0.67439  Biso   1.000  C
  C732     1.0000 0.24069  0.82215  0.99779  Biso   1.000  C
  C733     1.0000 0.49932  0.19886  0.71780  Biso   1.000  C
  C734     1.0000 0.70853  0.48852  0.19920  Biso   1.000  C
  C735     1.0000 0.20069  0.72931  0.47850  Biso   1.000  C
  C736     1.0000 0.96399  0.21696  0.79067  Biso   1.000  C
  C737     1.0000 0.23383  0.47423  0.31309  Biso   1.000  C
  C738     1.0000 0.73645  0.68093  0.99363  Biso   1.000  C
  C739     1.0000 0.03378  0.69607  0.71139  Biso   1.000  C
  C740     1.0000 0.77628  0.96956  0.17815  Biso   1.000  C
  C741     1.0000 0.27808  0.19359  0.50206  Biso   1.000  C
  C742     1.0000 0.50231  0.69442  0.75428  Biso   1.000  C
  C743     1.0000 0.27282  0.99003  0.31062  Biso   1.000  C
  C744     1.0000 0.79553  0.20440  0.01830  Biso   1.000  C
  C745     1.0000 0.04708  0.72430  0.29714  Biso   1.000  C
  C746     1.0000 0.29017  0.00090  0.69700  Biso   1.000  C
  C747     1.0000 0.71269  0.29508  0.00625  Biso   1.000  C
  C748     1.0000 0.53574  0.72343  0.18001  Biso   1.000  C
  C749     1.0000 0.82270  0.97278  0.76237  Biso   1.000  C
  C750     1.0000 0.21725  0.30833  0.53002  Biso   1.000  C
  C751     1.0000 0.51423  0.19873  0.27207  Biso   1.000  C
  C752     1.0000 0.21544  0.48618  0.69171  Biso   1.000  C
  C753     1.0000 0.80313  0.78988  0.95384  Biso   1.000  C
  C754     1.0000 0.00133  0.19431  0.21505  Biso   1.000  C
  C755     1.0000 0.67923  0.48881  0.75111  Biso   1.000  C
  C756     1.0000 0.28932  0.80900  0.51885  Biso   1.000  C
  C757     1.0000 0.96727  0.28037  0.68059  Biso   1.000  C
  C758     1.0000 0.68529  0.01624  0.26101  Biso   1.000  C
  C759     1.0000 0.29487  0.70710  0.03222  Biso   1.000  C
  C760     1.0000 0.52204  0.31187  0.77526  Biso   1.000  C
  C761     1.0000 0.21486  0.01606  0.19370  Biso   1.000  C
  C762     1.0000 0.81357  0.72951  0.46303  Biso   1.000  C
  C763     1.0000 0.49098  0.81766  0.70264  Biso   1.000  C
  C764     1.0000 0.79149  0.51658  0.28261  Biso   1.000  C
  C765     1.0000 0.21076  0.20910  0.04171  Biso   1.000  C
  C766     1.0000 0.00799  0.81121  0.77433  Biso   1.000  C
  C767     1.0000 0.31795  0.50271  0.22313  Biso   1.000  C
  C768     1.0000 0.69585  0.23515  0.48533  Biso   1.000  C
  C769     1.0000 0.48167  0.72978  0.78800  Biso   1.000  C
  C770     1.0000 0.79882  0.49068  0.69937  Biso   1.000  C
  C771     1.0000 0.70055  0.78428  0.45381  Biso   1.000  C
  C772     1.0000 0.99757  0.72970  0.68740  Biso   1.000  C
  C773     1.0000 0.27056  0.49255  0.80771  Biso   1.000  C
  C774     1.0000 0.20498  0.79390  0.02563  Biso   1.000  C
  C775     1.0000 0.00304  0.18852  0.76252  Biso   1.000  C
  C776     1.0000 0.70845  0.01552  0.71144  Biso   1.000  C
  C777     1.0000 0.81114  0.27988  0.49003  Biso   1.000  C
  C778     1.0000 0.53012  0.23177  0.68741  Biso   1.000  C
  C779     1.0000 0.20706  0.98216  0.78231  Biso   1.000  C
  C780     1.0000 0.30008  0.29149  0.03110  Biso   1.000  C
  C781     1.0000 0.52296  0.27714  0.18168  Biso   1.000  C
  C782     1.0000 0.20162  0.50151  0.27750  Biso   1.000  C
  C783     1.0000 0.30936  0.22757  0.52950  Biso   1.000  C
  C784     1.0000 0.00253  0.31394  0.26704  Biso   1.000  C
  C785     1.0000 0.73921  0.52037  0.16566  Biso   1.000  C
  C786     1.0000 0.77424  0.18170  0.97309  Biso   1.000  C
  C787     1.0000 0.02246  0.82009  0.22284  Biso   1.000  C
  C788     1.0000 0.29868  0.02772  0.28184  Biso   1.000  C
  C789     1.0000 0.23068  0.70080  0.51367  Biso   1.000  C
  C790     1.0000 0.49575  0.77969  0.29587  Biso   1.000  C
  C791     1.0000 0.79460  0.01021  0.20484  Biso   1.000  C
  C792     1.0000 0.70679  0.71192  0.96044  Biso   1.000  C
  C793     1.0000 0.47962  0.23085  0.30001  Biso   1.000  C
  C794     1.0000 0.28448  0.47738  0.18868  Biso   1.000  C
  C795     1.0000 0.19774  0.28558  0.48603  Biso   1.000  C
  C796     1.0000 0.98225  0.23014  0.17966  Biso   1.000  C
  C797     1.0000 0.82541  0.48500  0.25091  Biso   1.000  C
  C798     1.0000 0.68421  0.26324  0.97507  Biso   1.000  C
  C799     1.0000 0.00546  0.69990  0.27430  Biso   1.000  C
  C800     1.0000 0.18311  0.98603  0.22696  Biso   1.000  C
  C801     1.0000 0.31114  0.78829  0.47183  Biso   1.000  C
  C802     1.0000 0.49827  0.69561  0.20750  Biso   1.000  C
  C803     1.0000 0.70952  0.98107  0.29158  Biso   1.000  C
  C804     1.0000 0.82064  0.76882  0.00004  Biso   1.000  C
  C805     1.0000 0.53172  0.79101  0.68042  Biso   1.000  C
  C806     1.0000 0.71608  0.50934  0.78374  Biso   1.000  C
  C807     1.0000 0.78100  0.69514  0.48800  Biso   1.000  C
  C808     1.0000 0.04081  0.77745  0.80421  Biso   1.000  C
  C809     1.0000 0.18146  0.51334  0.72532  Biso   1.000  C
  C810     1.0000 0.31751  0.72925  0.98790  Biso   1.000  C
  C811     1.0000 0.00076  0.30697  0.71463  Biso   1.000  C
  C812     1.0000 0.79922  0.01406  0.78951  Biso   1.000  C
  C813     1.0000 0.72512  0.19762  0.51173  Biso   1.000  C
  C814     1.0000 0.47507  0.28808  0.79249  Biso   1.000  C
  C815     1.0000 0.32768  0.98213  0.72856  Biso   1.000  C
  C816     1.0000 0.18691  0.23361  0.00105  Biso   1.000  C
  C817     1.0000 0.96513  0.23867  0.76959  Biso   1.000  C
  C818     1.0000 0.75308  0.96941  0.19763  Biso   1.000  C
  C819     1.0000 0.26004  0.79847  0.00154  Biso   1.000  C
  C820     1.0000 0.49481  0.22256  0.73537  Biso   1.000  C
  C821     1.0000 0.24927  0.99152  0.29130  Biso   1.000  C
  C822     1.0000 0.74902  0.79188  0.48975  Biso   1.000  C
  C823     1.0000 0.50523  0.71591  0.73339  Biso   1.000  C
  C824     1.0000 0.73069  0.48887  0.21932  Biso   1.000  C
  C825     1.0000 0.24766  0.30154  0.00467  Biso   1.000  C
  C826     1.0000 0.03453  0.71517  0.73467  Biso   1.000  C
  C827     1.0000 0.25395  0.47356  0.29009  Biso   1.000  C
  C828     1.0000 0.76063  0.29303  0.52043  Biso   1.000  C
  C829     1.0000 0.01191  0.76345  0.20730  Biso   1.000  C
  C830     1.0000 0.26093  0.00672  0.79122  Biso   1.000  C
  C831     1.0000 0.77203  0.22340  0.01952  Biso   1.000  C
  C832     1.0000 0.51826  0.79407  0.24072  Biso   1.000  C
  C833     1.0000 0.75892  0.98477  0.69576  Biso   1.000  C
  C834     1.0000 0.25460  0.21384  0.50377  Biso   1.000  C
  C835     1.0000 0.49410  0.29468  0.23373  Biso   1.000  C
  C836     1.0000 0.28024  0.51773  0.75112  Biso   1.000  C
  C837     1.0000 0.75929  0.70027  0.98898  Biso   1.000  C
  C838     1.0000 0.97126  0.26237  0.27583  Biso   1.000  C
  C839     1.0000 0.74408  0.50913  0.68297  Biso   1.000  C
  C840     1.0000 0.22228  0.74954  0.47686  Biso   1.000  C
  C841     1.0000 0.22840  0.97874  0.76138  Biso   1.000  C
  C842     1.0000 0.75232  0.20306  0.97432  Biso   1.000  C
  C843     1.0000 0.02673  0.79840  0.24325  Biso   1.000  C
  C844     1.0000 0.72992  0.01151  0.73189  Biso   1.000  C
  C845     1.0000 0.28563  0.24783  0.52795  Biso   1.000  C
  C846     1.0000 0.49937  0.75928  0.27463  Biso   1.000  C
  C847     1.0000 0.24920  0.49145  0.78699  Biso   1.000  C
  C848     1.0000 0.72853  0.73225  0.96151  Biso   1.000  C
  C849     1.0000 0.51801  0.25753  0.20334  Biso   1.000  C
  C850     1.0000 0.77647  0.48570  0.71767  Biso   1.000  C
  C851     1.0000 0.25254  0.72181  0.51031  Biso   1.000  C
  C852     1.0000 0.00411  0.29185  0.24602  Biso   1.000  C
  C853     1.0000 0.77049  0.01096  0.22267  Biso   1.000  C
  C854     1.0000 0.22408  0.77001  0.02510  Biso   1.000  C
  C855     1.0000 0.00214  0.21061  0.74174  Biso   1.000  C
  C856     1.0000 0.27544  0.02773  0.26230  Biso   1.000  C
  C857     1.0000 0.72034  0.76278  0.45553  Biso   1.000  C
  C858     1.0000 0.52587  0.25343  0.70653  Biso   1.000  C
  C859     1.0000 0.75997  0.51971  0.18652  Biso   1.000  C
  C860     1.0000 0.27889  0.27027  0.03315  Biso   1.000  C
  C861     1.0000 0.48653  0.75206  0.76757  Biso   1.000  C
  C862     1.0000 0.22263  0.49998  0.25646  Biso   1.000  C
  C863     1.0000 0.79149  0.25838  0.49528  Biso   1.000  C
  C864     1.0000 0.00421  0.74930  0.70889  Biso   1.000  C
  C865     1.0000 0.69927  0.49045  0.72657  Biso   1.000  C
  C866     1.0000 0.79304  0.75204  0.46430  Biso   1.000  C
  C867     1.0000 0.48758  0.79268  0.72147  Biso   1.000  C
  C868     1.0000 0.23642  0.48868  0.71143  Biso   1.000  C
  C869     1.0000 0.27366  0.72684  0.03226  Biso   1.000  C
  C870     1.0000 0.00765  0.79018  0.75375  Biso   1.000  C
  C871     1.0000 0.80097  0.97382  0.74111  Biso   1.000  C
  C872     1.0000 0.71756  0.25415  0.49459  Biso   1.000  C
  C873     1.0000 0.96830  0.25797  0.69937  Biso   1.000  C
  C874     1.0000 0.26991  0.99534  0.71730  Biso   1.000  C
  C875     1.0000 0.23033  0.23178  0.04241  Biso   1.000  C
  C876     1.0000 0.52579  0.29170  0.75416  Biso   1.000  C
  C877     1.0000 0.29694  0.50037  0.24488  Biso   1.000  C
  C878     1.0000 0.23467  0.28389  0.53282  Biso   1.000  C
  C879     1.0000 0.51704  0.21908  0.25043  Biso   1.000  C
  C880     1.0000 0.77327  0.51659  0.25880  Biso   1.000  C
  C881     1.0000 0.73313  0.27263  0.01041  Biso   1.000  C
  C882     1.0000 0.00178  0.21653  0.23526  Biso   1.000  C
  C883     1.0000 0.23438  0.01813  0.21607  Biso   1.000  C
  C884     1.0000 0.26883  0.78802  0.51685  Biso   1.000  C
  C885     1.0000 0.04334  0.74663  0.27670  Biso   1.000  C
  C886     1.0000 0.70630  0.01106  0.23950  Biso   1.000  C
  C887     1.0000 0.78208  0.76924  0.95195  Biso   1.000  C
  C888     1.0000 0.53296  0.74505  0.20136  Biso   1.000  C
  C889     1.0000 0.73128  0.97642  0.27007  Biso   1.000  C
  C890     1.0000 0.29399  0.74862  0.98962  Biso   1.000  C
  C891     1.0000 0.00112  0.28236  0.73248  Biso   1.000  C
  C892     1.0000 0.20601  0.98863  0.24612  Biso   1.000  C
  C893     1.0000 0.76126  0.71705  0.48633  Biso   1.000  C
  C894     1.0000 0.47925  0.26909  0.77000  Biso   1.000  C
  C895     1.0000 0.80378  0.48453  0.22974  Biso   1.000  C
  C896     1.0000 0.20691  0.25534  0.00251  Biso   1.000  C
  C897     1.0000 0.52981  0.76664  0.69838  Biso   1.000  C
  C898     1.0000 0.26543  0.47608  0.21196  Biso   1.000  C
  C899     1.0000 0.74611  0.21796  0.51826  Biso   1.000  C
  C900     1.0000 0.04188  0.75775  0.78089  Biso   1.000  C
  C901     1.0000 0.30711  0.98091  0.75247  Biso   1.000  C
  C902     1.0000 0.70552  0.24054  0.97772  Biso   1.000  C
  C903     1.0000 0.00148  0.72385  0.25556  Biso   1.000  C
  C904     1.0000 0.77799  0.01321  0.76900  Biso   1.000  C
  C905     1.0000 0.21931  0.26505  0.48725  Biso   1.000  C
  C906     1.0000 0.49658  0.71922  0.22610  Biso   1.000  C
  C907     1.0000 0.20494  0.51453  0.74396  Biso   1.000  C
  C908     1.0000 0.79876  0.74858  0.99891  Biso   1.000  C
  C909     1.0000 0.48373  0.25023  0.27704  Biso   1.000  C
  C910     1.0000 0.73563  0.50726  0.76175  Biso   1.000  C
  C911     1.0000 0.28883  0.76766  0.47129  Biso   1.000  C
  C912     1.0000 0.98227  0.25115  0.20136  Biso   1.000  C
  C913     1.0000 0.74850  0.49640  0.71033  Biso   1.000  C
  C914     1.0000 0.74419  0.76649  0.47399  Biso   1.000  C
  C915     1.0000 0.49860  0.74428  0.74055  Biso   1.000  C
  C916     1.0000 0.25422  0.50558  0.76024  Biso   1.000  C
  C917     1.0000 0.25185  0.77193  0.01338  Biso   1.000  C
  C918     1.0000 0.02111  0.74303  0.73260  Biso   1.000  C
  C919     1.0000 0.75628  0.99751  0.72296  Biso   1.000  C
  C920     1.0000 0.76647  0.26491  0.51145  Biso   1.000  C
  C921     1.0000 0.98456  0.23551  0.74654  Biso   1.000  C
  C922     1.0000 0.25534  0.98772  0.76777  Biso   1.000  C
  C923     1.0000 0.25174  0.27567  0.02067  Biso   1.000  C
  C924     1.0000 0.50859  0.24853  0.73074  Biso   1.000  C
  C925     1.0000 0.24831  0.48447  0.26079  Biso   1.000  C
  C926     1.0000 0.25959  0.24131  0.51361  Biso   1.000  C
  C927     1.0000 0.50400  0.26622  0.22926  Biso   1.000  C
  C928     1.0000 0.75563  0.50275  0.21175  Biso   1.000  C
  C929     1.0000 0.75272  0.22459  0.99621  Biso   1.000  C
  C930     1.0000 0.98922  0.26638  0.25163  Biso   1.000  C
  C931     1.0000 0.25170  0.00989  0.26687  Biso   1.000  C
  C932     1.0000 0.24714  0.74563  0.49317  Biso   1.000  C
  C933     1.0000 0.02128  0.77012  0.23480  Biso   1.000  C
  C934     1.0000 0.75015  0.98956  0.21928  Biso   1.000  C
  C935     1.0000 0.75641  0.72569  0.97387  Biso   1.000  C
  C936     1.0000 0.51128  0.76555  0.24769  Biso   1.000  C
  C937     1.0000 0.72922  0.24718  0.99474  Biso   1.000  C
  C938     1.0000 0.02252  0.74540  0.25511  Biso   1.000  C
  C939     1.0000 0.27795  0.98554  0.74515  Biso   1.000  C
  C940     1.0000 0.23729  0.26411  0.51101  Biso   1.000  C
  C941     1.0000 0.51321  0.74350  0.22459  Biso   1.000  C
  C942     1.0000 0.77858  0.99441  0.74532  Biso   1.000  C
  C943     1.0000 0.78007  0.74779  0.97432  Biso   1.000  C
  C944     1.0000 0.50005  0.24401  0.25101  Biso   1.000  C
  C945     1.0000 0.23205  0.50440  0.73744  Biso   1.000  C
  C946     1.0000 0.26844  0.76817  0.49355  Biso   1.000  C
  C947     1.0000 0.99108  0.24376  0.22959  Biso   1.000  C
  C948     1.0000 0.72657  0.49794  0.73258  Biso   1.000  C
  C949     1.0000 0.27442  0.74928  0.01196  Biso   1.000  C
  C950     1.0000 0.98511  0.25930  0.72437  Biso   1.000  C
  C951     1.0000 0.72843  0.99037  0.24218  Biso   1.000  C
  C952     1.0000 0.76735  0.74499  0.47639  Biso   1.000  C
  C953     1.0000 0.50505  0.27046  0.75297  Biso   1.000  C
  C954     1.0000 0.23212  0.00349  0.24239  Biso   1.000  C
  C955     1.0000 0.22947  0.25290  0.02210  Biso   1.000  C
  C956     1.0000 0.50623  0.76853  0.71895  Biso   1.000  C
  C957     1.0000 0.77853  0.49969  0.23437  Biso   1.000  C
  C958     1.0000 0.74108  0.24603  0.51041  Biso   1.000  C
  C959     1.0000 0.02340  0.76326  0.75707  Biso   1.000  C
  C960     1.0000 0.27085  0.48635  0.23866  Biso   1.000  C
  Cu1      1.0000 0.99491  0.50637  0.64755  Biso   1.000  Cu
  Cu2      1.0000 0.66159  0.01115  0.48821  Biso   1.000  Cu
  Cu3      1.0000 0.51328  0.65742  0.98264  Biso   1.000  Cu
  Cu4      1.0000 0.49458  0.50608  0.83902  Biso   1.000  Cu
  Cu5      1.0000 0.15951  0.01427  0.00319  Biso   1.000  Cu
  Cu6      1.0000 0.00476  0.66036  0.49310  Biso   1.000  Cu
  Cu7      1.0000 0.51302  0.01065  0.64684  Biso   1.000  Cu
  Cu8      1.0000 0.85146  0.50275  0.47568  Biso   1.000  Cu
  Cu9      1.0000 0.99612  0.15421  0.98880  Biso   1.000  Cu
  Cu10     1.0000 0.01550  0.00044  0.83861  Biso   1.000  Cu
  Cu11     1.0000 0.34940  0.50862  0.99611  Biso   1.000  Cu
  Cu12     1.0000 0.50261  0.16345  0.49289  Biso   1.000  Cu
  Cu13     1.0000 0.00677  0.50454  0.34064  Biso   1.000  Cu
  Cu14     1.0000 0.34899  0.00408  0.49732  Biso   1.000  Cu
  Cu15     1.0000 0.49392  0.34508  0.99019  Biso   1.000  Cu
  Cu16     1.0000 0.50987  0.49908  0.13718  Biso   1.000  Cu
  Cu17     1.0000 0.84727  0.98711  0.98515  Biso   1.000  Cu
  Cu18     1.0000 0.99966  0.35894  0.49103  Biso   1.000  Cu
  Cu19     1.0000 0.49348  0.00616  0.34012  Biso   1.000  Cu
  Cu20     1.0000 0.15602  0.50817  0.49902  Biso   1.000  Cu
  Cu21     1.0000 0.01653  0.84944  0.99538  Biso   1.000  Cu
  Cu22     1.0000 0.99150  0.00497  0.14630  Biso   1.000  Cu
  Cu23     1.0000 0.65479  0.49258  0.97708  Biso   1.000  Cu
  Cu24     1.0000 0.50422  0.85637  0.48614  Biso   1.000  Cu
  Cu25     1.0000 0.21379  0.01524  0.00506  Biso   1.000  Cu
  Cu26     1.0000 0.98826  0.20846  0.98712  Biso   1.000  Cu
  Cu27     1.0000 0.98918  0.00734  0.20155  Biso   1.000  Cu
  Cu28     1.0000 0.71600  0.01175  0.48253  Biso   1.000  Cu
  Cu29     1.0000 0.50183  0.21755  0.49382  Biso   1.000  Cu
  Cu30     1.0000 0.49043  0.00738  0.28668  Biso   1.000  Cu
  Cu31     1.0000 0.29619  0.51338  0.99540  Biso   1.000  Cu
  Cu32     1.0000 0.51554  0.71153  0.98147  Biso   1.000  Cu
  Cu33     1.0000 0.51158  0.49954  0.19079  Biso   1.000  Cu
  Cu34     1.0000 0.79834  0.50392  0.47715  Biso   1.000  Cu
  Cu35     1.0000 0.00285  0.71480  0.49162  Biso   1.000  Cu
  Cu36     1.0000 0.01443  0.50524  0.28721  Biso   1.000  Cu
  Cu37     1.0000 0.79181  0.98471  0.98047  Biso   1.000  Cu
  Cu38     1.0000 0.01875  0.79721  0.99852  Biso   1.000  Cu
  Cu39     1.0000 0.01837  0.99839  0.78486  Biso   1.000  Cu
  Cu40     1.0000 0.29700  0.00475  0.50215  Biso   1.000  Cu
  Cu41     1.0000 0.50779  0.80257  0.48708  Biso   1.000  Cu
  Cu42     1.0000 0.51380  0.01175  0.70147  Biso   1.000  Cu
  Cu43     1.0000 0.71058  0.48602  0.97445  Biso   1.000  Cu
  Cu44     1.0000 0.49060  0.29001  0.99026  Biso   1.000  Cu
  Cu45     1.0000 0.49386  0.50417  0.78257  Biso   1.000  Cu
  Cu46     1.0000 0.21158  0.50675  0.50619  Biso   1.000  Cu
  Cu47     1.0000 0.00199  0.30578  0.49369  Biso   1.000  Cu
  Cu48     1.0000 0.99024  0.50855  0.70276  Biso   1.000  Cu
  H1       1.0000 0.25018  0.78560  0.53397  Biso   1.000  H
  H2       1.0000 0.54504  0.29110  0.74084  Biso   1.000  H
  H3       1.0000 0.75409  0.52740  0.25732  Biso   1.000  H
  H4       1.0000 0.76908  0.76688  0.93360  Biso   1.000  H
  H5       1.0000 0.95760  0.23733  0.69408  Biso   1.000  H
  H6       1.0000 0.29953  0.50999  0.26577  Biso   1.000  H
  H7       1.0000 0.24742  0.28129  0.55126  Biso   1.000  H
  H8       1.0000 0.99107  0.79507  0.73662  Biso   1.000  H
  H9       1.0000 0.70591  0.02217  0.21787  Biso   1.000  H
  H10      1.0000 0.75105  0.27922  0.02319  Biso   1.000  H
  H11      1.0000 0.46741  0.78874  0.73287  Biso   1.000  H
  H12      1.0000 0.25267  0.03292  0.21011  Biso   1.000  H
  H13      1.0000 0.71842  0.27731  0.48700  Biso   1.000  H
  H14      1.0000 0.54668  0.76429  0.19556  Biso   1.000  H
  H15      1.0000 0.25806  0.48319  0.70651  Biso   1.000  H
  H16      1.0000 0.24523  0.23489  0.05991  Biso   1.000  H
  H17      1.0000 0.05983  0.76305  0.27465  Biso   1.000  H
  H18      1.0000 0.69370  0.48124  0.70548  Biso   1.000  H
  H19      1.0000 0.79847  0.77341  0.45688  Biso   1.000  H
  H20      1.0000 0.00966  0.21126  0.25663  Biso   1.000  H
  H21      1.0000 0.24794  0.00369  0.71506  Biso   1.000  H
  H22      1.0000 0.25617  0.72616  0.04995  Biso   1.000  H
  H23      1.0000 0.53194  0.21134  0.23282  Biso   1.000  H
  H24      1.0000 0.80201  0.95628  0.72575  Biso   1.000  H
  H25      1.0000 0.28207  0.01584  0.79575  Biso   1.000  H
  H26      1.0000 0.77411  0.23843  0.03826  Biso   1.000  H
  H27      1.0000 0.00951  0.73982  0.20427  Biso   1.000  H
  H28      1.0000 0.77757  0.97051  0.69021  Biso   1.000  H
  H29      1.0000 0.23265  0.20698  0.49782  Biso   1.000  H
  H30      1.0000 0.52809  0.79996  0.21969  Biso   1.000  H
  H31      1.0000 0.28066  0.52807  0.73040  Biso   1.000  H
  H32      1.0000 0.78112  0.69547  0.99812  Biso   1.000  H
  H33      1.0000 0.48629  0.30468  0.25538  Biso   1.000  H
  H34      1.0000 0.72282  0.51757  0.67759  Biso   1.000  H
  H35      1.0000 0.21941  0.76808  0.46307  Biso   1.000  H
  H36      1.0000 0.95765  0.24243  0.27743  Biso   1.000  H
  H37      1.0000 0.73687  0.95192  0.19446  Biso   1.000  H
  H38      1.0000 0.28154  0.80144  0.99322  Biso   1.000  H
  H39      1.0000 0.95132  0.25715  0.77140  Biso   1.000  H
  H40      1.0000 0.23234  0.97592  0.29680  Biso   1.000  H
  H41      1.0000 0.76821  0.79148  0.50379  Biso   1.000  H
  H42      1.0000 0.48535  0.21763  0.75695  Biso   1.000  H
  H43      1.0000 0.72686  0.48076  0.24247  Biso   1.000  H
  H44      1.0000 0.22746  0.30758  0.99555  Biso   1.000  H
  H45      1.0000 0.51679  0.71115  0.71315  Biso   1.000  H
  H46      1.0000 0.27444  0.46128  0.29631  Biso   1.000  H
  H47      1.0000 0.74051  0.29735  0.53344  Biso   1.000  H
  H48      1.0000 0.04913  0.71197  0.75249  Biso   1.000  H
  H49      1.0000 0.21798  0.51063  0.23472  Biso   1.000  H
  H50      1.0000 0.29352  0.27019  0.53618  Biso   1.000  H
  H51      1.0000 0.52531  0.23594  0.19847  Biso   1.000  H
  H52      1.0000 0.78184  0.52929  0.18409  Biso   1.000  H
  H53      1.0000 0.73499  0.20217  0.95602  Biso   1.000  H
  H54      1.0000 0.01640  0.29559  0.22660  Biso   1.000  H
  H55      1.0000 0.27401  0.04404  0.24461  Biso   1.000  H
  H56      1.0000 0.27187  0.72112  0.52334  Biso   1.000  H
  H57      1.0000 0.03549  0.80403  0.26458  Biso   1.000  H
  H58      1.0000 0.76889  0.02780  0.23950  Biso   1.000  H
  H59      1.0000 0.72754  0.75130  0.94671  Biso   1.000  H
  H60      1.0000 0.49150  0.73776  0.28282  Biso   1.000  H
  H61      1.0000 0.77918  0.47320  0.73843  Biso   1.000  H
  H62      1.0000 0.71828  0.74238  0.44543  Biso   1.000  H
  H63      1.0000 0.47890  0.77395  0.77194  Biso   1.000  H
  H64      1.0000 0.22812  0.48214  0.78928  Biso   1.000  H
  H65      1.0000 0.21994  0.75011  0.03773  Biso   1.000  H
  H66      1.0000 0.99249  0.77004  0.70655  Biso   1.000  H
  H67      1.0000 0.72541  0.01691  0.75525  Biso   1.000  H
  H68      1.0000 0.79296  0.23667  0.48697  Biso   1.000  H
  H69      1.0000 0.01254  0.20871  0.72145  Biso   1.000  H
  H70      1.0000 0.22625  0.96479  0.74250  Biso   1.000  H
  H71      1.0000 0.28328  0.25089  0.04609  Biso   1.000  H
  H72      1.0000 0.53105  0.27517  0.70241  Biso   1.000  H
  H73      1.0000 0.75808  0.51329  0.76754  Biso   1.000  H
  H74      1.0000 0.73891  0.71215  0.49444  Biso   1.000  H
  H75      1.0000 0.54315  0.74768  0.69544  Biso   1.000  H
  H76      1.0000 0.20112  0.52572  0.76453  Biso   1.000  H
  H77      1.0000 0.29401  0.76519  0.97314  Biso   1.000  H
  H78      1.0000 0.05546  0.73794  0.78352  Biso   1.000  H
  H79      1.0000 0.75951  0.02755  0.77592  Biso   1.000  H
  H80      1.0000 0.76616  0.21280  0.52990  Biso   1.000  H
  H81      1.0000 0.01449  0.28246  0.75196  Biso   1.000  H
  H82      1.0000 0.31474  0.97327  0.77333  Biso   1.000  H
  H83      1.0000 0.20443  0.27490  0.98942  Biso   1.000  H
  H84      1.0000 0.46335  0.25179  0.76838  Biso   1.000  H
  H85      1.0000 0.24426  0.46568  0.20910  Biso   1.000  H
  H86      1.0000 0.21997  0.24755  0.47095  Biso   1.000  H
  H87      1.0000 0.47438  0.27215  0.28097  Biso   1.000  H
  H88      1.0000 0.80647  0.46999  0.20853  Biso   1.000  H
  H89      1.0000 0.70349  0.21942  0.96825  Biso   1.000  H
  H90      1.0000 0.97351  0.27121  0.19524  Biso   1.000  H
  H91      1.0000 0.20078  0.98020  0.26657  Biso   1.000  H
  H92      1.0000 0.28784  0.75204  0.45531  Biso   1.000  H
  H93      1.0000 0.98486  0.72503  0.24031  Biso   1.000  H
  H94      1.0000 0.74986  0.96364  0.27639  Biso   1.000  H
  H95      1.0000 0.79648  0.73378  0.01658  Biso   1.000  H
  H96      1.0000 0.48357  0.71545  0.24713  Biso   1.000  H
  H97      1.0000 0.87813  0.99184  0.89519  Biso   1.000  H
  H98      1.0000 0.91910  0.86134  0.99232  Biso   1.000  H
  H99      1.0000 0.02301  0.91087  0.85953  Biso   1.000  H
  H100     1.0000 0.37754  0.99376  0.58729  Biso   1.000  H
  H101     1.0000 0.41148  0.87811  0.49475  Biso   1.000  H
  H102     1.0000 0.52433  0.91995  0.61871  Biso   1.000  H
  H103     1.0000 0.63005  0.49330  0.89044  Biso   1.000  H
  H104     1.0000 0.58452  0.36202  0.97143  Biso   1.000  H
  H105     1.0000 0.49627  0.41384  0.86064  Biso   1.000  H
  H106     1.0000 0.12898  0.48685  0.59035  Biso   1.000  H
  H107     1.0000 0.09825  0.37959  0.49213  Biso   1.000  H
  H108     1.0000 0.99369  0.41467  0.63098  Biso   1.000  H
  H109     1.0000 0.13089  0.00700  0.08927  Biso   1.000  H
  H110     1.0000 0.09128  0.14263  0.99420  Biso   1.000  H
  H111     1.0000 0.98708  0.09860  0.11904  Biso   1.000  H
  H112     1.0000 0.62812  0.00917  0.39684  Biso   1.000  H
  H113     1.0000 0.59573  0.14318  0.48790  Biso   1.000  H
  H114     1.0000 0.49179  0.09840  0.36275  Biso   1.000  H
  H115     1.0000 0.37077  0.49920  0.08432  Biso   1.000  H
  H116     1.0000 0.42098  0.64059  0.98648  Biso   1.000  H
  H117     1.0000 0.51170  0.59015  0.12281  Biso   1.000  H
  H118     1.0000 0.87519  0.50367  0.38585  Biso   1.000  H
  H119     1.0000 0.91724  0.63838  0.47887  Biso   1.000  H
  H120     1.0000 0.01831  0.59403  0.36100  Biso   1.000  H
  H121     1.0000 0.10363  0.01343  0.86516  Biso   1.000  H
  H122     1.0000 0.86601  0.07952  0.98614  Biso   1.000  H
  H123     1.0000 0.00152  0.87253  0.08459  Biso   1.000  H
  H124     1.0000 0.60346  0.01171  0.62288  Biso   1.000  H
  H125     1.0000 0.37259  0.09755  0.50359  Biso   1.000  H
  H126     1.0000 0.50601  0.87254  0.39975  Biso   1.000  H
  H127     1.0000 0.40237  0.49015  0.85953  Biso   1.000  H
  H128     1.0000 0.64355  0.58343  0.98414  Biso   1.000  H
  H129     1.0000 0.52179  0.36473  0.07869  Biso   1.000  H
  H130     1.0000 0.90776  0.51209  0.61852  Biso   1.000  H
  H131     1.0000 0.13908  0.60383  0.51103  Biso   1.000  H
  H132     1.0000 0.98909  0.37494  0.39814  Biso   1.000  H
  H133     1.0000 0.90307  0.01594  0.11964  Biso   1.000  H
  H134     1.0000 0.14188  0.92221  0.99376  Biso   1.000  H
  H135     1.0000 0.99670  0.13344  0.89361  Biso   1.000  H
  H136     1.0000 0.40257  0.01367  0.36436  Biso   1.000  H
  H137     1.0000 0.64494  0.92007  0.48298  Biso   1.000  H
  H138     1.0000 0.52165  0.14253  0.58657  Biso   1.000  H
  H139     1.0000 0.60367  0.49940  0.11361  Biso   1.000  H
  H140     1.0000 0.36801  0.41661  0.00371  Biso   1.000  H
  H141     1.0000 0.49680  0.64274  0.89288  Biso   1.000  H
  H142     1.0000 0.09673  0.49916  0.36833  Biso   1.000  H
  H143     1.0000 0.86788  0.41365  0.48443  Biso   1.000  H
  H144     1.0000 0.99982  0.63927  0.58406  Biso   1.000  H
  H145     1.0000 0.58792  0.50862  0.85424  Biso   1.000  H
  H146     1.0000 0.87470  0.59655  0.47799  Biso   1.000  H
  H147     1.0000 0.51088  0.87949  0.57766  Biso   1.000  H
  H148     1.0000 0.08677  0.48124  0.63024  Biso   1.000  H
  H149     1.0000 0.37238  0.59900  0.99526  Biso   1.000  H
  H150     1.0000 0.02233  0.86882  0.90503  Biso   1.000  H
  H151     1.0000 0.92312  0.99068  0.85574  Biso   1.000  H
  H152     1.0000 0.63928  0.09984  0.48939  Biso   1.000  H
  H153     1.0000 0.00060  0.37876  0.59057  Biso   1.000  H
  H154     1.0000 0.42188  0.99735  0.62876  Biso   1.000  H
  H155     1.0000 0.13625  0.09956  0.00356  Biso   1.000  H
  H156     1.0000 0.48097  0.37048  0.90085  Biso   1.000  H
  H157     1.0000 0.41510  0.49883  0.12349  Biso   1.000  H
  H158     1.0000 0.14029  0.41831  0.50469  Biso   1.000  H
  H159     1.0000 0.49391  0.14457  0.40590  Biso   1.000  H
  H160     1.0000 0.91641  0.51760  0.34616  Biso   1.000  H
  H161     1.0000 0.62692  0.39941  0.96749  Biso   1.000  H
  H162     1.0000 0.99343  0.13799  0.08050  Biso   1.000  H
  H163     1.0000 0.08634  0.00816  0.12887  Biso   1.000  H
  H164     1.0000 0.36854  0.91475  0.50046  Biso   1.000  H
  H165     1.0000 0.01652  0.63768  0.40155  Biso   1.000  H
  H166     1.0000 0.58453  0.01334  0.35424  Biso   1.000  H
  H167     1.0000 0.87544  0.89870  0.99299  Biso   1.000  H
  H168     1.0000 0.51194  0.63606  0.07666  Biso   1.000  H
  H169     1.0000 0.00565  0.09352  0.85627  Biso   1.000  H
  H170     1.0000 0.86058  0.00249  0.07403  Biso   1.000  H
  H171     1.0000 0.10184  0.87426  0.00635  Biso   1.000  H
  H172     1.0000 0.52787  0.10002  0.62790  Biso   1.000  H
  H173     1.0000 0.36343  0.00658  0.40850  Biso   1.000  H
  H174     1.0000 0.59872  0.87754  0.48142  Biso   1.000  H
  H175     1.0000 0.48879  0.60158  0.85544  Biso   1.000  H
  H176     1.0000 0.64147  0.49728  0.07315  Biso   1.000  H
  H177     1.0000 0.40685  0.36965  0.00996  Biso   1.000  H
  H178     1.0000 0.99782  0.59964  0.62409  Biso   1.000  H
  H179     1.0000 0.14469  0.49964  0.41379  Biso   1.000  H
  H180     1.0000 0.90811  0.37495  0.48756  Biso   1.000  H
  H181     1.0000 0.99491  0.91731  0.12441  Biso   1.000  H
  H182     1.0000 0.14515  0.01134  0.91107  Biso   1.000  H
  H183     1.0000 0.90565  0.12438  0.98730  Biso   1.000  H
  H184     1.0000 0.49967  0.91600  0.35858  Biso   1.000  H
  H185     1.0000 0.64713  0.01537  0.57709  Biso   1.000  H
  H186     1.0000 0.41004  0.14061  0.49951  Biso   1.000  H
  H187     1.0000 0.51624  0.40661  0.11750  Biso   1.000  H
  H188     1.0000 0.36437  0.50156  0.90606  Biso   1.000  H
  H189     1.0000 0.59958  0.62840  0.98173  Biso   1.000  H
  H190     1.0000 0.00593  0.41177  0.35530  Biso   1.000  H
  H191     1.0000 0.86825  0.50425  0.56990  Biso   1.000  H
  H192     1.0000 0.10111  0.64069  0.50176  Biso   1.000  H
  H193     1.0000 0.27597  0.85615  0.49625  Biso   1.000  H
  H194     1.0000 0.48562  0.27409  0.84376  Biso   1.000  H
  H195     1.0000 0.87456  0.50166  0.24733  Biso   1.000  H
  H196     1.0000 0.78527  0.83930  0.96871  Biso   1.000  H
  H197     1.0000 0.99251  0.27742  0.63234  Biso   1.000  H
  H198     1.0000 0.36582  0.48645  0.22268  Biso   1.000  H
  H199     1.0000 0.23334  0.35856  0.50826  Biso   1.000  H
  H200     1.0000 0.02183  0.77150  0.85557  Biso   1.000  H
  H201     1.0000 0.63619  0.00299  0.25896  Biso   1.000  H
  H202     1.0000 0.72218  0.34336  0.98248  Biso   1.000  H
  H203     1.0000 0.51248  0.78601  0.63479  Biso   1.000  H
  H204     1.0000 0.13007  0.00801  0.22937  Biso   1.000  H
  H205     1.0000 0.73272  0.15871  0.47764  Biso   1.000  H
  H206     1.0000 0.52101  0.72945  0.13132  Biso   1.000  H
  H207     1.0000 0.13093  0.49717  0.72990  Biso   1.000  H
  H208     1.0000 0.22358  0.16061  0.02709  Biso   1.000  H
  H209     1.0000 0.02635  0.73437  0.34793  Biso   1.000  H
  H210     1.0000 0.63338  0.51948  0.75309  Biso   1.000  H
  H211     1.0000 0.77519  0.64609  0.46734  Biso   1.000  H
  H212     1.0000 0.00305  0.23425  0.13099  Biso   1.000  H
  H213     1.0000 0.37386  0.00953  0.72764  Biso   1.000  H
  H214     1.0000 0.28539  0.65817  0.02478  Biso   1.000  H
  H215     1.0000 0.49740  0.23862  0.34711  Biso   1.000  H
  H216     1.0000 0.87227  0.99786  0.75617  Biso   1.000  H
  H217     1.0000 0.23867  0.50772  0.35646  Biso   1.000  H
  H218     1.0000 0.35391  0.23568  0.50593  Biso   1.000  H
  H219     1.0000 0.52641  0.36089  0.21804  Biso   1.000  H
  H220     1.0000 0.74295  0.49307  0.11370  Biso   1.000  H
  H221     1.0000 0.84408  0.21636  0.00401  Biso   1.000  H
  H222     1.0000 0.98060  0.36630  0.25918  Biso   1.000  H
  H223     1.0000 0.26523  0.01353  0.35920  Biso   1.000  H
  H224     1.0000 0.14915  0.73860  0.49640  Biso   1.000  H
  H225     1.0000 0.99072  0.86224  0.22160  Biso   1.000  H
  H226     1.0000 0.76598  0.98434  0.12478  Biso   1.000  H
  H227     1.0000 0.66202  0.71984  0.99117  Biso   1.000  H
  H228     1.0000 0.49824  0.86808  0.25690  Biso   1.000  H
  H229     1.0000 0.76875  0.49439  0.61717  Biso   1.000  H
  H230     1.0000 0.64966  0.77928  0.47895  Biso   1.000  H
  H231     1.0000 0.47277  0.64794  0.75377  Biso   1.000  H
  H232     1.0000 0.26868  0.52464  0.85575  Biso   1.000  H
  H233     1.0000 0.16509  0.78094  0.00604  Biso   1.000  H
  H234     1.0000 0.01800  0.64930  0.71835  Biso   1.000  H
  H235     1.0000 0.74575  0.01153  0.62680  Biso   1.000  H
  H236     1.0000 0.85803  0.27721  0.50908  Biso   1.000  H
  H237     1.0000 0.98880  0.14016  0.75734  Biso   1.000  H
  H238     1.0000 0.24619  0.00186  0.86335  Biso   1.000  H
  H239     1.0000 0.34788  0.27850  0.01266  Biso   1.000  H
  H240     1.0000 0.52277  0.15125  0.72420  Biso   1.000  H
  H241     1.0000 0.72533  0.48052  0.82934  Biso   1.000  H
  H242     1.0000 0.85901  0.73357  0.48142  Biso   1.000  H
  H243     1.0000 0.51767  0.86753  0.71555  Biso   1.000  H
  H244     1.0000 0.22066  0.50465  0.64481  Biso   1.000  H
  H245     1.0000 0.37210  0.73808  0.99953  Biso   1.000  H
  H246     1.0000 0.02940  0.85425  0.76785  Biso   1.000  H
  H247     1.0000 0.78468  0.99035  0.83519  Biso   1.000  H
  H248     1.0000 0.64355  0.24028  0.50584  Biso   1.000  H
  H249     1.0000 0.97222  0.35763  0.72532  Biso   1.000  H
  H250     1.0000 0.28711  0.97807  0.64882  Biso   1.000  H
  H251     1.0000 0.13267  0.24043  0.00872  Biso   1.000  H
  H252     1.0000 0.50270  0.36165  0.76322  Biso   1.000  H
  H253     1.0000 0.27669  0.50539  0.14321  Biso   1.000  H
  H254     1.0000 0.14628  0.27880  0.50455  Biso   1.000  H
  H255     1.0000 0.48664  0.15157  0.26527  Biso   1.000  H
  H256     1.0000 0.78170  0.49654  0.32929  Biso   1.000  H
  H257     1.0000 0.63333  0.26115  0.99352  Biso   1.000  H
  H258     1.0000 0.97633  0.14573  0.21720  Biso   1.000  H
  H259     1.0000 0.22470  0.99185  0.14838  Biso   1.000  H
  H260     1.0000 0.36496  0.77856  0.49878  Biso   1.000  H
  H261     1.0000 0.03235  0.64372  0.26363  Biso   1.000  H
  H262     1.0000 0.72161  0.01010  0.33728  Biso   1.000  H
  H263     1.0000 0.87598  0.76168  0.98517  Biso   1.000  H
  H264     1.0000 0.52234  0.64122  0.21921  Biso   1.000  H
  H265     1.0000 0.98208  0.22777  0.84065  Biso   1.000  H
  H266     1.0000 0.84505  0.00206  0.21404  Biso   1.000  H
  H267     1.0000 0.24128  0.87375  0.00896  Biso   1.000  H
  H268     1.0000 0.51181  0.24141  0.63813  Biso   1.000  H
  H269     1.0000 0.34650  0.01517  0.26909  Biso   1.000  H
  H270     1.0000 0.73792  0.86268  0.46884  Biso   1.000  H
  H271     1.0000 0.50377  0.73605  0.83780  Biso   1.000  H
  H272     1.0000 0.66039  0.51191  0.20802  Biso   1.000  H
  H273     1.0000 0.26365  0.37109  0.00545  Biso   1.000  H
  H274     1.0000 0.00913  0.73553  0.63540  Biso   1.000  H
  H275     1.0000 0.15211  0.47951  0.27475  Biso   1.000  H
  H276     1.0000 0.77105  0.35955  0.48488  Biso   1.000  H
  H277     1.0000 0.04034  0.78591  0.14557  Biso   1.000  H
  H278     1.0000 0.16269  0.01418  0.77011  Biso   1.000  H
  H279     1.0000 0.76447  0.12812  0.98780  Biso   1.000  H
  H280     1.0000 0.52777  0.78018  0.34104  Biso   1.000  H
  H281     1.0000 0.65911  0.99978  0.71465  Biso   1.000  H
  H282     1.0000 0.27610  0.14748  0.53252  Biso   1.000  H
  H283     1.0000 0.50766  0.26900  0.13360  Biso   1.000  H
  H284     1.0000 0.34914  0.49906  0.76349  Biso   1.000  H
  H285     1.0000 0.74157  0.62956  0.97709  Biso   1.000  H
  H286     1.0000 0.98828  0.27481  0.35088  Biso   1.000  H
  H287     1.0000 0.84589  0.52109  0.70960  Biso   1.000  H
  H288     1.0000 0.23696  0.64769  0.50087  Biso   1.000  H
  H289     1.0000 0.08173  0.24047  0.99925  Biso   1.000  H
  H290     1.0000 0.97299  0.09382  0.21591  Biso   1.000  H
  H291     1.0000 0.22832  0.99437  0.09627  Biso   1.000  H
  H292     1.0000 0.59178  0.23777  0.50070  Biso   1.000  H
  H293     1.0000 0.48166  0.09841  0.26405  Biso   1.000  H
  H294     1.0000 0.72509  0.00867  0.39389  Biso   1.000  H
  H295     1.0000 0.42650  0.73420  0.98459  Biso   1.000  H
  H296     1.0000 0.51589  0.59186  0.21718  Biso   1.000  H
  H297     1.0000 0.27699  0.51207  0.09113  Biso   1.000  H
  H298     1.0000 0.91438  0.73314  0.48281  Biso   1.000  H
  H299     1.0000 0.02867  0.59003  0.26666  Biso   1.000  H
  H300     1.0000 0.78080  0.49452  0.38467  Biso   1.000  H
  H301     1.0000 0.93179  0.76620  0.99015  Biso   1.000  H
  H302     1.0000 0.03135  0.90778  0.76467  Biso   1.000  H
  H303     1.0000 0.78323  0.98318  0.88927  Biso   1.000  H
  H304     1.0000 0.42207  0.78153  0.49058  Biso   1.000  H
  H305     1.0000 0.51738  0.92196  0.71911  Biso   1.000  H
  H306     1.0000 0.28375  0.97447  0.59797  Biso   1.000  H
  H307     1.0000 0.57719  0.26726  0.99419  Biso   1.000  H
  H308     1.0000 0.50222  0.41721  0.76519  Biso   1.000  H
  H309     1.0000 0.72498  0.48037  0.88355  Biso   1.000  H
  H310     1.0000 0.09063  0.28103  0.49047  Biso   1.000  H
  H311     1.0000 0.97378  0.41389  0.72293  Biso   1.000  H
  H312     1.0000 0.22406  0.50525  0.59438  Biso   1.000  H
  H313     1.0000 0.23949  0.00745  0.91781  Biso   1.000  H
  H314     1.0000 0.89829  0.22124  0.99572  Biso   1.000  H
  H315     1.0000 0.97700  0.91488  0.21985  Biso   1.000  H
  H316     1.0000 0.74393  0.01674  0.57450  Biso   1.000  H
  H317     1.0000 0.40723  0.23812  0.50496  Biso   1.000  H
  H318     1.0000 0.49505  0.91915  0.26143  Biso   1.000  H
  H319     1.0000 0.27279  0.52721  0.90687  Biso   1.000  H
  H320     1.0000 0.60423  0.72045  0.99312  Biso   1.000  H
  H321     1.0000 0.53445  0.41308  0.21297  Biso   1.000  H
  H322     1.0000 0.77634  0.49410  0.56326  Biso   1.000  H
  H323     1.0000 0.09320  0.73606  0.49794  Biso   1.000  H
  H324     1.0000 0.99465  0.41728  0.26318  Biso   1.000  H
  H325     1.0000 0.76641  0.98925  0.07179  Biso   1.000  H
  H326     1.0000 0.10836  0.77785  0.00294  Biso   1.000  H
  H327     1.0000 0.99535  0.08704  0.75951  Biso   1.000  H
  H328     1.0000 0.26853  0.01262  0.41220  Biso   1.000  H
  H329     1.0000 0.59673  0.78146  0.48496  Biso   1.000  H
  H330     1.0000 0.53021  0.09870  0.72275  Biso   1.000  H
  H331     1.0000 0.73573  0.48747  0.06145  Biso   1.000  H
  H332     1.0000 0.40156  0.27483  0.00769  Biso   1.000  H
  H333     1.0000 0.46920  0.59681  0.75599  Biso   1.000  H
  H334     1.0000 0.23850  0.50760  0.41244  Biso   1.000  H
  H335     1.0000 0.91079  0.27829  0.50743  Biso   1.000  H
  H336     1.0000 0.01902  0.59586  0.71828  Biso   1.000  H
  H337     1.0000 0.98818  0.22980  0.89284  Biso   1.000  H
  H338     1.0000 0.89902  0.01234  0.21585  Biso   1.000  H
  H339     1.0000 0.23611  0.92795  0.00124  Biso   1.000  H
  H340     1.0000 0.51609  0.24124  0.58399  Biso   1.000  H
  H341     1.0000 0.40288  0.01404  0.26623  Biso   1.000  H
  H342     1.0000 0.73752  0.91634  0.47451  Biso   1.000  H
  H343     1.0000 0.51395  0.73477  0.88802  Biso   1.000  H
  H344     1.0000 0.60649  0.51762  0.20946  Biso   1.000  H
  H345     1.0000 0.27069  0.42324  0.00440  Biso   1.000  H
  H346     1.0000 0.00491  0.73554  0.57856  Biso   1.000  H
  H347     1.0000 0.09839  0.47753  0.27723  Biso   1.000  H
  H348     1.0000 0.77455  0.41458  0.47224  Biso   1.000  H
  H349     1.0000 0.04155  0.78267  0.09148  Biso   1.000  H
  H350     1.0000 0.10909  0.01787  0.77020  Biso   1.000  H
  H351     1.0000 0.76942  0.07361  0.98096  Biso   1.000  H
  H352     1.0000 0.52617  0.77704  0.39594  Biso   1.000  H
  H353     1.0000 0.60421  0.00613  0.71802  Biso   1.000  H
  H354     1.0000 0.27770  0.09540  0.52341  Biso   1.000  H
  H355     1.0000 0.49254  0.27030  0.08255  Biso   1.000  H
  H356     1.0000 0.40366  0.49291  0.76240  Biso   1.000  H
  H357     1.0000 0.73865  0.57778  0.96510  Biso   1.000  H
  H358     1.0000 0.99368  0.28019  0.40369  Biso   1.000  H
  H359     1.0000 0.89942  0.53107  0.71163  Biso   1.000  H
  H360     1.0000 0.23580  0.59828  0.50850  Biso   1.000  H
  H361     1.0000 0.02246  0.73324  0.40167  Biso   1.000  H
  H362     1.0000 0.42458  0.01693  0.72434  Biso   1.000  H
  H363     1.0000 0.72139  0.39790  0.97509  Biso   1.000  H
  H364     1.0000 0.52582  0.73041  0.07662  Biso   1.000  H
  H365     1.0000 0.92810  0.00248  0.75845  Biso   1.000  H
  H366     1.0000 0.23645  0.41254  0.50809  Biso   1.000  H
  H367     1.0000 0.49832  0.24193  0.39890  Biso   1.000  H
  H368     1.0000 0.07548  0.49560  0.72310  Biso   1.000  H
  H369     1.0000 0.78080  0.89298  0.97518  Biso   1.000  H
  H370     1.0000 0.00699  0.23123  0.07671  Biso   1.000  H
  H371     1.0000 0.57804  0.52494  0.76078  Biso   1.000  H
  H372     1.0000 0.27230  0.90995  0.48960  Biso   1.000  H
  H373     1.0000 0.00334  0.28157  0.58136  Biso   1.000  H
  H374     1.0000 0.58445  0.01196  0.25828  Biso   1.000  H
  H375     1.0000 0.28109  0.60216  0.02458  Biso   1.000  H
  H376     1.0000 0.48218  0.27248  0.89637  Biso   1.000  H
  H377     1.0000 0.07876  0.01482  0.22430  Biso   1.000  H
  H378     1.0000 0.78078  0.59240  0.46997  Biso   1.000  H
  H379     1.0000 0.51294  0.78363  0.57839  Biso   1.000  H
  H380     1.0000 0.92636  0.51272  0.25308  Biso   1.000  H
  H381     1.0000 0.22907  0.10777  0.02304  Biso   1.000  H
  H382     1.0000 0.01878  0.77512  0.91000  Biso   1.000  H
  H383     1.0000 0.42262  0.48609  0.21840  Biso   1.000  H
  H384     1.0000 0.73147  0.10412  0.46660  Biso   1.000  H
  H385     1.0000 0.24072  0.46467  0.33290  Biso   1.000  H
  H386     1.0000 0.27481  0.17314  0.48948  Biso   1.000  H
  H387     1.0000 0.49172  0.33583  0.21251  Biso   1.000  H
  H388     1.0000 0.68886  0.47776  0.20767  Biso   1.000  H
  H389     1.0000 0.80945  0.20427  0.03775  Biso   1.000  H
  H390     1.0000 0.95533  0.27975  0.31714  Biso   1.000  H
  H391     1.0000 0.27097  0.97642  0.33010  Biso   1.000  H
  H392     1.0000 0.18327  0.73280  0.46132  Biso   1.000  H
  H393     1.0000 0.99883  0.77687  0.16499  Biso   1.000  H
  H394     1.0000 0.77963  0.95256  0.16152  Biso   1.000  H
  H395     1.0000 0.74031  0.66362  0.00930  Biso   1.000  H
  H396     1.0000 0.52526  0.83680  0.25531  Biso   1.000  H
  H397     1.0000 0.76540  0.52916  0.64494  Biso   1.000  H
  H398     1.0000 0.73195  0.83291  0.50528  Biso   1.000  H
  H399     1.0000 0.51153  0.67438  0.74805  Biso   1.000  H
  H400     1.0000 0.32118  0.53260  0.76683  Biso   1.000  H
  H401     1.0000 0.24691  0.84127  0.98478  Biso   1.000  H
  H402     1.0000 0.04649  0.67687  0.71298  Biso   1.000  H
  H403     1.0000 0.73792  0.97388  0.65619  Biso   1.000  H
  H404     1.0000 0.77596  0.33636  0.52554  Biso   1.000  H
  H405     1.0000 0.94975  0.21908  0.81032  Biso   1.000  H
  H406     1.0000 0.24440  0.03083  0.82704  Biso   1.000  H
  H407     1.0000 0.26636  0.33803  0.98302  Biso   1.000  H
  H408     1.0000 0.48897  0.17810  0.72507  Biso   1.000  H
  H409     1.0000 0.27892  0.46947  0.16675  Biso   1.000  H
  H410     1.0000 0.18317  0.28484  0.46707  Biso   1.000  H
  H411     1.0000 0.46494  0.23588  0.31681  Biso   1.000  H
  H412     1.0000 0.84564  0.47351  0.24907  Biso   1.000  H
  H413     1.0000 0.66542  0.25617  0.96204  Biso   1.000  H
  H414     1.0000 0.97095  0.23782  0.16043  Biso   1.000  H
  H415     1.0000 0.16552  0.97175  0.23334  Biso   1.000  H
  H416     1.0000 0.32829  0.78760  0.45540  Biso   1.000  H
  H417     1.0000 0.99409  0.68133  0.27341  Biso   1.000  H
  H418     1.0000 0.71312  0.97006  0.31162  Biso   1.000  H
  H419     1.0000 0.83394  0.76972  0.01914  Biso   1.000  H
  H420     1.0000 0.48325  0.67668  0.21029  Biso   1.000  H
  H421     1.0000 0.72246  0.51826  0.80480  Biso   1.000  H
  H422     1.0000 0.77601  0.67511  0.49897  Biso   1.000  H
  H423     1.0000 0.54931  0.79284  0.66618  Biso   1.000  H
  H424     1.0000 0.16172  0.52540  0.73120  Biso   1.000  H
  H425     1.0000 0.33363  0.72945  0.97111  Biso   1.000  H
  H426     1.0000 0.05508  0.77580  0.82230  Biso   1.000  H
  H427     1.0000 0.79727  0.02952  0.80608  Biso   1.000  H
  H428     1.0000 0.72923  0.17539  0.51764  Biso   1.000  H
  H429     1.0000 0.01069  0.32765  0.71928  Biso   1.000  H
  H430     1.0000 0.34991  0.97315  0.73178  Biso   1.000  H
  H431     1.0000 0.17538  0.23380  0.98017  Biso   1.000  H
  H432     1.0000 0.45639  0.28746  0.80878  Biso   1.000  H
  H433     1.0000 0.28425  0.01328  0.67714  Biso   1.000  H
  H434     1.0000 0.71402  0.31477  0.01825  Biso   1.000  H
  H435     1.0000 0.06684  0.72689  0.31211  Biso   1.000  H
  H436     1.0000 0.84026  0.95771  0.75927  Biso   1.000  H
  H437     1.0000 0.21722  0.32528  0.54553  Biso   1.000  H
  H438     1.0000 0.55327  0.72929  0.16353  Biso   1.000  H
  H439     1.0000 0.22248  0.47649  0.67209  Biso   1.000  H
  H440     1.0000 0.80595  0.80430  0.93642  Biso   1.000  H
  H441     1.0000 0.52954  0.18008  0.26936  Biso   1.000  H
  H442     1.0000 0.65876  0.47786  0.74851  Biso   1.000  H
  H443     1.0000 0.28739  0.82521  0.53754  Biso   1.000  H
  H444     1.0000 0.00910  0.17367  0.22247  Biso   1.000  H
  H445     1.0000 0.66986  0.03294  0.25368  Biso   1.000  H
  H446     1.0000 0.29492  0.69157  0.04973  Biso   1.000  H
  H447     1.0000 0.95392  0.27895  0.66147  Biso   1.000  H
  H448     1.0000 0.21964  0.03121  0.17670  Biso   1.000  H
  H449     1.0000 0.83366  0.73653  0.44903  Biso   1.000  H
  H450     1.0000 0.53834  0.32931  0.77574  Biso   1.000  H
  H451     1.0000 0.78584  0.53118  0.30127  Biso   1.000  H
  H452     1.0000 0.21421  0.18977  0.05504  Biso   1.000  H
  H453     1.0000 0.47524  0.83537  0.70469  Biso   1.000  H
  H454     1.0000 0.33813  0.51470  0.22780  Biso   1.000  H
  H455     1.0000 0.67968  0.24095  0.47015  Biso   1.000  H
  H456     1.0000 0.99281  0.83074  0.77373  Biso   1.000  H
  H457     1.0000 0.68146  0.78118  0.43919  Biso   1.000  H
  H458     1.0000 0.47109  0.73579  0.80862  Biso   1.000  H
  H459     1.0000 0.82056  0.48147  0.70567  Biso   1.000  H
  H460     1.0000 0.18366  0.79225  0.03886  Biso   1.000  H
  H461     1.0000 0.98214  0.73770  0.67080  Biso   1.000  H
  H462     1.0000 0.26673  0.48211  0.82822  Biso   1.000  H
  H463     1.0000 0.82908  0.27551  0.47405  Biso   1.000  H
  H464     1.0000 0.01875  0.17151  0.76151  Biso   1.000  H
  H465     1.0000 0.69175  0.03025  0.71711  Biso   1.000  H
  H466     1.0000 0.31866  0.28688  0.04561  Biso   1.000  H
  H467     1.0000 0.54370  0.23711  0.66807  Biso   1.000  H
  H468     1.0000 0.18535  0.97401  0.77924  Biso   1.000  H
  H469     1.0000 0.32783  0.23342  0.54269  Biso   1.000  H
  H470     1.0000 0.53784  0.27073  0.16356  Biso   1.000  H
  H471     1.0000 0.18324  0.51515  0.27260  Biso   1.000  H
  H472     1.0000 0.77662  0.16612  0.95597  Biso   1.000  H
  H473     1.0000 0.01515  0.33276  0.26561  Biso   1.000  H
  H474     1.0000 0.74081  0.53275  0.14540  Biso   1.000  H
  H475     1.0000 0.23376  0.68343  0.52951  Biso   1.000  H
  H476     1.0000 0.03116  0.84056  0.22794  Biso   1.000  H
  H477     1.0000 0.31571  0.04299  0.28082  Biso   1.000  H
  H478     1.0000 0.68901  0.71442  0.94479  Biso   1.000  H
  H479     1.0000 0.48791  0.77267  0.31696  Biso   1.000  H
  H480     1.0000 0.81210  0.02503  0.21040  Biso   1.000  H
  N1       1.0000 0.67956  0.18691  0.49203  Biso   1.000  N
  N2       1.0000 0.51651  0.67802  0.16418  Biso   1.000  N
  N3       1.0000 0.16752  0.49608  0.67744  Biso   1.000  N
  N4       1.0000 0.16963  0.19022  0.01603  Biso   1.000  N
  N5       1.0000 0.02455  0.67935  0.31585  Biso   1.000  N
  N6       1.0000 0.66946  0.49868  0.80193  Biso   1.000  N
  N7       1.0000 0.83008  0.68110  0.47451  Biso   1.000  N
  N8       1.0000 0.99117  0.18148  0.16593  Biso   1.000  N
  N9       1.0000 0.33932  0.99295  0.67895  Biso   1.000  N
  N10      1.0000 0.33676  0.68631  0.00814  Biso   1.000  N
  N11      1.0000 0.49221  0.18403  0.31747  Biso   1.000  N
  N12      1.0000 0.84046  0.99156  0.80816  Biso   1.000  N
  N13      1.0000 0.33022  0.82908  0.49849  Biso   1.000  N
  N14      1.0000 0.49298  0.32989  0.81530  Biso   1.000  N
  N15      1.0000 0.83616  0.50072  0.30082  Biso   1.000  N
  N16      1.0000 0.84123  0.81122  0.97905  Biso   1.000  N
  N17      1.0000 0.98306  0.32696  0.66953  Biso   1.000  N
  N18      1.0000 0.33140  0.49317  0.17333  Biso   1.000  N
  N19      1.0000 0.17762  0.32955  0.50390  Biso   1.000  N
  N20      1.0000 0.02384  0.82398  0.82059  Biso   1.000  N
  N21      1.0000 0.66884  0.00766  0.30961  Biso   1.000  N
  N22      1.0000 0.66787  0.31084  0.98309  Biso   1.000  N
  N23      1.0000 0.51726  0.83722  0.66375  Biso   1.000  N
  N24      1.0000 0.16804  0.00098  0.17823  Biso   1.000  N
  N25      1.0000 0.81884  0.50730  0.65431  Biso   1.000  N
  N26      1.0000 0.68339  0.83108  0.47325  Biso   1.000  N
  N27      1.0000 0.48986  0.68196  0.80391  Biso   1.000  N
  N28      1.0000 0.31908  0.50933  0.81973  Biso   1.000  N
  N29      1.0000 0.19106  0.83821  0.00453  Biso   1.000  N
  N30      1.0000 0.00911  0.68293  0.66799  Biso   1.000  N
  N31      1.0000 0.69135  0.00910  0.66355  Biso   1.000  N
  N32      1.0000 0.82498  0.32886  0.49331  Biso   1.000  N
  N33      1.0000 0.98809  0.17390  0.80869  Biso   1.000  N
  N34      1.0000 0.19141  0.00385  0.82646  Biso   1.000  N
  N35      1.0000 0.31710  0.33375  0.00921  Biso   1.000  N
  N36      1.0000 0.51747  0.18517  0.66986  Biso   1.000  N
  N37      1.0000 0.18515  0.49433  0.32675  Biso   1.000  N
  N38      1.0000 0.32621  0.18057  0.51495  Biso   1.000  N
  N39      1.0000 0.51682  0.32537  0.16449  Biso   1.000  N
  N40      1.0000 0.69112  0.50056  0.15270  Biso   1.000  N
  N41      1.0000 0.81671  0.16223  0.99468  Biso   1.000  N
  N42      1.0000 0.98355  0.32896  0.31259  Biso   1.000  N
  N43      1.0000 0.31804  0.00818  0.32310  Biso   1.000  N
  N44      1.0000 0.18392  0.68576  0.50202  Biso   1.000  N
  N45      1.0000 0.01149  0.83238  0.17312  Biso   1.000  N
  N46      1.0000 0.81720  0.99315  0.15980  Biso   1.000  N
  N47      1.0000 0.69028  0.66501  0.98002  Biso   1.000  N
  N48      1.0000 0.50710  0.82932  0.31097  Biso   1.000  N
  O1       1.0000 0.34952  0.55212  0.99680  Biso   1.000  O
  O2       1.0000 0.00368  0.35968  0.53325  Biso   1.000  O
  O3       1.0000 0.53344  0.01283  0.33122  Biso   1.000  O
  O4       1.0000 0.85039  0.54591  0.47678  Biso   1.000  O
  O5       1.0000 0.48862  0.34259  0.94971  Biso   1.000  O
  O6       1.0000 0.03310  0.00573  0.14918  Biso   1.000  O
  O7       1.0000 0.16202  0.05588  0.00986  Biso   1.000  O
  O8       1.0000 0.50803  0.85289  0.52693  Biso   1.000  O
  O9       1.0000 0.96484  0.50833  0.33118  Biso   1.000  O
  O10      1.0000 0.66334  0.05286  0.48276  Biso   1.000  O
  O11      1.0000 0.01253  0.84475  0.95535  Biso   1.000  O
  O12      1.0000 0.46629  0.49689  0.14089  Biso   1.000  O
  O13      1.0000 0.65375  0.44830  0.98337  Biso   1.000  O
  O14      1.0000 0.01047  0.65975  0.44982  Biso   1.000  O
  O15      1.0000 0.47110  0.01212  0.65149  Biso   1.000  O
  O16      1.0000 0.16324  0.46361  0.49743  Biso   1.000  O
  O17      1.0000 0.51760  0.65918  0.02520  Biso   1.000  O
  O18      1.0000 0.97329  0.99421  0.83361  Biso   1.000  O
  O19      1.0000 0.84613  0.94537  0.98321  Biso   1.000  O
  O20      1.0000 0.49742  0.16750  0.45233  Biso   1.000  O
  O21      1.0000 0.03586  0.49835  0.64867  Biso   1.000  O
  O22      1.0000 0.34270  0.96035  0.49431  Biso   1.000  O
  O23      1.0000 0.99670  0.15886  0.03272  Biso   1.000  O
  O24      1.0000 0.53631  0.51311  0.83287  Biso   1.000  O
  O25      1.0000 0.95014  0.00574  0.14429  Biso   1.000  O
  O26      1.0000 0.16346  0.97130  0.99541  Biso   1.000  O
  O27      1.0000 0.99546  0.15888  0.94661  Biso   1.000  O
  O28      1.0000 0.45121  0.00172  0.33936  Biso   1.000  O
  O29      1.0000 0.66553  0.96728  0.49117  Biso   1.000  O
  O30      1.0000 0.50719  0.16733  0.53675  Biso   1.000  O
  O31      1.0000 0.55384  0.50405  0.13909  Biso   1.000  O
  O32      1.0000 0.34590  0.46672  0.99803  Biso   1.000  O
  O33      1.0000 0.50990  0.66117  0.93889  Biso   1.000  O
  O34      1.0000 0.04853  0.50050  0.34440  Biso   1.000  O
  O35      1.0000 0.84683  0.46205  0.47410  Biso   1.000  O
  O36      1.0000 0.00028  0.66466  0.53224  Biso   1.000  O
  O37      1.0000 0.05435  0.01297  0.83641  Biso   1.000  O
  O38      1.0000 0.84171  0.02719  0.98564  Biso   1.000  O
  O39      1.0000 0.01787  0.85098  0.03879  Biso   1.000  O
  O40      1.0000 0.55596  0.01194  0.64771  Biso   1.000  O
  O41      1.0000 0.34883  0.04415  0.50479  Biso   1.000  O
  O42      1.0000 0.50593  0.84983  0.44557  Biso   1.000  O
  O43      1.0000 0.45426  0.49548  0.83399  Biso   1.000  O
  O44      1.0000 0.66240  0.53407  0.97125  Biso   1.000  O
  O45      1.0000 0.50086  0.34065  0.03089  Biso   1.000  O
  O46      1.0000 0.95402  0.50900  0.64483  Biso   1.000  O
  O47      1.0000 0.15930  0.55099  0.50532  Biso   1.000  O
  O48      1.0000 0.99802  0.35611  0.44872  Biso   1.000  O
  O49      1.0000 0.98928  0.96381  0.14905  Biso   1.000  O
  O50      1.0000 0.16617  0.01873  0.96186  Biso   1.000  O
  O51      1.0000 0.95433  0.15250  0.98318  Biso   1.000  O
  O52      1.0000 0.50313  0.96526  0.33436  Biso   1.000  O
  O53      1.0000 0.66802  0.01627  0.52818  Biso   1.000  O
  O54      1.0000 0.46090  0.16523  0.50140  Biso   1.000  O
  O55      1.0000 0.51263  0.45834  0.14184  Biso   1.000  O
  O56      1.0000 0.34397  0.50812  0.95443  Biso   1.000  O
  O57      1.0000 0.55485  0.65491  0.97879  Biso   1.000  O
  O58      1.0000 0.00463  0.46164  0.33655  Biso   1.000  O
  O59      1.0000 0.84811  0.49862  0.51801  Biso   1.000  O
  O60      1.0000 0.04825  0.66403  0.49677  Biso   1.000  O
  O61      1.0000 0.00494  0.04224  0.83606  Biso   1.000  O
  O62      1.0000 0.84304  0.98754  0.02511  Biso   1.000  O
  O63      1.0000 0.05696  0.84740  0.99434  Biso   1.000  O
  O64      1.0000 0.51616  0.05319  0.64791  Biso   1.000  O
  O65      1.0000 0.34349  0.01076  0.45623  Biso   1.000  O
  O66      1.0000 0.54962  0.85310  0.48328  Biso   1.000  O
  O67      1.0000 0.48665  0.54861  0.83244  Biso   1.000  O
  O68      1.0000 0.66126  0.49599  0.01874  Biso   1.000  O
  O69      1.0000 0.45234  0.34329  0.99463  Biso   1.000  O
  O70      1.0000 0.99695  0.54627  0.64866  Biso   1.000  O
  O71      1.0000 0.16616  0.51558  0.45997  Biso   1.000  O
  O72      1.0000 0.95891  0.35343  0.49706  Biso   1.000  O
  O73      1.0000 0.99200  0.46179  0.65094  Biso   1.000  O
  O74      1.0000 0.65829  0.00622  0.44686  Biso   1.000  O
  O75      1.0000 0.47021  0.66096  0.98692  Biso   1.000  O
  O76      1.0000 0.50067  0.46202  0.83585  Biso   1.000  O
  O77      1.0000 0.15835  0.00848  0.04328  Biso   1.000  O
  O78      1.0000 0.96373  0.66215  0.48737  Biso   1.000  O
  O79      1.0000 0.51578  0.97083  0.64781  Biso   1.000  O
  O80      1.0000 0.85069  0.50381  0.43627  Biso   1.000  O
  O81      1.0000 0.03731  0.16273  0.98982  Biso   1.000  O
  O82      1.0000 0.02926  0.95900  0.83616  Biso   1.000  O
  O83      1.0000 0.34675  0.50567  0.03777  Biso   1.000  O
  O84      1.0000 0.54467  0.16557  0.48936  Biso   1.000  O
  O85      1.0000 0.00900  0.54697  0.33844  Biso   1.000  O
  O86      1.0000 0.35010  0.99591  0.53872  Biso   1.000  O
  O87      1.0000 0.53423  0.34032  0.98265  Biso   1.000  O
  O88      1.0000 0.50575  0.54108  0.14490  Biso   1.000  O
  O89      1.0000 0.84860  0.99146  0.94291  Biso   1.000  O
  O90      1.0000 0.04396  0.35733  0.48928  Biso   1.000  O
  O91      1.0000 0.49022  0.04839  0.34011  Biso   1.000  O
  O92      1.0000 0.15881  0.50390  0.53921  Biso   1.000  O
  O93      1.0000 0.97338  0.84190  0.99605  Biso   1.000  O
  O94      1.0000 0.99455  0.04678  0.14590  Biso   1.000  O
  O95      1.0000 0.65735  0.48708  0.93644  Biso   1.000  O
  O96      1.0000 0.46435  0.85303  0.48706  Biso   1.000  O
  O97      1.0000 0.46007  0.21372  0.49640  Biso   1.000  O
  O98      1.0000 0.52092  0.45977  0.18838  Biso   1.000  O
  O99      1.0000 0.21469  0.50818  0.46428  Biso   1.000  O
  O100     1.0000 0.94795  0.19984  0.98896  Biso   1.000  O
  O101     1.0000 0.01180  0.46301  0.28762  Biso   1.000  O
  O102     1.0000 0.70816  0.48801  0.01545  Biso   1.000  O
  O103     1.0000 0.04748  0.71263  0.49462  Biso   1.000  O
  O104     1.0000 0.98910  0.96437  0.19889  Biso   1.000  O
  O105     1.0000 0.29455  0.01157  0.45986  Biso   1.000  O
  O106     1.0000 0.55705  0.70381  0.98606  Biso   1.000  O
  O107     1.0000 0.49404  0.96550  0.28623  Biso   1.000  O
  O108     1.0000 0.79445  0.98185  0.02214  Biso   1.000  O
  O109     1.0000 0.55167  0.80464  0.48913  Biso   1.000  O
  O110     1.0000 0.48543  0.54604  0.78345  Biso   1.000  O
  O111     1.0000 0.79878  0.50250  0.51860  Biso   1.000  O
  O112     1.0000 0.05969  0.79875  0.00065  Biso   1.000  O
  O113     1.0000 0.99238  0.55135  0.69731  Biso   1.000  O
  O114     1.0000 0.29603  0.51324  0.95479  Biso   1.000  O
  O115     1.0000 0.96150  0.30454  0.49873  Biso   1.000  O
  O116     1.0000 0.00730  0.04017  0.78652  Biso   1.000  O
  O117     1.0000 0.71713  0.01199  0.52444  Biso   1.000  O
  O118     1.0000 0.45062  0.29476  0.99814  Biso   1.000  O
  O119     1.0000 0.51772  0.05231  0.69738  Biso   1.000  O
  O120     1.0000 0.21492  0.02051  0.96277  Biso   1.000  O
  O121     1.0000 0.03093  0.50371  0.69675  Biso   1.000  O
  O122     1.0000 0.71358  0.05383  0.47956  Biso   1.000  O
  O123     1.0000 0.51313  0.70876  0.02488  Biso   1.000  O
  O124     1.0000 0.53517  0.51173  0.78395  Biso   1.000  O
  O125     1.0000 0.21064  0.05731  0.01311  Biso   1.000  O
  O126     1.0000 0.00760  0.70754  0.44928  Biso   1.000  O
  O127     1.0000 0.47299  0.01379  0.69953  Biso   1.000  O
  O128     1.0000 0.80198  0.54767  0.47811  Biso   1.000  O
  O129     1.0000 0.99137  0.20753  0.03035  Biso   1.000  O
  O130     1.0000 0.97669  0.99189  0.78461  Biso   1.000  O
  O131     1.0000 0.30165  0.55475  0.99798  Biso   1.000  O
  O132     1.0000 0.49704  0.21587  0.45144  Biso   1.000  O
  O133     1.0000 0.97422  0.51037  0.28348  Biso   1.000  O
  O134     1.0000 0.29514  0.96231  0.49772  Biso   1.000  O
  O135     1.0000 0.48659  0.29309  0.94780  Biso   1.000  O
  O136     1.0000 0.46963  0.49035  0.18868  Biso   1.000  O
  O137     1.0000 0.79831  0.94234  0.97608  Biso   1.000  O
  O138     1.0000 0.00857  0.31198  0.53422  Biso   1.000  O
  O139     1.0000 0.53179  0.00970  0.28354  Biso   1.000  O
  O140     1.0000 0.21123  0.46340  0.50586  Biso   1.000  O
  O141     1.0000 0.02263  0.79730  0.95754  Biso   1.000  O
  O142     1.0000 0.03103  0.00483  0.19647  Biso   1.000  O
  O143     1.0000 0.70195  0.44442  0.97633  Biso   1.000  O
  O144     1.0000 0.51114  0.80442  0.53092  Biso   1.000  O
  O145     1.0000 0.55286  0.50501  0.18744  Biso   1.000  O
  O146     1.0000 0.20849  0.54807  0.50423  Biso   1.000  O
  O147     1.0000 0.50815  0.21539  0.53619  Biso   1.000  O
  O148     1.0000 0.05437  0.50161  0.29620  Biso   1.000  O
  O149     1.0000 0.71081  0.52773  0.97273  Biso   1.000  O
  O150     1.0000 0.99034  0.20726  0.94229  Biso   1.000  O
  O151     1.0000 0.94729  0.00998  0.19203  Biso   1.000  O
  O152     1.0000 0.30070  0.04597  0.51071  Biso   1.000  O
  O153     1.0000 0.99582  0.71261  0.53235  Biso   1.000  O
  O154     1.0000 0.44910  0.00359  0.29027  Biso   1.000  O
  O155     1.0000 0.79376  0.02794  0.98271  Biso   1.000  O
  O156     1.0000 0.51682  0.70875  0.93901  Biso   1.000  O
  O157     1.0000 0.45369  0.49677  0.78561  Biso   1.000  O
  O158     1.0000 0.79857  0.46177  0.47526  Biso   1.000  O
  O159     1.0000 0.51115  0.80016  0.44696  Biso   1.000  O
  O160     1.0000 0.95016  0.51320  0.69371  Biso   1.000  O
  O161     1.0000 0.29707  0.47076  0.99904  Biso   1.000  O
  O162     1.0000 0.01162  0.80295  0.04016  Biso   1.000  O
  O163     1.0000 0.05949  0.01376  0.78770  Biso   1.000  O
  O164     1.0000 0.71348  0.96835  0.48475  Biso   1.000  O
  O165     1.0000 0.99869  0.30727  0.45288  Biso   1.000  O
  O166     1.0000 0.55591  0.00997  0.69795  Biso   1.000  O
  O167     1.0000 0.21223  0.97326  0.99777  Biso   1.000  O
  O168     1.0000 0.49601  0.29124  0.03246  Biso   1.000  O
  O169     1.0000 0.99091  0.04668  0.19332  Biso   1.000  O
  O170     1.0000 0.20832  0.00495  0.04640  Biso   1.000  O
  O171     1.0000 0.03345  0.21153  0.98486  Biso   1.000  O
  O172     1.0000 0.48651  0.04669  0.29120  Biso   1.000  O
  O173     1.0000 0.70776  0.00869  0.43988  Biso   1.000  O
  O174     1.0000 0.54370  0.21376  0.49192  Biso   1.000  O
  O175     1.0000 0.50603  0.53974  0.19485  Biso   1.000  O
  O176     1.0000 0.29893  0.51160  0.03996  Biso   1.000  O
  O177     1.0000 0.47370  0.70959  0.97729  Biso   1.000  O
  O178     1.0000 0.01767  0.54508  0.29051  Biso   1.000  O
  O179     1.0000 0.80260  0.50628  0.43540  Biso   1.000  O
  O180     1.0000 0.96326  0.71014  0.48717  Biso   1.000  O
  O181     1.0000 0.02592  0.95711  0.78743  Biso   1.000  O
  O182     1.0000 0.80081  0.99095  0.94012  Biso   1.000  O
  O183     1.0000 0.97847  0.79310  0.99517  Biso   1.000  O
  O184     1.0000 0.51607  0.96809  0.69634  Biso   1.000  O
  O185     1.0000 0.30266  0.99788  0.54612  Biso   1.000  O
  O186     1.0000 0.46709  0.80425  0.49073  Biso   1.000  O
  O187     1.0000 0.50311  0.46363  0.78741  Biso   1.000  O
  O188     1.0000 0.70576  0.48288  0.93311  Biso   1.000  O
  O189     1.0000 0.53097  0.29174  0.97950  Biso   1.000  O
  O190     1.0000 0.98398  0.46672  0.69833  Biso   1.000  O
  O191     1.0000 0.20631  0.50850  0.54775  Biso   1.000  O
  O192     1.0000 0.04385  0.30994  0.48559  Biso   1.000  O
