data_image0
_cell_length_a       46.5218
_cell_length_b       47.0032
_cell_length_c       46.5512
_cell_angle_alpha    90
_cell_angle_beta     90
_cell_angle_gamma    90

_symmetry_space_group_name_H-M    "P 1"
_symmetry_int_tables_number       1

loop_
  _symmetry_equiv_pos_as_xyz
  'x, y, z'

loop_
  _atom_site_label
  _atom_site_occupancy
  _atom_site_fract_x
  _atom_site_fract_y
  _atom_site_fract_z
  _atom_site_thermal_displace_type
  _atom_site_B_iso_or_equiv
  _atom_site_type_symbol
  C1       1.0000 0.55625  0.97522  0.34911  Biso   1.000  C
  C2       1.0000 0.32208  0.51902  0.02762  Biso   1.000  C
  C3       1.0000 0.99678  0.29689  0.58706  Biso   1.000  C
  C4       1.0000 0.05628  0.97539  0.21389  Biso   1.000  C
  C5       1.0000 0.82641  0.54059  0.53235  Biso   1.000  C
  C6       1.0000 0.51619  0.28992  0.98363  Biso   1.000  C
  C7       1.0000 0.95001  0.47622  0.35335  Biso   1.000  C
  C8       1.0000 0.19008  0.02273  0.03544  Biso   1.000  C
  C9       1.0000 0.50738  0.79475  0.57213  Biso   1.000  C
  C10      1.0000 0.45289  0.46883  0.20774  Biso   1.000  C
  C11      1.0000 0.69292  0.03764  0.53094  Biso   1.000  C
  C12      1.0000 0.00403  0.79699  0.98117  Biso   1.000  C
  C13      1.0000 0.45592  0.96554  0.70996  Biso   1.000  C
  C14      1.0000 0.69376  0.42421  0.04004  Biso   1.000  C
  C15      1.0000 0.01022  0.65422  0.47794  Biso   1.000  C
  C16      1.0000 0.95582  0.98273  0.85181  Biso   1.000  C
  C17      1.0000 0.18051  0.41135  0.53795  Biso   1.000  C
  C18      1.0000 0.50774  0.65143  0.07302  Biso   1.000  C
  C19      1.0000 0.06436  0.46663  0.71208  Biso   1.000  C
  C20      1.0000 0.82473  0.92832  0.02837  Biso   1.000  C
  C21      1.0000 0.50892  0.15038  0.48417  Biso   1.000  C
  C22      1.0000 0.56325  0.46542  0.85363  Biso   1.000  C
  C23      1.0000 0.32585  0.91356  0.52681  Biso   1.000  C
  C24      1.0000 0.01543  0.15644  0.08897  Biso   1.000  C
  C25      1.0000 0.32410  0.02165  0.53175  Biso   1.000  C
  C26      1.0000 0.51238  0.29227  0.09109  Biso   1.000  C
  C27      1.0000 0.05735  0.47339  0.35084  Biso   1.000  C
  C28      1.0000 0.83025  0.03792  0.03466  Biso   1.000  C
  C29      1.0000 0.00159  0.29259  0.48014  Biso   1.000  C
  C30      1.0000 0.55892  0.47232  0.21041  Biso   1.000  C
  C31      1.0000 0.19571  0.51853  0.52173  Biso   1.000  C
  C32      1.0000 0.99522  0.80036  0.08976  Biso   1.000  C
  C33      1.0000 0.44558  0.97887  0.34788  Biso   1.000  C
  C34      1.0000 0.68888  0.53112  0.02903  Biso   1.000  C
  C35      1.0000 0.51092  0.80084  0.46291  Biso   1.000  C
  C36      1.0000 0.94861  0.98508  0.21067  Biso   1.000  C
  C37      1.0000 0.68788  0.93118  0.52870  Biso   1.000  C
  C38      1.0000 0.49864  0.65400  0.96471  Biso   1.000  C
  C39      1.0000 0.95654  0.48707  0.70523  Biso   1.000  C
  C40      1.0000 0.18945  0.91319  0.03285  Biso   1.000  C
  C41      1.0000 0.02433  0.65644  0.58505  Biso   1.000  C
  C42      1.0000 0.45381  0.46135  0.85187  Biso   1.000  C
  C43      1.0000 0.82141  0.43340  0.53387  Biso   1.000  C
  C44      1.0000 0.01710  0.15982  0.98042  Biso   1.000  C
  C45      1.0000 0.56587  0.96051  0.70835  Biso   1.000  C
  C46      1.0000 0.32399  0.41120  0.03368  Biso   1.000  C
  C47      1.0000 0.50635  0.15148  0.59319  Biso   1.000  C
  C48      1.0000 0.06382  0.97779  0.85138  Biso   1.000  C
  C49      1.0000 0.01661  0.03238  0.85110  Biso   1.000  C
  C50      1.0000 0.82580  0.97802  0.08273  Biso   1.000  C
  C51      1.0000 0.05896  0.79376  0.04349  Biso   1.000  C
  C52      1.0000 0.51200  0.01609  0.71026  Biso   1.000  C
  C53      1.0000 0.32495  0.96608  0.47558  Biso   1.000  C
  C54      1.0000 0.56456  0.80100  0.52377  Biso   1.000  C
  C55      1.0000 0.51015  0.51824  0.84810  Biso   1.000  C
  C56      1.0000 0.68744  0.48739  0.08574  Biso   1.000  C
  C57      1.0000 0.45938  0.29238  0.03452  Biso   1.000  C
  C58      1.0000 0.01845  0.53129  0.71062  Biso   1.000  C
  C59      1.0000 0.18268  0.45870  0.47679  Biso   1.000  C
  C60      1.0000 0.94133  0.30026  0.53208  Biso   1.000  C
  C61      1.0000 0.99391  0.92780  0.21462  Biso   1.000  C
  C62      1.0000 0.18832  0.96713  0.97955  Biso   1.000  C
  C63      1.0000 0.96043  0.16105  0.03516  Biso   1.000  C
  C64      1.0000 0.49536  0.92443  0.33853  Biso   1.000  C
  C65      1.0000 0.68991  0.98543  0.58391  Biso   1.000  C
  C66      1.0000 0.44833  0.15188  0.53555  Biso   1.000  C
  C67      1.0000 0.51021  0.41950  0.21357  Biso   1.000  C
  C68      1.0000 0.32012  0.46318  0.97869  Biso   1.000  C
  C69      1.0000 0.55626  0.65441  0.01711  Biso   1.000  C
  C70      1.0000 0.00612  0.42178  0.35345  Biso   1.000  C
  C71      1.0000 0.82265  0.49005  0.58649  Biso   1.000  C
  C72      1.0000 0.07304  0.65103  0.52648  Biso   1.000  C
  C73      1.0000 0.99923  0.52932  0.35437  Biso   1.000  C
  C74      1.0000 0.32362  0.96663  0.58393  Biso   1.000  C
  C75      1.0000 0.56772  0.29586  0.03761  Biso   1.000  C
  C76      1.0000 0.50741  0.52804  0.20701  Biso   1.000  C
  C77      1.0000 0.82730  0.98768  0.97852  Biso   1.000  C
  C78      1.0000 0.04902  0.28610  0.53644  Biso   1.000  C
  C79      1.0000 0.50701  0.03159  0.35080  Biso   1.000  C
  C80      1.0000 0.19069  0.47404  0.58217  Biso   1.000  C
  C81      1.0000 0.94890  0.79821  0.02969  Biso   1.000  C
  C82      1.0000 0.00792  0.03516  0.21852  Biso   1.000  C
  C83      1.0000 0.69011  0.46955  0.97848  Biso   1.000  C
  C84      1.0000 0.45615  0.79755  0.51845  Biso   1.000  C
  C85      1.0000 0.00187  0.42330  0.70827  Biso   1.000  C
  C86      1.0000 0.69034  0.98681  0.47375  Biso   1.000  C
  C87      1.0000 0.45007  0.64848  0.02333  Biso   1.000  C
  C88      1.0000 0.50889  0.40913  0.85165  Biso   1.000  C
  C89      1.0000 0.18565  0.96505  0.08972  Biso   1.000  C
  C90      1.0000 0.96298  0.65688  0.53795  Biso   1.000  C
  C91      1.0000 0.50642  0.90907  0.70645  Biso   1.000  C
  C92      1.0000 0.82289  0.48868  0.47845  Biso   1.000  C
  C93      1.0000 0.07069  0.15332  0.03554  Biso   1.000  C
  C94      1.0000 0.00408  0.92535  0.85293  Biso   1.000  C
  C95      1.0000 0.32261  0.46675  0.08606  Biso   1.000  C
  C96      1.0000 0.55902  0.15489  0.54337  Biso   1.000  C
  C97      1.0000 0.69156  0.06869  0.53065  Biso   1.000  C
  C98      1.0000 0.50833  0.65193  0.10544  Biso   1.000  C
  C99      1.0000 0.09776  0.46725  0.71127  Biso   1.000  C
  C100     1.0000 0.19146  0.05282  0.02980  Biso   1.000  C
  C101     1.0000 0.00525  0.65442  0.44647  Biso   1.000  C
  C102     1.0000 0.59579  0.46911  0.85127  Biso   1.000  C
  C103     1.0000 0.82756  0.57250  0.53443  Biso   1.000  C
  C104     1.0000 0.02049  0.15851  0.12179  Biso   1.000  C
  C105     1.0000 0.42339  0.97110  0.70887  Biso   1.000  C
  C106     1.0000 0.32234  0.55061  0.02591  Biso   1.000  C
  C107     1.0000 0.51515  0.15077  0.45270  Biso   1.000  C
  C108     1.0000 0.92400  0.98764  0.85298  Biso   1.000  C
  C109     1.0000 0.32594  0.88226  0.51836  Biso   1.000  C
  C110     1.0000 0.51587  0.28967  0.95243  Biso   1.000  C
  C111     1.0000 0.91786  0.47970  0.35211  Biso   1.000  C
  C112     1.0000 0.82346  0.89679  0.03063  Biso   1.000  C
  C113     1.0000 0.00117  0.29785  0.61865  Biso   1.000  C
  C114     1.0000 0.42118  0.46398  0.21003  Biso   1.000  C
  C115     1.0000 0.18034  0.37908  0.54068  Biso   1.000  C
  C116     1.0000 0.00110  0.79607  0.94800  Biso   1.000  C
  C117     1.0000 0.58831  0.97796  0.35016  Biso   1.000  C
  C118     1.0000 0.69319  0.39221  0.04184  Biso   1.000  C
  C119     1.0000 0.50236  0.79207  0.60319  Biso   1.000  C
  C120     1.0000 0.08741  0.98216  0.21405  Biso   1.000  C
  C121     1.0000 0.82365  0.97127  0.11400  Biso   1.000  C
  C122     1.0000 0.09063  0.79003  0.04339  Biso   1.000  C
  C123     1.0000 0.01881  0.06444  0.85115  Biso   1.000  C
  C124     1.0000 0.32397  0.96040  0.44511  Biso   1.000  C
  C125     1.0000 0.59760  0.80048  0.52581  Biso   1.000  C
  C126     1.0000 0.51221  0.04816  0.71474  Biso   1.000  C
  C127     1.0000 0.68709  0.49416  0.11795  Biso   1.000  C
  C128     1.0000 0.42671  0.29095  0.03225  Biso   1.000  C
  C129     1.0000 0.50833  0.55005  0.84573  Biso   1.000  C
  C130     1.0000 0.18354  0.45578  0.44535  Biso   1.000  C
  C131     1.0000 0.90952  0.30227  0.52932  Biso   1.000  C
  C132     1.0000 0.01944  0.56324  0.71222  Biso   1.000  C
  C133     1.0000 0.18834  0.96228  0.94832  Biso   1.000  C
  C134     1.0000 0.92871  0.16151  0.03779  Biso   1.000  C
  C135     1.0000 0.98923  0.89620  0.21579  Biso   1.000  C
  C136     1.0000 0.68982  0.98547  0.61698  Biso   1.000  C
  C137     1.0000 0.41661  0.15138  0.53499  Biso   1.000  C
  C138     1.0000 0.49193  0.89189  0.33692  Biso   1.000  C
  C139     1.0000 0.32195  0.46378  0.94605  Biso   1.000  C
  C140     1.0000 0.58879  0.65546  0.02022  Biso   1.000  C
  C141     1.0000 0.51706  0.38807  0.21533  Biso   1.000  C
  C142     1.0000 0.82274  0.48556  0.61767  Biso   1.000  C
  C143     1.0000 0.10566  0.64907  0.52749  Biso   1.000  C
  C144     1.0000 0.01095  0.38936  0.35340  Biso   1.000  C
  C145     1.0000 0.32319  0.46694  0.11927  Biso   1.000  C
  C146     1.0000 0.08159  0.28557  0.53930  Biso   1.000  C
  C147     1.0000 0.51357  0.06190  0.35437  Biso   1.000  C
  C148     1.0000 0.82199  0.49084  0.44531  Biso   1.000  C
  C149     1.0000 0.60010  0.29723  0.03770  Biso   1.000  C
  C150     1.0000 0.00719  0.06682  0.21985  Biso   1.000  C
  C151     1.0000 0.18383  0.96260  0.12240  Biso   1.000  C
  C152     1.0000 0.42509  0.79549  0.51815  Biso   1.000  C
  C153     1.0000 0.99219  0.56050  0.35308  Biso   1.000  C
  C154     1.0000 0.68881  0.98551  0.44181  Biso   1.000  C
  C155     1.0000 0.91691  0.79917  0.02888  Biso   1.000  C
  C156     1.0000 0.50791  0.56067  0.20378  Biso   1.000  C
  C157     1.0000 0.69112  0.46640  0.94621  Biso   1.000  C
  C158     1.0000 0.93042  0.65890  0.53939  Biso   1.000  C
  C159     1.0000 0.49896  0.87761  0.70535  Biso   1.000  C
  C160     1.0000 0.19234  0.47634  0.61437  Biso   1.000  C
  C161     1.0000 0.41884  0.64867  0.02625  Biso   1.000  C
  C162     1.0000 0.00403  0.89263  0.85562  Biso   1.000  C
  C163     1.0000 0.82639  0.98568  0.94587  Biso   1.000  C
  C164     1.0000 0.59150  0.15638  0.54474  Biso   1.000  C
  C165     1.0000 0.99917  0.39254  0.70979  Biso   1.000  C
  C166     1.0000 0.32494  0.96614  0.61576  Biso   1.000  C
  C167     1.0000 0.10349  0.15375  0.03281  Biso   1.000  C
  C168     1.0000 0.50594  0.37721  0.85136  Biso   1.000  C
  C169     1.0000 0.99606  0.80119  0.12244  Biso   1.000  C
  C170     1.0000 0.09605  0.97914  0.84975  Biso   1.000  C
  C171     1.0000 0.83062  0.06913  0.03841  Biso   1.000  C
  C172     1.0000 0.50798  0.79924  0.43008  Biso   1.000  C
  C173     1.0000 0.59946  0.96072  0.71041  Biso   1.000  C
  C174     1.0000 0.32416  0.05279  0.52758  Biso   1.000  C
  C175     1.0000 0.51098  0.29252  0.12307  Biso   1.000  C
  C176     1.0000 0.42130  0.46384  0.85302  Biso   1.000  C
  C177     1.0000 0.68746  0.56352  0.02993  Biso   1.000  C
  C178     1.0000 0.00956  0.29303  0.44834  Biso   1.000  C
  C179     1.0000 0.92446  0.49395  0.70639  Biso   1.000  C
  C180     1.0000 0.19728  0.55076  0.52431  Biso   1.000  C
  C181     1.0000 0.01811  0.15920  0.94758  Biso   1.000  C
  C182     1.0000 0.91710  0.98223  0.21123  Biso   1.000  C
  C183     1.0000 0.18798  0.88057  0.02739  Biso   1.000  C
  C184     1.0000 0.51092  0.15064  0.62531  Biso   1.000  C
  C185     1.0000 0.41427  0.97627  0.34756  Biso   1.000  C
  C186     1.0000 0.68836  0.89862  0.53124  Biso   1.000  C
  C187     1.0000 0.50005  0.65341  0.93268  Biso   1.000  C
  C188     1.0000 0.59103  0.47258  0.21264  Biso   1.000  C
  C189     1.0000 0.32539  0.38011  0.02835  Biso   1.000  C
  C190     1.0000 0.03125  0.65853  0.61720  Biso   1.000  C
  C191     1.0000 0.08911  0.46702  0.34820  Biso   1.000  C
  C192     1.0000 0.81845  0.40123  0.53037  Biso   1.000  C
  C193     1.0000 0.85463  0.98399  0.93121  Biso   1.000  C
  C194     1.0000 0.90231  0.82596  0.02795  Biso   1.000  C
  C195     1.0000 0.00424  0.87502  0.88266  Biso   1.000  C
  C196     1.0000 0.35227  0.96789  0.63098  Biso   1.000  C
  C197     1.0000 0.40645  0.82028  0.52047  Biso   1.000  C
  C198     1.0000 0.49998  0.86431  0.67694  Biso   1.000  C
  C199     1.0000 0.66314  0.46859  0.93025  Biso   1.000  C
  C200     1.0000 0.61535  0.32347  0.03881  Biso   1.000  C
  C201     1.0000 0.51007  0.36235  0.87919  Biso   1.000  C
  C202     1.0000 0.16562  0.47374  0.63154  Biso   1.000  C
  C203     1.0000 0.09929  0.31310  0.54278  Biso   1.000  C
  C204     1.0000 0.99583  0.37501  0.68437  Biso   1.000  C
  C205     1.0000 0.15673  0.96904  0.13726  Biso   1.000  C
  C206     1.0000 0.11784  0.12546  0.03312  Biso   1.000  C
  C207     1.0000 0.00905  0.08067  0.19213  Biso   1.000  C
  C208     1.0000 0.66068  0.98159  0.42711  Biso   1.000  C
  C209     1.0000 0.60923  0.12995  0.54625  Biso   1.000  C
  C210     1.0000 0.51074  0.07580  0.38143  Biso   1.000  C
  C211     1.0000 0.35023  0.46543  0.13366  Biso   1.000  C
  C212     1.0000 0.40191  0.62116  0.02598  Biso   1.000  C
  C213     1.0000 0.51193  0.57624  0.17629  Biso   1.000  C
  C214     1.0000 0.84910  0.48809  0.42835  Biso   1.000  C
  C215     1.0000 0.91067  0.63444  0.53718  Biso   1.000  C
  C216     1.0000 0.99948  0.57735  0.37914  Biso   1.000  C
  C217     1.0000 0.11233  0.97339  0.87649  Biso   1.000  C
  C218     1.0000 0.85908  0.08370  0.03875  Biso   1.000  C
  C219     1.0000 0.99176  0.82861  0.13828  Biso   1.000  C
  C220     1.0000 0.61430  0.96691  0.68305  Biso   1.000  C
  C221     1.0000 0.35156  0.06966  0.52987  Biso   1.000  C
  C222     1.0000 0.50496  0.82574  0.41433  Biso   1.000  C
  C223     1.0000 0.40567  0.46850  0.88026  Biso   1.000  C
  C224     1.0000 0.65877  0.57815  0.03098  Biso   1.000  C
  C225     1.0000 0.51078  0.31975  0.13914  Biso   1.000  C
  C226     1.0000 0.90683  0.49244  0.68068  Biso   1.000  C
  C227     1.0000 0.17021  0.56790  0.52797  Biso   1.000  C
  C228     1.0000 0.01049  0.32028  0.43295  Biso   1.000  C
  C229     1.0000 0.90068  0.98094  0.18357  Biso   1.000  C
  C230     1.0000 0.16031  0.86486  0.02685  Biso   1.000  C
  C231     1.0000 0.01956  0.13190  0.93203  Biso   1.000  C
  C232     1.0000 0.39933  0.97432  0.37504  Biso   1.000  C
  C233     1.0000 0.66169  0.88230  0.52894  Biso   1.000  C
  C234     1.0000 0.51135  0.12232  0.63971  Biso   1.000  C
  C235     1.0000 0.60749  0.47731  0.18520  Biso   1.000  C
  C236     1.0000 0.35289  0.36566  0.02767  Biso   1.000  C
  C237     1.0000 0.50132  0.62473  0.91848  Biso   1.000  C
  C238     1.0000 0.10247  0.46197  0.37637  Biso   1.000  C
  C239     1.0000 0.84445  0.38404  0.53222  Biso   1.000  C
  C240     1.0000 0.03217  0.63138  0.63471  Biso   1.000  C
  C241     1.0000 0.61180  0.47156  0.87767  Biso   1.000  C
  C242     1.0000 0.85688  0.58744  0.53459  Biso   1.000  C
  C243     1.0000 0.49902  0.81847  0.62204  Biso   1.000  C
  C244     1.0000 0.11326  0.46989  0.68288  Biso   1.000  C
  C245     1.0000 0.34990  0.56695  0.02756  Biso   1.000  C
  C246     1.0000 0.00291  0.82355  0.93182  Biso   1.000  C
  C247     1.0000 0.90752  0.98702  0.88020  Biso   1.000  C
  C248     1.0000 0.66564  0.08263  0.53977  Biso   1.000  C
  C249     1.0000 0.99811  0.32504  0.63388  Biso   1.000  C
  C250     1.0000 0.40691  0.96938  0.68174  Biso   1.000  C
  C251     1.0000 0.16510  0.07127  0.03293  Biso   1.000  C
  C252     1.0000 0.51216  0.31507  0.93498  Biso   1.000  C
  C253     1.0000 0.40389  0.46247  0.18382  Biso   1.000  C
  C254     1.0000 0.15309  0.36380  0.54477  Biso   1.000  C
  C255     1.0000 0.51245  0.12492  0.43629  Biso   1.000  C
  C256     1.0000 0.90189  0.48061  0.37901  Biso   1.000  C
  C257     1.0000 0.66618  0.37582  0.04285  Biso   1.000  C
  C258     1.0000 0.01688  0.13195  0.13821  Biso   1.000  C
  C259     1.0000 0.10348  0.97844  0.18819  Biso   1.000  C
  C260     1.0000 0.35448  0.86687  0.51994  Biso   1.000  C
  C261     1.0000 0.00322  0.62642  0.43121  Biso   1.000  C
  C262     1.0000 0.60573  0.98142  0.37580  Biso   1.000  C
  C263     1.0000 0.85169  0.88072  0.03146  Biso   1.000  C
  C264     1.0000 0.51073  0.62629  0.12265  Biso   1.000  C
  C265     1.0000 0.02310  0.08068  0.87659  Biso   1.000  C
  C266     1.0000 0.85116  0.97169  0.13129  Biso   1.000  C
  C267     1.0000 0.10717  0.81507  0.03559  Biso   1.000  C
  C268     1.0000 0.51309  0.06682  0.69022  Biso   1.000  C
  C269     1.0000 0.34908  0.96674  0.42734  Biso   1.000  C
  C270     1.0000 0.61359  0.82735  0.52240  Biso   1.000  C
  C271     1.0000 0.50583  0.56811  0.87176  Biso   1.000  C
  C272     1.0000 0.66039  0.48918  0.13358  Biso   1.000  C
  C273     1.0000 0.40756  0.31704  0.03208  Biso   1.000  C
  C274     1.0000 0.02685  0.57951  0.68617  Biso   1.000  C
  C275     1.0000 0.15555  0.45772  0.42999  Biso   1.000  C
  C276     1.0000 0.89469  0.33077  0.53148  Biso   1.000  C
  C277     1.0000 0.98887  0.88065  0.18828  Biso   1.000  C
  C278     1.0000 0.16147  0.96591  0.93063  Biso   1.000  C
  C279     1.0000 0.91234  0.13489  0.04045  Biso   1.000  C
  C280     1.0000 0.49569  0.87569  0.36228  Biso   1.000  C
  C281     1.0000 0.66366  0.97892  0.63322  Biso   1.000  C
  C282     1.0000 0.39981  0.12400  0.53673  Biso   1.000  C
  C283     1.0000 0.51702  0.37105  0.18869  Biso   1.000  C
  C284     1.0000 0.35084  0.46662  0.93223  Biso   1.000  C
  C285     1.0000 0.60504  0.62879  0.02138  Biso   1.000  C
  C286     1.0000 0.01210  0.37309  0.38191  Biso   1.000  C
  C287     1.0000 0.85078  0.48664  0.63202  Biso   1.000  C
  C288     1.0000 0.11976  0.62232  0.52797  Biso   1.000  C
  C289     1.0000 0.35356  0.83676  0.51751  Biso   1.000  C
  C290     1.0000 0.51067  0.31011  0.90377  Biso   1.000  C
  C291     1.0000 0.86999  0.48471  0.37649  Biso   1.000  C
  C292     1.0000 0.85080  0.84951  0.03117  Biso   1.000  C
  C293     1.0000 0.00134  0.32498  0.66492  Biso   1.000  C
  C294     1.0000 0.37245  0.46247  0.18500  Biso   1.000  C
  C295     1.0000 0.15297  0.33218  0.54469  Biso   1.000  C
  C296     1.0000 0.00436  0.82281  0.90102  Biso   1.000  C
  C297     1.0000 0.63744  0.97891  0.37542  Biso   1.000  C
  C298     1.0000 0.66792  0.34520  0.03696  Biso   1.000  C
  C299     1.0000 0.49762  0.81317  0.65255  Biso   1.000  C
  C300     1.0000 0.13376  0.97170  0.19001  Biso   1.000  C
  C301     1.0000 0.66286  0.11425  0.53476  Biso   1.000  C
  C302     1.0000 0.51060  0.62800  0.15306  Biso   1.000  C
  C303     1.0000 0.14464  0.46868  0.68391  Biso   1.000  C
  C304     1.0000 0.16821  0.10186  0.02644  Biso   1.000  C
  C305     1.0000 0.99628  0.62793  0.39961  Biso   1.000  C
  C306     1.0000 0.64364  0.47245  0.87704  Biso   1.000  C
  C307     1.0000 0.85790  0.61849  0.53586  Biso   1.000  C
  C308     1.0000 0.01550  0.13323  0.17030  Biso   1.000  C
  C309     1.0000 0.37648  0.97218  0.68246  Biso   1.000  C
  C310     1.0000 0.34915  0.59884  0.02650  Biso   1.000  C
  C311     1.0000 0.51607  0.12665  0.40458  Biso   1.000  C
  C312     1.0000 0.87658  0.98583  0.87774  Biso   1.000  C
  C313     1.0000 0.15630  0.45515  0.39832  Biso   1.000  C
  C314     1.0000 0.36922  0.12362  0.53265  Biso   1.000  C
  C315     1.0000 0.51485  0.33965  0.19085  Biso   1.000  C
  C316     1.0000 0.65974  0.48864  0.16515  Biso   1.000  C
  C317     1.0000 0.88070  0.13703  0.04178  Biso   1.000  C
  C318     1.0000 0.01145  0.34201  0.37971  Biso   1.000  C
  C319     1.0000 0.34819  0.96370  0.39623  Biso   1.000  C
  C320     1.0000 0.15106  0.62191  0.52302  Biso   1.000  C
  C321     1.0000 0.98724  0.84922  0.19014  Biso   1.000  C
  C322     1.0000 0.84976  0.97464  0.16201  Biso   1.000  C
  C323     1.0000 0.63602  0.62967  0.02568  Biso   1.000  C
  C324     1.0000 0.50006  0.84580  0.36110  Biso   1.000  C
  C325     1.0000 0.85030  0.48738  0.66491  Biso   1.000  C
  C326     1.0000 0.64424  0.82742  0.52660  Biso   1.000  C
  C327     1.0000 0.50207  0.59840  0.86813  Biso   1.000  C
  C328     1.0000 0.35099  0.46305  0.90059  Biso   1.000  C
  C329     1.0000 0.13730  0.81252  0.03125  Biso   1.000  C
  C330     1.0000 0.02352  0.61040  0.68824  Biso   1.000  C
  C331     1.0000 0.66747  0.98035  0.66407  Biso   1.000  C
  C332     1.0000 0.86294  0.33031  0.52713  Biso   1.000  C
  C333     1.0000 0.02309  0.11207  0.87730  Biso   1.000  C
  C334     1.0000 0.16451  0.96812  0.89923  Biso   1.000  C
  C335     1.0000 0.37755  0.31484  0.02559  Biso   1.000  C
  C336     1.0000 0.51187  0.09822  0.69278  Biso   1.000  C
  C337     1.0000 0.66492  0.47105  0.89898  Biso   1.000  C
  C338     1.0000 0.88015  0.63850  0.53765  Biso   1.000  C
  C339     1.0000 0.49922  0.83332  0.67507  Biso   1.000  C
  C340     1.0000 0.16621  0.46818  0.66202  Biso   1.000  C
  C341     1.0000 0.37067  0.62079  0.02619  Biso   1.000  C
  C342     1.0000 0.00534  0.84355  0.88017  Biso   1.000  C
  C343     1.0000 0.85481  0.98504  0.89909  Biso   1.000  C
  C344     1.0000 0.63932  0.13319  0.53911  Biso   1.000  C
  C345     1.0000 0.00004  0.34586  0.68587  Biso   1.000  C
  C346     1.0000 0.35390  0.97134  0.66232  Biso   1.000  C
  C347     1.0000 0.14846  0.12435  0.02772  Biso   1.000  C
  C348     1.0000 0.50806  0.33079  0.88057  Biso   1.000  C
  C349     1.0000 0.34992  0.46314  0.16487  Biso   1.000  C
  C350     1.0000 0.13059  0.31003  0.54392  Biso   1.000  C
  C351     1.0000 0.51638  0.10636  0.38235  Biso   1.000  C
  C352     1.0000 0.84690  0.48800  0.39730  Biso   1.000  C
  C353     1.0000 0.64692  0.32368  0.03434  Biso   1.000  C
  C354     1.0000 0.01418  0.11224  0.19254  Biso   1.000  C
  C355     1.0000 0.15568  0.96828  0.16917  Biso   1.000  C
  C356     1.0000 0.37621  0.81663  0.51811  Biso   1.000  C
  C357     1.0000 0.99629  0.60783  0.37793  Biso   1.000  C
  C358     1.0000 0.66027  0.97900  0.39658  Biso   1.000  C
  C359     1.0000 0.87094  0.82608  0.03150  Biso   1.000  C
  C360     1.0000 0.51035  0.60699  0.17577  Biso   1.000  C
  C361     1.0000 0.02220  0.13220  0.90049  Biso   1.000  C
  C362     1.0000 0.86963  0.97798  0.18461  Biso   1.000  C
  C363     1.0000 0.16025  0.83290  0.02889  Biso   1.000  C
  C364     1.0000 0.51156  0.11999  0.67137  Biso   1.000  C
  C365     1.0000 0.36879  0.96651  0.37400  Biso   1.000  C
  C366     1.0000 0.66489  0.85059  0.52988  Biso   1.000  C
  C367     1.0000 0.49990  0.62170  0.88774  Biso   1.000  C
  C368     1.0000 0.63835  0.48222  0.18668  Biso   1.000  C
  C369     1.0000 0.35392  0.33421  0.02422  Biso   1.000  C
  C370     1.0000 0.02599  0.63144  0.66599  Biso   1.000  C
  C371     1.0000 0.13435  0.45732  0.37705  Biso   1.000  C
  C372     1.0000 0.84126  0.35364  0.52890  Biso   1.000  C
  C373     1.0000 0.99009  0.82759  0.16912  Biso   1.000  C
  C374     1.0000 0.14319  0.97032  0.87652  Biso   1.000  C
  C375     1.0000 0.85949  0.11430  0.04160  Biso   1.000  C
  C376     1.0000 0.50277  0.82401  0.38279  Biso   1.000  C
  C377     1.0000 0.64531  0.97537  0.68488  Biso   1.000  C
  C378     1.0000 0.34931  0.10032  0.52977  Biso   1.000  C
  C379     1.0000 0.51251  0.31814  0.16941  Biso   1.000  C
  C380     1.0000 0.37381  0.46430  0.87991  Biso   1.000  C
  C381     1.0000 0.65835  0.60876  0.02952  Biso   1.000  C
  C382     1.0000 0.01015  0.31993  0.40137  Biso   1.000  C
  C383     1.0000 0.87367  0.48846  0.68518  Biso   1.000  C
  C384     1.0000 0.17175  0.59927  0.52290  Biso   1.000  C
  C385     1.0000 0.19571  0.11432  0.01989  Biso   1.000  C
  C386     1.0000 0.01710  0.16044  0.18551  Biso   1.000  C
  C387     1.0000 0.14844  0.96947  0.21657  Biso   1.000  C
  C388     1.0000 0.68657  0.13211  0.52426  Biso   1.000  C
  C389     1.0000 0.51989  0.15359  0.39145  Biso   1.000  C
  C390     1.0000 0.65264  0.97269  0.34840  Biso   1.000  C
  C391     1.0000 0.32234  0.61334  0.02656  Biso   1.000  C
  C392     1.0000 0.50966  0.65599  0.16863  Biso   1.000  C
  C393     1.0000 0.35877  0.46248  0.21354  Biso   1.000  C
  C394     1.0000 0.83191  0.63689  0.53615  Biso   1.000  C
  C395     1.0000 0.99192  0.65547  0.38475  Biso   1.000  C
  C396     1.0000 0.85521  0.48803  0.34895  Biso   1.000  C
  C397     1.0000 0.82291  0.83449  0.03375  Biso   1.000  C
  C398     1.0000 0.00363  0.79557  0.88491  Biso   1.000  C
  C399     1.0000 0.86126  0.98690  0.84961  Biso   1.000  C
  C400     1.0000 0.32892  0.81918  0.51569  Biso   1.000  C
  C401     1.0000 0.49658  0.78585  0.66626  Biso   1.000  C
  C402     1.0000 0.36102  0.97561  0.70949  Biso   1.000  C
  C403     1.0000 0.69539  0.33031  0.03372  Biso   1.000  C
  C404     1.0000 0.50891  0.28216  0.89020  Biso   1.000  C
  C405     1.0000 0.65783  0.47090  0.85059  Biso   1.000  C
  C406     1.0000 0.18061  0.31588  0.54219  Biso   1.000  C
  C407     1.0000 0.00703  0.29829  0.68051  Biso   1.000  C
  C408     1.0000 0.16063  0.46720  0.70937  Biso   1.000  C
  C409     1.0000 0.16020  0.97612  0.85075  Biso   1.000  C
  C410     1.0000 0.83152  0.13228  0.04123  Biso   1.000  C
  C411     1.0000 0.98587  0.80112  0.18623  Biso   1.000  C
  C412     1.0000 0.66005  0.97703  0.71239  Biso   1.000  C
  C413     1.0000 0.32135  0.11505  0.52920  Biso   1.000  C
  C414     1.0000 0.50565  0.79718  0.36681  Biso   1.000  C
  C415     1.0000 0.35863  0.45953  0.85155  Biso   1.000  C
  C416     1.0000 0.68536  0.62488  0.03119  Biso   1.000  C
  C417     1.0000 0.51080  0.29186  0.18607  Biso   1.000  C
  C418     1.0000 0.85972  0.48847  0.71317  Biso   1.000  C
  C419     1.0000 0.19973  0.61322  0.51659  Biso   1.000  C
  C420     1.0000 0.00800  0.29409  0.38557  Biso   1.000  C
  C421     1.0000 0.85345  0.97929  0.21141  Biso   1.000  C
  C422     1.0000 0.18537  0.81672  0.02759  Biso   1.000  C
  C423     1.0000 0.02350  0.15882  0.88470  Biso   1.000  C
  C424     1.0000 0.35223  0.96153  0.34776  Biso   1.000  C
  C425     1.0000 0.69383  0.83700  0.53246  Biso   1.000  C
  C426     1.0000 0.51096  0.14593  0.68783  Biso   1.000  C
  C427     1.0000 0.65119  0.48404  0.21464  Biso   1.000  C
  C428     1.0000 0.32877  0.31756  0.01827  Biso   1.000  C
  C429     1.0000 0.49948  0.64767  0.86983  Biso   1.000  C
  C430     1.0000 0.15080  0.45892  0.35005  Biso   1.000  C
  C431     1.0000 0.81457  0.33830  0.52481  Biso   1.000  C
  C432     1.0000 0.02217  0.65867  0.68136  Biso   1.000  C
  C433     1.0000 0.02195  0.12822  0.85042  Biso   1.000  C
  C434     1.0000 0.82152  0.97511  0.17771  Biso   1.000  C
  C435     1.0000 0.15175  0.78519  0.03226  Biso   1.000  C
  C436     1.0000 0.50860  0.11237  0.72001  Biso   1.000  C
  C437     1.0000 0.32179  0.95826  0.38215  Biso   1.000  C
  C438     1.0000 0.66208  0.80225  0.52852  Biso   1.000  C
  C439     1.0000 0.50336  0.61149  0.84083  Biso   1.000  C
  C440     1.0000 0.68538  0.49620  0.18287  Biso   1.000  C
  C441     1.0000 0.36446  0.28726  0.02283  Biso   1.000  C
  C442     1.0000 0.01680  0.62566  0.71410  Biso   1.000  C
  C443     1.0000 0.18293  0.45428  0.38240  Biso   1.000  C
  C444     1.0000 0.84596  0.30448  0.52215  Biso   1.000  C
  C445     1.0000 0.98132  0.83460  0.21729  Biso   1.000  C
  C446     1.0000 0.19189  0.97117  0.88456  Biso   1.000  C
  C447     1.0000 0.86553  0.16349  0.04159  Biso   1.000  C
  C448     1.0000 0.49709  0.83035  0.33394  Biso   1.000  C
  C449     1.0000 0.69371  0.98674  0.67963  Biso   1.000  C
  C450     1.0000 0.35290  0.15028  0.53256  Biso   1.000  C
  C451     1.0000 0.51595  0.32507  0.21754  Biso   1.000  C
  C452     1.0000 0.32443  0.45746  0.88387  Biso   1.000  C
  C453     1.0000 0.65138  0.65701  0.02742  Biso   1.000  C
  C454     1.0000 0.01219  0.32692  0.35247  Biso   1.000  C
  C455     1.0000 0.82484  0.48511  0.68103  Biso   1.000  C
  C456     1.0000 0.16754  0.64707  0.51678  Biso   1.000  C
  C457     1.0000 0.99001  0.62430  0.35212  Biso   1.000  C
  C458     1.0000 0.32806  0.97250  0.67947  Biso   1.000  C
  C459     1.0000 0.66265  0.29813  0.02956  Biso   1.000  C
  C460     1.0000 0.50856  0.62411  0.20234  Biso   1.000  C
  C461     1.0000 0.82662  0.98713  0.88255  Biso   1.000  C
  C462     1.0000 0.14610  0.28419  0.54099  Biso   1.000  C
  C463     1.0000 0.52162  0.12326  0.35677  Biso   1.000  C
  C464     1.0000 0.19439  0.46779  0.67645  Biso   1.000  C
  C465     1.0000 0.85382  0.80001  0.03438  Biso   1.000  C
  C466     1.0000 0.01761  0.12800  0.21857  Biso   1.000  C
  C467     1.0000 0.69266  0.47011  0.88321  Biso   1.000  C
  C468     1.0000 0.36215  0.78948  0.51604  Biso   1.000  C
  C469     1.0000 0.00662  0.33184  0.71291  Biso   1.000  C
  C470     1.0000 0.68551  0.97517  0.37998  Biso   1.000  C
  C471     1.0000 0.35376  0.64689  0.02662  Biso   1.000  C
  C472     1.0000 0.50427  0.31374  0.85560  Biso   1.000  C
  C473     1.0000 0.18156  0.96155  0.18397  Biso   1.000  C
  C474     1.0000 0.86719  0.66644  0.53852  Biso   1.000  C
  C475     1.0000 0.49462  0.81600  0.70065  Biso   1.000  C
  C476     1.0000 0.82024  0.48952  0.38100  Biso   1.000  C
  C477     1.0000 0.16634  0.14903  0.02305  Biso   1.000  C
  C478     1.0000 0.00608  0.82890  0.85269  Biso   1.000  C
  C479     1.0000 0.32377  0.46432  0.18199  Biso   1.000  C
  C480     1.0000 0.65035  0.16122  0.53228  Biso   1.000  C
  C481     1.0000 0.38011  0.76348  0.51488  Biso   1.000  C
  C482     1.0000 0.49819  0.32799  0.82798  Biso   1.000  C
  C483     1.0000 0.79265  0.48837  0.39681  Biso   1.000  C
  C484     1.0000 0.86807  0.77290  0.03572  Biso   1.000  C
  C485     1.0000 0.00412  0.34802  0.74048  Biso   1.000  C
  C486     1.0000 0.29596  0.46693  0.16703  Biso   1.000  C
  C487     1.0000 0.12933  0.25741  0.54104  Biso   1.000  C
  C488     1.0000 0.00948  0.84686  0.82739  Biso   1.000  C
  C489     1.0000 0.71394  0.97723  0.39384  Biso   1.000  C
  C490     1.0000 0.64611  0.27065  0.02937  Biso   1.000  C
  C491     1.0000 0.49317  0.82913  0.72931  Biso   1.000  C
  C492     1.0000 0.20791  0.95313  0.16775  Biso   1.000  C
  C493     1.0000 0.63581  0.18715  0.53729  Biso   1.000  C
  C494     1.0000 0.50813  0.60780  0.23036  Biso   1.000  C
  C495     1.0000 0.22116  0.47097  0.65992  Biso   1.000  C
  C496     1.0000 0.15308  0.17747  0.02502  Biso   1.000  C
  C497     1.0000 0.98251  0.60730  0.32672  Biso   1.000  C
  C498     1.0000 0.72090  0.46861  0.90050  Biso   1.000  C
  C499     1.0000 0.88628  0.69112  0.54219  Biso   1.000  C
  C500     1.0000 0.01242  0.11296  0.24728  Biso   1.000  C
  C501     1.0000 0.29926  0.96816  0.66398  Biso   1.000  C
  C502     1.0000 0.36976  0.67421  0.02927  Biso   1.000  C
  C503     1.0000 0.52220  0.11022  0.32862  Biso   1.000  C
  C504     1.0000 0.79916  0.98586  0.89757  Biso   1.000  C
  C505     1.0000 0.64185  0.47287  0.82291  Biso   1.000  C
  C506     1.0000 0.80162  0.62141  0.53470  Biso   1.000  C
  C507     1.0000 0.49677  0.76090  0.64786  Biso   1.000  C
  C508     1.0000 0.14522  0.46370  0.73685  Biso   1.000  C
  C509     1.0000 0.29532  0.59641  0.02260  Biso   1.000  C
  C510     1.0000 0.99972  0.76809  0.90095  Biso   1.000  C
  C511     1.0000 0.87966  0.98815  0.82274  Biso   1.000  C
  C512     1.0000 0.71349  0.11573  0.51466  Biso   1.000  C
  C513     1.0000 0.01363  0.27328  0.66514  Biso   1.000  C
  C514     1.0000 0.37689  0.97881  0.73669  Biso   1.000  C
  C515     1.0000 0.22139  0.09583  0.01846  Biso   1.000  C
  C516     1.0000 0.51174  0.25644  0.90808  Biso   1.000  C
  C517     1.0000 0.37551  0.46225  0.24007  Biso   1.000  C
  C518     1.0000 0.20777  0.33282  0.53946  Biso   1.000  C
  C519     1.0000 0.52337  0.17899  0.40791  Biso   1.000  C
  C520     1.0000 0.87118  0.48507  0.32070  Biso   1.000  C
  C521     1.0000 0.72188  0.34712  0.03476  Biso   1.000  C
  C522     1.0000 0.02276  0.18754  0.16954  Biso   1.000  C
  C523     1.0000 0.13368  0.97473  0.24310  Biso   1.000  C
  C524     1.0000 0.30128  0.83424  0.51174  Biso   1.000  C
  C525     1.0000 0.99327  0.68264  0.40005  Biso   1.000  C
  C526     1.0000 0.63570  0.96939  0.32180  Biso   1.000  C
  C527     1.0000 0.79602  0.84957  0.03206  Biso   1.000  C
  C528     1.0000 0.50650  0.68118  0.15201  Biso   1.000  C
  C529     1.0000 0.80384  0.11665  0.04253  Biso   1.000  C
  C530     1.0000 0.98884  0.77328  0.17047  Biso   1.000  C
  C531     1.0000 0.14610  0.98252  0.82286  Biso   1.000  C
  C532     1.0000 0.29549  0.09953  0.52630  Biso   1.000  C
  C533     1.0000 0.51183  0.77137  0.38371  Biso   1.000  C
  C534     1.0000 0.64715  0.96708  0.73874  Biso   1.000  C
  C535     1.0000 0.71378  0.60969  0.02842  Biso   1.000  C
  C536     1.0000 0.51080  0.26357  0.17070  Biso   1.000  C
  C537     1.0000 0.37538  0.45704  0.82404  Biso   1.000  C
  C538     1.0000 0.22690  0.59501  0.51606  Biso   1.000  C
  C539     1.0000 0.00884  0.26651  0.40100  Biso   1.000  C
  C540     1.0000 0.87881  0.49415  0.73896  Biso   1.000  C
  C541     1.0000 0.21354  0.83170  0.02653  Biso   1.000  C
  C542     1.0000 0.02322  0.18513  0.90138  Biso   1.000  C
  C543     1.0000 0.86888  0.97885  0.23905  Biso   1.000  C
  C544     1.0000 0.72045  0.85411  0.53417  Biso   1.000  C
  C545     1.0000 0.51060  0.17379  0.67312  Biso   1.000  C
  C546     1.0000 0.36850  0.96212  0.32034  Biso   1.000  C
  C547     1.0000 0.30053  0.33263  0.01701  Biso   1.000  C
  C548     1.0000 0.50006  0.67586  0.88264  Biso   1.000  C
  C549     1.0000 0.63579  0.47878  0.24129  Biso   1.000  C
  C550     1.0000 0.78947  0.35488  0.52002  Biso   1.000  C
  C551     1.0000 0.02352  0.68583  0.66597  Biso   1.000  C
  C552     1.0000 0.13714  0.46399  0.32173  Biso   1.000  C
  C553     1.0000 0.01994  0.11032  0.82309  Biso   1.000  C
  C554     1.0000 0.79462  0.97225  0.15949  Biso   1.000  C
  C555     1.0000 0.13333  0.75855  0.03550  Biso   1.000  C
  C556     1.0000 0.50621  0.09343  0.74617  Biso   1.000  C
  C557     1.0000 0.29577  0.95133  0.40022  Biso   1.000  C
  C558     1.0000 0.64694  0.77474  0.53134  Biso   1.000  C
  C559     1.0000 0.50534  0.59510  0.81476  Biso   1.000  C
  C560     1.0000 0.71245  0.50348  0.16692  Biso   1.000  C
  C561     1.0000 0.38146  0.26058  0.02528  Biso   1.000  C
  C562     1.0000 0.00951  0.60985  0.74051  Biso   1.000  C
  C563     1.0000 0.21103  0.45213  0.39751  Biso   1.000  C
  C564     1.0000 0.86073  0.27657  0.52019  Biso   1.000  C
  C565     1.0000 0.97773  0.85099  0.24400  Biso   1.000  C
  C566     1.0000 0.21879  0.96727  0.90211  Biso   1.000  C
  C567     1.0000 0.88202  0.19008  0.03863  Biso   1.000  C
  C568     1.0000 0.48990  0.84695  0.30693  Biso   1.000  C
  C569     1.0000 0.71918  0.99352  0.66253  Biso   1.000  C
  C570     1.0000 0.36859  0.17850  0.53133  Biso   1.000  C
  C571     1.0000 0.52096  0.34200  0.24325  Biso   1.000  C
  C572     1.0000 0.29663  0.45439  0.89901  Biso   1.000  C
  C573     1.0000 0.63463  0.68412  0.02773  Biso   1.000  C
  C574     1.0000 0.01073  0.34324  0.32484  Biso   1.000  C
  C575     1.0000 0.79744  0.47997  0.66471  Biso   1.000  C
  C576     1.0000 0.15432  0.67393  0.51823  Biso   1.000  C
  C577     1.0000 0.29568  0.46856  0.13629  Biso   1.000  C
  C578     1.0000 0.09809  0.25790  0.53852  Biso   1.000  C
  C579     1.0000 0.51762  0.07827  0.32819  Biso   1.000  C
  C580     1.0000 0.79331  0.48903  0.42912  Biso   1.000  C
  C581     1.0000 0.61422  0.27048  0.03294  Biso   1.000  C
  C582     1.0000 0.00839  0.08214  0.24742  Biso   1.000  C
  C583     1.0000 0.20895  0.95247  0.13741  Biso   1.000  C
  C584     1.0000 0.41134  0.76719  0.51716  Biso   1.000  C
  C585     1.0000 0.98254  0.57585  0.32529  Biso   1.000  C
  C586     1.0000 0.71392  0.98279  0.42453  Biso   1.000  C
  C587     1.0000 0.90070  0.77271  0.03278  Biso   1.000  C
  C588     1.0000 0.50542  0.57671  0.23022  Biso   1.000  C
  C589     1.0000 0.71874  0.46498  0.93183  Biso   1.000  C
  C590     1.0000 0.91691  0.68705  0.54328  Biso   1.000  C
  C591     1.0000 0.49420  0.86057  0.73096  Biso   1.000  C
  C592     1.0000 0.21908  0.47522  0.62805  Biso   1.000  C
  C593     1.0000 0.40167  0.67473  0.02992  Biso   1.000  C
  C594     1.0000 0.00728  0.87817  0.82871  Biso   1.000  C
  C595     1.0000 0.79906  0.98627  0.92882  Biso   1.000  C
  C596     1.0000 0.60477  0.18444  0.54287  Biso   1.000  C
  C597     1.0000 0.00244  0.37988  0.73917  Biso   1.000  C
  C598     1.0000 0.29776  0.96628  0.63245  Biso   1.000  C
  C599     1.0000 0.12087  0.17910  0.02868  Biso   1.000  C
  C600     1.0000 0.49774  0.35914  0.82564  Biso   1.000  C
  C601     1.0000 0.21653  0.96375  0.93304  Biso   1.000  C
  C602     1.0000 0.91356  0.18857  0.03990  Biso   1.000  C
  C603     1.0000 0.98196  0.88152  0.24400  Biso   1.000  C
  C604     1.0000 0.71833  0.99207  0.63092  Biso   1.000  C
  C605     1.0000 0.39965  0.17875  0.53079  Biso   1.000  C
  C606     1.0000 0.48841  0.87733  0.30966  Biso   1.000  C
  C607     1.0000 0.29478  0.46036  0.93120  Biso   1.000  C
  C608     1.0000 0.60324  0.68328  0.02326  Biso   1.000  C
  C609     1.0000 0.52207  0.37416  0.24286  Biso   1.000  C
  C610     1.0000 0.79571  0.48275  0.63303  Biso   1.000  C
  C611     1.0000 0.12323  0.67482  0.52137  Biso   1.000  C
  C612     1.0000 0.01159  0.37437  0.32603  Biso   1.000  C
  C613     1.0000 0.79581  0.96997  0.12854  Biso   1.000  C
  C614     1.0000 0.10196  0.76075  0.04189  Biso   1.000  C
  C615     1.0000 0.02023  0.07862  0.82342  Biso   1.000  C
  C616     1.0000 0.29763  0.95142  0.43045  Biso   1.000  C
  C617     1.0000 0.61496  0.77445  0.53195  Biso   1.000  C
  C618     1.0000 0.50789  0.06231  0.74316  Biso   1.000  C
  C619     1.0000 0.71257  0.50106  0.13348  Biso   1.000  C
  C620     1.0000 0.41286  0.26170  0.02890  Biso   1.000  C
  C621     1.0000 0.50896  0.56381  0.81710  Biso   1.000  C
  C622     1.0000 0.21158  0.45456  0.42935  Biso   1.000  C
  C623     1.0000 0.89209  0.27668  0.52255  Biso   1.000  C
  C624     1.0000 0.01030  0.57881  0.73939  Biso   1.000  C
  C625     1.0000 0.01975  0.18687  0.93178  Biso   1.000  C
  C626     1.0000 0.90071  0.98225  0.23835  Biso   1.000  C
  C627     1.0000 0.21466  0.86323  0.02567  Biso   1.000  C
  C628     1.0000 0.51054  0.17686  0.64242  Biso   1.000  C
  C629     1.0000 0.39942  0.97008  0.32081  Biso   1.000  C
  C630     1.0000 0.71685  0.88511  0.53319  Biso   1.000  C
  C631     1.0000 0.49998  0.67980  0.91523  Biso   1.000  C
  C632     1.0000 0.60501  0.47251  0.24130  Biso   1.000  C
  C633     1.0000 0.29815  0.36385  0.02235  Biso   1.000  C
  C634     1.0000 0.02873  0.68490  0.63293  Biso   1.000  C
  C635     1.0000 0.10580  0.46751  0.32169  Biso   1.000  C
  C636     1.0000 0.79121  0.38586  0.52429  Biso   1.000  C
  C637     1.0000 0.99613  0.77364  0.13889  Biso   1.000  C
  C638     1.0000 0.11317  0.98238  0.82255  Biso   1.000  C
  C639     1.0000 0.80470  0.08563  0.04018  Biso   1.000  C
  C640     1.0000 0.51118  0.77148  0.41525  Biso   1.000  C
  C641     1.0000 0.61501  0.95902  0.73804  Biso   1.000  C
  C642     1.0000 0.29568  0.06817  0.52452  Biso   1.000  C
  C643     1.0000 0.51017  0.26478  0.13852  Biso   1.000  C
  C644     1.0000 0.40644  0.45930  0.82558  Biso   1.000  C
  C645     1.0000 0.71480  0.57863  0.02858  Biso   1.000  C
  C646     1.0000 0.00950  0.26552  0.43241  Biso   1.000  C
  C647     1.0000 0.91061  0.49701  0.73477  Biso   1.000  C
  C648     1.0000 0.22518  0.56429  0.51919  Biso   1.000  C
  C649     1.0000 0.99974  0.68096  0.43129  Biso   1.000  C
  C650     1.0000 0.40874  0.97592  0.73725  Biso   1.000  C
  C651     1.0000 0.72143  0.37881  0.03954  Biso   1.000  C
  C652     1.0000 0.50534  0.67838  0.12154  Biso   1.000  C
  C653     1.0000 0.91019  0.98801  0.82519  Biso   1.000  C
  C654     1.0000 0.20685  0.36321  0.53898  Biso   1.000  C
  C655     1.0000 0.52377  0.17832  0.43872  Biso   1.000  C
  C656     1.0000 0.11353  0.46477  0.73882  Biso   1.000  C
  C657     1.0000 0.79605  0.88142  0.03125  Biso   1.000  C
  C658     1.0000 0.02414  0.18634  0.13756  Biso   1.000  C
  C659     1.0000 0.60976  0.47077  0.82221  Biso   1.000  C
  C660     1.0000 0.29913  0.86545  0.51431  Biso   1.000  C
  C661     1.0000 0.00926  0.27043  0.63366  Biso   1.000  C
  C662     1.0000 0.60343  0.97147  0.32346  Biso   1.000  C
  C663     1.0000 0.29517  0.56471  0.02241  Biso   1.000  C
  C664     1.0000 0.51714  0.26039  0.93935  Biso   1.000  C
  C665     1.0000 0.10330  0.98182  0.24151  Biso   1.000  C
  C666     1.0000 0.80109  0.58933  0.53504  Biso   1.000  C
  C667     1.0000 0.50100  0.76411  0.61737  Biso   1.000  C
  C668     1.0000 0.90248  0.48241  0.32345  Biso   1.000  C
  C669     1.0000 0.21964  0.06601  0.02369  Biso   1.000  C
  C670     1.0000 0.99917  0.76878  0.93220  Biso   1.000  C
  C671     1.0000 0.40710  0.46399  0.23880  Biso   1.000  C
  C672     1.0000 0.71688  0.08435  0.51787  Biso   1.000  C
  C673     1.0000 0.20922  0.97555  0.83775  Biso   1.000  C
  C674     1.0000 0.81892  0.17806  0.03695  Biso   1.000  C
  C675     1.0000 0.97859  0.78758  0.23346  Biso   1.000  C
  C676     1.0000 0.70781  0.98860  0.72567  Biso   1.000  C
  C677     1.0000 0.30557  0.16196  0.53027  Biso   1.000  C
  C678     1.0000 0.50192  0.78263  0.32089  Biso   1.000  C
  C679     1.0000 0.31260  0.45631  0.83671  Biso   1.000  C
  C680     1.0000 0.69886  0.67307  0.03059  Biso   1.000  C
  C681     1.0000 0.51539  0.28011  0.23425  Biso   1.000  C
  C682     1.0000 0.81343  0.48322  0.72909  Biso   1.000  C
  C683     1.0000 0.21489  0.65838  0.50793  Biso   1.000  C
  C684     1.0000 0.00831  0.28104  0.33783  Biso   1.000  C
  C685     1.0000 0.80710  0.97707  0.22528  Biso   1.000  C
  C686     1.0000 0.19838  0.77039  0.02769  Biso   1.000  C
  C687     1.0000 0.02215  0.17533  0.83715  Biso   1.000  C
  C688     1.0000 0.30548  0.95383  0.33617  Biso   1.000  C
  C689     1.0000 0.70886  0.78990  0.53002  Biso   1.000  C
  C690     1.0000 0.50863  0.15790  0.73511  Biso   1.000  C
  C691     1.0000 0.69658  0.49487  0.23139  Biso   1.000  C
  C692     1.0000 0.31918  0.26937  0.01502  Biso   1.000  C
  C693     1.0000 0.49756  0.65818  0.82211  Biso   1.000  C
  C694     1.0000 0.19893  0.45303  0.33722  Biso   1.000  C
  C695     1.0000 0.79743  0.29365  0.51845  Biso   1.000  C
  C696     1.0000 0.01511  0.67129  0.72863  Biso   1.000  C
  C697     1.0000 0.69949  0.96951  0.33447  Biso   1.000  C
  C698     1.0000 0.30656  0.66039  0.02579  Biso   1.000  C
  C699     1.0000 0.01289  0.28593  0.72838  Biso   1.000  C
  C700     1.0000 0.19463  0.96079  0.23247  Biso   1.000  C
  C701     1.0000 0.82150  0.68565  0.53413  Biso   1.000  C
  C702     1.0000 0.50509  0.26594  0.84274  Biso   1.000  C
  C703     1.0000 0.80721  0.49010  0.33515  Biso   1.000  C
  C704     1.0000 0.21450  0.15948  0.01302  Biso   1.000  C
  C705     1.0000 0.49530  0.76867  0.71191  Biso   1.000  C
  C706     1.0000 0.31104  0.46191  0.22971  Biso   1.000  C
  C707     1.0000 0.69465  0.18123  0.52152  Biso   1.000  C
  C708     1.0000 0.00671  0.78167  0.83736  Biso   1.000  C
  C709     1.0000 0.31495  0.97674  0.72603  Biso   1.000  C
  C710     1.0000 0.71152  0.28689  0.02893  Biso   1.000  C
  C711     1.0000 0.98444  0.67008  0.33797  Biso   1.000  C
  C712     1.0000 0.81588  0.99155  0.83419  Biso   1.000  C
  C713     1.0000 0.19485  0.27106  0.53796  Biso   1.000  C
  C714     1.0000 0.51085  0.67231  0.21495  Biso   1.000  C
  C715     1.0000 0.20833  0.46424  0.72224  Biso   1.000  C
  C716     1.0000 0.80547  0.78829  0.03871  Biso   1.000  C
  C717     1.0000 0.52041  0.17134  0.34594  Biso   1.000  C
  C718     1.0000 0.70669  0.47021  0.83724  Biso   1.000  C
  C719     1.0000 0.31686  0.77204  0.51077  Biso   1.000  C
  C720     1.0000 0.01848  0.17580  0.23027  Biso   1.000  C
  C721     1.0000 0.51507  0.78837  0.29278  Biso   1.000  C
  C722     1.0000 0.31638  0.47332  0.81009  Biso   1.000  C
  C723     1.0000 0.76955  0.29407  0.53467  Biso   1.000  C
  C724     1.0000 0.96144  0.76251  0.23025  Biso   1.000  C
  C725     1.0000 0.78349  0.49596  0.72769  Biso   1.000  C
  C726     1.0000 0.30108  0.26618  0.98937  Biso   1.000  C
  C727     1.0000 0.98967  0.25587  0.34084  Biso   1.000  C
  C728     1.0000 0.23775  0.99058  0.84553  Biso   1.000  C
  C729     1.0000 0.73281  0.79023  0.55041  Biso   1.000  C
  C730     1.0000 0.50048  0.28468  0.26182  Biso   1.000  C
  C731     1.0000 0.73777  0.98468  0.71832  Biso   1.000  C
  C732     1.0000 0.22041  0.77019  0.00641  Biso   1.000  C
  C733     1.0000 0.48822  0.15476  0.75896  Biso   1.000  C
  C734     1.0000 0.69749  0.47501  0.25573  Biso   1.000  C
  C735     1.0000 0.20942  0.68648  0.49169  Biso   1.000  C
  C736     1.0000 0.00623  0.20217  0.84180  Biso   1.000  C
  C737     1.0000 0.22157  0.43048  0.33851  Biso   1.000  C
  C738     1.0000 0.72662  0.66871  0.04740  Biso   1.000  C
  C739     1.0000 0.02940  0.66806  0.75746  Biso   1.000  C
  C740     1.0000 0.78055  0.96083  0.22215  Biso   1.000  C
  C741     1.0000 0.28030  0.15975  0.51266  Biso   1.000  C
  C742     1.0000 0.51684  0.65638  0.79665  Biso   1.000  C
  C743     1.0000 0.30913  0.93658  0.31089  Biso   1.000  C
  C744     1.0000 0.82128  0.20472  0.05173  Biso   1.000  C
  C745     1.0000 0.00372  0.69653  0.34008  Biso   1.000  C
  C746     1.0000 0.28692  0.99173  0.72382  Biso   1.000  C
  C747     1.0000 0.73866  0.28914  0.04383  Biso   1.000  C
  C748     1.0000 0.52683  0.69925  0.21141  Biso   1.000  C
  C749     1.0000 0.81738  0.97477  0.80821  Biso   1.000  C
  C750     1.0000 0.22141  0.27261  0.55508  Biso   1.000  C
  C751     1.0000 0.53893  0.17030  0.31973  Biso   1.000  C
  C752     1.0000 0.23392  0.44325  0.71913  Biso   1.000  C
  C753     1.0000 0.78265  0.78786  0.01711  Biso   1.000  C
  C754     1.0000 0.03318  0.17192  0.25877  Biso   1.000  C
  C755     1.0000 0.70524  0.45215  0.81140  Biso   1.000  C
  C756     1.0000 0.28898  0.77210  0.52719  Biso   1.000  C
  C757     1.0000 0.00025  0.25827  0.72641  Biso   1.000  C
  C758     1.0000 0.69635  0.98626  0.30815  Biso   1.000  C
  C759     1.0000 0.28035  0.65751  0.04290  Biso   1.000  C
  C760     1.0000 0.51806  0.27193  0.81377  Biso   1.000  C
  C761     1.0000 0.22391  0.96973  0.23006  Biso   1.000  C
  C762     1.0000 0.82747  0.71271  0.51813  Biso   1.000  C
  C763     1.0000 0.47415  0.76901  0.73633  Biso   1.000  C
  C764     1.0000 0.78415  0.51108  0.33903  Biso   1.000  C
  C765     1.0000 0.24585  0.15176  0.02302  Biso   1.000  C
  C766     1.0000 0.99135  0.78417  0.80987  Biso   1.000  C
  C767     1.0000 0.31293  0.47690  0.25735  Biso   1.000  C
  C768     1.0000 0.68653  0.20826  0.50749  Biso   1.000  C
  C769     1.0000 0.48034  0.68415  0.82402  Biso   1.000  C
  C770     1.0000 0.82228  0.46859  0.75520  Biso   1.000  C
  C771     1.0000 0.70928  0.76630  0.50770  Biso   1.000  C
  C772     1.0000 0.99810  0.69705  0.72307  Biso   1.000  C
  C773     1.0000 0.28585  0.43796  0.83693  Biso   1.000  C
  C774     1.0000 0.19808  0.74729  0.04920  Biso   1.000  C
  C775     1.0000 0.03870  0.17267  0.81019  Biso   1.000  C
  C776     1.0000 0.70125  0.99684  0.75460  Biso   1.000  C
  C777     1.0000 0.80145  0.27131  0.49696  Biso   1.000  C
  C778     1.0000 0.52843  0.18192  0.73341  Biso   1.000  C
  C779     1.0000 0.20674  0.96339  0.80847  Biso   1.000  C
  C780     1.0000 0.31503  0.24725  0.03839  Biso   1.000  C
  C781     1.0000 0.53358  0.25396  0.23220  Biso   1.000  C
  C782     1.0000 0.20018  0.47420  0.31317  Biso   1.000  C
  C783     1.0000 0.30588  0.18615  0.55011  Biso   1.000  C
  C784     1.0000 0.02716  0.28482  0.31247  Biso   1.000  C
  C785     1.0000 0.71955  0.51714  0.22998  Biso   1.000  C
  C786     1.0000 0.79291  0.17193  0.02059  Biso   1.000  C
  C787     1.0000 0.99530  0.79075  0.26157  Biso   1.000  C
  C788     1.0000 0.27682  0.96699  0.34313  Biso   1.000  C
  C789     1.0000 0.24308  0.65672  0.52155  Biso   1.000  C
  C790     1.0000 0.49023  0.75295  0.32632  Biso   1.000  C
  C791     1.0000 0.81111  0.99239  0.25247  Biso   1.000  C
  C792     1.0000 0.69751  0.69991  0.01496  Biso   1.000  C
  C793     1.0000 0.50246  0.19643  0.35057  Biso   1.000  C
  C794     1.0000 0.28531  0.44283  0.22628  Biso   1.000  C
  C795     1.0000 0.19160  0.24587  0.51848  Biso   1.000  C
  C796     1.0000 0.00076  0.20163  0.22620  Biso   1.000  C
  C797     1.0000 0.80534  0.47056  0.31153  Biso   1.000  C
  C798     1.0000 0.70842  0.26129  0.01291  Biso   1.000  C
  C799     1.0000 0.96261  0.67017  0.31435  Biso   1.000  C
  C800     1.0000 0.18951  0.94459  0.25986  Biso   1.000  C
  C801     1.0000 0.32403  0.74750  0.49170  Biso   1.000  C
  C802     1.0000 0.49435  0.66894  0.24151  Biso   1.000  C
  C803     1.0000 0.72602  0.95237  0.33737  Biso   1.000  C
  C804     1.0000 0.80567  0.76556  0.06151  Biso   1.000  C
  C805     1.0000 0.51438  0.74382  0.70883  Biso   1.000  C
  C806     1.0000 0.73465  0.48782  0.84396  Biso   1.000  C
  C807     1.0000 0.79204  0.68221  0.54640  Biso   1.000  C
  C808     1.0000 0.02313  0.75514  0.84167  Biso   1.000  C
  C809     1.0000 0.20811  0.48067  0.74932  Biso   1.000  C
  C810     1.0000 0.31054  0.68878  0.00808  Biso   1.000  C
  C811     1.0000 0.02822  0.29286  0.75510  Biso   1.000  C
  C812     1.0000 0.79296  0.01321  0.83788  Biso   1.000  C
  C813     1.0000 0.72545  0.17896  0.52672  Biso   1.000  C
  C814     1.0000 0.49413  0.23690  0.84975  Biso   1.000  C
  C815     1.0000 0.31924  0.96094  0.75343  Biso   1.000  C
  C816     1.0000 0.20999  0.18652  0.99820  Biso   1.000  C
  C817     1.0000 0.00416  0.22285  0.82030  Biso   1.000  C
  C818     1.0000 0.75971  0.95870  0.24395  Biso   1.000  C
  C819     1.0000 0.24019  0.74791  0.00547  Biso   1.000  C
  C820     1.0000 0.48968  0.17397  0.78121  Biso   1.000  C
  C821     1.0000 0.28612  0.93425  0.29202  Biso   1.000  C
  C822     1.0000 0.75435  0.76992  0.54754  Biso   1.000  C
  C823     1.0000 0.51492  0.67861  0.77483  Biso   1.000  C
  C824     1.0000 0.71960  0.47543  0.27555  Biso   1.000  C
  C825     1.0000 0.28227  0.24306  0.98453  Biso   1.000  C
  C826     1.0000 0.02595  0.68827  0.77793  Biso   1.000  C
  C827     1.0000 0.24369  0.43128  0.31602  Biso   1.000  C
  C828     1.0000 0.74875  0.27260  0.53004  Biso   1.000  C
  C829     1.0000 0.96032  0.74191  0.25223  Biso   1.000  C
  C830     1.0000 0.26008  0.99079  0.82450  Biso   1.000  C
  C831     1.0000 0.79710  0.22267  0.05226  Biso   1.000  C
  C832     1.0000 0.51727  0.76528  0.27225  Biso   1.000  C
  C833     1.0000 0.75893  0.98862  0.73798  Biso   1.000  C
  C834     1.0000 0.25920  0.18078  0.51499  Biso   1.000  C
  C835     1.0000 0.50259  0.26521  0.28492  Biso   1.000  C
  C836     1.0000 0.29785  0.47336  0.78638  Biso   1.000  C
  C837     1.0000 0.74754  0.68978  0.04881  Biso   1.000  C
  C838     1.0000 0.99134  0.23690  0.31859  Biso   1.000  C
  C839     1.0000 0.76482  0.49180  0.75154  Biso   1.000  C
  C840     1.0000 0.23136  0.70673  0.48939  Biso   1.000  C
  C841     1.0000 0.22870  0.96410  0.78827  Biso   1.000  C
  C842     1.0000 0.77151  0.19260  0.01852  Biso   1.000  C
  C843     1.0000 0.99475  0.76717  0.28074  Biso   1.000  C
  C844     1.0000 0.72327  0.99937  0.77607  Biso   1.000  C
  C845     1.0000 0.28447  0.20707  0.55110  Biso   1.000  C
  C846     1.0000 0.49257  0.73235  0.30539  Biso   1.000  C
  C847     1.0000 0.26818  0.43888  0.81206  Biso   1.000  C
  C848     1.0000 0.72031  0.72089  0.01561  Biso   1.000  C
  C849     1.0000 0.53658  0.23619  0.25683  Biso   1.000  C
  C850     1.0000 0.80319  0.46493  0.77907  Biso   1.000  C
  C851     1.0000 0.26199  0.67978  0.52194  Biso   1.000  C
  C852     1.0000 0.02798  0.26409  0.29180  Biso   1.000  C
  C853     1.0000 0.78968  0.99170  0.27328  Biso   1.000  C
  C854     1.0000 0.22009  0.72641  0.05031  Biso   1.000  C
  C855     1.0000 0.03680  0.19683  0.79058  Biso   1.000  C
  C856     1.0000 0.25439  0.96356  0.32413  Biso   1.000  C
  C857     1.0000 0.73162  0.74653  0.50615  Biso   1.000  C
  C858     1.0000 0.52888  0.19910  0.75718  Biso   1.000  C
  C859     1.0000 0.73973  0.51864  0.25150  Biso   1.000  C
  C860     1.0000 0.29753  0.22488  0.03279  Biso   1.000  C
  C861     1.0000 0.48123  0.70575  0.80239  Biso   1.000  C
  C862     1.0000 0.22211  0.47348  0.29257  Biso   1.000  C
  C863     1.0000 0.78079  0.24967  0.49427  Biso   1.000  C
  C864     1.0000 0.99533  0.71695  0.74589  Biso   1.000  C
  C865     1.0000 0.72779  0.45381  0.79219  Biso   1.000  C
  C866     1.0000 0.80782  0.73546  0.51740  Biso   1.000  C
  C867     1.0000 0.47748  0.74927  0.75818  Biso   1.000  C
  C868     1.0000 0.25453  0.44171  0.74099  Biso   1.000  C
  C869     1.0000 0.25786  0.67856  0.04240  Biso   1.000  C
  C870     1.0000 0.98935  0.76048  0.79062  Biso   1.000  C
  C871     1.0000 0.79733  0.97734  0.78777  Biso   1.000  C
  C872     1.0000 0.70541  0.23073  0.50402  Biso   1.000  C
  C873     1.0000 0.00312  0.23703  0.74761  Biso   1.000  C
  C874     1.0000 0.26599  0.99077  0.74465  Biso   1.000  C
  C875     1.0000 0.26720  0.17306  0.01913  Biso   1.000  C
  C876     1.0000 0.51870  0.24909  0.79421  Biso   1.000  C
  C877     1.0000 0.29158  0.47265  0.27891  Biso   1.000  C
  C878     1.0000 0.24143  0.25014  0.55463  Biso   1.000  C
  C879     1.0000 0.53593  0.19250  0.29940  Biso   1.000  C
  C880     1.0000 0.76214  0.51308  0.31863  Biso   1.000  C
  C881     1.0000 0.75830  0.26655  0.04348  Biso   1.000  C
  C882     1.0000 0.03049  0.19270  0.27837  Biso   1.000  C
  C883     1.0000 0.24581  0.96365  0.25027  Biso   1.000  C
  C884     1.0000 0.26919  0.74886  0.52314  Biso   1.000  C
  C885     1.0000 0.99989  0.71790  0.31962  Biso   1.000  C
  C886     1.0000 0.71725  0.98678  0.28663  Biso   1.000  C
  C887     1.0000 0.76199  0.76584  0.01737  Biso   1.000  C
  C888     1.0000 0.52402  0.72035  0.23239  Biso   1.000  C
  C889     1.0000 0.74655  0.95387  0.31477  Biso   1.000  C
  C890     1.0000 0.28993  0.70998  0.01052  Biso   1.000  C
  C891     1.0000 0.03123  0.27097  0.77715  Biso   1.000  C
  C892     1.0000 0.20992  0.93939  0.28125  Biso   1.000  C
  C893     1.0000 0.77206  0.70406  0.54225  Biso   1.000  C
  C894     1.0000 0.49519  0.21497  0.82875  Biso   1.000  C
  C895     1.0000 0.78368  0.47440  0.29028  Biso   1.000  C
  C896     1.0000 0.23299  0.20414  0.99350  Biso   1.000  C
  C897     1.0000 0.51683  0.72432  0.73151  Biso   1.000  C
  C898     1.0000 0.26592  0.43706  0.24890  Biso   1.000  C
  C899     1.0000 0.74455  0.20065  0.52206  Biso   1.000  C
  C900     1.0000 0.02589  0.73517  0.81974  Biso   1.000  C
  C901     1.0000 0.30074  0.96485  0.77611  Biso   1.000  C
  C902     1.0000 0.72663  0.23884  0.01302  Biso   1.000  C
  C903     1.0000 0.96019  0.69397  0.29652  Biso   1.000  C
  C904     1.0000 0.77267  0.01404  0.81582  Biso   1.000  C
  C905     1.0000 0.21227  0.22350  0.51805  Biso   1.000  C
  C906     1.0000 0.49548  0.68871  0.26359  Biso   1.000  C
  C907     1.0000 0.22979  0.47641  0.76958  Biso   1.000  C
  C908     1.0000 0.78567  0.74243  0.05924  Biso   1.000  C
  C909     1.0000 0.50234  0.21831  0.32957  Biso   1.000  C
  C910     1.0000 0.75716  0.48827  0.82346  Biso   1.000  C
  C911     1.0000 0.30259  0.72549  0.48845  Biso   1.000  C
  C912     1.0000 0.00202  0.22335  0.24773  Biso   1.000  C
  C913     1.0000 0.77474  0.47733  0.77577  Biso   1.000  C
  C914     1.0000 0.75622  0.75120  0.52341  Biso   1.000  C
  C915     1.0000 0.49744  0.70317  0.77742  Biso   1.000  C
  C916     1.0000 0.27348  0.45694  0.78847  Biso   1.000  C
  C917     1.0000 0.23895  0.72645  0.02678  Biso   1.000  C
  C918     1.0000 0.00949  0.71339  0.77295  Biso   1.000  C
  C919     1.0000 0.75223  0.99513  0.76780  Biso   1.000  C
  C920     1.0000 0.75455  0.25166  0.50961  Biso   1.000  C
  C921     1.0000 0.02150  0.22048  0.79661  Biso   1.000  C
  C922     1.0000 0.25300  0.98003  0.79623  Biso   1.000  C
  C923     1.0000 0.28066  0.22247  0.00672  Biso   1.000  C
  C924     1.0000 0.50923  0.19680  0.77971  Biso   1.000  C
  C925     1.0000 0.24343  0.45334  0.29496  Biso   1.000  C
  C926     1.0000 0.26031  0.20410  0.53355  Biso   1.000  C
  C927     1.0000 0.51901  0.24076  0.28085  Biso   1.000  C
  C928     1.0000 0.74062  0.49573  0.27143  Biso   1.000  C
  C929     1.0000 0.77286  0.21716  0.03403  Biso   1.000  C
  C930     1.0000 0.00990  0.23970  0.29475  Biso   1.000  C
  C931     1.0000 0.25981  0.94799  0.29959  Biso   1.000  C
  C932     1.0000 0.25754  0.70231  0.50345  Biso   1.000  C
  C933     1.0000 0.97789  0.74291  0.27626  Biso   1.000  C
  C934     1.0000 0.76445  0.97588  0.26920  Biso   1.000  C
  C935     1.0000 0.74464  0.71673  0.03381  Biso   1.000  C
  C936     1.0000 0.50537  0.73867  0.27890  Biso   1.000  C
  C937     1.0000 0.75256  0.24150  0.02868  Biso   1.000  C
  C938     1.0000 0.97746  0.71888  0.29885  Biso   1.000  C
  C939     1.0000 0.27476  0.98055  0.77278  Biso   1.000  C
  C940     1.0000 0.23760  0.22665  0.53535  Biso   1.000  C
  C941     1.0000 0.51035  0.71427  0.25916  Biso   1.000  C
  C942     1.0000 0.77378  0.99535  0.79174  Biso   1.000  C
  C943     1.0000 0.76421  0.74338  0.03732  Biso   1.000  C
  C944     1.0000 0.52061  0.21740  0.30470  Biso   1.000  C
  C945     1.0000 0.25246  0.45829  0.76514  Biso   1.000  C
  C946     1.0000 0.27708  0.72689  0.50484  Biso   1.000  C
  C947     1.0000 0.01469  0.21728  0.27365  Biso   1.000  C
  C948     1.0000 0.75335  0.47212  0.79856  Biso   1.000  C
  C949     1.0000 0.26400  0.70434  0.02685  Biso   1.000  C
  C950     1.0000 0.01850  0.24362  0.77208  Biso   1.000  C
  C951     1.0000 0.74285  0.97259  0.29179  Biso   1.000  C
  C952     1.0000 0.77924  0.72964  0.52558  Biso   1.000  C
  C953     1.0000 0.50718  0.22162  0.80116  Biso   1.000  C
  C954     1.0000 0.23844  0.94988  0.27554  Biso   1.000  C
  C955     1.0000 0.26003  0.19887  0.00633  Biso   1.000  C
  C956     1.0000 0.49693  0.72665  0.75475  Biso   1.000  C
  C957     1.0000 0.76186  0.49410  0.29441  Biso   1.000  C
  C958     1.0000 0.73587  0.22625  0.50845  Biso   1.000  C
  C959     1.0000 0.00859  0.73674  0.79487  Biso   1.000  C
  C960     1.0000 0.26795  0.45335  0.27390  Biso   1.000  C
  Cu1      1.0000 0.01020  0.47713  0.68059  Biso   1.000  Cu
  Cu2      1.0000 0.66263  0.98484  0.52940  Biso   1.000  Cu
  Cu3      1.0000 0.50442  0.62443  0.02003  Biso   1.000  Cu
  Cu4      1.0000 0.50981  0.46251  0.87887  Biso   1.000  Cu
  Cu5      1.0000 0.16250  0.96831  0.03350  Biso   1.000  Cu
  Cu6      1.0000 0.01660  0.62837  0.53465  Biso   1.000  Cu
  Cu7      1.0000 0.51128  0.96257  0.68171  Biso   1.000  Cu
  Cu8      1.0000 0.85018  0.48636  0.53093  Biso   1.000  Cu
  Cu9      1.0000 0.01296  0.13078  0.03336  Biso   1.000  Cu
  Cu10     1.0000 0.00987  0.98054  0.87952  Biso   1.000  Cu
  Cu11     1.0000 0.34929  0.46514  0.03173  Biso   1.000  Cu
  Cu12     1.0000 0.50464  0.12525  0.53803  Biso   1.000  Cu
  Cu13     1.0000 0.00444  0.47722  0.38138  Biso   1.000  Cu
  Cu14     1.0000 0.35308  0.96629  0.53090  Biso   1.000  Cu
  Cu15     1.0000 0.51216  0.31830  0.03517  Biso   1.000  Cu
  Cu16     1.0000 0.50850  0.47187  0.18255  Biso   1.000  Cu
  Cu17     1.0000 0.85541  0.98247  0.03053  Biso   1.000  Cu
  Cu18     1.0000 0.99853  0.32159  0.53361  Biso   1.000  Cu
  Cu19     1.0000 0.50062  0.97456  0.37427  Biso   1.000  Cu
  Cu20     1.0000 0.15892  0.46753  0.53044  Biso   1.000  Cu
  Cu21     1.0000 0.00547  0.82508  0.03642  Biso   1.000  Cu
  Cu22     1.0000 0.00133  0.97977  0.18730  Biso   1.000  Cu
  Cu23     1.0000 0.66205  0.47653  0.03217  Biso   1.000  Cu
  Cu24     1.0000 0.51015  0.82512  0.51815  Biso   1.000  Cu
  Cu25     1.0000 0.21652  0.96739  0.03433  Biso   1.000  Cu
  Cu26     1.0000 0.01813  0.18477  0.03469  Biso   1.000  Cu
  Cu27     1.0000 0.00355  0.98086  0.24217  Biso   1.000  Cu
  Cu28     1.0000 0.71612  0.98666  0.52917  Biso   1.000  Cu
  Cu29     1.0000 0.50160  0.17880  0.53861  Biso   1.000  Cu
  Cu30     1.0000 0.50231  0.98150  0.31986  Biso   1.000  Cu
  Cu31     1.0000 0.29429  0.46368  0.03158  Biso   1.000  Cu
  Cu32     1.0000 0.50120  0.67910  0.01944  Biso   1.000  Cu
  Cu33     1.0000 0.50649  0.47364  0.23727  Biso   1.000  Cu
  Cu34     1.0000 0.79794  0.48793  0.53387  Biso   1.000  Cu
  Cu35     1.0000 0.01919  0.68263  0.53134  Biso   1.000  Cu
  Cu36     1.0000 0.00249  0.47730  0.32751  Biso   1.000  Cu
  Cu37     1.0000 0.80116  0.98275  0.02966  Biso   1.000  Cu
  Cu38     1.0000 0.00158  0.77210  0.03728  Biso   1.000  Cu
  Cu39     1.0000 0.01043  0.97873  0.82448  Biso   1.000  Cu
  Cu40     1.0000 0.29832  0.96765  0.52993  Biso   1.000  Cu
  Cu41     1.0000 0.51131  0.77219  0.51845  Biso   1.000  Cu
  Cu42     1.0000 0.50948  0.96172  0.73470  Biso   1.000  Cu
  Cu43     1.0000 0.71854  0.48024  0.03118  Biso   1.000  Cu
  Cu44     1.0000 0.51445  0.26427  0.03738  Biso   1.000  Cu
  Cu45     1.0000 0.50926  0.46358  0.82542  Biso   1.000  Cu
  Cu46     1.0000 0.21279  0.46311  0.52757  Biso   1.000  Cu
  Cu47     1.0000 0.99263  0.26645  0.53499  Biso   1.000  Cu
  Cu48     1.0000 0.00963  0.47624  0.73493  Biso   1.000  Cu
  H1       1.0000 0.24968  0.74815  0.53602  Biso   1.000  H
  H2       1.0000 0.53095  0.25202  0.77365  Biso   1.000  H
  H3       1.0000 0.74591  0.53030  0.32044  Biso   1.000  H
  H4       1.0000 0.74435  0.76977  0.00268  Biso   1.000  H
  H5       1.0000 0.99069  0.21657  0.74380  Biso   1.000  H
  H6       1.0000 0.29240  0.48419  0.30012  Biso   1.000  H
  H7       1.0000 0.25982  0.25436  0.56933  Biso   1.000  H
  H8       1.0000 0.97405  0.76170  0.77235  Biso   1.000  H
  H9       1.0000 0.71253  0.99808  0.26669  Biso   1.000  H
  H10      1.0000 0.77805  0.27172  0.05647  Biso   1.000  H
  H11      1.0000 0.46167  0.75166  0.77747  Biso   1.000  H
  H12      1.0000 0.26949  0.97034  0.24424  Biso   1.000  H
  H13      1.0000 0.69641  0.25091  0.49671  Biso   1.000  H
  H14      1.0000 0.53558  0.74055  0.22529  Biso   1.000  H
  H15      1.0000 0.27142  0.42588  0.73787  Biso   1.000  H
  H16      1.0000 0.28896  0.16756  0.02482  Biso   1.000  H
  H17      1.0000 0.01439  0.73666  0.32022  Biso   1.000  H
  H18      1.0000 0.72963  0.44140  0.77212  Biso   1.000  H
  H19      1.0000 0.81347  0.75813  0.51070  Biso   1.000  H
  H20      1.0000 0.04214  0.18979  0.29926  Biso   1.000  H
  H21      1.0000 0.24572  0.00105  0.74110  Biso   1.000  H
  H22      1.0000 0.23709  0.67435  0.05147  Biso   1.000  H
  H23      1.0000 0.55141  0.19192  0.28088  Biso   1.000  H
  H24      1.0000 0.79718  0.96529  0.76677  Biso   1.000  H
  H25      1.0000 0.28087  0.99755  0.83135  Biso   1.000  H
  H26      1.0000 0.79850  0.24054  0.06786  Biso   1.000  H
  H27      1.0000 0.94702  0.72281  0.24811  Biso   1.000  H
  H28      1.0000 0.78157  0.98768  0.73192  Biso   1.000  H
  H29      1.0000 0.23981  0.17750  0.50279  Biso   1.000  H
  H30      1.0000 0.52888  0.76894  0.25129  Biso   1.000  H
  H31      1.0000 0.30393  0.48495  0.76664  Biso   1.000  H
  H32      1.0000 0.76793  0.68753  0.06091  Biso   1.000  H
  H33      1.0000 0.48950  0.26914  0.30495  Biso   1.000  H
  H34      1.0000 0.74191  0.49957  0.74958  Biso   1.000  H
  H35      1.0000 0.22963  0.72768  0.47744  Biso   1.000  H
  H36      1.0000 0.97743  0.21730  0.32039  Biso   1.000  H
  H37      1.0000 0.74148  0.94538  0.24001  Biso   1.000  H
  H38      1.0000 0.25593  0.74444  0.98839  Biso   1.000  H
  H39      1.0000 0.99220  0.24194  0.82530  Biso   1.000  H
  H40      1.0000 0.28968  0.92316  0.27210  Biso   1.000  H
  H41      1.0000 0.77161  0.76828  0.56313  Biso   1.000  H
  H42      1.0000 0.47227  0.16990  0.79747  Biso   1.000  H
  H43      1.0000 0.72183  0.46289  0.29421  Biso   1.000  H
  H44      1.0000 0.27119  0.24048  0.96527  Biso   1.000  H
  H45      1.0000 0.52854  0.67561  0.75530  Biso   1.000  H
  H46      1.0000 0.26292  0.41803  0.31675  Biso   1.000  H
  H47      1.0000 0.72878  0.27131  0.54245  Biso   1.000  H
  H48      1.0000 0.03813  0.68510  0.79895  Biso   1.000  H
  H49      1.0000 0.22033  0.48819  0.27448  Biso   1.000  H
  H50      1.0000 0.28561  0.22278  0.56871  Biso   1.000  H
  H51      1.0000 0.55358  0.21914  0.25459  Biso   1.000  H
  H52      1.0000 0.75556  0.53557  0.24907  Biso   1.000  H
  H53      1.0000 0.75412  0.18829  0.00339  Biso   1.000  H
  H54      1.0000 0.04038  0.26595  0.27209  Biso   1.000  H
  H55      1.0000 0.23401  0.97386  0.33009  Biso   1.000  H
  H56      1.0000 0.28069  0.67872  0.53703  Biso   1.000  H
  H57      1.0000 0.00746  0.76929  0.29974  Biso   1.000  H
  H58      1.0000 0.79494  0.00521  0.29170  Biso   1.000  H
  H59      1.0000 0.71838  0.73897  0.99937  Biso   1.000  H
  H60      1.0000 0.48167  0.71246  0.31150  Biso   1.000  H
  H61      1.0000 0.81118  0.45460  0.79790  Biso   1.000  H
  H62      1.0000 0.73121  0.73123  0.48985  Biso   1.000  H
  H63      1.0000 0.46728  0.72455  0.80638  Biso   1.000  H
  H64      1.0000 0.24783  0.42733  0.81254  Biso   1.000  H
  H65      1.0000 0.22101  0.71169  0.06853  Biso   1.000  H
  H66      1.0000 0.98011  0.73358  0.74189  Biso   1.000  H
  H67      1.0000 0.71827  0.00420  0.79721  Biso   1.000  H
  H68      1.0000 0.78319  0.23172  0.47986  Biso   1.000  H
  H69      1.0000 0.04870  0.19562  0.77060  Biso   1.000  H
  H70      1.0000 0.22779  0.95355  0.76770  Biso   1.000  H
  H71      1.0000 0.29866  0.20658  0.04891  Biso   1.000  H
  H72      1.0000 0.54602  0.21534  0.75451  Biso   1.000  H
  H73      1.0000 0.77794  0.49917  0.82500  Biso   1.000  H
  H74      1.0000 0.75182  0.69987  0.55354  Biso   1.000  H
  H75      1.0000 0.53342  0.70815  0.72963  Biso   1.000  H
  H76      1.0000 0.22880  0.48706  0.79048  Biso   1.000  H
  H77      1.0000 0.29232  0.72998  0.99976  Biso   1.000  H
  H78      1.0000 0.04189  0.71858  0.82353  Biso   1.000  H
  H79      1.0000 0.75305  0.02826  0.81941  Biso   1.000  H
  H80      1.0000 0.76705  0.19634  0.52723  Biso   1.000  H
  H81      1.0000 0.04450  0.27477  0.79679  Biso   1.000  H
  H82      1.0000 0.30810  0.95550  0.79686  Biso   1.000  H
  H83      1.0000 0.23061  0.22215  0.97889  Biso   1.000  H
  H84      1.0000 0.49128  0.19268  0.83550  Biso   1.000  H
  H85      1.0000 0.24882  0.42138  0.24857  Biso   1.000  H
  H86      1.0000 0.20865  0.20716  0.50231  Biso   1.000  H
  H87      1.0000 0.48611  0.23508  0.33039  Biso   1.000  H
  H88      1.0000 0.78167  0.45946  0.27276  Biso   1.000  H
  H89      1.0000 0.72254  0.22060  0.99776  Biso   1.000  H
  H90      1.0000 0.99226  0.24431  0.24422  Biso   1.000  H
  H91      1.0000 0.20410  0.92625  0.30128  Biso   1.000  H
  H92      1.0000 0.30675  0.70721  0.47357  Biso   1.000  H
  H93      1.0000 0.94176  0.69300  0.28164  Biso   1.000  H
  H94      1.0000 0.76685  0.94256  0.31775  Biso   1.000  H
  H95      1.0000 0.78843  0.72761  0.07726  Biso   1.000  H
  H96      1.0000 0.47861  0.68487  0.27915  Biso   1.000  H
  H97      1.0000 0.87514  0.98483  0.94267  Biso   1.000  H
  H98      1.0000 0.91377  0.84564  0.02715  Biso   1.000  H
  H99      1.0000 0.00332  0.88516  0.90367  Biso   1.000  H
  H100     1.0000 0.37173  0.96599  0.61969  Biso   1.000  H
  H101     1.0000 0.41449  0.84228  0.52613  Biso   1.000  H
  H102     1.0000 0.50012  0.87768  0.65756  Biso   1.000  H
  H103     1.0000 0.64185  0.46705  0.94155  Biso   1.000  H
  H104     1.0000 0.60372  0.34408  0.04447  Biso   1.000  H
  H105     1.0000 0.51166  0.37162  0.90007  Biso   1.000  H
  H106     1.0000 0.14308  0.47412  0.62240  Biso   1.000  H
  H107     1.0000 0.09018  0.33469  0.54491  Biso   1.000  H
  H108     1.0000 0.99220  0.38320  0.66356  Biso   1.000  H
  H109     1.0000 0.13668  0.97298  0.12541  Biso   1.000  H
  H110     1.0000 0.10606  0.10519  0.03619  Biso   1.000  H
  H111     1.0000 0.00348  0.06980  0.17235  Biso   1.000  H
  H112     1.0000 0.63901  0.98208  0.43600  Biso   1.000  H
  H113     1.0000 0.60124  0.10961  0.55524  Biso   1.000  H
  H114     1.0000 0.50437  0.06310  0.40087  Biso   1.000  H
  H115     1.0000 0.36931  0.46819  0.12097  Biso   1.000  H
  H116     1.0000 0.41342  0.60046  0.02316  Biso   1.000  H
  H117     1.0000 0.51904  0.56588  0.15700  Biso   1.000  H
  H118     1.0000 0.87290  0.48607  0.43693  Biso   1.000  H
  H119     1.0000 0.92011  0.61172  0.53171  Biso   1.000  H
  H120     1.0000 0.00560  0.56667  0.39883  Biso   1.000  H
  H121     1.0000 0.10221  0.97363  0.89749  Biso   1.000  H
  H122     1.0000 0.87924  0.07126  0.03888  Biso   1.000  H
  H123     1.0000 0.99177  0.84743  0.12468  Biso   1.000  H
  H124     1.0000 0.60371  0.96810  0.66131  Biso   1.000  H
  H125     1.0000 0.37274  0.05961  0.53327  Biso   1.000  H
  H126     1.0000 0.50368  0.84582  0.42564  Biso   1.000  H
  H127     1.0000 0.41785  0.47324  0.89896  Biso   1.000  H
  H128     1.0000 0.63879  0.56466  0.02944  Biso   1.000  H
  H129     1.0000 0.51224  0.34048  0.12981  Biso   1.000  H
  H130     1.0000 0.91927  0.49079  0.66022  Biso   1.000  H
  H131     1.0000 0.15168  0.55697  0.53522  Biso   1.000  H
  H132     1.0000 0.01150  0.34085  0.44291  Biso   1.000  H
  H133     1.0000 0.91239  0.97969  0.16217  Biso   1.000  H
  H134     1.0000 0.14023  0.87730  0.02294  Biso   1.000  H
  H135     1.0000 0.01590  0.11125  0.94508  Biso   1.000  H
  H136     1.0000 0.40913  0.98025  0.39736  Biso   1.000  H
  H137     1.0000 0.64048  0.89359  0.52608  Biso   1.000  H
  H138     1.0000 0.51118  0.10345  0.62690  Biso   1.000  H
  H139     1.0000 0.59788  0.47962  0.16383  Biso   1.000  H
  H140     1.0000 0.37162  0.37857  0.03437  Biso   1.000  H
  H141     1.0000 0.50113  0.60511  0.93129  Biso   1.000  H
  H142     1.0000 0.09040  0.46426  0.39598  Biso   1.000  H
  H143     1.0000 0.86613  0.39318  0.53437  Biso   1.000  H
  H144     1.0000 0.03529  0.61118  0.62558  Biso   1.000  H
  H145     1.0000 0.60117  0.47103  0.89867  Biso   1.000  H
  H146     1.0000 0.87652  0.57350  0.53458  Biso   1.000  H
  H147     1.0000 0.49513  0.84043  0.61400  Biso   1.000  H
  H148     1.0000 0.10130  0.46987  0.66327  Biso   1.000  H
  H149     1.0000 0.37076  0.55739  0.02694  Biso   1.000  H
  H150     1.0000 0.00383  0.84420  0.94417  Biso   1.000  H
  H151     1.0000 0.91776  0.98726  0.90040  Biso   1.000  H
  H152     1.0000 0.64647  0.06926  0.54727  Biso   1.000  H
  H153     1.0000 0.99430  0.34619  0.62220  Biso   1.000  H
  H154     1.0000 0.41801  0.96668  0.66165  Biso   1.000  H
  H155     1.0000 0.14261  0.06073  0.03644  Biso   1.000  H
  H156     1.0000 0.51258  0.33565  0.94503  Biso   1.000  H
  H157     1.0000 0.41377  0.46130  0.16147  Biso   1.000  H
  H158     1.0000 0.13271  0.37635  0.54378  Biso   1.000  H
  H159     1.0000 0.51024  0.10385  0.44699  Biso   1.000  H
  H160     1.0000 0.91436  0.47864  0.40018  Biso   1.000  H
  H161     1.0000 0.64554  0.38358  0.04878  Biso   1.000  H
  H162     1.0000 0.01600  0.11191  0.12654  Biso   1.000  H
  H163     1.0000 0.09325  0.98160  0.16693  Biso   1.000  H
  H164     1.0000 0.37584  0.87801  0.52001  Biso   1.000  H
  H165     1.0000 0.00696  0.60792  0.44490  Biso   1.000  H
  H166     1.0000 0.59593  0.98062  0.39749  Biso   1.000  H
  H167     1.0000 0.87243  0.89271  0.03504  Biso   1.000  H
  H168     1.0000 0.51437  0.60555  0.11193  Biso   1.000  H
  H169     1.0000 0.02605  0.06878  0.89724  Biso   1.000  H
  H170     1.0000 0.87256  0.97363  0.12017  Biso   1.000  H
  H171     1.0000 0.09683  0.83606  0.03611  Biso   1.000  H
  H172     1.0000 0.51451  0.05747  0.66819  Biso   1.000  H
  H173     1.0000 0.37087  0.97573  0.43331  Biso   1.000  H
  H174     1.0000 0.60163  0.84635  0.51858  Biso   1.000  H
  H175     1.0000 0.50898  0.55638  0.89210  Biso   1.000  H
  H176     1.0000 0.64027  0.48227  0.12230  Biso   1.000  H
  H177     1.0000 0.41679  0.33881  0.03827  Biso   1.000  H
  H178     1.0000 0.03077  0.56941  0.66542  Biso   1.000  H
  H179     1.0000 0.13480  0.45964  0.44188  Biso   1.000  H
  H180     1.0000 0.90343  0.35086  0.53591  Biso   1.000  H
  H181     1.0000 0.98835  0.89216  0.16690  Biso   1.000  H
  H182     1.0000 0.14001  0.96354  0.94023  Biso   1.000  H
  H183     1.0000 0.92345  0.11397  0.03868  Biso   1.000  H
  H184     1.0000 0.49691  0.88530  0.38515  Biso   1.000  H
  H185     1.0000 0.64103  0.97520  0.62362  Biso   1.000  H
  H186     1.0000 0.40981  0.10200  0.54149  Biso   1.000  H
  H187     1.0000 0.51915  0.38218  0.16848  Biso   1.000  H
  H188     1.0000 0.37179  0.47074  0.94340  Biso   1.000  H
  H189     1.0000 0.59536  0.60743  0.01806  Biso   1.000  H
  H190     1.0000 0.01237  0.38366  0.40256  Biso   1.000  H
  H191     1.0000 0.87135  0.49106  0.62038  Biso   1.000  H
  H192     1.0000 0.10629  0.60341  0.53583  Biso   1.000  H
  H193     1.0000 0.28124  0.82090  0.50840  Biso   1.000  H
  H194     1.0000 0.51115  0.23451  0.90029  Biso   1.000  H
  H195     1.0000 0.86042  0.48345  0.29842  Biso   1.000  H
  H196     1.0000 0.77460  0.83667  0.03240  Biso   1.000  H
  H197     1.0000 0.02316  0.25336  0.67488  Biso   1.000  H
  H198     1.0000 0.36485  0.46069  0.26027  Biso   1.000  H
  H199     1.0000 0.22878  0.32261  0.53196  Biso   1.000  H
  H200     1.0000 0.99844  0.74814  0.88949  Biso   1.000  H
  H201     1.0000 0.64271  0.96568  0.30048  Biso   1.000  H
  H202     1.0000 0.74384  0.33862  0.03140  Biso   1.000  H
  H203     1.0000 0.49391  0.74005  0.65846  Biso   1.000  H
  H204     1.0000 0.14345  0.97263  0.26532  Biso   1.000  H
  H205     1.0000 0.72912  0.12922  0.50273  Biso   1.000  H
  H206     1.0000 0.50230  0.70227  0.16152  Biso   1.000  H
  H207     1.0000 0.15709  0.45838  0.75632  Biso   1.000  H
  H208     1.0000 0.24347  0.10382  0.01322  Biso   1.000  H
  H209     1.0000 0.98762  0.70276  0.38982  Biso   1.000  H
  H210     1.0000 0.65504  0.47471  0.80256  Biso   1.000  H
  H211     1.0000 0.78127  0.63461  0.53238  Biso   1.000  H
  H212     1.0000 0.02598  0.20696  0.18112  Biso   1.000  H
  H213     1.0000 0.36667  0.98177  0.75738  Biso   1.000  H
  H214     1.0000 0.27618  0.60779  0.01467  Biso   1.000  H
  H215     1.0000 0.52820  0.19866  0.39667  Biso   1.000  H
  H216     1.0000 0.87016  0.99227  0.80127  Biso   1.000  H
  H217     1.0000 0.23309  0.45352  0.38782  Biso   1.000  H
  H218     1.0000 0.35618  0.19938  0.53385  Biso   1.000  H
  H219     1.0000 0.52196  0.33208  0.26436  Biso   1.000  H
  H220     1.0000 0.73236  0.50436  0.17889  Biso   1.000  H
  H221     1.0000 0.87049  0.21017  0.03812  Biso   1.000  H
  H222     1.0000 0.00806  0.33136  0.30474  Biso   1.000  H
  H223     1.0000 0.27389  0.94696  0.39140  Biso   1.000  H
  H224     1.0000 0.16509  0.69491  0.51557  Biso   1.000  H
  H225     1.0000 0.97246  0.84073  0.26463  Biso   1.000  H
  H226     1.0000 0.77350  0.97683  0.17172  Biso   1.000  H
  H227     1.0000 0.64351  0.70713  0.02909  Biso   1.000  H
  H228     1.0000 0.48653  0.83758  0.28607  Biso   1.000  H
  H229     1.0000 0.77735  0.47423  0.67610  Biso   1.000  H
  H230     1.0000 0.65770  0.75331  0.53466  Biso   1.000  H
  H231     1.0000 0.50661  0.60488  0.79389  Biso   1.000  H
  H232     1.0000 0.27518  0.44987  0.89052  Biso   1.000  H
  H233     1.0000 0.14265  0.73688  0.03371  Biso   1.000  H
  H234     1.0000 0.00350  0.62092  0.76078  Biso   1.000  H
  H235     1.0000 0.74021  0.00377  0.67267  Biso   1.000  H
  H236     1.0000 0.85067  0.25541  0.51824  Biso   1.000  H
  H237     1.0000 0.01866  0.12216  0.80110  Biso   1.000  H
  H238     1.0000 0.23951  0.96994  0.89139  Biso   1.000  H
  H239     1.0000 0.36939  0.24105  0.02452  Biso   1.000  H
  H240     1.0000 0.50503  0.10267  0.76804  Biso   1.000  H
  H241     1.0000 0.74147  0.46596  0.88778  Biso   1.000  H
  H242     1.0000 0.87628  0.71384  0.54541  Biso   1.000  H
  H243     1.0000 0.49065  0.81643  0.75053  Biso   1.000  H
  H244     1.0000 0.24305  0.47151  0.66889  Biso   1.000  H
  H245     1.0000 0.35766  0.69441  0.02965  Biso   1.000  H
  H246     1.0000 0.01091  0.83747  0.80593  Biso   1.000  H
  H247     1.0000 0.77807  0.98715  0.88638  Biso   1.000  H
  H248     1.0000 0.64576  0.20811  0.53771  Biso   1.000  H
  H249     1.0000 0.00121  0.33913  0.76204  Biso   1.000  H
  H250     1.0000 0.28009  0.96940  0.67665  Biso   1.000  H
  H251     1.0000 0.16465  0.19784  0.02377  Biso   1.000  H
  H252     1.0000 0.49222  0.31543  0.80952  Biso   1.000  H
  H253     1.0000 0.27479  0.46888  0.17741  Biso   1.000  H
  H254     1.0000 0.13974  0.23630  0.54229  Biso   1.000  H
  H255     1.0000 0.52498  0.12178  0.30799  Biso   1.000  H
  H256     1.0000 0.77169  0.48943  0.38557  Biso   1.000  H
  H257     1.0000 0.65779  0.25029  0.03066  Biso   1.000  H
  H258     1.0000 0.01115  0.12366  0.26791  Biso   1.000  H
  H259     1.0000 0.22717  0.94974  0.17914  Biso   1.000  H
  H260     1.0000 0.37069  0.74215  0.51464  Biso   1.000  H
  H261     1.0000 0.97954  0.62033  0.30425  Biso   1.000  H
  H262     1.0000 0.73335  0.97660  0.37987  Biso   1.000  H
  H263     1.0000 0.85496  0.75413  0.03655  Biso   1.000  H
  H264     1.0000 0.51116  0.62042  0.25042  Biso   1.000  H
  H265     1.0000 0.02946  0.20677  0.89170  Biso   1.000  H
  H266     1.0000 0.85896  0.97299  0.25929  Biso   1.000  H
  H267     1.0000 0.23274  0.81816  0.02837  Biso   1.000  H
  H268     1.0000 0.51010  0.19398  0.68529  Biso   1.000  H
  H269     1.0000 0.35881  0.95520  0.29917  Biso   1.000  H
  H270     1.0000 0.74192  0.84461  0.53941  Biso   1.000  H
  H271     1.0000 0.50354  0.69423  0.86922  Biso   1.000  H
  H272     1.0000 0.64517  0.48062  0.26260  Biso   1.000  H
  H273     1.0000 0.28047  0.32140  0.01316  Biso   1.000  H
  H274     1.0000 0.02081  0.70498  0.67900  Biso   1.000  H
  H275     1.0000 0.15113  0.46405  0.30263  Biso   1.000  H
  H276     1.0000 0.76903  0.34526  0.51583  Biso   1.000  H
  H277     1.0000 0.98611  0.75197  0.18016  Biso   1.000  H
  H278     1.0000 0.15809  0.98946  0.80360  Biso   1.000  H
  H279     1.0000 0.78311  0.12807  0.04508  Biso   1.000  H
  H280     1.0000 0.51677  0.75209  0.37182  Biso   1.000  H
  H281     1.0000 0.65817  0.96256  0.75945  Biso   1.000  H
  H282     1.0000 0.27518  0.11050  0.52454  Biso   1.000  H
  H283     1.0000 0.51253  0.24429  0.18232  Biso   1.000  H
  H284     1.0000 0.36477  0.45139  0.80447  Biso   1.000  H
  H285     1.0000 0.73505  0.62171  0.02880  Biso   1.000  H
  H286     1.0000 0.00895  0.24670  0.38965  Biso   1.000  H
  H287     1.0000 0.86946  0.49400  0.76082  Biso   1.000  H
  H288     1.0000 0.24770  0.60408  0.51157  Biso   1.000  H
  H289     1.0000 0.11010  0.20039  0.02534  Biso   1.000  H
  H290     1.0000 0.00435  0.06977  0.26698  Biso   1.000  H
  H291     1.0000 0.22957  0.94596  0.12856  Biso   1.000  H
  H292     1.0000 0.59365  0.20602  0.54511  Biso   1.000  H
  H293     1.0000 0.51946  0.06887  0.30696  Biso   1.000  H
  H294     1.0000 0.73548  0.98535  0.43397  Biso   1.000  H
  H295     1.0000 0.41306  0.69519  0.03526  Biso   1.000  H
  H296     1.0000 0.50226  0.56887  0.25192  Biso   1.000  H
  H297     1.0000 0.27548  0.47191  0.12426  Biso   1.000  H
  H298     1.0000 0.92912  0.70717  0.54735  Biso   1.000  H
  H299     1.0000 0.97636  0.56366  0.30769  Biso   1.000  H
  H300     1.0000 0.77182  0.48667  0.43950  Biso   1.000  H
  H301     1.0000 0.91231  0.75205  0.03206  Biso   1.000  H
  H302     1.0000 0.00648  0.88992  0.80863  Biso   1.000  H
  H303     1.0000 0.77929  0.98950  0.94126  Biso   1.000  H
  H304     1.0000 0.42395  0.74670  0.51514  Biso   1.000  H
  H305     1.0000 0.49898  0.87290  0.75237  Biso   1.000  H
  H306     1.0000 0.27672  0.96223  0.61984  Biso   1.000  H
  H307     1.0000 0.60430  0.24942  0.03392  Biso   1.000  H
  H308     1.0000 0.49314  0.37051  0.80535  Biso   1.000  H
  H309     1.0000 0.73869  0.46276  0.94370  Biso   1.000  H
  H310     1.0000 0.08481  0.23834  0.54101  Biso   1.000  H
  H311     1.0000 0.00349  0.39164  0.76118  Biso   1.000  H
  H312     1.0000 0.23782  0.48397  0.61399  Biso   1.000  H
  H313     1.0000 0.23699  0.96346  0.94513  Biso   1.000  H
  H314     1.0000 0.92449  0.21005  0.03861  Biso   1.000  H
  H315     1.0000 0.98206  0.89449  0.26263  Biso   1.000  H
  H316     1.0000 0.73862  0.99624  0.61873  Biso   1.000  H
  H317     1.0000 0.40926  0.19995  0.53016  Biso   1.000  H
  H318     1.0000 0.48707  0.89038  0.28875  Biso   1.000  H
  H319     1.0000 0.27280  0.46046  0.93995  Biso   1.000  H
  H320     1.0000 0.59036  0.70191  0.02269  Biso   1.000  H
  H321     1.0000 0.52401  0.38412  0.26404  Biso   1.000  H
  H322     1.0000 0.77599  0.48014  0.62250  Biso   1.000  H
  H323     1.0000 0.11264  0.69544  0.52396  Biso   1.000  H
  H324     1.0000 0.00860  0.38425  0.30532  Biso   1.000  H
  H325     1.0000 0.77578  0.97052  0.11653  Biso   1.000  H
  H326     1.0000 0.08837  0.74143  0.04294  Biso   1.000  H
  H327     1.0000 0.01802  0.06674  0.80301  Biso   1.000  H
  H328     1.0000 0.27813  0.94728  0.44359  Biso   1.000  H
  H329     1.0000 0.60424  0.75582  0.54087  Biso   1.000  H
  H330     1.0000 0.50257  0.04932  0.76222  Biso   1.000  H
  H331     1.0000 0.73432  0.50628  0.12426  Biso   1.000  H
  H332     1.0000 0.42534  0.24199  0.03259  Biso   1.000  H
  H333     1.0000 0.51048  0.55205  0.79776  Biso   1.000  H
  H334     1.0000 0.23269  0.45872  0.44069  Biso   1.000  H
  H335     1.0000 0.90160  0.25571  0.52069  Biso   1.000  H
  H336     1.0000 0.00344  0.56690  0.75875  Biso   1.000  H
  H337     1.0000 0.01955  0.20795  0.94251  Biso   1.000  H
  H338     1.0000 0.90940  0.98263  0.26022  Biso   1.000  H
  H339     1.0000 0.23725  0.87213  0.02692  Biso   1.000  H
  H340     1.0000 0.51262  0.19880  0.63128  Biso   1.000  H
  H341     1.0000 0.41315  0.96984  0.30178  Biso   1.000  H
  H342     1.0000 0.73752  0.89773  0.53352  Biso   1.000  H
  H343     1.0000 0.49899  0.69989  0.92538  Biso   1.000  H
  H344     1.0000 0.59281  0.47082  0.26074  Biso   1.000  H
  H345     1.0000 0.27691  0.37312  0.02378  Biso   1.000  H
  H346     1.0000 0.03158  0.70492  0.62186  Biso   1.000  H
  H347     1.0000 0.09384  0.47115  0.30211  Biso   1.000  H
  H348     1.0000 0.77099  0.39667  0.52125  Biso   1.000  H
  H349     1.0000 0.99486  0.75375  0.12568  Biso   1.000  H
  H350     1.0000 0.10204  0.98485  0.80291  Biso   1.000  H
  H351     1.0000 0.78490  0.07399  0.04143  Biso   1.000  H
  H352     1.0000 0.51805  0.75024  0.42671  Biso   1.000  H
  H353     1.0000 0.60243  0.95479  0.75772  Biso   1.000  H
  H354     1.0000 0.27579  0.05755  0.52236  Biso   1.000  H
  H355     1.0000 0.51056  0.24255  0.12903  Biso   1.000  H
  H356     1.0000 0.42102  0.45892  0.80713  Biso   1.000  H
  H357     1.0000 0.73473  0.56526  0.02455  Biso   1.000  H
  H358     1.0000 0.00973  0.24432  0.44340  Biso   1.000  H
  H359     1.0000 0.92466  0.50268  0.75202  Biso   1.000  H
  H360     1.0000 0.24652  0.55434  0.52080  Biso   1.000  H
  H361     1.0000 0.00201  0.70071  0.44420  Biso   1.000  H
  H362     1.0000 0.41930  0.97711  0.75882  Biso   1.000  H
  H363     1.0000 0.74174  0.39073  0.04047  Biso   1.000  H
  H364     1.0000 0.50534  0.69772  0.10909  Biso   1.000  H
  H365     1.0000 0.92344  0.98768  0.80397  Biso   1.000  H
  H366     1.0000 0.22867  0.37606  0.53716  Biso   1.000  H
  H367     1.0000 0.52886  0.19931  0.44970  Biso   1.000  H
  H368     1.0000 0.10063  0.46398  0.75870  Biso   1.000  H
  H369     1.0000 0.77486  0.89078  0.02655  Biso   1.000  H
  H370     1.0000 0.02683  0.20587  0.12565  Biso   1.000  H
  H371     1.0000 0.59629  0.47321  0.80272  Biso   1.000  H
  H372     1.0000 0.27941  0.87751  0.51210  Biso   1.000  H
  H373     1.0000 0.00848  0.24826  0.62618  Biso   1.000  H
  H374     1.0000 0.58890  0.97073  0.30575  Biso   1.000  H
  H375     1.0000 0.27429  0.55421  0.01554  Biso   1.000  H
  H376     1.0000 0.51751  0.24110  0.95216  Biso   1.000  H
  H377     1.0000 0.09015  0.98759  0.26018  Biso   1.000  H
  H378     1.0000 0.77887  0.58164  0.53061  Biso   1.000  H
  H379     1.0000 0.50338  0.74387  0.60421  Biso   1.000  H
  H380     1.0000 0.91301  0.47957  0.30207  Biso   1.000  H
  H381     1.0000 0.24010  0.05372  0.02067  Biso   1.000  H
  H382     1.0000 0.99714  0.74881  0.94631  Biso   1.000  H
  H383     1.0000 0.41904  0.46669  0.25795  Biso   1.000  H
  H384     1.0000 0.73746  0.07344  0.50953  Biso   1.000  H
  H385     1.0000 0.22216  0.41428  0.35440  Biso   1.000  H
  H386     1.0000 0.27690  0.14176  0.49680  Biso   1.000  H
  H387     1.0000 0.48416  0.30284  0.26402  Biso   1.000  H
  H388     1.0000 0.68082  0.45839  0.25913  Biso   1.000  H
  H389     1.0000 0.83976  0.21083  0.06322  Biso   1.000  H
  H390     1.0000 0.97595  0.25116  0.35923  Biso   1.000  H
  H391     1.0000 0.32953  0.92333  0.30485  Biso   1.000  H
  H392     1.0000 0.18907  0.69030  0.48064  Biso   1.000  H
  H393     1.0000 0.94878  0.75677  0.21082  Biso   1.000  H
  H394     1.0000 0.77588  0.94919  0.20238  Biso   1.000  H
  H395     1.0000 0.73161  0.64916  0.06008  Biso   1.000  H
  H396     1.0000 0.52432  0.80965  0.28682  Biso   1.000  H
  H397     1.0000 0.77302  0.50779  0.71012  Biso   1.000  H
  H398     1.0000 0.73256  0.80554  0.56841  Biso   1.000  H
  H399     1.0000 0.53295  0.63806  0.79438  Biso   1.000  H
  H400     1.0000 0.33469  0.48854  0.80798  Biso   1.000  H
  H401     1.0000 0.22200  0.78732  0.98936  Biso   1.000  H
  H402     1.0000 0.04269  0.64816  0.76245  Biso   1.000  H
  H403     1.0000 0.74672  0.97699  0.69764  Biso   1.000  H
  H404     1.0000 0.76464  0.31151  0.55005  Biso   1.000  H
  H405     1.0000 0.99109  0.20340  0.86131  Biso   1.000  H
  H406     1.0000 0.24187  0.00281  0.86632  Biso   1.000  H
  H407     1.0000 0.30282  0.28296  0.97409  Biso   1.000  H
  H408     1.0000 0.47025  0.13820  0.76024  Biso   1.000  H
  H409     1.0000 0.28152  0.42644  0.20844  Biso   1.000  H
  H410     1.0000 0.17330  0.24377  0.50519  Biso   1.000  H
  H411     1.0000 0.48812  0.19724  0.36875  Biso   1.000  H
  H412     1.0000 0.82230  0.45487  0.30998  Biso   1.000  H
  H413     1.0000 0.68885  0.25825  0.99862  Biso   1.000  H
  H414     1.0000 0.99010  0.20871  0.20535  Biso   1.000  H
  H415     1.0000 0.16898  0.93129  0.26106  Biso   1.000  H
  H416     1.0000 0.34272  0.74823  0.47788  Biso   1.000  H
  H417     1.0000 0.94657  0.65241  0.31125  Biso   1.000  H
  H418     1.0000 0.73072  0.93623  0.35613  Biso   1.000  H
  H419     1.0000 0.82311  0.76423  0.07874  Biso   1.000  H
  H420     1.0000 0.48124  0.65051  0.24545  Biso   1.000  H
  H421     1.0000 0.73848  0.49934  0.86302  Biso   1.000  H
  H422     1.0000 0.78403  0.66482  0.56093  Biso   1.000  H
  H423     1.0000 0.52839  0.74062  0.69101  Biso   1.000  H
  H424     1.0000 0.19251  0.49885  0.75431  Biso   1.000  H
  H425     1.0000 0.32793  0.69054  0.99271  Biso   1.000  H
  H426     1.0000 0.03509  0.75382  0.86170  Biso   1.000  H
  H427     1.0000 0.78839  0.02628  0.85768  Biso   1.000  H
  H428     1.0000 0.73392  0.15880  0.53715  Biso   1.000  H
  H429     1.0000 0.03435  0.31393  0.75838  Biso   1.000  H
  H430     1.0000 0.33846  0.94753  0.75687  Biso   1.000  H
  H431     1.0000 0.18983  0.18807  0.98583  Biso   1.000  H
  H432     1.0000 0.48249  0.23414  0.87025  Biso   1.000  H
  H433     1.0000 0.28349  0.00071  0.70231  Biso   1.000  H
  H434     1.0000 0.74502  0.30786  0.05959  Biso   1.000  H
  H435     1.0000 0.01895  0.69883  0.35854  Biso   1.000  H
  H436     1.0000 0.83437  0.95871  0.80608  Biso   1.000  H
  H437     1.0000 0.22454  0.28984  0.57099  Biso   1.000  H
  H438     1.0000 0.54162  0.70283  0.19353  Biso   1.000  H
  H439     1.0000 0.23431  0.43049  0.70003  Biso   1.000  H
  H440     1.0000 0.78230  0.80425  0.00074  Biso   1.000  H
  H441     1.0000 0.55564  0.15389  0.31575  Biso   1.000  H
  H442     1.0000 0.68601  0.44061  0.80470  Biso   1.000  H
  H443     1.0000 0.28358  0.79052  0.53953  Biso   1.000  H
  H444     1.0000 0.04575  0.15309  0.26516  Biso   1.000  H
  H445     1.0000 0.67581  0.00081  0.30622  Biso   1.000  H
  H446     1.0000 0.28077  0.63890  0.05606  Biso   1.000  H
  H447     1.0000 0.98980  0.25154  0.70615  Biso   1.000  H
  H448     1.0000 0.22984  0.98484  0.21176  Biso   1.000  H
  H449     1.0000 0.84744  0.71541  0.50715  Biso   1.000  H
  H450     1.0000 0.53087  0.29199  0.80848  Biso   1.000  H
  H451     1.0000 0.78549  0.52756  0.35667  Biso   1.000  H
  H452     1.0000 0.25203  0.13339  0.03662  Biso   1.000  H
  H453     1.0000 0.45818  0.78534  0.73899  Biso   1.000  H
  H454     1.0000 0.32753  0.49434  0.26103  Biso   1.000  H
  H455     1.0000 0.66517  0.21191  0.49678  Biso   1.000  H
  H456     1.0000 0.97848  0.80325  0.80566  Biso   1.000  H
  H457     1.0000 0.69368  0.76338  0.49032  Biso   1.000  H
  H458     1.0000 0.46469  0.68945  0.84226  Biso   1.000  H
  H459     1.0000 0.84403  0.45978  0.75607  Biso   1.000  H
  H460     1.0000 0.18140  0.74856  0.06598  Biso   1.000  H
  H461     1.0000 0.98870  0.70233  0.70327  Biso   1.000  H
  H462     1.0000 0.28064  0.42393  0.85577  Biso   1.000  H
  H463     1.0000 0.81926  0.27382  0.48266  Biso   1.000  H
  H464     1.0000 0.05312  0.15533  0.80673  Biso   1.000  H
  H465     1.0000 0.67863  0.99876  0.76215  Biso   1.000  H
  H466     1.0000 0.32767  0.24873  0.05899  Biso   1.000  H
  H467     1.0000 0.54400  0.18732  0.71585  Biso   1.000  H
  H468     1.0000 0.18659  0.95243  0.80146  Biso   1.000  H
  H469     1.0000 0.32263  0.18769  0.56731  Biso   1.000  H
  H470     1.0000 0.54728  0.25003  0.21246  Biso   1.000  H
  H471     1.0000 0.18387  0.49304  0.31302  Biso   1.000  H
  H472     1.0000 0.79185  0.15277  0.00785  Biso   1.000  H
  H473     1.0000 0.04232  0.30257  0.30883  Biso   1.000  H
  H474     1.0000 0.72124  0.53491  0.21427  Biso   1.000  H
  H475     1.0000 0.24932  0.63713  0.53516  Biso   1.000  H
  H476     1.0000 0.00610  0.81101  0.26471  Biso   1.000  H
  H477     1.0000 0.27280  0.97867  0.36255  Biso   1.000  H
  H478     1.0000 0.67742  0.70170  0.00255  Biso   1.000  H
  H479     1.0000 0.47814  0.74742  0.34630  Biso   1.000  H
  H480     1.0000 0.82935  0.00632  0.25797  Biso   1.000  H
  N1       1.0000 0.67777  0.15849  0.52511  Biso   1.000  N
  N2       1.0000 0.50971  0.65148  0.19663  Biso   1.000  N
  N3       1.0000 0.18802  0.46656  0.70379  Biso   1.000  N
  N4       1.0000 0.19336  0.14238  0.01861  Biso   1.000  N
  N5       1.0000 0.98830  0.65073  0.35726  Biso   1.000  N
  N6       1.0000 0.68567  0.47032  0.85577  Biso   1.000  N
  N7       1.0000 0.83910  0.66417  0.53712  Biso   1.000  N
  N8       1.0000 0.01873  0.15514  0.21278  Biso   1.000  N
  N9       1.0000 0.33277  0.97596  0.70609  Biso   1.000  N
  N10      1.0000 0.32620  0.64079  0.02638  Biso   1.000  N
  N11      1.0000 0.52065  0.14990  0.36372  Biso   1.000  N
  N12      1.0000 0.83329  0.98780  0.85470  Biso   1.000  N
  N13      1.0000 0.33464  0.79273  0.51310  Biso   1.000  N
  N14      1.0000 0.50616  0.28616  0.86234  Biso   1.000  N
  N15      1.0000 0.82829  0.48982  0.35369  Biso   1.000  N
  N16      1.0000 0.82727  0.80756  0.03574  Biso   1.000  N
  N17      1.0000 0.00829  0.30426  0.70797  Biso   1.000  N
  N18      1.0000 0.33081  0.46341  0.20997  Biso   1.000  N
  N19      1.0000 0.17448  0.28939  0.54096  Biso   1.000  N
  N20      1.0000 0.00651  0.80086  0.85764  Biso   1.000  N
  N21      1.0000 0.68011  0.97189  0.35319  Biso   1.000  N
  N22      1.0000 0.69030  0.30391  0.02977  Biso   1.000  N
  N23      1.0000 0.49574  0.78881  0.69337  Biso   1.000  N
  N24      1.0000 0.17598  0.96376  0.21162  Biso   1.000  N
  N25      1.0000 0.83127  0.48636  0.70783  Biso   1.000  N
  N26      1.0000 0.68870  0.80914  0.53124  Biso   1.000  N
  N27      1.0000 0.50009  0.63939  0.84289  Biso   1.000  N
  N28      1.0000 0.33116  0.45799  0.85662  Biso   1.000  N
  N29      1.0000 0.17918  0.78998  0.02909  Biso   1.000  N
  N30      1.0000 0.01755  0.65307  0.70803  Biso   1.000  N
  N31      1.0000 0.68737  0.98439  0.70703  Biso   1.000  N
  N32      1.0000 0.81862  0.31125  0.52220  Biso   1.000  N
  N33      1.0000 0.02274  0.15494  0.85619  Biso   1.000  N
  N34      1.0000 0.18810  0.97596  0.85680  Biso   1.000  N
  N35      1.0000 0.33706  0.29061  0.01866  Biso   1.000  N
  N36      1.0000 0.50886  0.13929  0.71463  Biso   1.000  N
  N37      1.0000 0.17723  0.45507  0.35493  Biso   1.000  N
  N38      1.0000 0.32603  0.14321  0.53109  Biso   1.000  N
  N39      1.0000 0.51302  0.29780  0.21303  Biso   1.000  N
  N40      1.0000 0.67804  0.49344  0.21055  Biso   1.000  N
  N41      1.0000 0.83879  0.15893  0.04053  Biso   1.000  N
  N42      1.0000 0.00870  0.29996  0.35783  Biso   1.000  N
  N43      1.0000 0.32521  0.95758  0.35474  Biso   1.000  N
  N44      1.0000 0.19441  0.63974  0.51277  Biso   1.000  N
  N45      1.0000 0.98095  0.80692  0.21372  Biso   1.000  N
  N46      1.0000 0.82588  0.97715  0.20493  Biso   1.000  N
  N47      1.0000 0.67956  0.65283  0.02974  Biso   1.000  N
  N48      1.0000 0.50021  0.80231  0.33989  Biso   1.000  N
  O1       1.0000 0.34711  0.50812  0.02630  Biso   1.000  O
  O2       1.0000 0.99694  0.31997  0.57334  Biso   1.000  O
  O3       1.0000 0.54345  0.97246  0.37409  Biso   1.000  O
  O4       1.0000 0.85006  0.52720  0.53021  Biso   1.000  O
  O5       1.0000 0.51499  0.31452  0.99459  Biso   1.000  O
  O6       1.0000 0.04346  0.97580  0.18995  Biso   1.000  O
  O7       1.0000 0.16433  0.01058  0.03661  Biso   1.000  O
  O8       1.0000 0.50819  0.82017  0.56183  Biso   1.000  O
  O9       1.0000 0.96217  0.47590  0.37801  Biso   1.000  O
  O10      1.0000 0.66833  0.02537  0.53284  Biso   1.000  O
  O11      1.0000 0.00607  0.81995  0.99477  Biso   1.000  O
  O12      1.0000 0.46591  0.46997  0.18272  Biso   1.000  O
  O13      1.0000 0.66845  0.43601  0.04036  Biso   1.000  O
  O14      1.0000 0.01205  0.62991  0.49170  Biso   1.000  O
  O15      1.0000 0.46952  0.96021  0.68560  Biso   1.000  O
  O16      1.0000 0.15730  0.42519  0.53605  Biso   1.000  O
  O17      1.0000 0.50728  0.62687  0.06173  Biso   1.000  O
  O18      1.0000 0.96808  0.98276  0.87639  Biso   1.000  O
  O19      1.0000 0.85069  0.94003  0.03109  Biso   1.000  O
  O20      1.0000 0.51078  0.12545  0.49694  Biso   1.000  O
  O21      1.0000 0.05196  0.46986  0.68791  Biso   1.000  O
  O22      1.0000 0.35018  0.92586  0.53295  Biso   1.000  O
  O23      1.0000 0.01461  0.13268  0.07584  Biso   1.000  O
  O24      1.0000 0.55246  0.46479  0.87834  Biso   1.000  O
  O25      1.0000 0.96025  0.98219  0.18625  Biso   1.000  O
  O26      1.0000 0.16485  0.92614  0.03316  Biso   1.000  O
  O27      1.0000 0.01081  0.13655  0.99323  Biso   1.000  O
  O28      1.0000 0.45748  0.97506  0.37261  Biso   1.000  O
  O29      1.0000 0.66447  0.94310  0.53037  Biso   1.000  O
  O30      1.0000 0.50485  0.12704  0.58020  Biso   1.000  O
  O31      1.0000 0.54892  0.46968  0.18567  Biso   1.000  O
  O32      1.0000 0.34807  0.42403  0.03406  Biso   1.000  O
  O33      1.0000 0.50158  0.63013  0.97699  Biso   1.000  O
  O34      1.0000 0.04748  0.47736  0.37675  Biso   1.000  O
  O35      1.0000 0.84535  0.44557  0.52977  Biso   1.000  O
  O36      1.0000 0.01820  0.63082  0.57473  Biso   1.000  O
  O37      1.0000 0.05136  0.97747  0.87539  Biso   1.000  O
  O38      1.0000 0.85463  0.02535  0.02951  Biso   1.000  O
  O39      1.0000 0.99753  0.82249  0.07586  Biso   1.000  O
  O40      1.0000 0.55343  0.96488  0.68380  Biso   1.000  O
  O41      1.0000 0.34927  0.01123  0.52992  Biso   1.000  O
  O42      1.0000 0.51275  0.82516  0.47563  Biso   1.000  O
  O43      1.0000 0.46814  0.46223  0.87489  Biso   1.000  O
  O44      1.0000 0.66466  0.51765  0.02867  Biso   1.000  O
  O45      1.0000 0.51341  0.31631  0.07694  Biso   1.000  O
  O46      1.0000 0.96885  0.48471  0.68066  Biso   1.000  O
  O47      1.0000 0.16984  0.50804  0.52238  Biso   1.000  O
  O48      1.0000 0.99837  0.31679  0.49082  Biso   1.000  O
  O49      1.0000 0.99651  0.93833  0.18936  Biso   1.000  O
  O50      1.0000 0.16366  0.96700  0.99067  Biso   1.000  O
  O51      1.0000 0.97264  0.13647  0.03313  Biso   1.000  O
  O52      1.0000 0.49687  0.93411  0.36388  Biso   1.000  O
  O53      1.0000 0.66505  0.98292  0.57202  Biso   1.000  O
  O54      1.0000 0.46247  0.12860  0.53382  Biso   1.000  O
  O55      1.0000 0.50781  0.43173  0.18873  Biso   1.000  O
  O56      1.0000 0.34456  0.46238  0.99187  Biso   1.000  O
  O57      1.0000 0.54536  0.62994  0.01653  Biso   1.000  O
  O58      1.0000 0.00582  0.43483  0.37694  Biso   1.000  O
  O59      1.0000 0.84749  0.48794  0.57499  Biso   1.000  O
  O60      1.0000 0.05886  0.62723  0.52969  Biso   1.000  O
  O61      1.0000 0.01440  0.02030  0.87522  Biso   1.000  O
  O62      1.0000 0.85206  0.98034  0.07196  Biso   1.000  O
  O63      1.0000 0.04787  0.81909  0.04174  Biso   1.000  O
  O64      1.0000 0.51193  0.00438  0.68472  Biso   1.000  O
  O65      1.0000 0.34956  0.96640  0.48740  Biso   1.000  O
  O66      1.0000 0.55131  0.82450  0.52367  Biso   1.000  O
  O67      1.0000 0.51137  0.50565  0.87338  Biso   1.000  O
  O68      1.0000 0.66294  0.48255  0.07423  Biso   1.000  O
  O69      1.0000 0.47051  0.31665  0.03838  Biso   1.000  O
  O70      1.0000 0.01585  0.51863  0.68672  Biso   1.000  O
  O71      1.0000 0.15800  0.46150  0.49021  Biso   1.000  O
  O72      1.0000 0.95580  0.32316  0.53209  Biso   1.000  O
  O73      1.0000 0.00145  0.43388  0.68209  Biso   1.000  O
  O74      1.0000 0.66609  0.98615  0.48756  Biso   1.000  O
  O75      1.0000 0.46476  0.62529  0.02270  Biso   1.000  O
  O76      1.0000 0.51138  0.42035  0.87692  Biso   1.000  O
  O77      1.0000 0.16169  0.96402  0.07744  Biso   1.000  O
  O78      1.0000 0.97495  0.63206  0.53727  Biso   1.000  O
  O79      1.0000 0.51081  0.92180  0.68345  Biso   1.000  O
  O80      1.0000 0.84861  0.48665  0.49006  Biso   1.000  O
  O81      1.0000 0.05793  0.12932  0.03188  Biso   1.000  O
  O82      1.0000 0.00337  0.93919  0.87739  Biso   1.000  O
  O83      1.0000 0.34695  0.46732  0.07368  Biso   1.000  O
  O84      1.0000 0.54712  0.12987  0.54213  Biso   1.000  O
  O85      1.0000 0.00128  0.51853  0.37890  Biso   1.000  O
  O86      1.0000 0.34811  0.97019  0.57125  Biso   1.000  O
  O87      1.0000 0.55468  0.31942  0.03542  Biso   1.000  O
  O88      1.0000 0.51184  0.51443  0.18355  Biso   1.000  O
  O89      1.0000 0.85164  0.98150  0.98912  Biso   1.000  O
  O90      1.0000 0.03903  0.31163  0.53410  Biso   1.000  O
  O91      1.0000 0.50120  0.01713  0.37328  Biso   1.000  O
  O92      1.0000 0.16540  0.47130  0.57149  Biso   1.000  O
  O93      1.0000 0.96358  0.82122  0.02964  Biso   1.000  O
  O94      1.0000 0.00599  0.02133  0.19447  Biso   1.000  O
  O95      1.0000 0.66507  0.46972  0.99033  Biso   1.000  O
  O96      1.0000 0.46770  0.82196  0.51667  Biso   1.000  O
  O97      1.0000 0.45953  0.17720  0.53652  Biso   1.000  O
  O98      1.0000 0.50734  0.43300  0.23653  Biso   1.000  O
  O99      1.0000 0.20806  0.45927  0.48756  Biso   1.000  O
  O100     1.0000 0.97249  0.18443  0.03540  Biso   1.000  O
  O101     1.0000 0.00085  0.43432  0.32872  Biso   1.000  O
  O102     1.0000 0.71172  0.48666  0.07350  Biso   1.000  O
  O103     1.0000 0.06136  0.67562  0.52474  Biso   1.000  O
  O104     1.0000 0.99509  0.94174  0.23861  Biso   1.000  O
  O105     1.0000 0.30157  0.96915  0.48899  Biso   1.000  O
  O106     1.0000 0.54350  0.67888  0.01581  Biso   1.000  O
  O107     1.0000 0.49743  0.94013  0.31680  Biso   1.000  O
  O108     1.0000 0.80239  0.97785  0.06862  Biso   1.000  O
  O109     1.0000 0.55289  0.77726  0.51976  Biso   1.000  O
  O110     1.0000 0.50856  0.50520  0.82442  Biso   1.000  O
  O111     1.0000 0.79683  0.49108  0.57566  Biso   1.000  O
  O112     1.0000 0.04422  0.76995  0.04485  Biso   1.000  O
  O113     1.0000 0.01883  0.51848  0.73480  Biso   1.000  O
  O114     1.0000 0.29552  0.46312  0.99075  Biso   1.000  O
  O115     1.0000 0.95165  0.27528  0.53127  Biso   1.000  O
  O116     1.0000 0.01288  0.01923  0.82721  Biso   1.000  O
  O117     1.0000 0.71366  0.98542  0.57046  Biso   1.000  O
  O118     1.0000 0.47294  0.26919  0.03322  Biso   1.000  O
  O119     1.0000 0.51363  0.00250  0.73307  Biso   1.000  O
  O120     1.0000 0.21234  0.96885  0.99288  Biso   1.000  O
  O121     1.0000 0.05097  0.46628  0.73631  Biso   1.000  O
  O122     1.0000 0.71745  0.02659  0.52908  Biso   1.000  O
  O123     1.0000 0.50764  0.67522  0.06102  Biso   1.000  O
  O124     1.0000 0.55032  0.46314  0.83036  Biso   1.000  O
  O125     1.0000 0.21370  0.00963  0.03605  Biso   1.000  O
  O126     1.0000 0.01199  0.67863  0.48977  Biso   1.000  O
  O127     1.0000 0.46876  0.96915  0.73398  Biso   1.000  O
  O128     1.0000 0.80134  0.52968  0.53283  Biso   1.000  O
  O129     1.0000 0.01432  0.18047  0.07666  Biso   1.000  O
  O130     1.0000 0.96864  0.97986  0.82692  Biso   1.000  O
  O131     1.0000 0.29807  0.50538  0.02874  Biso   1.000  O
  O132     1.0000 0.50190  0.17454  0.49750  Biso   1.000  O
  O133     1.0000 0.96140  0.47604  0.32766  Biso   1.000  O
  O134     1.0000 0.30204  0.92567  0.52658  Biso   1.000  O
  O135     1.0000 0.51821  0.26572  0.99649  Biso   1.000  O
  O136     1.0000 0.46704  0.47144  0.23166  Biso   1.000  O
  O137     1.0000 0.80143  0.94110  0.02423  Biso   1.000  O
  O138     1.0000 0.99261  0.27255  0.57687  Biso   1.000  O
  O139     1.0000 0.54325  0.97874  0.32608  Biso   1.000  O
  O140     1.0000 0.20574  0.42323  0.53635  Biso   1.000  O
  O141     1.0000 0.00291  0.77300  0.99488  Biso   1.000  O
  O142     1.0000 0.04346  0.97244  0.23773  Biso   1.000  O
  O143     1.0000 0.71817  0.43740  0.03889  Biso   1.000  O
  O144     1.0000 0.51033  0.77121  0.55875  Biso   1.000  O
  O145     1.0000 0.54721  0.47545  0.23481  Biso   1.000  O
  O146     1.0000 0.21852  0.50481  0.52228  Biso   1.000  O
  O147     1.0000 0.50243  0.17626  0.58099  Biso   1.000  O
  O148     1.0000 0.04326  0.47427  0.32718  Biso   1.000  O
  O149     1.0000 0.71371  0.52018  0.02601  Biso   1.000  O
  O150     1.0000 0.02212  0.18218  0.99471  Biso   1.000  O
  O151     1.0000 0.96151  0.98935  0.23508  Biso   1.000  O
  O152     1.0000 0.30015  0.00953  0.53486  Biso   1.000  O
  O153     1.0000 0.02600  0.68063  0.57219  Biso   1.000  O
  O154     1.0000 0.45997  0.98145  0.32346  Biso   1.000  O
  O155     1.0000 0.80605  0.02558  0.03638  Biso   1.000  O
  O156     1.0000 0.49640  0.67884  0.97648  Biso   1.000  O
  O157     1.0000 0.46475  0.46101  0.82605  Biso   1.000  O
  O158     1.0000 0.79746  0.44625  0.53710  Biso   1.000  O
  O159     1.0000 0.51051  0.77571  0.47573  Biso   1.000  O
  O160     1.0000 0.96977  0.48416  0.72889  Biso   1.000  O
  O161     1.0000 0.30111  0.42413  0.03383  Biso   1.000  O
  O162     1.0000 0.99460  0.77462  0.07978  Biso   1.000  O
  O163     1.0000 0.05166  0.97825  0.82622  Biso   1.000  O
  O164     1.0000 0.71170  0.94453  0.52538  Biso   1.000  O
  O165     1.0000 0.99794  0.26759  0.49342  Biso   1.000  O
  O166     1.0000 0.55193  0.95861  0.73282  Biso   1.000  O
  O167     1.0000 0.21251  0.92683  0.03312  Biso   1.000  O
  O168     1.0000 0.51408  0.26871  0.07842  Biso   1.000  O
  O169     1.0000 0.00879  0.02203  0.24301  Biso   1.000  O
  O170     1.0000 0.20943  0.96906  0.07711  Biso   1.000  O
  O171     1.0000 0.05863  0.17768  0.03826  Biso   1.000  O
  O172     1.0000 0.50583  0.02268  0.32489  Biso   1.000  O
  O173     1.0000 0.71483  0.98815  0.48617  Biso   1.000  O
  O174     1.0000 0.54595  0.17936  0.54074  Biso   1.000  O
  O175     1.0000 0.50267  0.51718  0.23174  Biso   1.000  O
  O176     1.0000 0.29766  0.46723  0.07348  Biso   1.000  O
  O177     1.0000 0.46057  0.67286  0.02477  Biso   1.000  O
  O178     1.0000 0.00368  0.51736  0.33127  Biso   1.000  O
  O179     1.0000 0.79954  0.48846  0.49206  Biso   1.000  O
  O180     1.0000 0.97735  0.67960  0.53723  Biso   1.000  O
  O181     1.0000 0.00511  0.93606  0.82792  Biso   1.000  O
  O182     1.0000 0.80428  0.99210  0.99101  Biso   1.000  O
  O183     1.0000 0.96003  0.77231  0.03093  Biso   1.000  O
  O184     1.0000 0.50453  0.91941  0.73155  Biso   1.000  O
  O185     1.0000 0.29859  0.96361  0.57222  Biso   1.000  O
  O186     1.0000 0.46884  0.77435  0.52031  Biso   1.000  O
  O187     1.0000 0.50808  0.42422  0.82824  Biso   1.000  O
  O188     1.0000 0.71444  0.47221  0.98986  Biso   1.000  O
  O189     1.0000 0.55701  0.27116  0.04076  Biso   1.000  O
  O190     1.0000 0.00173  0.43633  0.73323  Biso   1.000  O
  O191     1.0000 0.21443  0.47400  0.56838  Biso   1.000  O
  O192     1.0000 0.03370  0.26265  0.53473  Biso   1.000  O
