data_image0
_cell_length_a       46.8537
_cell_length_b       46.7131
_cell_length_c       46.6044
_cell_angle_alpha    90
_cell_angle_beta     90
_cell_angle_gamma    90

_symmetry_space_group_name_H-M    "P 1"
_symmetry_int_tables_number       1

loop_
  _symmetry_equiv_pos_as_xyz
  'x, y, z'

loop_
  _atom_site_label
  _atom_site_occupancy
  _atom_site_fract_x
  _atom_site_fract_y
  _atom_site_fract_z
  _atom_site_thermal_displace_type
  _atom_site_B_iso_or_equiv
  _atom_site_type_symbol
  C1       1.0000 0.57530  0.99608  0.33039  Biso   1.000  C
  C2       1.0000 0.35059  0.55242  0.00222  Biso   1.000  C
  C3       1.0000 0.03722  0.31635  0.55737  Biso   1.000  C
  C4       1.0000 0.07906  0.99935  0.19736  Biso   1.000  C
  C5       1.0000 0.85289  0.54743  0.51484  Biso   1.000  C
  C6       1.0000 0.52354  0.31519  0.93947  Biso   1.000  C
  C7       1.0000 0.97572  0.50713  0.33420  Biso   1.000  C
  C8       1.0000 0.20972  0.05537  0.02749  Biso   1.000  C
  C9       1.0000 0.53679  0.81635  0.58082  Biso   1.000  C
  C10      1.0000 0.47478  0.49072  0.18862  Biso   1.000  C
  C11      1.0000 0.71659  0.04296  0.50847  Biso   1.000  C
  C12      1.0000 0.03564  0.81348  0.96669  Biso   1.000  C
  C13      1.0000 0.48701  0.01402  0.69741  Biso   1.000  C
  C14      1.0000 0.71043  0.43478  0.01202  Biso   1.000  C
  C15      1.0000 0.03119  0.67807  0.46855  Biso   1.000  C
  C16      1.0000 0.98185  0.98735  0.82968  Biso   1.000  C
  C17      1.0000 0.21497  0.44589  0.50426  Biso   1.000  C
  C18      1.0000 0.53358  0.67224  0.08244  Biso   1.000  C
  C19      1.0000 0.09379  0.47215  0.69298  Biso   1.000  C
  C20      1.0000 0.84974  0.93462  0.00432  Biso   1.000  C
  C21      1.0000 0.53220  0.16969  0.44028  Biso   1.000  C
  C22      1.0000 0.59102  0.50692  0.82718  Biso   1.000  C
  C23      1.0000 0.34804  0.94608  0.52293  Biso   1.000  C
  C24      1.0000 0.01417  0.17950  0.06061  Biso   1.000  C
  C25      1.0000 0.35483  0.05337  0.52856  Biso   1.000  C
  C26      1.0000 0.52483  0.30872  0.04995  Biso   1.000  C
  C27      1.0000 0.08534  0.49629  0.33045  Biso   1.000  C
  C28      1.0000 0.84612  0.04206  0.99789  Biso   1.000  C
  C29      1.0000 0.02461  0.31684  0.44922  Biso   1.000  C
  C30      1.0000 0.58344  0.47850  0.19358  Biso   1.000  C
  C31      1.0000 0.21587  0.55528  0.51440  Biso   1.000  C
  C32      1.0000 0.03972  0.82030  0.07328  Biso   1.000  C
  C33      1.0000 0.47165  0.97154  0.34130  Biso   1.000  C
  C34      1.0000 0.71015  0.54679  0.00500  Biso   1.000  C
  C35      1.0000 0.52163  0.81314  0.47389  Biso   1.000  C
  C36      1.0000 0.97057  0.99906  0.18968  Biso   1.000  C
  C37      1.0000 0.70531  0.93530  0.49288  Biso   1.000  C
  C38      1.0000 0.54111  0.67425  0.97428  Biso   1.000  C
  C39      1.0000 0.98806  0.50338  0.68887  Biso   1.000  C
  C40      1.0000 0.21412  0.94823  0.02546  Biso   1.000  C
  C41      1.0000 0.03271  0.67519  0.57835  Biso   1.000  C
  C42      1.0000 0.48409  0.49745  0.83101  Biso   1.000  C
  C43      1.0000 0.85519  0.43708  0.51299  Biso   1.000  C
  C44      1.0000 0.02410  0.17439  0.95066  Biso   1.000  C
  C45      1.0000 0.59248  0.99037  0.69141  Biso   1.000  C
  C46      1.0000 0.34844  0.44477  0.01354  Biso   1.000  C
  C47      1.0000 0.54417  0.17413  0.54937  Biso   1.000  C
  C48      1.0000 0.09005  0.99877  0.83602  Biso   1.000  C
  C49      1.0000 0.03213  0.04255  0.83050  Biso   1.000  C
  C50      1.0000 0.84924  0.98999  0.05643  Biso   1.000  C
  C51      1.0000 0.09290  0.81952  0.01707  Biso   1.000  C
  C52      1.0000 0.55082  0.05490  0.68939  Biso   1.000  C
  C53      1.0000 0.34846  0.00153  0.47027  Biso   1.000  C
  C54      1.0000 0.57892  0.80962  0.51916  Biso   1.000  C
  C55      1.0000 0.53895  0.55848  0.83759  Biso   1.000  C
  C56      1.0000 0.70880  0.49015  0.06434  Biso   1.000  C
  C57      1.0000 0.47196  0.31402  0.99699  Biso   1.000  C
  C58      1.0000 0.05580  0.54097  0.69205  Biso   1.000  C
  C59      1.0000 0.21234  0.50220  0.45419  Biso   1.000  C
  C60      1.0000 0.98061  0.31176  0.51059  Biso   1.000  C
  C61      1.0000 0.02276  0.94601  0.19417  Biso   1.000  C
  C62      1.0000 0.21145  0.99906  0.96808  Biso   1.000  C
  C63      1.0000 0.96989  0.17244  0.99791  Biso   1.000  C
  C64      1.0000 0.53801  0.92934  0.34199  Biso   1.000  C
  C65      1.0000 0.71185  0.98534  0.55528  Biso   1.000  C
  C66      1.0000 0.48279  0.17777  0.50065  Biso   1.000  C
  C67      1.0000 0.51885  0.43147  0.18809  Biso   1.000  C
  C68      1.0000 0.35331  0.49284  0.95490  Biso   1.000  C
  C69      1.0000 0.58784  0.67061  0.03219  Biso   1.000  C
  C70      1.0000 0.02460  0.44983  0.32906  Biso   1.000  C
  C71      1.0000 0.85694  0.49357  0.56958  Biso   1.000  C
  C72      1.0000 0.08508  0.67980  0.52433  Biso   1.000  C
  C73      1.0000 0.03487  0.55882  0.33519  Biso   1.000  C
  C74      1.0000 0.35057  0.99515  0.58075  Biso   1.000  C
  C75      1.0000 0.57784  0.31511  0.99706  Biso   1.000  C
  C76      1.0000 0.53484  0.53816  0.19764  Biso   1.000  C
  C77      1.0000 0.84928  0.98887  0.94691  Biso   1.000  C
  C78      1.0000 0.08632  0.31996  0.49759  Biso   1.000  C
  C79      1.0000 0.50858  0.03611  0.33132  Biso   1.000  C
  C80      1.0000 0.21459  0.49846  0.56280  Biso   1.000  C
  C81      1.0000 0.98232  0.81781  0.02245  Biso   1.000  C
  C82      1.0000 0.02312  0.05415  0.18939  Biso   1.000  C
  C83      1.0000 0.71387  0.48858  0.95493  Biso   1.000  C
  C84      1.0000 0.47244  0.81870  0.53831  Biso   1.000  C
  C85      1.0000 0.02847  0.43760  0.68653  Biso   1.000  C
  C86      1.0000 0.70712  0.99309  0.44765  Biso   1.000  C
  C87      1.0000 0.47821  0.67164  0.02441  Biso   1.000  C
  C88      1.0000 0.53678  0.45008  0.82290  Biso   1.000  C
  C89      1.0000 0.21172  0.99979  0.07825  Biso   1.000  C
  C90      1.0000 0.97563  0.67662  0.52727  Biso   1.000  C
  C91      1.0000 0.53245  0.94703  0.70242  Biso   1.000  C
  C92      1.0000 0.84947  0.49448  0.45975  Biso   1.000  C
  C93      1.0000 0.07516  0.17919  0.01143  Biso   1.000  C
  C94      1.0000 0.03985  0.93708  0.83295  Biso   1.000  C
  C95      1.0000 0.34585  0.50252  0.06099  Biso   1.000  C
  C96      1.0000 0.59093  0.16927  0.49237  Biso   1.000  C
  C97      1.0000 0.71775  0.07522  0.51062  Biso   1.000  C
  C98      1.0000 0.53270  0.67160  0.11405  Biso   1.000  C
  C99      1.0000 0.12547  0.46509  0.69025  Biso   1.000  C
  C100     1.0000 0.20699  0.08865  0.02890  Biso   1.000  C
  C101     1.0000 0.03362  0.67940  0.43562  Biso   1.000  C
  C102     1.0000 0.62342  0.51072  0.82781  Biso   1.000  C
  C103     1.0000 0.85260  0.57975  0.51811  Biso   1.000  C
  C104     1.0000 0.01010  0.17889  0.09256  Biso   1.000  C
  C105     1.0000 0.45432  0.01940  0.69905  Biso   1.000  C
  C106     1.0000 0.34975  0.58369  0.00181  Biso   1.000  C
  C107     1.0000 0.53505  0.16840  0.40763  Biso   1.000  C
  C108     1.0000 0.95034  0.99159  0.82737  Biso   1.000  C
  C109     1.0000 0.34676  0.91470  0.52597  Biso   1.000  C
  C110     1.0000 0.52195  0.31728  0.90802  Biso   1.000  C
  C111     1.0000 0.94371  0.50487  0.33464  Biso   1.000  C
  C112     1.0000 0.84978  0.90247  0.00488  Biso   1.000  C
  C113     1.0000 0.03485  0.31217  0.58931  Biso   1.000  C
  C114     1.0000 0.44228  0.48828  0.18674  Biso   1.000  C
  C115     1.0000 0.21602  0.41421  0.50540  Biso   1.000  C
  C116     1.0000 0.03693  0.81078  0.93353  Biso   1.000  C
  C117     1.0000 0.60703  0.99819  0.32667  Biso   1.000  C
  C118     1.0000 0.70938  0.40209  0.01164  Biso   1.000  C
  C119     1.0000 0.54070  0.81842  0.61247  Biso   1.000  C
  C120     1.0000 0.11112  0.99906  0.20124  Biso   1.000  C
  C121     1.0000 0.84710  0.99434  0.08694  Biso   1.000  C
  C122     1.0000 0.12475  0.82070  0.01607  Biso   1.000  C
  C123     1.0000 0.02752  0.07402  0.82774  Biso   1.000  C
  C124     1.0000 0.34858  0.99966  0.43821  Biso   1.000  C
  C125     1.0000 0.61102  0.80878  0.52165  Biso   1.000  C
  C126     1.0000 0.55531  0.08675  0.68573  Biso   1.000  C
  C127     1.0000 0.70797  0.48558  0.09567  Biso   1.000  C
  C128     1.0000 0.43971  0.31440  0.99672  Biso   1.000  C
  C129     1.0000 0.53825  0.59049  0.84146  Biso   1.000  C
  C130     1.0000 0.21090  0.50406  0.42243  Biso   1.000  C
  C131     1.0000 0.94911  0.30970  0.51435  Biso   1.000  C
  C132     1.0000 0.06096  0.57251  0.69552  Biso   1.000  C
  C133     1.0000 0.21305  0.00042  0.93483  Biso   1.000  C
  C134     1.0000 0.93807  0.17075  0.98995  Biso   1.000  C
  C135     1.0000 0.01925  0.91498  0.19452  Biso   1.000  C
  C136     1.0000 0.71220  0.98722  0.58712  Biso   1.000  C
  C137     1.0000 0.45125  0.17794  0.50378  Biso   1.000  C
  C138     1.0000 0.54241  0.89786  0.34487  Biso   1.000  C
  C139     1.0000 0.35617  0.48818  0.92280  Biso   1.000  C
  C140     1.0000 0.62054  0.67144  0.03349  Biso   1.000  C
  C141     1.0000 0.51608  0.39948  0.18581  Biso   1.000  C
  C142     1.0000 0.85796  0.49129  0.60203  Biso   1.000  C
  C143     1.0000 0.11709  0.68130  0.52212  Biso   1.000  C
  C144     1.0000 0.02047  0.41860  0.32474  Biso   1.000  C
  C145     1.0000 0.34485  0.49887  0.09286  Biso   1.000  C
  C146     1.0000 0.11836  0.32055  0.50157  Biso   1.000  C
  C147     1.0000 0.50687  0.06847  0.32712  Biso   1.000  C
  C148     1.0000 0.84733  0.49519  0.42723  Biso   1.000  C
  C149     1.0000 0.60960  0.31209  0.99854  Biso   1.000  C
  C150     1.0000 0.02207  0.08731  0.19085  Biso   1.000  C
  C151     1.0000 0.21069  0.00400  0.10996  Biso   1.000  C
  C152     1.0000 0.43976  0.82011  0.54344  Biso   1.000  C
  C153     1.0000 0.03455  0.59162  0.33651  Biso   1.000  C
  C154     1.0000 0.70551  0.99300  0.41517  Biso   1.000  C
  C155     1.0000 0.95084  0.81590  0.02202  Biso   1.000  C
  C156     1.0000 0.53630  0.57047  0.20130  Biso   1.000  C
  C157     1.0000 0.71601  0.49037  0.92345  Biso   1.000  C
  C158     1.0000 0.94471  0.67669  0.53018  Biso   1.000  C
  C159     1.0000 0.53142  0.91446  0.70395  Biso   1.000  C
  C160     1.0000 0.21553  0.49493  0.59551  Biso   1.000  C
  C161     1.0000 0.44612  0.67390  0.02100  Biso   1.000  C
  C162     1.0000 0.04109  0.90487  0.83480  Biso   1.000  C
  C163     1.0000 0.85046  0.98750  0.91549  Biso   1.000  C
  C164     1.0000 0.62210  0.17195  0.49666  Biso   1.000  C
  C165     1.0000 0.02528  0.40476  0.68629  Biso   1.000  C
  C166     1.0000 0.35314  0.00338  0.61026  Biso   1.000  C
  C167     1.0000 0.10753  0.18000  0.01849  Biso   1.000  C
  C168     1.0000 0.53795  0.41809  0.82051  Biso   1.000  C
  C169     1.0000 0.04038  0.82188  0.10545  Biso   1.000  C
  C170     1.0000 0.12159  0.00458  0.83798  Biso   1.000  C
  C171     1.0000 0.84558  0.07452  0.99404  Biso   1.000  C
  C172     1.0000 0.53041  0.80844  0.44307  Biso   1.000  C
  C173     1.0000 0.62307  0.98743  0.68892  Biso   1.000  C
  C174     1.0000 0.35459  0.08626  0.52885  Biso   1.000  C
  C175     1.0000 0.52226  0.30811  0.08156  Biso   1.000  C
  C176     1.0000 0.45388  0.48940  0.83136  Biso   1.000  C
  C177     1.0000 0.71088  0.57863  0.00614  Biso   1.000  C
  C178     1.0000 0.02567  0.31766  0.41594  Biso   1.000  C
  C179     1.0000 0.95581  0.50841  0.68760  Biso   1.000  C
  C180     1.0000 0.21434  0.58687  0.51990  Biso   1.000  C
  C181     1.0000 0.02896  0.17210  0.91815  Biso   1.000  C
  C182     1.0000 0.93820  0.00271  0.18679  Biso   1.000  C
  C183     1.0000 0.21658  0.91594  0.02730  Biso   1.000  C
  C184     1.0000 0.55049  0.17558  0.58173  Biso   1.000  C
  C185     1.0000 0.43950  0.97113  0.34378  Biso   1.000  C
  C186     1.0000 0.70521  0.90251  0.49851  Biso   1.000  C
  C187     1.0000 0.55196  0.67718  0.94557  Biso   1.000  C
  C188     1.0000 0.61586  0.47455  0.19377  Biso   1.000  C
  C189     1.0000 0.34675  0.41319  0.00679  Biso   1.000  C
  C190     1.0000 0.03813  0.67393  0.60853  Biso   1.000  C
  C191     1.0000 0.11745  0.49385  0.32934  Biso   1.000  C
  C192     1.0000 0.85372  0.40560  0.50772  Biso   1.000  C
  C193     1.0000 0.87784  0.98884  0.90028  Biso   1.000  C
  C194     1.0000 0.93309  0.84354  0.01830  Biso   1.000  C
  C195     1.0000 0.03851  0.89051  0.86362  Biso   1.000  C
  C196     1.0000 0.38162  0.00920  0.62278  Biso   1.000  C
  C197     1.0000 0.42512  0.84839  0.53949  Biso   1.000  C
  C198     1.0000 0.52628  0.89792  0.67813  Biso   1.000  C
  C199     1.0000 0.68986  0.49656  0.90726  Biso   1.000  C
  C200     1.0000 0.62843  0.33773  0.00088  Biso   1.000  C
  C201     1.0000 0.53221  0.40011  0.84509  Biso   1.000  C
  C202     1.0000 0.19014  0.48635  0.61075  Biso   1.000  C
  C203     1.0000 0.13579  0.34783  0.50158  Biso   1.000  C
  C204     1.0000 0.03255  0.38826  0.65913  Biso   1.000  C
  C205     1.0000 0.18353  0.00346  0.12574  Biso   1.000  C
  C206     1.0000 0.12341  0.15322  0.02286  Biso   1.000  C
  C207     1.0000 0.01733  0.10211  0.16437  Biso   1.000  C
  C208     1.0000 0.67666  0.99509  0.40187  Biso   1.000  C
  C209     1.0000 0.63873  0.14526  0.49857  Biso   1.000  C
  C210     1.0000 0.51885  0.08626  0.34937  Biso   1.000  C
  C211     1.0000 0.37233  0.49842  0.10902  Biso   1.000  C
  C212     1.0000 0.42909  0.64888  0.01298  Biso   1.000  C
  C213     1.0000 0.53553  0.58829  0.17663  Biso   1.000  C
  C214     1.0000 0.87374  0.49734  0.41167  Biso   1.000  C
  C215     1.0000 0.92770  0.65077  0.52191  Biso   1.000  C
  C216     1.0000 0.03084  0.60469  0.36401  Biso   1.000  C
  C217     1.0000 0.13868  0.00546  0.86481  Biso   1.000  C
  C218     1.0000 0.87278  0.09046  0.98812  Biso   1.000  C
  C219     1.0000 0.03413  0.84881  0.11977  Biso   1.000  C
  C220     1.0000 0.63724  0.98677  0.66102  Biso   1.000  C
  C221     1.0000 0.38195  0.10095  0.52566  Biso   1.000  C
  C222     1.0000 0.53524  0.83353  0.42469  Biso   1.000  C
  C223     1.0000 0.43740  0.49167  0.85800  Biso   1.000  C
  C224     1.0000 0.68419  0.59547  0.00963  Biso   1.000  C
  C225     1.0000 0.52051  0.33503  0.09835  Biso   1.000  C
  C226     1.0000 0.93889  0.50311  0.66162  Biso   1.000  C
  C227     1.0000 0.18592  0.60217  0.51980  Biso   1.000  C
  C228     1.0000 0.02003  0.34548  0.39999  Biso   1.000  C
  C229     1.0000 0.92413  0.00156  0.15827  Biso   1.000  C
  C230     1.0000 0.18933  0.89916  0.02381  Biso   1.000  C
  C231     1.0000 0.02602  0.14497  0.90198  Biso   1.000  C
  C232     1.0000 0.42325  0.98041  0.37093  Biso   1.000  C
  C233     1.0000 0.67787  0.88807  0.50363  Biso   1.000  C
  C234     1.0000 0.54653  0.14969  0.60092  Biso   1.000  C
  C235     1.0000 0.63164  0.47740  0.16675  Biso   1.000  C
  C236     1.0000 0.37280  0.39550  0.00039  Biso   1.000  C
  C237     1.0000 0.54947  0.65188  0.92845  Biso   1.000  C
  C238     1.0000 0.13307  0.49756  0.35581  Biso   1.000  C
  C239     1.0000 0.88029  0.38878  0.51054  Biso   1.000  C
  C240     1.0000 0.04706  0.64636  0.62294  Biso   1.000  C
  C241     1.0000 0.64018  0.50708  0.85438  Biso   1.000  C
  C242     1.0000 0.87833  0.59688  0.51890  Biso   1.000  C
  C243     1.0000 0.53675  0.84504  0.62741  Biso   1.000  C
  C244     1.0000 0.14053  0.47003  0.66314  Biso   1.000  C
  C245     1.0000 0.37722  0.59917  0.00391  Biso   1.000  C
  C246     1.0000 0.04042  0.83741  0.91721  Biso   1.000  C
  C247     1.0000 0.93317  0.98910  0.85301  Biso   1.000  C
  C248     1.0000 0.69114  0.09139  0.50629  Biso   1.000  C
  C249     1.0000 0.03360  0.33869  0.60668  Biso   1.000  C
  C250     1.0000 0.43822  0.01440  0.67253  Biso   1.000  C
  C251     1.0000 0.17798  0.10094  0.02940  Biso   1.000  C
  C252     1.0000 0.52341  0.34584  0.89375  Biso   1.000  C
  C253     1.0000 0.42657  0.49291  0.16004  Biso   1.000  C
  C254     1.0000 0.19027  0.39721  0.50712  Biso   1.000  C
  C255     1.0000 0.53244  0.14179  0.39281  Biso   1.000  C
  C256     1.0000 0.92639  0.50440  0.35987  Biso   1.000  C
  C257     1.0000 0.68161  0.38535  0.00808  Biso   1.000  C
  C258     1.0000 0.01198  0.15167  0.10857  Biso   1.000  C
  C259     1.0000 0.13140  0.99937  0.17544  Biso   1.000  C
  C260     1.0000 0.37387  0.89978  0.53050  Biso   1.000  C
  C261     1.0000 0.03119  0.65290  0.41840  Biso   1.000  C
  C262     1.0000 0.62435  0.00005  0.35173  Biso   1.000  C
  C263     1.0000 0.87823  0.88907  0.00914  Biso   1.000  C
  C264     1.0000 0.53374  0.64341  0.12913  Biso   1.000  C
  C265     1.0000 0.02823  0.09125  0.85306  Biso   1.000  C
  C266     1.0000 0.87507  0.99548  0.10225  Biso   1.000  C
  C267     1.0000 0.14072  0.84833  0.01666  Biso   1.000  C
  C268     1.0000 0.54979  0.10032  0.65611  Biso   1.000  C
  C269     1.0000 0.37508  0.99442  0.42159  Biso   1.000  C
  C270     1.0000 0.62711  0.83618  0.51658  Biso   1.000  C
  C271     1.0000 0.54179  0.60268  0.87052  Biso   1.000  C
  C272     1.0000 0.68121  0.48363  0.11223  Biso   1.000  C
  C273     1.0000 0.42408  0.34335  0.99569  Biso   1.000  C
  C274     1.0000 0.05771  0.59136  0.67025  Biso   1.000  C
  C275     1.0000 0.18346  0.50570  0.40748  Biso   1.000  C
  C276     1.0000 0.93270  0.33707  0.51267  Biso   1.000  C
  C277     1.0000 0.02412  0.89796  0.16850  Biso   1.000  C
  C278     1.0000 0.18712  0.00196  0.91760  Biso   1.000  C
  C279     1.0000 0.92289  0.14240  0.98966  Biso   1.000  C
  C280     1.0000 0.53473  0.88379  0.37344  Biso   1.000  C
  C281     1.0000 0.68484  0.98522  0.60472  Biso   1.000  C
  C282     1.0000 0.43515  0.15187  0.51233  Biso   1.000  C
  C283     1.0000 0.51582  0.38596  0.15746  Biso   1.000  C
  C284     1.0000 0.38275  0.49337  0.90767  Biso   1.000  C
  C285     1.0000 0.63655  0.64370  0.02868  Biso   1.000  C
  C286     1.0000 0.02052  0.40077  0.35069  Biso   1.000  C
  C287     1.0000 0.88578  0.49325  0.61546  Biso   1.000  C
  C288     1.0000 0.13291  0.65403  0.52116  Biso   1.000  C
  C289     1.0000 0.37091  0.86930  0.53518  Biso   1.000  C
  C290     1.0000 0.52765  0.34467  0.86205  Biso   1.000  C
  C291     1.0000 0.89497  0.49996  0.35900  Biso   1.000  C
  C292     1.0000 0.87806  0.85764  0.01150  Biso   1.000  C
  C293     1.0000 0.03207  0.33554  0.63814  Biso   1.000  C
  C294     1.0000 0.39469  0.49003  0.15957  Biso   1.000  C
  C295     1.0000 0.19113  0.36658  0.50600  Biso   1.000  C
  C296     1.0000 0.04337  0.83691  0.88600  Biso   1.000  C
  C297     1.0000 0.65455  0.99850  0.34946  Biso   1.000  C
  C298     1.0000 0.68142  0.35441  0.00766  Biso   1.000  C
  C299     1.0000 0.53431  0.84439  0.65901  Biso   1.000  C
  C300     1.0000 0.16249  0.00075  0.17906  Biso   1.000  C
  C301     1.0000 0.69121  0.12372  0.50594  Biso   1.000  C
  C302     1.0000 0.53408  0.64097  0.16065  Biso   1.000  C
  C303     1.0000 0.17149  0.47437  0.66361  Biso   1.000  C
  C304     1.0000 0.17687  0.13208  0.02952  Biso   1.000  C
  C305     1.0000 0.03463  0.65680  0.38633  Biso   1.000  C
  C306     1.0000 0.67113  0.50787  0.85442  Biso   1.000  C
  C307     1.0000 0.87625  0.62858  0.52363  Biso   1.000  C
  C308     1.0000 0.01326  0.15185  0.13972  Biso   1.000  C
  C309     1.0000 0.40711  0.01577  0.67330  Biso   1.000  C
  C310     1.0000 0.37583  0.63085  0.00775  Biso   1.000  C
  C311     1.0000 0.52602  0.13988  0.36191  Biso   1.000  C
  C312     1.0000 0.90199  0.99483  0.85098  Biso   1.000  C
  C313     1.0000 0.18423  0.50109  0.37698  Biso   1.000  C
  C314     1.0000 0.40409  0.15358  0.51692  Biso   1.000  C
  C315     1.0000 0.51460  0.35415  0.15439  Biso   1.000  C
  C316     1.0000 0.68226  0.48241  0.14437  Biso   1.000  C
  C317     1.0000 0.89175  0.14423  0.98843  Biso   1.000  C
  C318     1.0000 0.02274  0.36830  0.34890  Biso   1.000  C
  C319     1.0000 0.37144  0.98992  0.39071  Biso   1.000  C
  C320     1.0000 0.16417  0.65392  0.52301  Biso   1.000  C
  C321     1.0000 0.02687  0.86749  0.17130  Biso   1.000  C
  C322     1.0000 0.87236  0.99745  0.13419  Biso   1.000  C
  C323     1.0000 0.66666  0.64736  0.02281  Biso   1.000  C
  C324     1.0000 0.53526  0.85247  0.37242  Biso   1.000  C
  C325     1.0000 0.88529  0.49841  0.64593  Biso   1.000  C
  C326     1.0000 0.65785  0.83472  0.51532  Biso   1.000  C
  C327     1.0000 0.54785  0.63347  0.87433  Biso   1.000  C
  C328     1.0000 0.38239  0.48922  0.87580  Biso   1.000  C
  C329     1.0000 0.17189  0.84558  0.01851  Biso   1.000  C
  C330     1.0000 0.05477  0.62221  0.67480  Biso   1.000  C
  C331     1.0000 0.68815  0.98792  0.63581  Biso   1.000  C
  C332     1.0000 0.90182  0.33533  0.51113  Biso   1.000  C
  C333     1.0000 0.02707  0.12312  0.84950  Biso   1.000  C
  C334     1.0000 0.18983  0.00677  0.88541  Biso   1.000  C
  C335     1.0000 0.39187  0.34185  0.99914  Biso   1.000  C
  C336     1.0000 0.55092  0.13250  0.65541  Biso   1.000  C
  C337     1.0000 0.69192  0.50280  0.87609  Biso   1.000  C
  C338     1.0000 0.89672  0.65164  0.52362  Biso   1.000  C
  C339     1.0000 0.53173  0.86631  0.68032  Biso   1.000  C
  C340     1.0000 0.19293  0.48166  0.64230  Biso   1.000  C
  C341     1.0000 0.39782  0.65166  0.01071  Biso   1.000  C
  C342     1.0000 0.04183  0.85821  0.86346  Biso   1.000  C
  C343     1.0000 0.87805  0.99395  0.86973  Biso   1.000  C
  C344     1.0000 0.67020  0.14579  0.50252  Biso   1.000  C
  C345     1.0000 0.03118  0.35696  0.65927  Biso   1.000  C
  C346     1.0000 0.38385  0.01246  0.65380  Biso   1.000  C
  C347     1.0000 0.15439  0.15279  0.02680  Biso   1.000  C
  C348     1.0000 0.53209  0.36804  0.84240  Biso   1.000  C
  C349     1.0000 0.37223  0.49157  0.13882  Biso   1.000  C
  C350     1.0000 0.16843  0.34656  0.50545  Biso   1.000  C
  C351     1.0000 0.51897  0.11684  0.34345  Biso   1.000  C
  C352     1.0000 0.87244  0.49871  0.38072  Biso   1.000  C
  C353     1.0000 0.65838  0.33403  0.00629  Biso   1.000  C
  C354     1.0000 0.01574  0.13280  0.16335  Biso   1.000  C
  C355     1.0000 0.18466  0.00164  0.15751  Biso   1.000  C
  C356     1.0000 0.39327  0.84803  0.53768  Biso   1.000  C
  C357     1.0000 0.03347  0.63602  0.36509  Biso   1.000  C
  C358     1.0000 0.67606  0.99707  0.37065  Biso   1.000  C
  C359     1.0000 0.90195  0.83809  0.01547  Biso   1.000  C
  C360     1.0000 0.53557  0.61958  0.18078  Biso   1.000  C
  C361     1.0000 0.02755  0.14538  0.87023  Biso   1.000  C
  C362     1.0000 0.89258  0.99985  0.15650  Biso   1.000  C
  C363     1.0000 0.19414  0.86658  0.02160  Biso   1.000  C
  C364     1.0000 0.55098  0.15182  0.63158  Biso   1.000  C
  C365     1.0000 0.39269  0.98467  0.36967  Biso   1.000  C
  C366     1.0000 0.67746  0.85653  0.51017  Biso   1.000  C
  C367     1.0000 0.55120  0.65459  0.89770  Biso   1.000  C
  C368     1.0000 0.66260  0.47891  0.16701  Biso   1.000  C
  C369     1.0000 0.37110  0.36421  0.00015  Biso   1.000  C
  C370     1.0000 0.05084  0.64507  0.65448  Biso   1.000  C
  C371     1.0000 0.16380  0.49761  0.35507  Biso   1.000  C
  C372     1.0000 0.88111  0.35724  0.50922  Biso   1.000  C
  C373     1.0000 0.02951  0.84588  0.15022  Biso   1.000  C
  C374     1.0000 0.16927  0.00798  0.86297  Biso   1.000  C
  C375     1.0000 0.87056  0.12227  0.98841  Biso   1.000  C
  C376     1.0000 0.53401  0.83142  0.39425  Biso   1.000  C
  C377     1.0000 0.66868  0.98866  0.65950  Biso   1.000  C
  C378     1.0000 0.38182  0.13317  0.52220  Biso   1.000  C
  C379     1.0000 0.51608  0.33325  0.13011  Biso   1.000  C
  C380     1.0000 0.40593  0.48832  0.85576  Biso   1.000  C
  C381     1.0000 0.68687  0.62637  0.01444  Biso   1.000  C
  C382     1.0000 0.02229  0.34586  0.36902  Biso   1.000  C
  C383     1.0000 0.90841  0.50183  0.66579  Biso   1.000  C
  C384     1.0000 0.18567  0.63299  0.52356  Biso   1.000  C
  C385     1.0000 0.20408  0.14963  0.02718  Biso   1.000  C
  C386     1.0000 0.01211  0.17993  0.15441  Biso   1.000  C
  C387     1.0000 0.17656  0.00234  0.20615  Biso   1.000  C
  C388     1.0000 0.71918  0.13847  0.50631  Biso   1.000  C
  C389     1.0000 0.52315  0.16574  0.34430  Biso   1.000  C
  C390     1.0000 0.66975  0.99825  0.32205  Biso   1.000  C
  C391     1.0000 0.34918  0.64601  0.00959  Biso   1.000  C
  C392     1.0000 0.53410  0.66728  0.17697  Biso   1.000  C
  C393     1.0000 0.37912  0.48394  0.18625  Biso   1.000  C
  C394     1.0000 0.84899  0.64383  0.52760  Biso   1.000  C
  C395     1.0000 0.04050  0.68490  0.37232  Biso   1.000  C
  C396     1.0000 0.87955  0.49726  0.33209  Biso   1.000  C
  C397     1.0000 0.85319  0.84020  0.00895  Biso   1.000  C
  C398     1.0000 0.04443  0.80944  0.87028  Biso   1.000  C
  C399     1.0000 0.88860  0.00147  0.82292  Biso   1.000  C
  C400     1.0000 0.34413  0.85289  0.53711  Biso   1.000  C
  C401     1.0000 0.54139  0.81851  0.67570  Biso   1.000  C
  C402     1.0000 0.39350  0.02119  0.70108  Biso   1.000  C
  C403     1.0000 0.70667  0.33838  0.01293  Biso   1.000  C
  C404     1.0000 0.52730  0.31909  0.84468  Biso   1.000  C
  C405     1.0000 0.68772  0.50879  0.82843  Biso   1.000  C
  C406     1.0000 0.21812  0.35190  0.50524  Biso   1.000  C
  C407     1.0000 0.02982  0.30700  0.65285  Biso   1.000  C
  C408     1.0000 0.18883  0.47333  0.68922  Biso   1.000  C
  C409     1.0000 0.18505  0.01484  0.83683  Biso   1.000  C
  C410     1.0000 0.84251  0.13797  0.98974  Biso   1.000  C
  C411     1.0000 0.02982  0.81917  0.16583  Biso   1.000  C
  C412     1.0000 0.68639  0.99111  0.68492  Biso   1.000  C
  C413     1.0000 0.35418  0.14924  0.52388  Biso   1.000  C
  C414     1.0000 0.53852  0.80351  0.38045  Biso   1.000  C
  C415     1.0000 0.39146  0.48392  0.82857  Biso   1.000  C
  C416     1.0000 0.71355  0.64282  0.01431  Biso   1.000  C
  C417     1.0000 0.51460  0.30536  0.14439  Biso   1.000  C
  C418     1.0000 0.89310  0.50559  0.69282  Biso   1.000  C
  C419     1.0000 0.21217  0.64831  0.52635  Biso   1.000  C
  C420     1.0000 0.02535  0.32062  0.35186  Biso   1.000  C
  C421     1.0000 0.87485  0.00204  0.18189  Biso   1.000  C
  C422     1.0000 0.22035  0.85164  0.02331  Biso   1.000  C
  C423     1.0000 0.02684  0.17143  0.85387  Biso   1.000  C
  C424     1.0000 0.37815  0.98264  0.34212  Biso   1.000  C
  C425     1.0000 0.70445  0.84114  0.51067  Biso   1.000  C
  C426     1.0000 0.55724  0.18079  0.64329  Biso   1.000  C
  C427     1.0000 0.67882  0.47859  0.19330  Biso   1.000  C
  C428     1.0000 0.34369  0.34989  0.00284  Biso   1.000  C
  C429     1.0000 0.55559  0.68321  0.88265  Biso   1.000  C
  C430     1.0000 0.18059  0.49441  0.32925  Biso   1.000  C
  C431     1.0000 0.85450  0.34081  0.50736  Biso   1.000  C
  C432     1.0000 0.05045  0.67096  0.67196  Biso   1.000  C
  C433     1.0000 0.02645  0.13746  0.82176  Biso   1.000  C
  C434     1.0000 0.84406  0.99805  0.14898  Biso   1.000  C
  C435     1.0000 0.18702  0.81907  0.01827  Biso   1.000  C
  C436     1.0000 0.55765  0.15132  0.67927  Biso   1.000  C
  C437     1.0000 0.34572  0.99134  0.37465  Biso   1.000  C
  C438     1.0000 0.67503  0.80867  0.52108  Biso   1.000  C
  C439     1.0000 0.54763  0.65266  0.84793  Biso   1.000  C
  C440     1.0000 0.70927  0.48362  0.15954  Biso   1.000  C
  C441     1.0000 0.37608  0.31622  0.00306  Biso   1.000  C
  C442     1.0000 0.05691  0.63686  0.70305  Biso   1.000  C
  C443     1.0000 0.21152  0.49905  0.36140  Biso   1.000  C
  C444     1.0000 0.88577  0.30916  0.50848  Biso   1.000  C
  C445     1.0000 0.02291  0.85143  0.19788  Biso   1.000  C
  C446     1.0000 0.21716  0.01049  0.87035  Biso   1.000  C
  C447     1.0000 0.87615  0.17197  0.98832  Biso   1.000  C
  C448     1.0000 0.53866  0.83541  0.34586  Biso   1.000  C
  C449     1.0000 0.71565  0.99243  0.64941  Biso   1.000  C
  C450     1.0000 0.38811  0.18021  0.51438  Biso   1.000  C
  C451     1.0000 0.51280  0.33525  0.18009  Biso   1.000  C
  C452     1.0000 0.35653  0.48462  0.85860  Biso   1.000  C
  C453     1.0000 0.68132  0.67484  0.02357  Biso   1.000  C
  C454     1.0000 0.02480  0.35502  0.32142  Biso   1.000  C
  C455     1.0000 0.85831  0.49843  0.66323  Biso   1.000  C
  C456     1.0000 0.17975  0.68151  0.52414  Biso   1.000  C
  C457     1.0000 0.03844  0.65285  0.33845  Biso   1.000  C
  C458     1.0000 0.35828  0.01445  0.67233  Biso   1.000  C
  C459     1.0000 0.67288  0.30683  0.00769  Biso   1.000  C
  C460     1.0000 0.53451  0.63391  0.20862  Biso   1.000  C
  C461     1.0000 0.85332  0.99586  0.85239  Biso   1.000  C
  C462     1.0000 0.18379  0.31945  0.50408  Biso   1.000  C
  C463     1.0000 0.51141  0.13020  0.31624  Biso   1.000  C
  C464     1.0000 0.22068  0.48449  0.65686  Biso   1.000  C
  C465     1.0000 0.88909  0.81100  0.01267  Biso   1.000  C
  C466     1.0000 0.01821  0.15017  0.18926  Biso   1.000  C
  C467     1.0000 0.71898  0.50270  0.86027  Biso   1.000  C
  C468     1.0000 0.37707  0.82097  0.54152  Biso   1.000  C
  C469     1.0000 0.02465  0.33916  0.68497  Biso   1.000  C
  C470     1.0000 0.70355  0.99600  0.35391  Biso   1.000  C
  C471     1.0000 0.38218  0.67820  0.01342  Biso   1.000  C
  C472     1.0000 0.53545  0.35415  0.81507  Biso   1.000  C
  C473     1.0000 0.20980  0.00316  0.17455  Biso   1.000  C
  C474     1.0000 0.88198  0.67747  0.52954  Biso   1.000  C
  C475     1.0000 0.53905  0.85222  0.70645  Biso   1.000  C
  C476     1.0000 0.84662  0.49637  0.36504  Biso   1.000  C
  C477     1.0000 0.16931  0.17991  0.02311  Biso   1.000  C
  C478     1.0000 0.04423  0.84153  0.83672  Biso   1.000  C
  C479     1.0000 0.34516  0.48806  0.15583  Biso   1.000  C
  C480     1.0000 0.68617  0.17258  0.50387  Biso   1.000  C
  C481     1.0000 0.39257  0.79315  0.54709  Biso   1.000  C
  C482     1.0000 0.54154  0.37148  0.78921  Biso   1.000  C
  C483     1.0000 0.81942  0.49196  0.38077  Biso   1.000  C
  C484     1.0000 0.90781  0.78452  0.01555  Biso   1.000  C
  C485     1.0000 0.01583  0.35522  0.71045  Biso   1.000  C
  C486     1.0000 0.31802  0.48919  0.14056  Biso   1.000  C
  C487     1.0000 0.16542  0.29204  0.50289  Biso   1.000  C
  C488     1.0000 0.04767  0.85690  0.80866  Biso   1.000  C
  C489     1.0000 0.73113  0.99122  0.36759  Biso   1.000  C
  C490     1.0000 0.65297  0.28022  0.00460  Biso   1.000  C
  C491     1.0000 0.54380  0.86966  0.73204  Biso   1.000  C
  C492     1.0000 0.23683  0.00575  0.15850  Biso   1.000  C
  C493     1.0000 0.66961  0.19896  0.50526  Biso   1.000  C
  C494     1.0000 0.53628  0.61406  0.23395  Biso   1.000  C
  C495     1.0000 0.24746  0.49316  0.64209  Biso   1.000  C
  C496     1.0000 0.15415  0.20789  0.01829  Biso   1.000  C
  C497     1.0000 0.04391  0.63937  0.31028  Biso   1.000  C
  C498     1.0000 0.74576  0.49423  0.87616  Biso   1.000  C
  C499     1.0000 0.89823  0.70407  0.53406  Biso   1.000  C
  C500     1.0000 0.02438  0.13571  0.21720  Biso   1.000  C
  C501     1.0000 0.32983  0.00934  0.65919  Biso   1.000  C
  C502     1.0000 0.40118  0.70540  0.01986  Biso   1.000  C
  C503     1.0000 0.50007  0.11192  0.29375  Biso   1.000  C
  C504     1.0000 0.82448  0.99118  0.86647  Biso   1.000  C
  C505     1.0000 0.67259  0.51306  0.80104  Biso   1.000  C
  C506     1.0000 0.82126  0.62684  0.52598  Biso   1.000  C
  C507     1.0000 0.54636  0.79168  0.66018  Biso   1.000  C
  C508     1.0000 0.17323  0.46474  0.71601  Biso   1.000  C
  C509     1.0000 0.32192  0.62987  0.00479  Biso   1.000  C
  C510     1.0000 0.03820  0.78350  0.88653  Biso   1.000  C
  C511     1.0000 0.90754  0.00337  0.79720  Biso   1.000  C
  C512     1.0000 0.74650  0.12250  0.50630  Biso   1.000  C
  C513     1.0000 0.02979  0.28085  0.63505  Biso   1.000  C
  C514     1.0000 0.40987  0.02528  0.72745  Biso   1.000  C
  C515     1.0000 0.23267  0.13747  0.02513  Biso   1.000  C
  C516     1.0000 0.52491  0.29127  0.85827  Biso   1.000  C
  C517     1.0000 0.39525  0.48052  0.21286  Biso   1.000  C
  C518     1.0000 0.24415  0.36865  0.50510  Biso   1.000  C
  C519     1.0000 0.53163  0.19320  0.35799  Biso   1.000  C
  C520     1.0000 0.89704  0.49765  0.30524  Biso   1.000  C
  C521     1.0000 0.73408  0.35340  0.01970  Biso   1.000  C
  C522     1.0000 0.01214  0.20827  0.13880  Biso   1.000  C
  C523     1.0000 0.15607  0.00086  0.23267  Biso   1.000  C
  C524     1.0000 0.31743  0.86856  0.53355  Biso   1.000  C
  C525     1.0000 0.04242  0.71049  0.39131  Biso   1.000  C
  C526     1.0000 0.65308  0.00067  0.29436  Biso   1.000  C
  C527     1.0000 0.82523  0.85385  0.00490  Biso   1.000  C
  C528     1.0000 0.53335  0.69599  0.16234  Biso   1.000  C
  C529     1.0000 0.81539  0.12204  0.99240  Biso   1.000  C
  C530     1.0000 0.03662  0.79152  0.15063  Biso   1.000  C
  C531     1.0000 0.16719  0.01738  0.81071  Biso   1.000  C
  C532     1.0000 0.32754  0.13375  0.53388  Biso   1.000  C
  C533     1.0000 0.53480  0.77716  0.39907  Biso   1.000  C
  C534     1.0000 0.67135  0.99236  0.71330  Biso   1.000  C
  C535     1.0000 0.73981  0.62722  0.00524  Biso   1.000  C
  C536     1.0000 0.51517  0.27839  0.12589  Biso   1.000  C
  C537     1.0000 0.40880  0.48414  0.80198  Biso   1.000  C
  C538     1.0000 0.23984  0.63369  0.52871  Biso   1.000  C
  C539     1.0000 0.02871  0.29393  0.36839  Biso   1.000  C
  C540     1.0000 0.91027  0.51316  0.71855  Biso   1.000  C
  C541     1.0000 0.24574  0.87042  0.03013  Biso   1.000  C
  C542     1.0000 0.03213  0.20020  0.86843  Biso   1.000  C
  C543     1.0000 0.88780  0.00347  0.21099  Biso   1.000  C
  C544     1.0000 0.73215  0.85564  0.50428  Biso   1.000  C
  C545     1.0000 0.55857  0.20760  0.62556  Biso   1.000  C
  C546     1.0000 0.39226  0.97300  0.31576  Biso   1.000  C
  C547     1.0000 0.31727  0.36657  0.00893  Biso   1.000  C
  C548     1.0000 0.56002  0.70870  0.90212  Biso   1.000  C
  C549     1.0000 0.66388  0.47380  0.22069  Biso   1.000  C
  C550     1.0000 0.82811  0.35843  0.50130  Biso   1.000  C
  C551     1.0000 0.04064  0.69915  0.65704  Biso   1.000  C
  C552     1.0000 0.16551  0.48953  0.30279  Biso   1.000  C
  C553     1.0000 0.02335  0.11946  0.79555  Biso   1.000  C
  C554     1.0000 0.81668  0.99710  0.13214  Biso   1.000  C
  C555     1.0000 0.17096  0.79215  0.01571  Biso   1.000  C
  C556     1.0000 0.56486  0.13684  0.70641  Biso   1.000  C
  C557     1.0000 0.31946  0.99883  0.39039  Biso   1.000  C
  C558     1.0000 0.65839  0.78102  0.52809  Biso   1.000  C
  C559     1.0000 0.53933  0.64084  0.81870  Biso   1.000  C
  C560     1.0000 0.73535  0.48826  0.14255  Biso   1.000  C
  C561     1.0000 0.39212  0.28783  0.00319  Biso   1.000  C
  C562     1.0000 0.06131  0.61728  0.72794  Biso   1.000  C
  C563     1.0000 0.23934  0.50276  0.37583  Biso   1.000  C
  C564     1.0000 0.90236  0.28296  0.51223  Biso   1.000  C
  C565     1.0000 0.01646  0.86800  0.22629  Biso   1.000  C
  C566     1.0000 0.24390  0.00889  0.88894  Biso   1.000  C
  C567     1.0000 0.89229  0.19949  0.98686  Biso   1.000  C
  C568     1.0000 0.54412  0.84959  0.31787  Biso   1.000  C
  C569     1.0000 0.74277  0.99191  0.63138  Biso   1.000  C
  C570     1.0000 0.40513  0.20678  0.50658  Biso   1.000  C
  C571     1.0000 0.51098  0.34949  0.20813  Biso   1.000  C
  C572     1.0000 0.32971  0.47938  0.87537  Biso   1.000  C
  C573     1.0000 0.66585  0.70067  0.03320  Biso   1.000  C
  C574     1.0000 0.02437  0.37222  0.29520  Biso   1.000  C
  C575     1.0000 0.83075  0.49291  0.64760  Biso   1.000  C
  C576     1.0000 0.16472  0.70893  0.52447  Biso   1.000  C
  C577     1.0000 0.31835  0.49621  0.10877  Biso   1.000  C
  C578     1.0000 0.13399  0.29337  0.50306  Biso   1.000  C
  C579     1.0000 0.49636  0.08118  0.30026  Biso   1.000  C
  C580     1.0000 0.81872  0.49128  0.41346  Biso   1.000  C
  C581     1.0000 0.62198  0.28386  0.00129  Biso   1.000  C
  C582     1.0000 0.02554  0.10437  0.21784  Biso   1.000  C
  C583     1.0000 0.23748  0.00205  0.12719  Biso   1.000  C
  C584     1.0000 0.42457  0.79342  0.54772  Biso   1.000  C
  C585     1.0000 0.04082  0.60770  0.30986  Biso   1.000  C
  C586     1.0000 0.73138  0.98997  0.39899  Biso   1.000  C
  C587     1.0000 0.93796  0.78667  0.01890  Biso   1.000  C
  C588     1.0000 0.53558  0.58232  0.23068  Biso   1.000  C
  C589     1.0000 0.74514  0.48982  0.90733  Biso   1.000  C
  C590     1.0000 0.92941  0.70352  0.53557  Biso   1.000  C
  C591     1.0000 0.54000  0.90089  0.73059  Biso   1.000  C
  C592     1.0000 0.24446  0.50006  0.61062  Biso   1.000  C
  C593     1.0000 0.43267  0.70109  0.02447  Biso   1.000  C
  C594     1.0000 0.04685  0.88945  0.80859  Biso   1.000  C
  C595     1.0000 0.82340  0.98770  0.89866  Biso   1.000  C
  C596     1.0000 0.63762  0.19923  0.50197  Biso   1.000  C
  C597     1.0000 0.01678  0.38750  0.71122  Biso   1.000  C
  C598     1.0000 0.32794  0.00457  0.62884  Biso   1.000  C
  C599     1.0000 0.12366  0.20681  0.01526  Biso   1.000  C
  C600     1.0000 0.54507  0.40323  0.79242  Biso   1.000  C
  C601     1.0000 0.24198  0.00476  0.92026  Biso   1.000  C
  C602     1.0000 0.92359  0.19932  0.98456  Biso   1.000  C
  C603     1.0000 0.01586  0.89966  0.22333  Biso   1.000  C
  C604     1.0000 0.73971  0.98864  0.60073  Biso   1.000  C
  C605     1.0000 0.43648  0.20530  0.50126  Biso   1.000  C
  C606     1.0000 0.54815  0.88093  0.31885  Biso   1.000  C
  C607     1.0000 0.32947  0.48037  0.90652  Biso   1.000  C
  C608     1.0000 0.63352  0.69963  0.03590  Biso   1.000  C
  C609     1.0000 0.51233  0.38173  0.21138  Biso   1.000  C
  C610     1.0000 0.83086  0.48788  0.61747  Biso   1.000  C
  C611     1.0000 0.13264  0.70866  0.52274  Biso   1.000  C
  C612     1.0000 0.02105  0.40399  0.29706  Biso   1.000  C
  C613     1.0000 0.81864  0.99554  0.10120  Biso   1.000  C
  C614     1.0000 0.13960  0.79239  0.01566  Biso   1.000  C
  C615     1.0000 0.02562  0.08718  0.79885  Biso   1.000  C
  C616     1.0000 0.32136  0.00352  0.42149  Biso   1.000  C
  C617     1.0000 0.62640  0.78207  0.52674  Biso   1.000  C
  C618     1.0000 0.56493  0.10484  0.71074  Biso   1.000  C
  C619     1.0000 0.73496  0.48840  0.11087  Biso   1.000  C
  C620     1.0000 0.42336  0.28682  0.99878  Biso   1.000  C
  C621     1.0000 0.53419  0.60975  0.81583  Biso   1.000  C
  C622     1.0000 0.23791  0.50198  0.40687  Biso   1.000  C
  C623     1.0000 0.93365  0.28226  0.51411  Biso   1.000  C
  C624     1.0000 0.06362  0.58607  0.72446  Biso   1.000  C
  C625     1.0000 0.03368  0.19883  0.90087  Biso   1.000  C
  C626     1.0000 0.91940  0.00579  0.21205  Biso   1.000  C
  C627     1.0000 0.24425  0.90198  0.03207  Biso   1.000  C
  C628     1.0000 0.55605  0.20409  0.59393  Biso   1.000  C
  C629     1.0000 0.42394  0.96405  0.31810  Biso   1.000  C
  C630     1.0000 0.73207  0.88610  0.49779  Biso   1.000  C
  C631     1.0000 0.55784  0.70599  0.93300  Biso   1.000  C
  C632     1.0000 0.63274  0.47224  0.22023  Biso   1.000  C
  C633     1.0000 0.31878  0.39835  0.01225  Biso   1.000  C
  C634     1.0000 0.03508  0.69958  0.62682  Biso   1.000  C
  C635     1.0000 0.13374  0.49103  0.30305  Biso   1.000  C
  C636     1.0000 0.82695  0.39068  0.50170  Biso   1.000  C
  C637     1.0000 0.04283  0.79322  0.11976  Biso   1.000  C
  C638     1.0000 0.13606  0.01136  0.81092  Biso   1.000  C
  C639     1.0000 0.81664  0.08929  0.99518  Biso   1.000  C
  C640     1.0000 0.52845  0.77975  0.43033  Biso   1.000  C
  C641     1.0000 0.64026  0.98718  0.71444  Biso   1.000  C
  C642     1.0000 0.32660  0.10268  0.53593  Biso   1.000  C
  C643     1.0000 0.51902  0.27986  0.09563  Biso   1.000  C
  C644     1.0000 0.44020  0.48621  0.80318  Biso   1.000  C
  C645     1.0000 0.73815  0.59512  0.00151  Biso   1.000  C
  C646     1.0000 0.03172  0.29276  0.39851  Biso   1.000  C
  C647     1.0000 0.94137  0.51613  0.71431  Biso   1.000  C
  C648     1.0000 0.24160  0.60240  0.52794  Biso   1.000  C
  C649     1.0000 0.03817  0.70890  0.42327  Biso   1.000  C
  C650     1.0000 0.44091  0.02520  0.72701  Biso   1.000  C
  C651     1.0000 0.73613  0.38541  0.01659  Biso   1.000  C
  C652     1.0000 0.53336  0.69783  0.13041  Biso   1.000  C
  C653     1.0000 0.93863  0.99757  0.79848  Biso   1.000  C
  C654     1.0000 0.24409  0.39972  0.50245  Biso   1.000  C
  C655     1.0000 0.53698  0.19487  0.38874  Biso   1.000  C
  C656     1.0000 0.14174  0.46045  0.71670  Biso   1.000  C
  C657     1.0000 0.82353  0.88454  0.00452  Biso   1.000  C
  C658     1.0000 0.01058  0.20750  0.10730  Biso   1.000  C
  C659     1.0000 0.64015  0.51478  0.80073  Biso   1.000  C
  C660     1.0000 0.31910  0.89969  0.52793  Biso   1.000  C
  C661     1.0000 0.03466  0.28268  0.60408  Biso   1.000  C
  C662     1.0000 0.62113  0.00028  0.29731  Biso   1.000  C
  C663     1.0000 0.32262  0.59859  0.00281  Biso   1.000  C
  C664     1.0000 0.52131  0.29000  0.88994  Biso   1.000  C
  C665     1.0000 0.12548  0.99850  0.22945  Biso   1.000  C
  C666     1.0000 0.82357  0.59482  0.52066  Biso   1.000  C
  C667     1.0000 0.54693  0.79142  0.62845  Biso   1.000  C
  C668     1.0000 0.92838  0.50200  0.30756  Biso   1.000  C
  C669     1.0000 0.23388  0.10644  0.02710  Biso   1.000  C
  C670     1.0000 0.03385  0.78456  0.91811  Biso   1.000  C
  C671     1.0000 0.42568  0.48108  0.21229  Biso   1.000  C
  C672     1.0000 0.74733  0.09100  0.51010  Biso   1.000  C
  C673     1.0000 0.23348  0.02153  0.82459  Biso   1.000  C
  C674     1.0000 0.82720  0.18454  0.99278  Biso   1.000  C
  C675     1.0000 0.02678  0.80600  0.21251  Biso   1.000  C
  C676     1.0000 0.73325  0.99831  0.69567  Biso   1.000  C
  C677     1.0000 0.33762  0.19387  0.51555  Biso   1.000  C
  C678     1.0000 0.54205  0.78755  0.33403  Biso   1.000  C
  C679     1.0000 0.34362  0.47864  0.81404  Biso   1.000  C
  C680     1.0000 0.72840  0.68769  0.02052  Biso   1.000  C
  C681     1.0000 0.50918  0.28825  0.18947  Biso   1.000  C
  C682     1.0000 0.84534  0.50643  0.70974  Biso   1.000  C
  C683     1.0000 0.22556  0.69597  0.52805  Biso   1.000  C
  C684     1.0000 0.02799  0.30832  0.30473  Biso   1.000  C
  C685     1.0000 0.82674  0.00165  0.19405  Biso   1.000  C
  C686     1.0000 0.23270  0.80594  0.02308  Biso   1.000  C
  C687     1.0000 0.02337  0.18532  0.80939  Biso   1.000  C
  C688     1.0000 0.33143  0.98740  0.32982  Biso   1.000  C
  C689     1.0000 0.72285  0.79673  0.52311  Biso   1.000  C
  C690     1.0000 0.55605  0.19939  0.68965  Biso   1.000  C
  C691     1.0000 0.72408  0.48423  0.20730  Biso   1.000  C
  C692     1.0000 0.32848  0.30433  0.00664  Biso   1.000  C
  C693     1.0000 0.55606  0.70084  0.83728  Biso   1.000  C
  C694     1.0000 0.22723  0.49247  0.31463  Biso   1.000  C
  C695     1.0000 0.83858  0.29413  0.50361  Biso   1.000  C
  C696     1.0000 0.05641  0.68381  0.71875  Biso   1.000  C
  C697     1.0000 0.71635  0.99925  0.30695  Biso   1.000  C
  C698     1.0000 0.33680  0.69456  0.01699  Biso   1.000  C
  C699     1.0000 0.02191  0.29351  0.70005  Biso   1.000  C
  C700     1.0000 0.22175  0.00019  0.22213  Biso   1.000  C
  C701     1.0000 0.83519  0.69005  0.53515  Biso   1.000  C
  C702     1.0000 0.53403  0.30769  0.79891  Biso   1.000  C
  C703     1.0000 0.83234  0.49173  0.31806  Biso   1.000  C
  C704     1.0000 0.21584  0.19704  0.02262  Biso   1.000  C
  C705     1.0000 0.54876  0.80730  0.72360  Biso   1.000  C
  C706     1.0000 0.33405  0.48252  0.20336  Biso   1.000  C
  C707     1.0000 0.73217  0.18560  0.50487  Biso   1.000  C
  C708     1.0000 0.04554  0.79436  0.82395  Biso   1.000  C
  C709     1.0000 0.34655  0.02302  0.71749  Biso   1.000  C
  C710     1.0000 0.71791  0.29012  0.01295  Biso   1.000  C
  C711     1.0000 0.04215  0.70011  0.32478  Biso   1.000  C
  C712     1.0000 0.84366  0.00199  0.80527  Biso   1.000  C
  C713     1.0000 0.23323  0.30670  0.50622  Biso   1.000  C
  C714     1.0000 0.53733  0.68150  0.22388  Biso   1.000  C
  C715     1.0000 0.23655  0.48110  0.70184  Biso   1.000  C
  C716     1.0000 0.84262  0.79357  0.01066  Biso   1.000  C
  C717     1.0000 0.51211  0.17820  0.29921  Biso   1.000  C
  C718     1.0000 0.73543  0.50858  0.81447  Biso   1.000  C
  C719     1.0000 0.33070  0.80569  0.54137  Biso   1.000  C
  C720     1.0000 0.01797  0.19887  0.19985  Biso   1.000  C
  C721     1.0000 0.55976  0.76214  0.34058  Biso   1.000  C
  C722     1.0000 0.31588  0.49469  0.81536  Biso   1.000  C
  C723     1.0000 0.81050  0.30056  0.51569  Biso   1.000  C
  C724     1.0000 0.01123  0.77866  0.21228  Biso   1.000  C
  C725     1.0000 0.81861  0.52109  0.70312  Biso   1.000  C
  C726     1.0000 0.30053  0.30588  0.99181  Biso   1.000  C
  C727     1.0000 0.00833  0.28365  0.30625  Biso   1.000  C
  C728     1.0000 0.26079  0.03521  0.83097  Biso   1.000  C
  C729     1.0000 0.75029  0.80438  0.53830  Biso   1.000  C
  C730     1.0000 0.48917  0.28960  0.21192  Biso   1.000  C
  C731     1.0000 0.76189  0.98608  0.69315  Biso   1.000  C
  C732     1.0000 0.25911  0.80874  0.00535  Biso   1.000  C
  C733     1.0000 0.53806  0.19630  0.71532  Biso   1.000  C
  C734     1.0000 0.72245  0.50183  0.23309  Biso   1.000  C
  C735     1.0000 0.22443  0.72391  0.51160  Biso   1.000  C
  C736     1.0000 0.00482  0.21047  0.81396  Biso   1.000  C
  C737     1.0000 0.25270  0.47487  0.31988  Biso   1.000  C
  C738     1.0000 0.75684  0.68082  0.02931  Biso   1.000  C
  C739     1.0000 0.06758  0.71238  0.71108  Biso   1.000  C
  C740     1.0000 0.80048  0.98285  0.19238  Biso   1.000  C
  C741     1.0000 0.30805  0.18874  0.50502  Biso   1.000  C
  C742     1.0000 0.56716  0.69695  0.80792  Biso   1.000  C
  C743     1.0000 0.30343  0.97323  0.33395  Biso   1.000  C
  C744     1.0000 0.83219  0.20988  0.01012  Biso   1.000  C
  C745     1.0000 0.05552  0.72893  0.32635  Biso   1.000  C
  C746     1.0000 0.31843  0.03492  0.71247  Biso   1.000  C
  C747     1.0000 0.74739  0.29298  0.99990  Biso   1.000  C
  C748     1.0000 0.55544  0.70732  0.22146  Biso   1.000  C
  C749     1.0000 0.84764  0.98616  0.77832  Biso   1.000  C
  C750     1.0000 0.25490  0.31060  0.52772  Biso   1.000  C
  C751     1.0000 0.52095  0.17231  0.27032  Biso   1.000  C
  C752     1.0000 0.26428  0.46750  0.69606  Biso   1.000  C
  C753     1.0000 0.81957  0.79296  0.99022  Biso   1.000  C
  C754     1.0000 0.04199  0.19887  0.22019  Biso   1.000  C
  C755     1.0000 0.73251  0.49550  0.78637  Biso   1.000  C
  C756     1.0000 0.30161  0.81058  0.55656  Biso   1.000  C
  C757     1.0000 0.00908  0.26509  0.69436  Biso   1.000  C
  C758     1.0000 0.74133  0.01724  0.30972  Biso   1.000  C
  C759     1.0000 0.30910  0.69103  0.03205  Biso   1.000  C
  C760     1.0000 0.55936  0.31055  0.77939  Biso   1.000  C
  C761     1.0000 0.24799  0.01829  0.22142  Biso   1.000  C
  C762     1.0000 0.83723  0.71815  0.52012  Biso   1.000  C
  C763     1.0000 0.53245  0.81038  0.75031  Biso   1.000  C
  C764     1.0000 0.80242  0.50059  0.32331  Biso   1.000  C
  C765     1.0000 0.24012  0.19704  0.04274  Biso   1.000  C
  C766     1.0000 0.03160  0.79781  0.79574  Biso   1.000  C
  C767     1.0000 0.33791  0.49834  0.23041  Biso   1.000  C
  C768     1.0000 0.72428  0.21022  0.48789  Biso   1.000  C
  C769     1.0000 0.54687  0.73146  0.84370  Biso   1.000  C
  C770     1.0000 0.84842  0.49268  0.73794  Biso   1.000  C
  C771     1.0000 0.72010  0.76594  0.51343  Biso   1.000  C
  C772     1.0000 0.04704  0.67879  0.74757  Biso   1.000  C
  C773     1.0000 0.34759  0.45890  0.79107  Biso   1.000  C
  C774     1.0000 0.22808  0.77847  0.03956  Biso   1.000  C
  C775     1.0000 0.03843  0.18398  0.78128  Biso   1.000  C
  C776     1.0000 0.72888  0.01588  0.72137  Biso   1.000  C
  C777     1.0000 0.84308  0.26651  0.48901  Biso   1.000  C
  C778     1.0000 0.57420  0.22589  0.68594  Biso   1.000  C
  C779     1.0000 0.23078  0.01253  0.79432  Biso   1.000  C
  C780     1.0000 0.33119  0.27914  0.02584  Biso   1.000  C
  C781     1.0000 0.52916  0.26451  0.18835  Biso   1.000  C
  C782     1.0000 0.22480  0.50565  0.28563  Biso   1.000  C
  C783     1.0000 0.34341  0.22389  0.52397  Biso   1.000  C
  C784     1.0000 0.04518  0.31271  0.27909  Biso   1.000  C
  C785     1.0000 0.74936  0.46522  0.20655  Biso   1.000  C
  C786     1.0000 0.79649  0.18230  0.98252  Biso   1.000  C
  C787     1.0000 0.04260  0.81265  0.23869  Biso   1.000  C
  C788     1.0000 0.33601  0.00212  0.30237  Biso   1.000  C
  C789     1.0000 0.24737  0.69366  0.55271  Biso   1.000  C
  C790     1.0000 0.52707  0.78870  0.30628  Biso   1.000  C
  C791     1.0000 0.82800  0.02231  0.21864  Biso   1.000  C
  C792     1.0000 0.72275  0.71650  0.00966  Biso   1.000  C
  C793     1.0000 0.50041  0.20731  0.30327  Biso   1.000  C
  C794     1.0000 0.30699  0.46541  0.20028  Biso   1.000  C
  C795     1.0000 0.23273  0.28251  0.48716  Biso   1.000  C
  C796     1.0000 0.00097  0.22473  0.19681  Biso   1.000  C
  C797     1.0000 0.83853  0.47853  0.29060  Biso   1.000  C
  C798     1.0000 0.71165  0.26106  0.02350  Biso   1.000  C
  C799     1.0000 0.02421  0.69607  0.29936  Biso   1.000  C
  C800     1.0000 0.21903  0.97969  0.24494  Biso   1.000  C
  C801     1.0000 0.33590  0.77585  0.53155  Biso   1.000  C
  C802     1.0000 0.52342  0.67651  0.25158  Biso   1.000  C
  C803     1.0000 0.71397  0.98405  0.27884  Biso   1.000  C
  C804     1.0000 0.84254  0.77002  0.03195  Biso   1.000  C
  C805     1.0000 0.56764  0.78293  0.72297  Biso   1.000  C
  C806     1.0000 0.76257  0.52292  0.82143  Biso   1.000  C
  C807     1.0000 0.80797  0.68553  0.55247  Biso   1.000  C
  C808     1.0000 0.06234  0.76766  0.82836  Biso   1.000  C
  C809     1.0000 0.23021  0.49075  0.73150  Biso   1.000  C
  C810     1.0000 0.34363  0.72411  0.00753  Biso   1.000  C
  C811     1.0000 0.03179  0.29958  0.73065  Biso   1.000  C
  C812     1.0000 0.81545  0.01768  0.80931  Biso   1.000  C
  C813     1.0000 0.75952  0.18315  0.51872  Biso   1.000  C
  C814     1.0000 0.51568  0.28153  0.79433  Biso   1.000  C
  C815     1.0000 0.34868  0.01001  0.74618  Biso   1.000  C
  C816     1.0000 0.21743  0.21581  0.99769  Biso   1.000  C
  C817     1.0000 0.00195  0.23190  0.79253  Biso   1.000  C
  C818     1.0000 0.77833  0.98405  0.21214  Biso   1.000  C
  C819     1.0000 0.27814  0.78454  0.00414  Biso   1.000  C
  C820     1.0000 0.53502  0.21892  0.73294  Biso   1.000  C
  C821     1.0000 0.28152  0.97642  0.31459  Biso   1.000  C
  C822     1.0000 0.77130  0.78313  0.54002  Biso   1.000  C
  C823     1.0000 0.56566  0.71768  0.78611  Biso   1.000  C
  C824     1.0000 0.74486  0.50280  0.25298  Biso   1.000  C
  C825     1.0000 0.28092  0.28345  0.99552  Biso   1.000  C
  C826     1.0000 0.06394  0.73609  0.73059  Biso   1.000  C
  C827     1.0000 0.27386  0.47371  0.29874  Biso   1.000  C
  C828     1.0000 0.78736  0.28101  0.50979  Biso   1.000  C
  C829     1.0000 0.01470  0.75970  0.23585  Biso   1.000  C
  C830     1.0000 0.28226  0.03898  0.81009  Biso   1.000  C
  C831     1.0000 0.80910  0.22937  0.01774  Biso   1.000  C
  C832     1.0000 0.56064  0.74021  0.31868  Biso   1.000  C
  C833     1.0000 0.78194  0.98619  0.71458  Biso   1.000  C
  C834     1.0000 0.28662  0.21166  0.50555  Biso   1.000  C
  C835     1.0000 0.48732  0.26641  0.23230  Biso   1.000  C
  C836     1.0000 0.29545  0.49290  0.79316  Biso   1.000  C
  C837     1.0000 0.77964  0.69982  0.02289  Biso   1.000  C
  C838     1.0000 0.00591  0.26402  0.28386  Biso   1.000  C
  C839     1.0000 0.79840  0.52283  0.72541  Biso   1.000  C
  C840     1.0000 0.24416  0.74621  0.51916  Biso   1.000  C
  C841     1.0000 0.25370  0.01453  0.77459  Biso   1.000  C
  C842     1.0000 0.77302  0.19954  0.99160  Biso   1.000  C
  C843     1.0000 0.04470  0.79470  0.26192  Biso   1.000  C
  C844     1.0000 0.75014  0.01699  0.74229  Biso   1.000  C
  C845     1.0000 0.32270  0.24524  0.52285  Biso   1.000  C
  C846     1.0000 0.52881  0.76756  0.28603  Biso   1.000  C
  C847     1.0000 0.32619  0.45829  0.76840  Biso   1.000  C
  C848     1.0000 0.74532  0.73653  0.00702  Biso   1.000  C
  C849     1.0000 0.52929  0.24376  0.20921  Biso   1.000  C
  C850     1.0000 0.82633  0.49306  0.75896  Biso   1.000  C
  C851     1.0000 0.26707  0.71619  0.55776  Biso   1.000  C
  C852     1.0000 0.04338  0.29221  0.25806  Biso   1.000  C
  C853     1.0000 0.80539  0.02328  0.23819  Biso   1.000  C
  C854     1.0000 0.24906  0.75699  0.03830  Biso   1.000  C
  C855     1.0000 0.03579  0.20516  0.76132  Biso   1.000  C
  C856     1.0000 0.31377  0.00471  0.28236  Biso   1.000  C
  C857     1.0000 0.74178  0.74585  0.51883  Biso   1.000  C
  C858     1.0000 0.57043  0.24860  0.70646  Biso   1.000  C
  C859     1.0000 0.76986  0.46532  0.22861  Biso   1.000  C
  C860     1.0000 0.31091  0.25767  0.02961  Biso   1.000  C
  C861     1.0000 0.54694  0.75225  0.82196  Biso   1.000  C
  C862     1.0000 0.24581  0.50338  0.26518  Biso   1.000  C
  C863     1.0000 0.81932  0.24821  0.48569  Biso   1.000  C
  C864     1.0000 0.04486  0.70133  0.76660  Biso   1.000  C
  C865     1.0000 0.75393  0.49741  0.76553  Biso   1.000  C
  C866     1.0000 0.81475  0.73732  0.52073  Biso   1.000  C
  C867     1.0000 0.53600  0.79159  0.77357  Biso   1.000  C
  C868     1.0000 0.28561  0.46717  0.71783  Biso   1.000  C
  C869     1.0000 0.28846  0.71249  0.03327  Biso   1.000  C
  C870     1.0000 0.03586  0.77778  0.77312  Biso   1.000  C
  C871     1.0000 0.82548  0.98616  0.75813  Biso   1.000  C
  C872     1.0000 0.74411  0.23316  0.48722  Biso   1.000  C
  C873     1.0000 0.00660  0.24558  0.71680  Biso   1.000  C
  C874     1.0000 0.29726  0.04049  0.73352  Biso   1.000  C
  C875     1.0000 0.26172  0.21661  0.03834  Biso   1.000  C
  C876     1.0000 0.56049  0.29109  0.75550  Biso   1.000  C
  C877     1.0000 0.31720  0.49771  0.25236  Biso   1.000  C
  C878     1.0000 0.27514  0.28796  0.52867  Biso   1.000  C
  C879     1.0000 0.52091  0.19327  0.24915  Biso   1.000  C
  C880     1.0000 0.78218  0.49683  0.30096  Biso   1.000  C
  C881     1.0000 0.76671  0.27116  0.00138  Biso   1.000  C
  C882     1.0000 0.04641  0.22206  0.23805  Biso   1.000  C
  C883     1.0000 0.26765  0.01536  0.24508  Biso   1.000  C
  C884     1.0000 0.27916  0.78983  0.55488  Biso   1.000  C
  C885     1.0000 0.05511  0.74824  0.30449  Biso   1.000  C
  C886     1.0000 0.76107  0.01962  0.28720  Biso   1.000  C
  C887     1.0000 0.79699  0.77218  0.99042  Biso   1.000  C
  C888     1.0000 0.56022  0.72436  0.24559  Biso   1.000  C
  C889     1.0000 0.73429  0.98702  0.25759  Biso   1.000  C
  C890     1.0000 0.32312  0.74563  0.01071  Biso   1.000  C
  C891     1.0000 0.02861  0.27793  0.75167  Biso   1.000  C
  C892     1.0000 0.23950  0.97652  0.26613  Biso   1.000  C
  C893     1.0000 0.78669  0.70596  0.55190  Biso   1.000  C
  C894     1.0000 0.52082  0.26286  0.77232  Biso   1.000  C
  C895     1.0000 0.81880  0.47766  0.26843  Biso   1.000  C
  C896     1.0000 0.24126  0.23382  0.99291  Biso   1.000  C
  C897     1.0000 0.57166  0.76520  0.74554  Biso   1.000  C
  C898     1.0000 0.28623  0.46703  0.22232  Biso   1.000  C
  C899     1.0000 0.77878  0.20509  0.51610  Biso   1.000  C
  C900     1.0000 0.06413  0.74673  0.80675  Biso   1.000  C
  C901     1.0000 0.32752  0.01559  0.76782  Biso   1.000  C
  C902     1.0000 0.73123  0.23973  0.02127  Biso   1.000  C
  C903     1.0000 0.02281  0.71713  0.27781  Biso   1.000  C
  C904     1.0000 0.79494  0.01832  0.78717  Biso   1.000  C
  C905     1.0000 0.25148  0.26073  0.49137  Biso   1.000  C
  C906     1.0000 0.52775  0.69544  0.27534  Biso   1.000  C
  C907     1.0000 0.25144  0.48677  0.75228  Biso   1.000  C
  C908     1.0000 0.82087  0.74850  0.03167  Biso   1.000  C
  C909     1.0000 0.49724  0.22731  0.28023  Biso   1.000  C
  C910     1.0000 0.78315  0.52425  0.79985  Biso   1.000  C
  C911     1.0000 0.31444  0.75452  0.53397  Biso   1.000  C
  C912     1.0000 0.00319  0.24657  0.21822  Biso   1.000  C
  C913     1.0000 0.80285  0.51041  0.75297  Biso   1.000  C
  C914     1.0000 0.76754  0.75426  0.53147  Biso   1.000  C
  C915     1.0000 0.55619  0.74603  0.79408  Biso   1.000  C
  C916     1.0000 0.30057  0.47503  0.77020  Biso   1.000  C
  C917     1.0000 0.27213  0.75977  0.01945  Biso   1.000  C
  C918     1.0000 0.05313  0.72957  0.75805  Biso   1.000  C
  C919     1.0000 0.77675  0.00090  0.74011  Biso   1.000  C
  C920     1.0000 0.79228  0.25422  0.49721  Biso   1.000  C
  C921     1.0000 0.01645  0.22810  0.76641  Biso   1.000  C
  C922     1.0000 0.27859  0.02833  0.78200  Biso   1.000  C
  C923     1.0000 0.28607  0.25849  0.01169  Biso   1.000  C
  C924     1.0000 0.54856  0.24516  0.72754  Biso   1.000  C
  C925     1.0000 0.26938  0.48553  0.27061  Biso   1.000  C
  C926     1.0000 0.29347  0.23966  0.51333  Biso   1.000  C
  C927     1.0000 0.50761  0.24354  0.23021  Biso   1.000  C
  C928     1.0000 0.76898  0.48486  0.25078  Biso   1.000  C
  C929     1.0000 0.78103  0.22283  0.00931  Biso   1.000  C
  C930     1.0000 0.02608  0.26704  0.26094  Biso   1.000  C
  C931     1.0000 0.28724  0.99127  0.28730  Biso   1.000  C
  C932     1.0000 0.26383  0.74103  0.54156  Biso   1.000  C
  C933     1.0000 0.03177  0.76698  0.26002  Biso   1.000  C
  C934     1.0000 0.78084  0.00454  0.23546  Biso   1.000  C
  C935     1.0000 0.77432  0.72899  0.01179  Biso   1.000  C
  C936     1.0000 0.54603  0.74280  0.29296  Biso   1.000  C
  C937     1.0000 0.75848  0.24538  0.01301  Biso   1.000  C
  C938     1.0000 0.03766  0.74339  0.28114  Biso   1.000  C
  C939     1.0000 0.30250  0.03123  0.76164  Biso   1.000  C
  C940     1.0000 0.27310  0.26341  0.51186  Biso   1.000  C
  C941     1.0000 0.54765  0.71831  0.27108  Biso   1.000  C
  C942     1.0000 0.80018  0.00272  0.76168  Biso   1.000  C
  C943     1.0000 0.79921  0.75033  0.01068  Biso   1.000  C
  C944     1.0000 0.50761  0.22125  0.25263  Biso   1.000  C
  C945     1.0000 0.27876  0.47578  0.74615  Biso   1.000  C
  C946     1.0000 0.28678  0.76209  0.54475  Biso   1.000  C
  C947     1.0000 0.02604  0.24574  0.23793  Biso   1.000  C
  C948     1.0000 0.77839  0.51321  0.77230  Biso   1.000  C
  C949     1.0000 0.29592  0.73937  0.02328  Biso   1.000  C
  C950     1.0000 0.01487  0.25078  0.74526  Biso   1.000  C
  C951     1.0000 0.75977  0.00304  0.26204  Biso   1.000  C
  C952     1.0000 0.79038  0.73145  0.53607  Biso   1.000  C
  C953     1.0000 0.54183  0.26807  0.75177  Biso   1.000  C
  C954     1.0000 0.26411  0.99528  0.26708  Biso   1.000  C
  C955     1.0000 0.26323  0.23563  0.01431  Biso   1.000  C
  C956     1.0000 0.55627  0.76951  0.77185  Biso   1.000  C
  C957     1.0000 0.79087  0.48611  0.27384  Biso   1.000  C
  C958     1.0000 0.77116  0.23030  0.49976  Biso   1.000  C
  C959     1.0000 0.05099  0.75245  0.78022  Biso   1.000  C
  C960     1.0000 0.29174  0.48185  0.24865  Biso   1.000  C
  Cu1      1.0000 0.04281  0.48957  0.66321  Biso   1.000  Cu
  Cu2      1.0000 0.68215  0.99130  0.50223  Biso   1.000  Cu
  Cu3      1.0000 0.53369  0.64383  0.02811  Biso   1.000  Cu
  Cu4      1.0000 0.53818  0.50167  0.85790  Biso   1.000  Cu
  Cu5      1.0000 0.18613  0.00056  0.02409  Biso   1.000  Cu
  Cu6      1.0000 0.02941  0.64819  0.52288  Biso   1.000  Cu
  Cu7      1.0000 0.53532  0.99813  0.66951  Biso   1.000  Cu
  Cu8      1.0000 0.88203  0.49201  0.51245  Biso   1.000  Cu
  Cu9      1.0000 0.02356  0.14933  0.00732  Biso   1.000  Cu
  Cu10     1.0000 0.03439  0.99086  0.86065  Biso   1.000  Cu
  Cu11     1.0000 0.37636  0.49871  0.00934  Biso   1.000  Cu
  Cu12     1.0000 0.53674  0.14608  0.49536  Biso   1.000  Cu
  Cu13     1.0000 0.02888  0.50183  0.35944  Biso   1.000  Cu
  Cu14     1.0000 0.37692  0.99890  0.52470  Biso   1.000  Cu
  Cu15     1.0000 0.52546  0.34038  0.99794  Biso   1.000  Cu
  Cu16     1.0000 0.52941  0.48571  0.16356  Biso   1.000  Cu
  Cu17     1.0000 0.87560  0.99019  0.00159  Biso   1.000  Cu
  Cu18     1.0000 0.03137  0.34376  0.50518  Biso   1.000  Cu
  Cu19     1.0000 0.52588  0.98538  0.36289  Biso   1.000  Cu
  Cu20     1.0000 0.18775  0.49952  0.51002  Biso   1.000  Cu
  Cu21     1.0000 0.03726  0.84323  0.01797  Biso   1.000  Cu
  Cu22     1.0000 0.02801  0.99884  0.16620  Biso   1.000  Cu
  Cu23     1.0000 0.68434  0.49021  0.00810  Biso   1.000  Cu
  Cu24     1.0000 0.52668  0.84108  0.52628  Biso   1.000  Cu
  Cu25     1.0000 0.23850  0.00341  0.02365  Biso   1.000  Cu
  Cu26     1.0000 0.02119  0.20428  0.00547  Biso   1.000  Cu
  Cu27     1.0000 0.02209  0.00143  0.21944  Biso   1.000  Cu
  Cu28     1.0000 0.73662  0.98806  0.49936  Biso   1.000  Cu
  Cu29     1.0000 0.53902  0.19873  0.49505  Biso   1.000  Cu
  Cu30     1.0000 0.52178  0.97989  0.30945  Biso   1.000  Cu
  Cu31     1.0000 0.32356  0.49848  0.00730  Biso   1.000  Cu
  Cu32     1.0000 0.53295  0.69778  0.02879  Biso   1.000  Cu
  Cu33     1.0000 0.52663  0.48240  0.21781  Biso   1.000  Cu
  Cu34     1.0000 0.82709  0.49216  0.51638  Biso   1.000  Cu
  Cu35     1.0000 0.03051  0.70232  0.52352  Biso   1.000  Cu
  Cu36     1.0000 0.02912  0.50606  0.30665  Biso   1.000  Cu
  Cu37     1.0000 0.82156  0.98652  0.00071  Biso   1.000  Cu
  Cu38     1.0000 0.03879  0.78964  0.02156  Biso   1.000  Cu
  Cu39     1.0000 0.03888  0.98910  0.80711  Biso   1.000  Cu
  Cu40     1.0000 0.32165  0.99965  0.52897  Biso   1.000  Cu
  Cu41     1.0000 0.52527  0.78487  0.53002  Biso   1.000  Cu
  Cu42     1.0000 0.54281  0.00401  0.72237  Biso   1.000  Cu
  Cu43     1.0000 0.73728  0.49088  0.00988  Biso   1.000  Cu
  Cu44     1.0000 0.52470  0.28724  0.99382  Biso   1.000  Cu
  Cu45     1.0000 0.53475  0.50521  0.80372  Biso   1.000  Cu
  Cu46     1.0000 0.24303  0.50148  0.50684  Biso   1.000  Cu
  Cu47     1.0000 0.03416  0.28964  0.50305  Biso   1.000  Cu
  Cu48     1.0000 0.04089  0.48881  0.71825  Biso   1.000  Cu
  H1       1.0000 0.25722  0.79493  0.55942  Biso   1.000  H
  H2       1.0000 0.57806  0.29332  0.74033  Biso   1.000  H
  H3       1.0000 0.75907  0.50365  0.30300  Biso   1.000  H
  H4       1.0000 0.78048  0.77399  0.97311  Biso   1.000  H
  H5       1.0000 0.99698  0.22467  0.71024  Biso   1.000  H
  H6       1.0000 0.32188  0.51278  0.26983  Biso   1.000  H
  H7       1.0000 0.29125  0.29230  0.54499  Biso   1.000  H
  H8       1.0000 0.02722  0.78206  0.75232  Biso   1.000  H
  H9       1.0000 0.77767  0.03536  0.29057  Biso   1.000  H
  H10      1.0000 0.78909  0.27462  0.99318  Biso   1.000  H
  H11      1.0000 0.52129  0.79459  0.79281  Biso   1.000  H
  H12      1.0000 0.28589  0.02880  0.24209  Biso   1.000  H
  H13      1.0000 0.73679  0.25281  0.47492  Biso   1.000  H
  H14      1.0000 0.57953  0.73993  0.24661  Biso   1.000  H
  H15      1.0000 0.30613  0.45851  0.71124  Biso   1.000  H
  H16      1.0000 0.27901  0.21650  0.05579  Biso   1.000  H
  H17      1.0000 0.07131  0.76624  0.30499  Biso   1.000  H
  H18      1.0000 0.75043  0.48819  0.74366  Biso   1.000  H
  H19      1.0000 0.81832  0.75898  0.50953  Biso   1.000  H
  H20      1.0000 0.06283  0.22156  0.25525  Biso   1.000  H
  H21      1.0000 0.27665  0.04788  0.72814  Biso   1.000  H
  H22      1.0000 0.26657  0.70546  0.04362  Biso   1.000  H
  H23      1.0000 0.52838  0.18942  0.22651  Biso   1.000  H
  H24      1.0000 0.83048  0.97146  0.74055  Biso   1.000  H
  H25      1.0000 0.29888  0.05376  0.81389  Biso   1.000  H
  H26      1.0000 0.81084  0.24633  0.03308  Biso   1.000  H
  H27      1.0000 0.00475  0.73784  0.23377  Biso   1.000  H
  H28      1.0000 0.80096  0.97248  0.71137  Biso   1.000  H
  H29      1.0000 0.26460  0.20605  0.49929  Biso   1.000  H
  H30      1.0000 0.57332  0.72028  0.32046  Biso   1.000  H
  H31      1.0000 0.27570  0.50478  0.79457  Biso   1.000  H
  H32      1.0000 0.80157  0.69264  0.02997  Biso   1.000  H
  H33      1.0000 0.46884  0.26457  0.24520  Biso   1.000  H
  H34      1.0000 0.77655  0.53201  0.72341  Biso   1.000  H
  H35      1.0000 0.24474  0.76595  0.50628  Biso   1.000  H
  H36      1.0000 0.98898  0.24661  0.28333  Biso   1.000  H
  H37      1.0000 0.76056  0.96826  0.21349  Biso   1.000  H
  H38      1.0000 0.29461  0.78514  0.98664  Biso   1.000  H
  H39      1.0000 0.98739  0.24961  0.79476  Biso   1.000  H
  H40      1.0000 0.26062  0.96574  0.31837  Biso   1.000  H
  H41      1.0000 0.79150  0.78884  0.55148  Biso   1.000  H
  H42      1.0000 0.51859  0.21539  0.75022  Biso   1.000  H
  H43      1.0000 0.74307  0.51951  0.26986  Biso   1.000  H
  H44      1.0000 0.25911  0.29065  0.98617  Biso   1.000  H
  H45      1.0000 0.57504  0.71564  0.76588  Biso   1.000  H
  H46      1.0000 0.29478  0.46288  0.30314  Biso   1.000  H
  H47      1.0000 0.76589  0.28663  0.51677  Biso   1.000  H
  H48      1.0000 0.07186  0.75879  0.72714  Biso   1.000  H
  H49      1.0000 0.24472  0.51447  0.24512  Biso   1.000  H
  H50      1.0000 0.32927  0.26635  0.53077  Biso   1.000  H
  H51      1.0000 0.54670  0.22780  0.21156  Biso   1.000  H
  H52      1.0000 0.78780  0.45013  0.22282  Biso   1.000  H
  H53      1.0000 0.74934  0.19341  0.98678  Biso   1.000  H
  H54      1.0000 0.05652  0.29418  0.23655  Biso   1.000  H
  H55      1.0000 0.31769  0.01787  0.26264  Biso   1.000  H
  H56      1.0000 0.28293  0.71504  0.57622  Biso   1.000  H
  H57      1.0000 0.05685  0.80021  0.28136  Biso   1.000  H
  H58      1.0000 0.80668  0.04048  0.25541  Biso   1.000  H
  H59      1.0000 0.74173  0.75849  0.00160  Biso   1.000  H
  H60      1.0000 0.51676  0.76820  0.26598  Biso   1.000  H
  H61      1.0000 0.82820  0.48122  0.77975  Biso   1.000  H
  H62      1.0000 0.73871  0.72298  0.51081  Biso   1.000  H
  H63      1.0000 0.53856  0.77399  0.82852  Biso   1.000  H
  H64      1.0000 0.32841  0.44463  0.74994  Biso   1.000  H
  H65      1.0000 0.24652  0.74111  0.05582  Biso   1.000  H
  H66      1.0000 0.03694  0.69530  0.78812  Biso   1.000  H
  H67      1.0000 0.74398  0.03048  0.76089  Biso   1.000  H
  H68      1.0000 0.82494  0.22662  0.47573  Biso   1.000  H
  H69      1.0000 0.04304  0.20163  0.73919  Biso   1.000  H
  H70      1.0000 0.24889  0.00619  0.75365  Biso   1.000  H
  H71      1.0000 0.31558  0.23864  0.04262  Biso   1.000  H
  H72      1.0000 0.58153  0.26896  0.70303  Biso   1.000  H
  H73      1.0000 0.80514  0.53397  0.80668  Biso   1.000  H
  H74      1.0000 0.76690  0.70012  0.56287  Biso   1.000  H
  H75      1.0000 0.59033  0.74965  0.74386  Biso   1.000  H
  H76      1.0000 0.24369  0.49290  0.77415  Biso   1.000  H
  H77      1.0000 0.32937  0.76647  0.00428  Biso   1.000  H
  H78      1.0000 0.07746  0.72818  0.81441  Biso   1.000  H
  H79      1.0000 0.77456  0.02893  0.79244  Biso   1.000  H
  H80      1.0000 0.79863  0.20359  0.53019  Biso   1.000  H
  H81      1.0000 0.03435  0.28475  0.77295  Biso   1.000  H
  H82      1.0000 0.32877  0.00403  0.78884  Biso   1.000  H
  H83      1.0000 0.24259  0.24584  0.97374  Biso   1.000  H
  H84      1.0000 0.50677  0.24364  0.77130  Biso   1.000  H
  H85      1.0000 0.26658  0.45567  0.21957  Biso   1.000  H
  H86      1.0000 0.24773  0.24236  0.47669  Biso   1.000  H
  H87      1.0000 0.48470  0.24769  0.28474  Biso   1.000  H
  H88      1.0000 0.82384  0.47019  0.24672  Biso   1.000  H
  H89      1.0000 0.72301  0.21739  0.02689  Biso   1.000  H
  H90      1.0000 0.98898  0.26509  0.21687  Biso   1.000  H
  H91      1.0000 0.23620  0.95741  0.28159  Biso   1.000  H
  H92      1.0000 0.31863  0.73179  0.52620  Biso   1.000  H
  H93      1.0000 0.01421  0.70955  0.25679  Biso   1.000  H
  H94      1.0000 0.73007  0.97871  0.23607  Biso   1.000  H
  H95      1.0000 0.81997  0.73108  0.04893  Biso   1.000  H
  H96      1.0000 0.51650  0.69091  0.29592  Biso   1.000  H
  H97      1.0000 0.89738  0.98498  0.91406  Biso   1.000  H
  H98      1.0000 0.94275  0.86526  0.01971  Biso   1.000  H
  H99      1.0000 0.03374  0.90293  0.88383  Biso   1.000  H
  H100     1.0000 0.40164  0.00875  0.60968  Biso   1.000  H
  H101     1.0000 0.43784  0.86616  0.53345  Biso   1.000  H
  H102     1.0000 0.52175  0.90661  0.65592  Biso   1.000  H
  H103     1.0000 0.66905  0.50103  0.91778  Biso   1.000  H
  H104     1.0000 0.61815  0.35998  0.99832  Biso   1.000  H
  H105     1.0000 0.52798  0.40832  0.86608  Biso   1.000  H
  H106     1.0000 0.16930  0.48429  0.59985  Biso   1.000  H
  H107     1.0000 0.12415  0.36771  0.49594  Biso   1.000  H
  H108     1.0000 0.03719  0.39909  0.63875  Biso   1.000  H
  H109     1.0000 0.16267  0.00301  0.11537  Biso   1.000  H
  H110     1.0000 0.11143  0.13210  0.02368  Biso   1.000  H
  H111     1.0000 0.01552  0.08776  0.14633  Biso   1.000  H
  H112     1.0000 0.65820  0.99757  0.41677  Biso   1.000  H
  H113     1.0000 0.62873  0.12399  0.49550  Biso   1.000  H
  H114     1.0000 0.52972  0.07772  0.36741  Biso   1.000  H
  H115     1.0000 0.39332  0.50534  0.09971  Biso   1.000  H
  H116     1.0000 0.43974  0.62745  0.01139  Biso   1.000  H
  H117     1.0000 0.53541  0.57867  0.15566  Biso   1.000  H
  H118     1.0000 0.89323  0.49861  0.42471  Biso   1.000  H
  H119     1.0000 0.93873  0.62977  0.51602  Biso   1.000  H
  H120     1.0000 0.02701  0.59488  0.38532  Biso   1.000  H
  H121     1.0000 0.12766  0.00247  0.88593  Biso   1.000  H
  H122     1.0000 0.89415  0.07826  0.98518  Biso   1.000  H
  H123     1.0000 0.03573  0.87077  0.11079  Biso   1.000  H
  H124     1.0000 0.62455  0.98545  0.64130  Biso   1.000  H
  H125     1.0000 0.40303  0.08954  0.52412  Biso   1.000  H
  H126     1.0000 0.53766  0.85446  0.43408  Biso   1.000  H
  H127     1.0000 0.44767  0.49588  0.87994  Biso   1.000  H
  H128     1.0000 0.66190  0.58552  0.01047  Biso   1.000  H
  H129     1.0000 0.52341  0.35589  0.08779  Biso   1.000  H
  H130     1.0000 0.95162  0.50277  0.64070  Biso   1.000  H
  H131     1.0000 0.16484  0.59126  0.51269  Biso   1.000  H
  H132     1.0000 0.01386  0.36392  0.41507  Biso   1.000  H
  H133     1.0000 0.93858  0.99983  0.14019  Biso   1.000  H
  H134     1.0000 0.16833  0.91135  0.02284  Biso   1.000  H
  H135     1.0000 0.02193  0.12554  0.91385  Biso   1.000  H
  H136     1.0000 0.43293  0.98324  0.39133  Biso   1.000  H
  H137     1.0000 0.65616  0.89828  0.50541  Biso   1.000  H
  H138     1.0000 0.54395  0.12884  0.58977  Biso   1.000  H
  H139     1.0000 0.62131  0.47795  0.14613  Biso   1.000  H
  H140     1.0000 0.39436  0.40434  0.99704  Biso   1.000  H
  H141     1.0000 0.54712  0.62924  0.93683  Biso   1.000  H
  H142     1.0000 0.12388  0.49952  0.37722  Biso   1.000  H
  H143     1.0000 0.90009  0.40093  0.51402  Biso   1.000  H
  H144     1.0000 0.05027  0.62662  0.61144  Biso   1.000  H
  H145     1.0000 0.62930  0.50282  0.87551  Biso   1.000  H
  H146     1.0000 0.89850  0.58498  0.51520  Biso   1.000  H
  H147     1.0000 0.53327  0.86530  0.61338  Biso   1.000  H
  H148     1.0000 0.13072  0.46967  0.64184  Biso   1.000  H
  H149     1.0000 0.39630  0.58569  0.00316  Biso   1.000  H
  H150     1.0000 0.03745  0.85767  0.92887  Biso   1.000  H
  H151     1.0000 0.94125  0.98480  0.87385  Biso   1.000  H
  H152     1.0000 0.66957  0.08135  0.50782  Biso   1.000  H
  H153     1.0000 0.03650  0.36034  0.59898  Biso   1.000  H
  H154     1.0000 0.44818  0.00888  0.65185  Biso   1.000  H
  H155     1.0000 0.15761  0.08992  0.02794  Biso   1.000  H
  H156     1.0000 0.52275  0.36547  0.90428  Biso   1.000  H
  H157     1.0000 0.43939  0.49610  0.13978  Biso   1.000  H
  H158     1.0000 0.16777  0.40387  0.51096  Biso   1.000  H
  H159     1.0000 0.53380  0.12134  0.40397  Biso   1.000  H
  H160     1.0000 0.93776  0.50972  0.37988  Biso   1.000  H
  H161     1.0000 0.66271  0.39688  0.00512  Biso   1.000  H
  H162     1.0000 0.01113  0.13157  0.09730  Biso   1.000  H
  H163     1.0000 0.12161  0.99826  0.15396  Biso   1.000  H
  H164     1.0000 0.39358  0.91094  0.53591  Biso   1.000  H
  H165     1.0000 0.02674  0.63213  0.42949  Biso   1.000  H
  H166     1.0000 0.61338  0.99917  0.37295  Biso   1.000  H
  H167     1.0000 0.89822  0.90217  0.01393  Biso   1.000  H
  H168     1.0000 0.53496  0.62473  0.11558  Biso   1.000  H
  H169     1.0000 0.02850  0.08232  0.87655  Biso   1.000  H
  H170     1.0000 0.89473  0.99302  0.09041  Biso   1.000  H
  H171     1.0000 0.13135  0.86945  0.01994  Biso   1.000  H
  H172     1.0000 0.54691  0.08766  0.63577  Biso   1.000  H
  H173     1.0000 0.39550  0.99490  0.43138  Biso   1.000  H
  H174     1.0000 0.61597  0.85565  0.51296  Biso   1.000  H
  H175     1.0000 0.53863  0.58955  0.88918  Biso   1.000  H
  H176     1.0000 0.66082  0.48190  0.10108  Biso   1.000  H
  H177     1.0000 0.43508  0.36490  0.99158  Biso   1.000  H
  H178     1.0000 0.05957  0.58211  0.64841  Biso   1.000  H
  H179     1.0000 0.16309  0.50758  0.41874  Biso   1.000  H
  H180     1.0000 0.94334  0.35775  0.51212  Biso   1.000  H
  H181     1.0000 0.02879  0.90848  0.14794  Biso   1.000  H
  H182     1.0000 0.16592  0.99934  0.92734  Biso   1.000  H
  H183     1.0000 0.93357  0.12219  0.98686  Biso   1.000  H
  H184     1.0000 0.53299  0.89591  0.39429  Biso   1.000  H
  H185     1.0000 0.66451  0.98406  0.59258  Biso   1.000  H
  H186     1.0000 0.44600  0.13064  0.51341  Biso   1.000  H
  H187     1.0000 0.51777  0.39889  0.13786  Biso   1.000  H
  H188     1.0000 0.40243  0.50143  0.91940  Biso   1.000  H
  H189     1.0000 0.62850  0.62287  0.02383  Biso   1.000  H
  H190     1.0000 0.01776  0.41097  0.37133  Biso   1.000  H
  H191     1.0000 0.90554  0.49089  0.60305  Biso   1.000  H
  H192     1.0000 0.11818  0.63541  0.52330  Biso   1.000  H
  H193     1.0000 0.29596  0.85908  0.53136  Biso   1.000  H
  H194     1.0000 0.52929  0.27381  0.84272  Biso   1.000  H
  H195     1.0000 0.88826  0.50093  0.28318  Biso   1.000  H
  H196     1.0000 0.80621  0.84036  0.00346  Biso   1.000  H
  H197     1.0000 0.02625  0.25910  0.64340  Biso   1.000  H
  H198     1.0000 0.38591  0.47393  0.23304  Biso   1.000  H
  H199     1.0000 0.26678  0.36033  0.50336  Biso   1.000  H
  H200     1.0000 0.03564  0.76320  0.87477  Biso   1.000  H
  H201     1.0000 0.66478  0.00373  0.27399  Biso   1.000  H
  H202     1.0000 0.75187  0.34222  0.02856  Biso   1.000  H
  H203     1.0000 0.54914  0.77036  0.66906  Biso   1.000  H
  H204     1.0000 0.16507  0.00483  0.25411  Biso   1.000  H
  H205     1.0000 0.76701  0.13169  0.50049  Biso   1.000  H
  H206     1.0000 0.53399  0.71476  0.17556  Biso   1.000  H
  H207     1.0000 0.18551  0.46045  0.73623  Biso   1.000  H
  H208     1.0000 0.25465  0.14851  0.02145  Biso   1.000  H
  H209     1.0000 0.04512  0.73264  0.38256  Biso   1.000  H
  H210     1.0000 0.68321  0.51636  0.78108  Biso   1.000  H
  H211     1.0000 0.80028  0.63627  0.52849  Biso   1.000  H
  H212     1.0000 0.01233  0.22937  0.14999  Biso   1.000  H
  H213     1.0000 0.39870  0.03042  0.74810  Biso   1.000  H
  H214     1.0000 0.30119  0.64131  0.99904  Biso   1.000  H
  H215     1.0000 0.53339  0.21143  0.34421  Biso   1.000  H
  H216     1.0000 0.89786  0.00939  0.77511  Biso   1.000  H
  H217     1.0000 0.26030  0.50223  0.36559  Biso   1.000  H
  H218     1.0000 0.39623  0.22611  0.49889  Biso   1.000  H
  H219     1.0000 0.50608  0.33624  0.22853  Biso   1.000  H
  H220     1.0000 0.75488  0.48902  0.15450  Biso   1.000  H
  H221     1.0000 0.88117  0.22100  0.98471  Biso   1.000  H
  H222     1.0000 0.02682  0.36178  0.27386  Biso   1.000  H
  H223     1.0000 0.30135  0.99927  0.37660  Biso   1.000  H
  H224     1.0000 0.17782  0.72971  0.52538  Biso   1.000  H
  H225     1.0000 0.01411  0.85767  0.24782  Biso   1.000  H
  H226     1.0000 0.79509  0.99831  0.14097  Biso   1.000  H
  H227     1.0000 0.67625  0.72045  0.03717  Biso   1.000  H
  H228     1.0000 0.55008  0.83767  0.29962  Biso   1.000  H
  H229     1.0000 0.81233  0.49358  0.66138  Biso   1.000  H
  H230     1.0000 0.66884  0.76227  0.53658  Biso   1.000  H
  H231     1.0000 0.53675  0.65438  0.80035  Biso   1.000  H
  H232     1.0000 0.31006  0.47184  0.86455  Biso   1.000  H
  H233     1.0000 0.18087  0.77172  0.00984  Biso   1.000  H
  H234     1.0000 0.06458  0.62488  0.75023  Biso   1.000  H
  H235     1.0000 0.76513  0.99706  0.63740  Biso   1.000  H
  H236     1.0000 0.89218  0.26301  0.51195  Biso   1.000  H
  H237     1.0000 0.02294  0.12884  0.77411  Biso   1.000  H
  H238     1.0000 0.26598  0.01156  0.88023  Biso   1.000  H
  H239     1.0000 0.38265  0.26711  0.00469  Biso   1.000  H
  H240     1.0000 0.57103  0.15003  0.72540  Biso   1.000  H
  H241     1.0000 0.76771  0.48940  0.86405  Biso   1.000  H
  H242     1.0000 0.88732  0.72474  0.53956  Biso   1.000  H
  H243     1.0000 0.54809  0.85993  0.75190  Biso   1.000  H
  H244     1.0000 0.26850  0.49781  0.65177  Biso   1.000  H
  H245     1.0000 0.39034  0.72767  0.02214  Biso   1.000  H
  H246     1.0000 0.05477  0.84721  0.78791  Biso   1.000  H
  H247     1.0000 0.80466  0.99103  0.85434  Biso   1.000  H
  H248     1.0000 0.68083  0.21895  0.50837  Biso   1.000  H
  H249     1.0000 0.00771  0.34460  0.73083  Biso   1.000  H
  H250     1.0000 0.31002  0.00978  0.67187  Biso   1.000  H
  H251     1.0000 0.16648  0.22824  0.01732  Biso   1.000  H
  H252     1.0000 0.54189  0.36115  0.76852  Biso   1.000  H
  H253     1.0000 0.29634  0.48468  0.15035  Biso   1.000  H
  H254     1.0000 0.17802  0.27198  0.50280  Biso   1.000  H
  H255     1.0000 0.49422  0.12193  0.27309  Biso   1.000  H
  H256     1.0000 0.79931  0.48827  0.37055  Biso   1.000  H
  H257     1.0000 0.66208  0.25852  0.00418  Biso   1.000  H
  H258     1.0000 0.02814  0.14907  0.23808  Biso   1.000  H
  H259     1.0000 0.25739  0.00536  0.16993  Biso   1.000  H
  H260     1.0000 0.38634  0.77115  0.55318  Biso   1.000  H
  H261     1.0000 0.04713  0.65075  0.29090  Biso   1.000  H
  H262     1.0000 0.75173  0.99044  0.35553  Biso   1.000  H
  H263     1.0000 0.89634  0.76301  0.01554  Biso   1.000  H
  H264     1.0000 0.54063  0.62326  0.25460  Biso   1.000  H
  H265     1.0000 0.03612  0.22033  0.85604  Biso   1.000  H
  H266     1.0000 0.87311  0.00697  0.22953  Biso   1.000  H
  H267     1.0000 0.26829  0.86174  0.03496  Biso   1.000  H
  H268     1.0000 0.55781  0.22786  0.63496  Biso   1.000  H
  H269     1.0000 0.38107  0.96963  0.29556  Biso   1.000  H
  H270     1.0000 0.75217  0.84460  0.50081  Biso   1.000  H
  H271     1.0000 0.56683  0.72880  0.89221  Biso   1.000  H
  H272     1.0000 0.67676  0.46792  0.24043  Biso   1.000  H
  H273     1.0000 0.29557  0.35587  0.01274  Biso   1.000  H
  H274     1.0000 0.04118  0.72043  0.66720  Biso   1.000  H
  H275     1.0000 0.17902  0.48260  0.28493  Biso   1.000  H
  H276     1.0000 0.80807  0.34791  0.49694  Biso   1.000  H
  H277     1.0000 0.03717  0.77055  0.16296  Biso   1.000  H
  H278     1.0000 0.17748  0.02369  0.79078  Biso   1.000  H
  H279     1.0000 0.79353  0.13085  0.99421  Biso   1.000  H
  H280     1.0000 0.53427  0.75709  0.39033  Biso   1.000  H
  H281     1.0000 0.68102  0.99531  0.73496  Biso   1.000  H
  H282     1.0000 0.30882  0.14621  0.54191  Biso   1.000  H
  H283     1.0000 0.51026  0.25804  0.13522  Biso   1.000  H
  H284     1.0000 0.39986  0.48282  0.77995  Biso   1.000  H
  H285     1.0000 0.76103  0.63778  0.99999  Biso   1.000  H
  H286     1.0000 0.03361  0.27436  0.35729  Biso   1.000  H
  H287     1.0000 0.90117  0.51750  0.73980  Biso   1.000  H
  H288     1.0000 0.25801  0.64359  0.53651  Biso   1.000  H
  H289     1.0000 0.11408  0.22763  0.01494  Biso   1.000  H
  H290     1.0000 0.02847  0.09507  0.23957  Biso   1.000  H
  H291     1.0000 0.25920  0.00020  0.11875  Biso   1.000  H
  H292     1.0000 0.62465  0.21871  0.50255  Biso   1.000  H
  H293     1.0000 0.48449  0.06772  0.28502  Biso   1.000  H
  H294     1.0000 0.75270  0.98690  0.40894  Biso   1.000  H
  H295     1.0000 0.44634  0.71874  0.03050  Biso   1.000  H
  H296     1.0000 0.53378  0.56768  0.25140  Biso   1.000  H
  H297     1.0000 0.29709  0.50058  0.09723  Biso   1.000  H
  H298     1.0000 0.93854  0.72601  0.53880  Biso   1.000  H
  H299     1.0000 0.04208  0.59706  0.28884  Biso   1.000  H
  H300     1.0000 0.79860  0.49162  0.42602  Biso   1.000  H
  H301     1.0000 0.95029  0.76751  0.01924  Biso   1.000  H
  H302     1.0000 0.05132  0.90199  0.78833  Biso   1.000  H
  H303     1.0000 0.80325  0.98892  0.90949  Biso   1.000  H
  H304     1.0000 0.43560  0.77362  0.54857  Biso   1.000  H
  H305     1.0000 0.54370  0.91478  0.74934  Biso   1.000  H
  H306     1.0000 0.30560  0.00235  0.62196  Biso   1.000  H
  H307     1.0000 0.60859  0.26390  0.99601  Biso   1.000  H
  H308     1.0000 0.54844  0.41614  0.77406  Biso   1.000  H
  H309     1.0000 0.76522  0.48312  0.91936  Biso   1.000  H
  H310     1.0000 0.12069  0.27318  0.50006  Biso   1.000  H
  H311     1.0000 0.00893  0.39777  0.73103  Biso   1.000  H
  H312     1.0000 0.26146  0.51054  0.59778  Biso   1.000  H
  H313     1.0000 0.26282  0.00613  0.92958  Biso   1.000  H
  H314     1.0000 0.93641  0.21890  0.97948  Biso   1.000  H
  H315     1.0000 0.01412  0.91097  0.24344  Biso   1.000  H
  H316     1.0000 0.76011  0.98943  0.58693  Biso   1.000  H
  H317     1.0000 0.44740  0.22437  0.49426  Biso   1.000  H
  H318     1.0000 0.55263  0.89313  0.29914  Biso   1.000  H
  H319     1.0000 0.30839  0.47439  0.91741  Biso   1.000  H
  H320     1.0000 0.62109  0.71992  0.04038  Biso   1.000  H
  H321     1.0000 0.51110  0.39118  0.23229  Biso   1.000  H
  H322     1.0000 0.81098  0.48048  0.60748  Biso   1.000  H
  H323     1.0000 0.12214  0.72885  0.52038  Biso   1.000  H
  H324     1.0000 0.02273  0.41582  0.27650  Biso   1.000  H
  H325     1.0000 0.79869  0.99643  0.08685  Biso   1.000  H
  H326     1.0000 0.12757  0.77220  0.01445  Biso   1.000  H
  H327     1.0000 0.02334  0.07386  0.78030  Biso   1.000  H
  H328     1.0000 0.30100  0.00736  0.43181  Biso   1.000  H
  H329     1.0000 0.61448  0.76314  0.52869  Biso   1.000  H
  H330     1.0000 0.56898  0.09595  0.73237  Biso   1.000  H
  H331     1.0000 0.75505  0.49257  0.09949  Biso   1.000  H
  H332     1.0000 0.43431  0.26625  0.99810  Biso   1.000  H
  H333     1.0000 0.52755  0.60359  0.79468  Biso   1.000  H
  H334     1.0000 0.25817  0.50156  0.41889  Biso   1.000  H
  H335     1.0000 0.94757  0.26328  0.51675  Biso   1.000  H
  H336     1.0000 0.06678  0.57481  0.74434  Biso   1.000  H
  H337     1.0000 0.03796  0.21889  0.91141  Biso   1.000  H
  H338     1.0000 0.92763  0.00649  0.23468  Biso   1.000  H
  H339     1.0000 0.26644  0.91483  0.03550  Biso   1.000  H
  H340     1.0000 0.55839  0.22534  0.58260  Biso   1.000  H
  H341     1.0000 0.43452  0.95111  0.30245  Biso   1.000  H
  H342     1.0000 0.75335  0.89477  0.49624  Biso   1.000  H
  H343     1.0000 0.56229  0.72441  0.94781  Biso   1.000  H
  H344     1.0000 0.62128  0.47165  0.24094  Biso   1.000  H
  H345     1.0000 0.29931  0.40973  0.01903  Biso   1.000  H
  H346     1.0000 0.02450  0.71867  0.61752  Biso   1.000  H
  H347     1.0000 0.12329  0.48866  0.28251  Biso   1.000  H
  H348     1.0000 0.80611  0.40087  0.50214  Biso   1.000  H
  H349     1.0000 0.05048  0.77241  0.10929  Biso   1.000  H
  H350     1.0000 0.12390  0.01463  0.79077  Biso   1.000  H
  H351     1.0000 0.79579  0.07808  0.99766  Biso   1.000  H
  H352     1.0000 0.52498  0.75965  0.44353  Biso   1.000  H
  H353     1.0000 0.63132  0.98608  0.73625  Biso   1.000  H
  H354     1.0000 0.30586  0.09204  0.54185  Biso   1.000  H
  H355     1.0000 0.52034  0.25995  0.08481  Biso   1.000  H
  H356     1.0000 0.45318  0.48543  0.78431  Biso   1.000  H
  H357     1.0000 0.75727  0.58438  0.99428  Biso   1.000  H
  H358     1.0000 0.03626  0.27331  0.41163  Biso   1.000  H
  H359     1.0000 0.95339  0.52123  0.73409  Biso   1.000  H
  H360     1.0000 0.26008  0.58863  0.53345  Biso   1.000  H
  H361     1.0000 0.03791  0.72756  0.43665  Biso   1.000  H
  H362     1.0000 0.45082  0.02850  0.74751  Biso   1.000  H
  H363     1.0000 0.75644  0.39729  0.01669  Biso   1.000  H
  H364     1.0000 0.53258  0.72016  0.12219  Biso   1.000  H
  H365     1.0000 0.95179  0.99695  0.77937  Biso   1.000  H
  H366     1.0000 0.26457  0.41142  0.49893  Biso   1.000  H
  H367     1.0000 0.54385  0.21374  0.40064  Biso   1.000  H
  H368     1.0000 0.13023  0.45155  0.73471  Biso   1.000  H
  H369     1.0000 0.80485  0.89653  0.99755  Biso   1.000  H
  H370     1.0000 0.01178  0.22653  0.09337  Biso   1.000  H
  H371     1.0000 0.62894  0.51557  0.77969  Biso   1.000  H
  H372     1.0000 0.30080  0.91163  0.52090  Biso   1.000  H
  H373     1.0000 0.03235  0.26336  0.59021  Biso   1.000  H
  H374     1.0000 0.60846  0.99769  0.27728  Biso   1.000  H
  H375     1.0000 0.30131  0.58674  0.00039  Biso   1.000  H
  H376     1.0000 0.52442  0.26991  0.90235  Biso   1.000  H
  H377     1.0000 0.11144  0.99606  0.24857  Biso   1.000  H
  H378     1.0000 0.80344  0.58288  0.51800  Biso   1.000  H
  H379     1.0000 0.55547  0.77169  0.61671  Biso   1.000  H
  H380     1.0000 0.94195  0.50449  0.28705  Biso   1.000  H
  H381     1.0000 0.25541  0.09748  0.02590  Biso   1.000  H
  H382     1.0000 0.02937  0.76365  0.92834  Biso   1.000  H
  H383     1.0000 0.43704  0.48013  0.23318  Biso   1.000  H
  H384     1.0000 0.76868  0.08106  0.51263  Biso   1.000  H
  H385     1.0000 0.25325  0.46366  0.34082  Biso   1.000  H
  H386     1.0000 0.30070  0.16807  0.49645  Biso   1.000  H
  H387     1.0000 0.47699  0.30938  0.21448  Biso   1.000  H
  H388     1.0000 0.70409  0.51476  0.23737  Biso   1.000  H
  H389     1.0000 0.85350  0.21423  0.01898  Biso   1.000  H
  H390     1.0000 0.99412  0.28339  0.32449  Biso   1.000  H
  H391     1.0000 0.30116  0.95846  0.35335  Biso   1.000  H
  H392     1.0000 0.21024  0.72650  0.49241  Biso   1.000  H
  H393     1.0000 0.00061  0.77221  0.19229  Biso   1.000  H
  H394     1.0000 0.80091  0.96316  0.17773  Biso   1.000  H
  H395     1.0000 0.76134  0.66082  0.04029  Biso   1.000  H
  H396     1.0000 0.57072  0.76061  0.36118  Biso   1.000  H
  H397     1.0000 0.81644  0.53184  0.68186  Biso   1.000  H
  H398     1.0000 0.75325  0.82677  0.54748  Biso   1.000  H
  H399     1.0000 0.57709  0.67636  0.80195  Biso   1.000  H
  H400     1.0000 0.31213  0.51040  0.83280  Biso   1.000  H
  H401     1.0000 0.26289  0.82561  0.99003  Biso   1.000  H
  H402     1.0000 0.07735  0.71462  0.69099  Biso   1.000  H
  H403     1.0000 0.76768  0.97163  0.67432  Biso   1.000  H
  H404     1.0000 0.80800  0.31797  0.53139  Biso   1.000  H
  H405     1.0000 0.99315  0.21344  0.83371  Biso   1.000  H
  H406     1.0000 0.26429  0.04556  0.85204  Biso   1.000  H
  H407     1.0000 0.29410  0.32568  0.97964  Biso   1.000  H
  H408     1.0000 0.52536  0.17664  0.72039  Biso   1.000  H
  H409     1.0000 0.30200  0.45111  0.18048  Biso   1.000  H
  H410     1.0000 0.21858  0.28074  0.46822  Biso   1.000  H
  H411     1.0000 0.49042  0.21687  0.32393  Biso   1.000  H
  H412     1.0000 0.85860  0.46581  0.28804  Biso   1.000  H
  H413     1.0000 0.69058  0.25416  0.03156  Biso   1.000  H
  H414     1.0000 0.98252  0.22567  0.18248  Biso   1.000  H
  H415     1.0000 0.20036  0.96480  0.24721  Biso   1.000  H
  H416     1.0000 0.35553  0.77087  0.51770  Biso   1.000  H
  H417     1.0000 0.01019  0.67727  0.29430  Biso   1.000  H
  H418     1.0000 0.69373  0.97133  0.27343  Biso   1.000  H
  H419     1.0000 0.85804  0.76945  0.04939  Biso   1.000  H
  H420     1.0000 0.50830  0.65753  0.25301  Biso   1.000  H
  H421     1.0000 0.76800  0.53077  0.84342  Biso   1.000  H
  H422     1.0000 0.80687  0.66638  0.56439  Biso   1.000  H
  H423     1.0000 0.57914  0.78168  0.70288  Biso   1.000  H
  H424     1.0000 0.20850  0.49930  0.73858  Biso   1.000  H
  H425     1.0000 0.36300  0.72689  0.99378  Biso   1.000  H
  H426     1.0000 0.07650  0.76599  0.84725  Biso   1.000  H
  H427     1.0000 0.80977  0.03148  0.82790  Biso   1.000  H
  H428     1.0000 0.76607  0.16578  0.53207  Biso   1.000  H
  H429     1.0000 0.04075  0.32123  0.73552  Biso   1.000  H
  H430     1.0000 0.36641  0.99660  0.75196  Biso   1.000  H
  H431     1.0000 0.19806  0.21740  0.98364  Biso   1.000  H
  H432     1.0000 0.49549  0.27789  0.80730  Biso   1.000  H
  H433     1.0000 0.31425  0.04448  0.69156  Biso   1.000  H
  H434     1.0000 0.75616  0.31370  0.98794  Biso   1.000  H
  H435     1.0000 0.06893  0.73490  0.34401  Biso   1.000  H
  H436     1.0000 0.86851  0.97597  0.77372  Biso   1.000  H
  H437     1.0000 0.25448  0.32757  0.54257  Biso   1.000  H
  H438     1.0000 0.56934  0.70871  0.20101  Biso   1.000  H
  H439     1.0000 0.27026  0.45506  0.67608  Biso   1.000  H
  H440     1.0000 0.81821  0.80680  0.97096  Biso   1.000  H
  H441     1.0000 0.52926  0.15099  0.26342  Biso   1.000  H
  H442     1.0000 0.71286  0.48110  0.78219  Biso   1.000  H
  H443     1.0000 0.29581  0.83206  0.56656  Biso   1.000  H
  H444     1.0000 0.05804  0.18154  0.22185  Biso   1.000  H
  H445     1.0000 0.74199  0.03096  0.32748  Biso   1.000  H
  H446     1.0000 0.30340  0.67054  0.04269  Biso   1.000  H
  H447     1.0000 0.00017  0.25928  0.67355  Biso   1.000  H
  H448     1.0000 0.25152  0.03505  0.20470  Biso   1.000  H
  H449     1.0000 0.85541  0.72355  0.50573  Biso   1.000  H
  H450     1.0000 0.57538  0.32649  0.78479  Biso   1.000  H
  H451     1.0000 0.79571  0.51465  0.34255  Biso   1.000  H
  H452     1.0000 0.24124  0.18155  0.05954  Biso   1.000  H
  H453     1.0000 0.51641  0.82735  0.75400  Biso   1.000  H
  H454     1.0000 0.35643  0.51231  0.23130  Biso   1.000  H
  H455     1.0000 0.70539  0.21303  0.47414  Biso   1.000  H
  H456     1.0000 0.01735  0.81676  0.78945  Biso   1.000  H
  H457     1.0000 0.70236  0.76000  0.49744  Biso   1.000  H
  H458     1.0000 0.53787  0.73745  0.86463  Biso   1.000  H
  H459     1.0000 0.86699  0.47908  0.74471  Biso   1.000  H
  H460     1.0000 0.20882  0.77691  0.05398  Biso   1.000  H
  H461     1.0000 0.03992  0.65696  0.75532  Biso   1.000  H
  H462     1.0000 0.36594  0.44564  0.79026  Biso   1.000  H
  H463     1.0000 0.86385  0.26083  0.47866  Biso   1.000  H
  H464     1.0000 0.05269  0.16527  0.77680  Biso   1.000  H
  H465     1.0000 0.71020  0.02855  0.72376  Biso   1.000  H
  H466     1.0000 0.34996  0.27696  0.03935  Biso   1.000  H
  H467     1.0000 0.59145  0.22579  0.67062  Biso   1.000  H
  H468     1.0000 0.21063  0.00010  0.78741  Biso   1.000  H
  H469     1.0000 0.36407  0.22964  0.53125  Biso   1.000  H
  H470     1.0000 0.54839  0.26551  0.17437  Biso   1.000  H
  H471     1.0000 0.20783  0.52278  0.28157  Biso   1.000  H
  H472     1.0000 0.78958  0.16369  0.96778  Biso   1.000  H
  H473     1.0000 0.06005  0.33096  0.27901  Biso   1.000  H
  H474     1.0000 0.75367  0.44984  0.18726  Biso   1.000  H
  H475     1.0000 0.24861  0.67307  0.56343  Biso   1.000  H
  H476     1.0000 0.05546  0.83195  0.24118  Biso   1.000  H
  H477     1.0000 0.35615  0.01263  0.29654  Biso   1.000  H
  H478     1.0000 0.70165  0.72366  0.00100  Biso   1.000  H
  H479     1.0000 0.51204  0.80674  0.29961  Biso   1.000  H
  H480     1.0000 0.84632  0.03696  0.22360  Biso   1.000  H
  N1       1.0000 0.71305  0.16639  0.50553  Biso   1.000  N
  N2       1.0000 0.53378  0.66210  0.20452  Biso   1.000  N
  N3       1.0000 0.21624  0.47947  0.68389  Biso   1.000  N
  N4       1.0000 0.19681  0.17580  0.02465  Biso   1.000  N
  N5       1.0000 0.04116  0.68094  0.34452  Biso   1.000  N
  N6       1.0000 0.71491  0.50734  0.83375  Biso   1.000  N
  N7       1.0000 0.85491  0.67130  0.53109  Biso   1.000  N
  N8       1.0000 0.01417  0.17742  0.18287  Biso   1.000  N
  N9       1.0000 0.36631  0.02075  0.69857  Biso   1.000  N
  N10      1.0000 0.35473  0.67353  0.01303  Biso   1.000  N
  N11      1.0000 0.51543  0.15850  0.31867  Biso   1.000  N
  N12      1.0000 0.86166  0.00059  0.82598  Biso   1.000  N
  N13      1.0000 0.35008  0.82530  0.53870  Biso   1.000  N
  N14      1.0000 0.53209  0.32740  0.81810  Biso   1.000  N
  N15      1.0000 0.85213  0.49563  0.33722  Biso   1.000  N
  N16      1.0000 0.86201  0.81431  0.01029  Biso   1.000  N
  N17      1.0000 0.02592  0.31207  0.67946  Biso   1.000  N
  N18      1.0000 0.35228  0.48396  0.18262  Biso   1.000  N
  N19      1.0000 0.21176  0.32469  0.50525  Biso   1.000  N
  N20      1.0000 0.04492  0.81383  0.84317  Biso   1.000  N
  N21      1.0000 0.69717  0.99806  0.32721  Biso   1.000  N
  N22      1.0000 0.69987  0.31049  0.01097  Biso   1.000  N
  N23      1.0000 0.54218  0.82509  0.70255  Biso   1.000  N
  N24      1.0000 0.20350  0.00276  0.20116  Biso   1.000  N
  N25      1.0000 0.86517  0.50407  0.68980  Biso   1.000  N
  N26      1.0000 0.70254  0.81473  0.51831  Biso   1.000  N
  N27      1.0000 0.55402  0.67962  0.85512  Biso   1.000  N
  N28      1.0000 0.36344  0.48260  0.83190  Biso   1.000  N
  N29      1.0000 0.21423  0.82551  0.02155  Biso   1.000  N
  N30      1.0000 0.05570  0.66421  0.69916  Biso   1.000  N
  N31      1.0000 0.71293  0.99390  0.67758  Biso   1.000  N
  N32      1.0000 0.85813  0.31406  0.50626  Biso   1.000  N
  N33      1.0000 0.02481  0.16528  0.82711  Biso   1.000  N
  N34      1.0000 0.21255  0.01571  0.84307  Biso   1.000  N
  N35      1.0000 0.34853  0.32259  0.00412  Biso   1.000  N
  N36      1.0000 0.55723  0.17811  0.67152  Biso   1.000  N
  N37      1.0000 0.20788  0.49539  0.33426  Biso   1.000  N
  N38      1.0000 0.35896  0.17621  0.51763  Biso   1.000  N
  N39      1.0000 0.51176  0.30882  0.17206  Biso   1.000  N
  N40      1.0000 0.70505  0.48193  0.18751  Biso   1.000  N
  N41      1.0000 0.84749  0.16578  0.98902  Biso   1.000  N
  N42      1.0000 0.02658  0.32747  0.32515  Biso   1.000  N
  N43      1.0000 0.35148  0.98684  0.34837  Biso   1.000  N
  N44      1.0000 0.20641  0.67526  0.52595  Biso   1.000  N
  N45      1.0000 0.02688  0.82482  0.19272  Biso   1.000  N
  N46      1.0000 0.84805  0.00074  0.17623  Biso   1.000  N
  N47      1.0000 0.70808  0.66944  0.01974  Biso   1.000  N
  N48      1.0000 0.53946  0.80805  0.35232  Biso   1.000  N
  O1       1.0000 0.37543  0.54039  0.00376  Biso   1.000  O
  O2       1.0000 0.03595  0.34189  0.54678  Biso   1.000  O
  O3       1.0000 0.56556  0.99323  0.35614  Biso   1.000  O
  O4       1.0000 0.87670  0.53590  0.50878  Biso   1.000  O
  O5       1.0000 0.52669  0.33939  0.95400  Biso   1.000  O
  O6       1.0000 0.06985  0.99510  0.17125  Biso   1.000  O
  O7       1.0000 0.18641  0.04106  0.03163  Biso   1.000  O
  O8       1.0000 0.53648  0.83981  0.56643  Biso   1.000  O
  O9       1.0000 0.98698  0.50608  0.35846  Biso   1.000  O
  O10      1.0000 0.69166  0.03157  0.50604  Biso   1.000  O
  O11      1.0000 0.03215  0.83753  0.97815  Biso   1.000  O
  O12      1.0000 0.49018  0.49340  0.16552  Biso   1.000  O
  O13      1.0000 0.68547  0.44776  0.01270  Biso   1.000  O
  O14      1.0000 0.02821  0.65261  0.48056  Biso   1.000  O
  O15      1.0000 0.49720  0.01170  0.67222  Biso   1.000  O
  O16      1.0000 0.19079  0.45913  0.50719  Biso   1.000  O
  O17      1.0000 0.53299  0.64828  0.06978  Biso   1.000  O
  O18      1.0000 0.99274  0.98678  0.85409  Biso   1.000  O
  O19      1.0000 0.87292  0.94795  0.00469  Biso   1.000  O
  O20      1.0000 0.53585  0.14487  0.45183  Biso   1.000  O
  O21      1.0000 0.08145  0.47588  0.66896  Biso   1.000  O
  O22      1.0000 0.37296  0.95733  0.52095  Biso   1.000  O
  O23      1.0000 0.01553  0.15560  0.04701  Biso   1.000  O
  O24      1.0000 0.58045  0.50211  0.85256  Biso   1.000  O
  O25      1.0000 0.98555  0.99854  0.16687  Biso   1.000  O
  O26      1.0000 0.18873  0.95916  0.02415  Biso   1.000  O
  O27      1.0000 0.02302  0.15061  0.96500  Biso   1.000  O
  O28      1.0000 0.48488  0.97453  0.36502  Biso   1.000  O
  O29      1.0000 0.68190  0.94844  0.49682  Biso   1.000  O
  O30      1.0000 0.54486  0.14910  0.53852  Biso   1.000  O
  O31      1.0000 0.57172  0.48041  0.16946  Biso   1.000  O
  O32      1.0000 0.37276  0.45708  0.01603  Biso   1.000  O
  O33      1.0000 0.53724  0.64914  0.98525  Biso   1.000  O
  O34      1.0000 0.07121  0.49492  0.35500  Biso   1.000  O
  O35      1.0000 0.88014  0.44829  0.51353  Biso   1.000  O
  O36      1.0000 0.03072  0.65161  0.56434  Biso   1.000  O
  O37      1.0000 0.07394  0.00211  0.85806  Biso   1.000  O
  O38      1.0000 0.87046  0.02991  0.00051  Biso   1.000  O
  O39      1.0000 0.03891  0.84384  0.05941  Biso   1.000  O
  O40      1.0000 0.57655  0.98955  0.66753  Biso   1.000  O
  O41      1.0000 0.37872  0.04055  0.52482  Biso   1.000  O
  O42      1.0000 0.52189  0.83784  0.48395  Biso   1.000  O
  O43      1.0000 0.49701  0.49768  0.85479  Biso   1.000  O
  O44      1.0000 0.68591  0.53358  0.00405  Biso   1.000  O
  O45      1.0000 0.52521  0.33485  0.03909  Biso   1.000  O
  O46      1.0000 0.00086  0.49957  0.66419  Biso   1.000  O
  O47      1.0000 0.19180  0.54255  0.51382  Biso   1.000  O
  O48      1.0000 0.02436  0.34124  0.46133  Biso   1.000  O
  O49      1.0000 0.02732  0.95693  0.16972  Biso   1.000  O
  O50      1.0000 0.18623  0.99919  0.97962  Biso   1.000  O
  O51      1.0000 0.98272  0.14871  0.00105  Biso   1.000  O
  O52      1.0000 0.53677  0.94378  0.36505  Biso   1.000  O
  O53      1.0000 0.68639  0.98603  0.54399  Biso   1.000  O
  O54      1.0000 0.49521  0.15375  0.50356  Biso   1.000  O
  O55      1.0000 0.52174  0.44605  0.16557  Biso   1.000  O
  O56      1.0000 0.37706  0.49382  0.96798  Biso   1.000  O
  O57      1.0000 0.57531  0.64662  0.02902  Biso   1.000  O
  O58      1.0000 0.02877  0.45930  0.35409  Biso   1.000  O
  O59      1.0000 0.87967  0.49457  0.55556  Biso   1.000  O
  O60      1.0000 0.07288  0.65516  0.52464  Biso   1.000  O
  O61      1.0000 0.02740  0.03126  0.85491  Biso   1.000  O
  O62      1.0000 0.87208  0.99311  0.04338  Biso   1.000  O
  O63      1.0000 0.07864  0.84284  0.01428  Biso   1.000  O
  O64      1.0000 0.54545  0.03956  0.66784  Biso   1.000  O
  O65      1.0000 0.37255  0.00126  0.48229  Biso   1.000  O
  O66      1.0000 0.56762  0.83376  0.51396  Biso   1.000  O
  O67      1.0000 0.54113  0.54295  0.86052  Biso   1.000  O
  O68      1.0000 0.68612  0.49048  0.04930  Biso   1.000  O
  O69      1.0000 0.48319  0.33915  0.99626  Biso   1.000  O
  O70      1.0000 0.05322  0.53034  0.66702  Biso   1.000  O
  O71      1.0000 0.18839  0.50260  0.46614  Biso   1.000  O
  O72      1.0000 0.99122  0.33679  0.50662  Biso   1.000  O
  O73      1.0000 0.03138  0.45044  0.66331  Biso   1.000  O
  O74      1.0000 0.68396  0.99434  0.46151  Biso   1.000  O
  O75      1.0000 0.49038  0.64717  0.02533  Biso   1.000  O
  O76      1.0000 0.53699  0.45850  0.84805  Biso   1.000  O
  O77      1.0000 0.18829  0.99520  0.06474  Biso   1.000  O
  O78      1.0000 0.98733  0.65222  0.52575  Biso   1.000  O
  O79      1.0000 0.52792  0.95682  0.67714  Biso   1.000  O
  O80      1.0000 0.87447  0.49097  0.46948  Biso   1.000  O
  O81      1.0000 0.06327  0.15381  0.01370  Biso   1.000  O
  O82      1.0000 0.03817  0.95151  0.85604  Biso   1.000  O
  O83      1.0000 0.37200  0.50136  0.05053  Biso   1.000  O
  O84      1.0000 0.57813  0.14490  0.49456  Biso   1.000  O
  O85      1.0000 0.03357  0.54506  0.35879  Biso   1.000  O
  O86      1.0000 0.37374  0.99690  0.56698  Biso   1.000  O
  O87      1.0000 0.56683  0.34035  0.99772  Biso   1.000  O
  O88      1.0000 0.53523  0.52807  0.17200  Biso   1.000  O
  O89      1.0000 0.87345  0.98930  0.96023  Biso   1.000  O
  O90      1.0000 0.07415  0.34408  0.49931  Biso   1.000  O
  O91      1.0000 0.51481  0.02607  0.35677  Biso   1.000  O
  O92      1.0000 0.18961  0.49987  0.55122  Biso   1.000  O
  O93      1.0000 0.99491  0.84318  0.02094  Biso   1.000  O
  O94      1.0000 0.02728  0.04033  0.16503  Biso   1.000  O
  O95      1.0000 0.68867  0.48764  0.96637  Biso   1.000  O
  O96      1.0000 0.48532  0.84307  0.53556  Biso   1.000  O
  O97      1.0000 0.49604  0.20182  0.49875  Biso   1.000  O
  O98      1.0000 0.52161  0.44211  0.21246  Biso   1.000  O
  O99      1.0000 0.23636  0.50192  0.46617  Biso   1.000  O
  O100     1.0000 0.98165  0.19748  0.99972  Biso   1.000  O
  O101     1.0000 0.02112  0.46490  0.30732  Biso   1.000  O
  O102     1.0000 0.73340  0.49212  0.05287  Biso   1.000  O
  O103     1.0000 0.07327  0.70450  0.52594  Biso   1.000  O
  O104     1.0000 0.02100  0.95886  0.21885  Biso   1.000  O
  O105     1.0000 0.32505  0.00112  0.48486  Biso   1.000  O
  O106     1.0000 0.57486  0.69471  0.03446  Biso   1.000  O
  O107     1.0000 0.53524  0.93987  0.31664  Biso   1.000  O
  O108     1.0000 0.82563  0.98444  0.04289  Biso   1.000  O
  O109     1.0000 0.56594  0.78402  0.52031  Biso   1.000  O
  O110     1.0000 0.53659  0.54862  0.81188  Biso   1.000  O
  O111     1.0000 0.83239  0.49119  0.55801  Biso   1.000  O
  O112     1.0000 0.08115  0.79365  0.02242  Biso   1.000  O
  O113     1.0000 0.05654  0.52673  0.71576  Biso   1.000  O
  O114     1.0000 0.32850  0.49316  0.96666  Biso   1.000  O
  O115     1.0000 0.99389  0.28786  0.50900  Biso   1.000  O
  O116     1.0000 0.03662  0.03096  0.80628  Biso   1.000  O
  O117     1.0000 0.73372  0.98215  0.54077  Biso   1.000  O
  O118     1.0000 0.48420  0.28959  0.99654  Biso   1.000  O
  O119     1.0000 0.55051  0.04461  0.71530  Biso   1.000  O
  O120     1.0000 0.23465  0.00036  0.98165  Biso   1.000  O
  O121     1.0000 0.08152  0.47479  0.71786  Biso   1.000  O
  O122     1.0000 0.74072  0.02995  0.50799  Biso   1.000  O
  O123     1.0000 0.53377  0.69674  0.07009  Biso   1.000  O
  O124     1.0000 0.57697  0.50692  0.80455  Biso   1.000  O
  O125     1.0000 0.23376  0.04467  0.01990  Biso   1.000  O
  O126     1.0000 0.02980  0.70142  0.48156  Biso   1.000  O
  O127     1.0000 0.49943  0.00859  0.72092  Biso   1.000  O
  O128     1.0000 0.82865  0.53512  0.51825  Biso   1.000  O
  O129     1.0000 0.01707  0.20472  0.04867  Biso   1.000  O
  O130     1.0000 0.99707  0.98646  0.80730  Biso   1.000  O
  O131     1.0000 0.32571  0.53984  0.00072  Biso   1.000  O
  O132     1.0000 0.53266  0.19445  0.45194  Biso   1.000  O
  O133     1.0000 0.98835  0.51014  0.30988  Biso   1.000  O
  O134     1.0000 0.32362  0.95811  0.52467  Biso   1.000  O
  O135     1.0000 0.52053  0.28996  0.95094  Biso   1.000  O
  O136     1.0000 0.48613  0.48852  0.21243  Biso   1.000  O
  O137     1.0000 0.82531  0.94486  0.00108  Biso   1.000  O
  O138     1.0000 0.04043  0.29265  0.54500  Biso   1.000  O
  O139     1.0000 0.56034  0.99685  0.30886  Biso   1.000  O
  O140     1.0000 0.23987  0.45878  0.50187  Biso   1.000  O
  O141     1.0000 0.03862  0.79019  0.97903  Biso   1.000  O
  O142     1.0000 0.06307  0.00464  0.22023  Biso   1.000  O
  O143     1.0000 0.73414  0.44807  0.01272  Biso   1.000  O
  O144     1.0000 0.53337  0.79171  0.56991  Biso   1.000  O
  O145     1.0000 0.57006  0.47761  0.21758  Biso   1.000  O
  O146     1.0000 0.24058  0.54273  0.51125  Biso   1.000  O
  O147     1.0000 0.54133  0.19670  0.53534  Biso   1.000  O
  O148     1.0000 0.07278  0.49981  0.30639  Biso   1.000  O
  O149     1.0000 0.73439  0.53340  0.00494  Biso   1.000  O
  O150     1.0000 0.02455  0.19955  0.96069  Biso   1.000  O
  O151     1.0000 0.98096  0.00104  0.21486  Biso   1.000  O
  O152     1.0000 0.32947  0.04155  0.53090  Biso   1.000  O
  O153     1.0000 0.03091  0.69952  0.56608  Biso   1.000  O
  O154     1.0000 0.48260  0.96888  0.31627  Biso   1.000  O
  O155     1.0000 0.82213  0.02934  0.99973  Biso   1.000  O
  O156     1.0000 0.53589  0.69673  0.98845  Biso   1.000  O
  O157     1.0000 0.49482  0.50250  0.80625  Biso   1.000  O
  O158     1.0000 0.83197  0.45129  0.51484  Biso   1.000  O
  O159     1.0000 0.51707  0.78878  0.48995  Biso   1.000  O
  O160     1.0000 0.99961  0.50272  0.71387  Biso   1.000  O
  O161     1.0000 0.32445  0.45629  0.01368  Biso   1.000  O
  O162     1.0000 0.04149  0.79452  0.06253  Biso   1.000  O
  O163     1.0000 0.08109  0.99101  0.81132  Biso   1.000  O
  O164     1.0000 0.72986  0.94685  0.49204  Biso   1.000  O
  O165     1.0000 0.02539  0.29251  0.46266  Biso   1.000  O
  O166     1.0000 0.58349  0.99722  0.71577  Biso   1.000  O
  O167     1.0000 0.23788  0.96239  0.02432  Biso   1.000  O
  O168     1.0000 0.52583  0.28482  0.03591  Biso   1.000  O
  O169     1.0000 0.01945  0.04259  0.21395  Biso   1.000  O
  O170     1.0000 0.23536  0.00370  0.06428  Biso   1.000  O
  O171     1.0000 0.06305  0.20339  0.00692  Biso   1.000  O
  O172     1.0000 0.50834  0.02129  0.30864  Biso   1.000  O
  O173     1.0000 0.73244  0.99384  0.45906  Biso   1.000  O
  O174     1.0000 0.57875  0.19323  0.49194  Biso   1.000  O
  O175     1.0000 0.53214  0.52337  0.22069  Biso   1.000  O
  O176     1.0000 0.32184  0.50474  0.04773  Biso   1.000  O
  O177     1.0000 0.49134  0.69500  0.02661  Biso   1.000  O
  O178     1.0000 0.03641  0.54772  0.31048  Biso   1.000  O
  O179     1.0000 0.82639  0.49708  0.47402  Biso   1.000  O
  O180     1.0000 0.98936  0.70033  0.52672  Biso   1.000  O
  O181     1.0000 0.03955  0.94689  0.80789  Biso   1.000  O
  O182     1.0000 0.82437  0.99005  0.95870  Biso   1.000  O
  O183     1.0000 0.99611  0.79279  0.02344  Biso   1.000  O
  O184     1.0000 0.53890  0.96246  0.72412  Biso   1.000  O
  O185     1.0000 0.32620  0.99433  0.56976  Biso   1.000  O
  O186     1.0000 0.48304  0.79166  0.53782  Biso   1.000  O
  O187     1.0000 0.53391  0.46496  0.80059  Biso   1.000  O
  O188     1.0000 0.73881  0.48863  0.96746  Biso   1.000  O
  O189     1.0000 0.56516  0.29140  0.99288  Biso   1.000  O
  O190     1.0000 0.02891  0.45003  0.71110  Biso   1.000  O
  O191     1.0000 0.23893  0.50056  0.54998  Biso   1.000  O
  O192     1.0000 0.07414  0.29547  0.49715  Biso   1.000  O
