data_image0
_cell_length_a       46.537
_cell_length_b       46.925
_cell_length_c       46.5728
_cell_angle_alpha    90
_cell_angle_beta     90
_cell_angle_gamma    90

_symmetry_space_group_name_H-M    "P 1"
_symmetry_int_tables_number       1

loop_
  _symmetry_equiv_pos_as_xyz
  'x, y, z'

loop_
  _atom_site_label
  _atom_site_occupancy
  _atom_site_fract_x
  _atom_site_fract_y
  _atom_site_fract_z
  _atom_site_thermal_displace_type
  _atom_site_B_iso_or_equiv
  _atom_site_type_symbol
  C1       1.0000 0.57996  0.97603  0.33674  Biso   1.000  C
  C2       1.0000 0.33240  0.52541  0.00780  Biso   1.000  C
  C3       1.0000 0.02392  0.30207  0.56571  Biso   1.000  C
  C4       1.0000 0.07607  0.98408  0.19032  Biso   1.000  C
  C5       1.0000 0.83221  0.53499  0.52035  Biso   1.000  C
  C6       1.0000 0.52277  0.30567  0.94244  Biso   1.000  C
  C7       1.0000 0.97150  0.48258  0.33165  Biso   1.000  C
  C8       1.0000 0.20586  0.03002  0.00100  Biso   1.000  C
  C9       1.0000 0.50428  0.80695  0.58017  Biso   1.000  C
  C10      1.0000 0.46558  0.46741  0.18964  Biso   1.000  C
  C11      1.0000 0.69862  0.03393  0.52161  Biso   1.000  C
  C12      1.0000 0.00503  0.80927  0.95677  Biso   1.000  C
  C13      1.0000 0.45177  0.00198  0.68824  Biso   1.000  C
  C14      1.0000 0.70286  0.43728  0.01249  Biso   1.000  C
  C15      1.0000 0.01214  0.66353  0.45826  Biso   1.000  C
  C16      1.0000 0.95898  0.98810  0.82865  Biso   1.000  C
  C17      1.0000 0.20021  0.43346  0.50549  Biso   1.000  C
  C18      1.0000 0.50880  0.66133  0.08352  Biso   1.000  C
  C19      1.0000 0.06736  0.49324  0.69212  Biso   1.000  C
  C20      1.0000 0.83793  0.93410  0.01162  Biso   1.000  C
  C21      1.0000 0.53009  0.15717  0.44604  Biso   1.000  C
  C22      1.0000 0.57303  0.50296  0.83281  Biso   1.000  C
  C23      1.0000 0.33194  0.93159  0.49288  Biso   1.000  C
  C24      1.0000 0.02913  0.16165  0.06570  Biso   1.000  C
  C25      1.0000 0.33825  0.03878  0.50089  Biso   1.000  C
  C26      1.0000 0.52970  0.29795  0.05211  Biso   1.000  C
  C27      1.0000 0.07952  0.47894  0.32728  Biso   1.000  C
  C28      1.0000 0.84046  0.04323  0.02221  Biso   1.000  C
  C29      1.0000 0.02549  0.29968  0.45382  Biso   1.000  C
  C30      1.0000 0.57258  0.47751  0.19842  Biso   1.000  C
  C31      1.0000 0.19173  0.54143  0.51199  Biso   1.000  C
  C32      1.0000 0.01366  0.80458  0.06468  Biso   1.000  C
  C33      1.0000 0.47244  0.97076  0.32600  Biso   1.000  C
  C34      1.0000 0.69996  0.54486  0.01337  Biso   1.000  C
  C35      1.0000 0.51729  0.79828  0.47321  Biso   1.000  C
  C36      1.0000 0.96584  0.98721  0.19227  Biso   1.000  C
  C37      1.0000 0.69392  0.92572  0.52159  Biso   1.000  C
  C38      1.0000 0.51207  0.66463  0.97463  Biso   1.000  C
  C39      1.0000 0.95749  0.48451  0.69472  Biso   1.000  C
  C40      1.0000 0.20583  0.91994  0.99698  Biso   1.000  C
  C41      1.0000 0.00838  0.66524  0.56662  Biso   1.000  C
  C42      1.0000 0.46470  0.48892  0.82754  Biso   1.000  C
  C43      1.0000 0.84605  0.42349  0.50364  Biso   1.000  C
  C44      1.0000 0.02884  0.16846  0.95428  Biso   1.000  C
  C45      1.0000 0.56079  0.98688  0.69826  Biso   1.000  C
  C46      1.0000 0.34149  0.41745  0.00656  Biso   1.000  C
  C47      1.0000 0.51690  0.16734  0.55345  Biso   1.000  C
  C48      1.0000 0.06742  0.98438  0.82642  Biso   1.000  C
  C49      1.0000 0.01774  0.04235  0.82742  Biso   1.000  C
  C50      1.0000 0.83753  0.98348  0.07158  Biso   1.000  C
  C51      1.0000 0.06652  0.80535  0.00888  Biso   1.000  C
  C52      1.0000 0.51198  0.04722  0.68810  Biso   1.000  C
  C53      1.0000 0.34036  0.99311  0.44355  Biso   1.000  C
  C54      1.0000 0.56743  0.79834  0.53148  Biso   1.000  C
  C55      1.0000 0.51108  0.54884  0.83869  Biso   1.000  C
  C56      1.0000 0.69804  0.49210  0.07040  Biso   1.000  C
  C57      1.0000 0.47298  0.29868  0.00002  Biso   1.000  C
  C58      1.0000 0.00625  0.54068  0.69514  Biso   1.000  C
  C59      1.0000 0.19886  0.49440  0.45484  Biso   1.000  C
  C60      1.0000 0.97037  0.29662  0.50606  Biso   1.000  C
  C61      1.0000 0.02160  0.92873  0.19303  Biso   1.000  C
  C62      1.0000 0.20236  0.97416  0.94753  Biso   1.000  C
  C63      1.0000 0.97256  0.16658  0.00909  Biso   1.000  C
  C64      1.0000 0.52973  0.91804  0.33560  Biso   1.000  C
  C65      1.0000 0.69505  0.97382  0.57610  Biso   1.000  C
  C66      1.0000 0.46949  0.16049  0.49703  Biso   1.000  C
  C67      1.0000 0.52568  0.41678  0.19046  Biso   1.000  C
  C68      1.0000 0.34025  0.47196  0.95350  Biso   1.000  C
  C69      1.0000 0.56075  0.66448  0.02953  Biso   1.000  C
  C70      1.0000 0.02465  0.42660  0.32758  Biso   1.000  C
  C71      1.0000 0.83640  0.46904  0.56398  Biso   1.000  C
  C72      1.0000 0.06548  0.66728  0.51560  Biso   1.000  C
  C73      1.0000 0.02363  0.53563  0.32999  Biso   1.000  C
  C74      1.0000 0.33517  0.98285  0.55042  Biso   1.000  C
  C75      1.0000 0.58248  0.30566  0.99469  Biso   1.000  C
  C76      1.0000 0.51313  0.52420  0.19868  Biso   1.000  C
  C77      1.0000 0.84003  0.99309  0.96316  Biso   1.000  C
  C78      1.0000 0.07902  0.30252  0.51143  Biso   1.000  C
  C79      1.0000 0.52383  0.02849  0.32689  Biso   1.000  C
  C80      1.0000 0.19462  0.48391  0.56522  Biso   1.000  C
  C81      1.0000 0.95736  0.80376  0.01077  Biso   1.000  C
  C82      1.0000 0.02486  0.03778  0.19503  Biso   1.000  C
  C83      1.0000 0.70135  0.49073  0.96126  Biso   1.000  C
  C84      1.0000 0.45799  0.80445  0.52031  Biso   1.000  C
  C85      1.0000 0.01712  0.43179  0.68950  Biso   1.000  C
  C86      1.0000 0.70052  0.97985  0.46824  Biso   1.000  C
  C87      1.0000 0.45442  0.65426  0.02973  Biso   1.000  C
  C88      1.0000 0.52714  0.44292  0.82490  Biso   1.000  C
  C89      1.0000 0.20354  0.97332  0.05577  Biso   1.000  C
  C90      1.0000 0.95878  0.66468  0.50937  Biso   1.000  C
  C91      1.0000 0.49612  0.93973  0.69849  Biso   1.000  C
  C92      1.0000 0.83918  0.48323  0.45536  Biso   1.000  C
  C93      1.0000 0.08201  0.15991  0.00955  Biso   1.000  C
  C94      1.0000 0.00688  0.93296  0.82804  Biso   1.000  C
  C95      1.0000 0.33886  0.47587  0.06474  Biso   1.000  C
  C96      1.0000 0.58005  0.16013  0.50638  Biso   1.000  C
  C97      1.0000 0.70115  0.06449  0.51495  Biso   1.000  C
  C98      1.0000 0.51262  0.65916  0.11494  Biso   1.000  C
  C99      1.0000 0.10021  0.49818  0.69086  Biso   1.000  C
  C100     1.0000 0.20598  0.06260  0.00165  Biso   1.000  C
  C101     1.0000 0.01438  0.66301  0.42643  Biso   1.000  C
  C102     1.0000 0.60578  0.50097  0.83251  Biso   1.000  C
  C103     1.0000 0.83327  0.56652  0.51820  Biso   1.000  C
  C104     1.0000 0.02985  0.16228  0.09765  Biso   1.000  C
  C105     1.0000 0.41954  0.00051  0.68484  Biso   1.000  C
  C106     1.0000 0.33098  0.55806  0.00874  Biso   1.000  C
  C107     1.0000 0.53083  0.15670  0.41419  Biso   1.000  C
  C108     1.0000 0.92763  0.98819  0.83092  Biso   1.000  C
  C109     1.0000 0.33122  0.89962  0.49366  Biso   1.000  C
  C110     1.0000 0.51708  0.30938  0.91034  Biso   1.000  C
  C111     1.0000 0.93841  0.48408  0.33159  Biso   1.000  C
  C112     1.0000 0.83542  0.90225  0.01178  Biso   1.000  C
  C113     1.0000 0.02913  0.30566  0.59757  Biso   1.000  C
  C114     1.0000 0.43279  0.47053  0.18958  Biso   1.000  C
  C115     1.0000 0.20081  0.40295  0.49690  Biso   1.000  C
  C116     1.0000 0.99997  0.80609  0.92495  Biso   1.000  C
  C117     1.0000 0.61277  0.97074  0.33825  Biso   1.000  C
  C118     1.0000 0.70581  0.40555  0.00711  Biso   1.000  C
  C119     1.0000 0.49969  0.80807  0.61162  Biso   1.000  C
  C120     1.0000 0.10902  0.98764  0.18740  Biso   1.000  C
  C121     1.0000 0.83716  0.98048  0.10290  Biso   1.000  C
  C122     1.0000 0.09908  0.80221  0.00491  Biso   1.000  C
  C123     1.0000 0.02215  0.07471  0.82772  Biso   1.000  C
  C124     1.0000 0.34231  0.98988  0.41168  Biso   1.000  C
  C125     1.0000 0.59878  0.79875  0.53128  Biso   1.000  C
  C126     1.0000 0.50916  0.07800  0.68602  Biso   1.000  C
  C127     1.0000 0.69850  0.48735  0.10317  Biso   1.000  C
  C128     1.0000 0.44117  0.29601  0.99958  Biso   1.000  C
  C129     1.0000 0.51019  0.58016  0.84044  Biso   1.000  C
  C130     1.0000 0.20203  0.49876  0.42387  Biso   1.000  C
  C131     1.0000 0.93848  0.29597  0.50502  Biso   1.000  C
  C132     1.0000 0.99984  0.57182  0.69524  Biso   1.000  C
  C133     1.0000 0.20012  0.97400  0.91471  Biso   1.000  C
  C134     1.0000 0.93964  0.16688  0.00681  Biso   1.000  C
  C135     1.0000 0.01803  0.89685  0.19428  Biso   1.000  C
  C136     1.0000 0.69400  0.97265  0.60772  Biso   1.000  C
  C137     1.0000 0.43727  0.16076  0.50137  Biso   1.000  C
  C138     1.0000 0.52644  0.88579  0.33840  Biso   1.000  C
  C139     1.0000 0.33891  0.47687  0.92174  Biso   1.000  C
  C140     1.0000 0.59302  0.66543  0.02867  Biso   1.000  C
  C141     1.0000 0.52632  0.38556  0.18487  Biso   1.000  C
  C142     1.0000 0.83333  0.46851  0.59648  Biso   1.000  C
  C143     1.0000 0.09788  0.66807  0.51881  Biso   1.000  C
  C144     1.0000 0.02952  0.39469  0.32642  Biso   1.000  C
  C145     1.0000 0.33897  0.47182  0.09644  Biso   1.000  C
  C146     1.0000 0.11168  0.30486  0.51177  Biso   1.000  C
  C147     1.0000 0.52209  0.05971  0.32566  Biso   1.000  C
  C148     1.0000 0.84131  0.47589  0.42373  Biso   1.000  C
  C149     1.0000 0.61516  0.30490  0.99694  Biso   1.000  C
  C150     1.0000 0.02661  0.07041  0.19371  Biso   1.000  C
  C151     1.0000 0.20210  0.97574  0.08837  Biso   1.000  C
  C152     1.0000 0.42592  0.80362  0.51671  Biso   1.000  C
  C153     1.0000 0.02353  0.56853  0.32921  Biso   1.000  C
  C154     1.0000 0.70343  0.98049  0.43561  Biso   1.000  C
  C155     1.0000 0.92567  0.80288  0.01003  Biso   1.000  C
  C156     1.0000 0.51451  0.55611  0.20287  Biso   1.000  C
  C157     1.0000 0.70318  0.49547  0.92907  Biso   1.000  C
  C158     1.0000 0.92641  0.66248  0.50703  Biso   1.000  C
  C159     1.0000 0.49278  0.90748  0.69983  Biso   1.000  C
  C160     1.0000 0.19547  0.48541  0.59701  Biso   1.000  C
  C161     1.0000 0.42330  0.65370  0.03004  Biso   1.000  C
  C162     1.0000 0.00004  0.90045  0.82828  Biso   1.000  C
  C163     1.0000 0.83916  0.00050  0.93249  Biso   1.000  C
  C164     1.0000 0.61172  0.16026  0.50162  Biso   1.000  C
  C165     1.0000 0.02259  0.40007  0.68847  Biso   1.000  C
  C166     1.0000 0.33226  0.98529  0.58240  Biso   1.000  C
  C167     1.0000 0.11297  0.15922  0.00360  Biso   1.000  C
  C168     1.0000 0.53087  0.41085  0.82251  Biso   1.000  C
  C169     1.0000 0.01521  0.80373  0.09749  Biso   1.000  C
  C170     1.0000 0.10121  0.98031  0.82512  Biso   1.000  C
  C171     1.0000 0.84301  0.07547  0.02508  Biso   1.000  C
  C172     1.0000 0.51806  0.79629  0.44137  Biso   1.000  C
  C173     1.0000 0.59274  0.98224  0.70135  Biso   1.000  C
  C174     1.0000 0.33802  0.07010  0.50207  Biso   1.000  C
  C175     1.0000 0.52498  0.29700  0.08386  Biso   1.000  C
  C176     1.0000 0.43271  0.48790  0.82747  Biso   1.000  C
  C177     1.0000 0.69664  0.57810  0.01653  Biso   1.000  C
  C178     1.0000 0.03435  0.30063  0.42254  Biso   1.000  C
  C179     1.0000 0.92573  0.48377  0.69497  Biso   1.000  C
  C180     1.0000 0.18935  0.57317  0.50945  Biso   1.000  C
  C181     1.0000 0.02731  0.16812  0.92225  Biso   1.000  C
  C182     1.0000 0.93359  0.98835  0.19454  Biso   1.000  C
  C183     1.0000 0.20335  0.88724  0.99220  Biso   1.000  C
  C184     1.0000 0.51255  0.17057  0.58561  Biso   1.000  C
  C185     1.0000 0.44113  0.96782  0.32190  Biso   1.000  C
  C186     1.0000 0.69322  0.89363  0.51914  Biso   1.000  C
  C187     1.0000 0.50902  0.66818  0.94164  Biso   1.000  C
  C188     1.0000 0.60394  0.48681  0.19875  Biso   1.000  C
  C189     1.0000 0.34333  0.38703  0.00193  Biso   1.000  C
  C190     1.0000 0.00549  0.66437  0.59815  Biso   1.000  C
  C191     1.0000 0.11151  0.48167  0.32753  Biso   1.000  C
  C192     1.0000 0.84599  0.39189  0.50380  Biso   1.000  C
  C193     1.0000 0.86556  0.99823  0.91601  Biso   1.000  C
  C194     1.0000 0.91140  0.82992  0.00924  Biso   1.000  C
  C195     1.0000 0.99997  0.88464  0.85537  Biso   1.000  C
  C196     1.0000 0.35804  0.99137  0.60108  Biso   1.000  C
  C197     1.0000 0.40973  0.83003  0.51160  Biso   1.000  C
  C198     1.0000 0.49379  0.89132  0.67416  Biso   1.000  C
  C199     1.0000 0.67501  0.49735  0.91419  Biso   1.000  C
  C200     1.0000 0.62945  0.33265  0.99547  Biso   1.000  C
  C201     1.0000 0.53052  0.39314  0.84857  Biso   1.000  C
  C202     1.0000 0.16848  0.48773  0.61212  Biso   1.000  C
  C203     1.0000 0.12696  0.33148  0.50631  Biso   1.000  C
  C204     1.0000 0.02328  0.38466  0.66154  Biso   1.000  C
  C205     1.0000 0.17524  0.98173  0.10499  Biso   1.000  C
  C206     1.0000 0.12729  0.13023  0.00433  Biso   1.000  C
  C207     1.0000 0.02821  0.08635  0.16787  Biso   1.000  C
  C208     1.0000 0.67791  0.97866  0.41873  Biso   1.000  C
  C209     1.0000 0.62648  0.13316  0.50478  Biso   1.000  C
  C210     1.0000 0.52151  0.07741  0.35285  Biso   1.000  C
  C211     1.0000 0.36550  0.47478  0.11376  Biso   1.000  C
  C212     1.0000 0.40636  0.62691  0.02732  Biso   1.000  C
  C213     1.0000 0.51532  0.57408  0.17751  Biso   1.000  C
  C214     1.0000 0.86973  0.47612  0.40948  Biso   1.000  C
  C215     1.0000 0.91047  0.63521  0.50643  Biso   1.000  C
  C216     1.0000 0.02000  0.58442  0.35541  Biso   1.000  C
  C217     1.0000 0.11765  0.97906  0.85149  Biso   1.000  C
  C218     1.0000 0.87135  0.09044  0.02302  Biso   1.000  C
  C219     1.0000 0.01648  0.83025  0.11348  Biso   1.000  C
  C220     1.0000 0.60904  0.98086  0.67403  Biso   1.000  C
  C221     1.0000 0.36465  0.08674  0.50201  Biso   1.000  C
  C222     1.0000 0.52212  0.82333  0.42366  Biso   1.000  C
  C223     1.0000 0.41639  0.48661  0.85388  Biso   1.000  C
  C224     1.0000 0.66778  0.59069  0.02396  Biso   1.000  C
  C225     1.0000 0.52650  0.32269  0.10177  Biso   1.000  C
  C226     1.0000 0.91003  0.47779  0.66757  Biso   1.000  C
  C227     1.0000 0.16269  0.58853  0.51168  Biso   1.000  C
  C228     1.0000 0.03071  0.32778  0.40761  Biso   1.000  C
  C229     1.0000 0.91761  0.99014  0.16846  Biso   1.000  C
  C230     1.0000 0.17496  0.87476  0.98932  Biso   1.000  C
  C231     1.0000 0.02469  0.14107  0.90577  Biso   1.000  C
  C232     1.0000 0.42485  0.97394  0.34819  Biso   1.000  C
  C233     1.0000 0.66544  0.87704  0.52297  Biso   1.000  C
  C234     1.0000 0.50843  0.14403  0.60235  Biso   1.000  C
  C235     1.0000 0.61870  0.48706  0.17052  Biso   1.000  C
  C236     1.0000 0.37000  0.37021  0.00323  Biso   1.000  C
  C237     1.0000 0.50839  0.64167  0.92380  Biso   1.000  C
  C238     1.0000 0.12674  0.48766  0.35546  Biso   1.000  C
  C239     1.0000 0.87307  0.37530  0.50248  Biso   1.000  C
  C240     1.0000 0.00415  0.63640  0.61447  Biso   1.000  C
  C241     1.0000 0.62091  0.50099  0.86052  Biso   1.000  C
  C242     1.0000 0.85952  0.58433  0.51568  Biso   1.000  C
  C243     1.0000 0.49627  0.83545  0.62560  Biso   1.000  C
  C244     1.0000 0.11598  0.49165  0.66365  Biso   1.000  C
  C245     1.0000 0.35752  0.57553  0.01339  Biso   1.000  C
  C246     1.0000 0.00133  0.83244  0.90792  Biso   1.000  C
  C247     1.0000 0.91382  0.99197  0.85865  Biso   1.000  C
  C248     1.0000 0.67523  0.08194  0.51180  Biso   1.000  C
  C249     1.0000 0.02370  0.33164  0.61299  Biso   1.000  C
  C250     1.0000 0.40617  0.00093  0.65607  Biso   1.000  C
  C251     1.0000 0.17854  0.07777  0.00126  Biso   1.000  C
  C252     1.0000 0.52035  0.33728  0.89634  Biso   1.000  C
  C253     1.0000 0.41695  0.47213  0.16319  Biso   1.000  C
  C254     1.0000 0.17552  0.38577  0.50009  Biso   1.000  C
  C255     1.0000 0.52691  0.12930  0.40002  Biso   1.000  C
  C256     1.0000 0.92290  0.48083  0.35994  Biso   1.000  C
  C257     1.0000 0.68067  0.38637  0.00032  Biso   1.000  C
  C258     1.0000 0.02983  0.13499  0.11297  Biso   1.000  C
  C259     1.0000 0.12399  0.98812  0.15846  Biso   1.000  C
  C260     1.0000 0.35889  0.88424  0.49753  Biso   1.000  C
  C261     1.0000 0.01905  0.63627  0.40986  Biso   1.000  C
  C262     1.0000 0.62881  0.97358  0.36507  Biso   1.000  C
  C263     1.0000 0.86232  0.88387  0.00986  Biso   1.000  C
  C264     1.0000 0.51135  0.63112  0.12992  Biso   1.000  C
  C265     1.0000 0.01842  0.09053  0.85397  Biso   1.000  C
  C266     1.0000 0.86390  0.98452  0.11865  Biso   1.000  C
  C267     1.0000 0.11686  0.82752  0.99831  Biso   1.000  C
  C268     1.0000 0.51250  0.09207  0.65852  Biso   1.000  C
  C269     1.0000 0.37109  0.98439  0.39955  Biso   1.000  C
  C270     1.0000 0.61424  0.82508  0.52535  Biso   1.000  C
  C271     1.0000 0.51167  0.59438  0.86988  Biso   1.000  C
  C272     1.0000 0.67181  0.48952  0.11914  Biso   1.000  C
  C273     1.0000 0.42332  0.32102  0.99904  Biso   1.000  C
  C274     1.0000 0.00120  0.58736  0.66906  Biso   1.000  C
  C275     1.0000 0.17644  0.49416  0.40599  Biso   1.000  C
  C276     1.0000 0.92280  0.32347  0.50232  Biso   1.000  C
  C277     1.0000 0.01717  0.88132  0.16725  Biso   1.000  C
  C278     1.0000 0.17140  0.97444  0.90001  Biso   1.000  C
  C279     1.0000 0.92319  0.13973  0.01117  Biso   1.000  C
  C280     1.0000 0.52484  0.87203  0.36651  Biso   1.000  C
  C281     1.0000 0.66629  0.97506  0.62289  Biso   1.000  C
  C282     1.0000 0.41962  0.13450  0.50040  Biso   1.000  C
  C283     1.0000 0.52753  0.37220  0.15675  Biso   1.000  C
  C284     1.0000 0.36570  0.47718  0.90556  Biso   1.000  C
  C285     1.0000 0.61193  0.63969  0.02545  Biso   1.000  C
  C286     1.0000 0.03096  0.37829  0.35322  Biso   1.000  C
  C287     1.0000 0.85811  0.47448  0.61606  Biso   1.000  C
  C288     1.0000 0.11385  0.64146  0.51481  Biso   1.000  C
  C289     1.0000 0.35758  0.85296  0.50181  Biso   1.000  C
  C290     1.0000 0.51973  0.33920  0.86496  Biso   1.000  C
  C291     1.0000 0.89267  0.47847  0.35698  Biso   1.000  C
  C292     1.0000 0.85923  0.85264  0.01373  Biso   1.000  C
  C293     1.0000 0.03224  0.33066  0.64328  Biso   1.000  C
  C294     1.0000 0.38532  0.47350  0.16522  Biso   1.000  C
  C295     1.0000 0.17897  0.35520  0.50014  Biso   1.000  C
  C296     1.0000 0.99636  0.83103  0.87589  Biso   1.000  C
  C297     1.0000 0.65921  0.97434  0.36524  Biso   1.000  C
  C298     1.0000 0.68399  0.35536  0.99940  Biso   1.000  C
  C299     1.0000 0.49519  0.83690  0.65658  Biso   1.000  C
  C300     1.0000 0.15566  0.98351  0.15820  Biso   1.000  C
  C301     1.0000 0.67687  0.11221  0.50453  Biso   1.000  C
  C302     1.0000 0.51101  0.62877  0.16135  Biso   1.000  C
  C303     1.0000 0.14641  0.49106  0.66475  Biso   1.000  C
  C304     1.0000 0.18082  0.10878  0.99931  Biso   1.000  C
  C305     1.0000 0.02085  0.63735  0.37807  Biso   1.000  C
  C306     1.0000 0.65334  0.49991  0.86146  Biso   1.000  C
  C307     1.0000 0.85902  0.61513  0.51590  Biso   1.000  C
  C308     1.0000 0.03200  0.13711  0.14486  Biso   1.000  C
  C309     1.0000 0.37630  0.99191  0.65421  Biso   1.000  C
  C310     1.0000 0.35570  0.60624  0.01779  Biso   1.000  C
  C311     1.0000 0.52297  0.13075  0.36845  Biso   1.000  C
  C312     1.0000 0.88217  0.99186  0.86210  Biso   1.000  C
  C313     1.0000 0.17875  0.49282  0.37517  Biso   1.000  C
  C314     1.0000 0.38851  0.13818  0.50181  Biso   1.000  C
  C315     1.0000 0.52683  0.34132  0.15488  Biso   1.000  C
  C316     1.0000 0.67253  0.48845  0.15100  Biso   1.000  C
  C317     1.0000 0.89201  0.14237  0.01453  Biso   1.000  C
  C318     1.0000 0.03239  0.34688  0.35261  Biso   1.000  C
  C319     1.0000 0.37105  0.97724  0.36827  Biso   1.000  C
  C320     1.0000 0.14526  0.64157  0.51480  Biso   1.000  C
  C321     1.0000 0.01477  0.85031  0.16771  Biso   1.000  C
  C322     1.0000 0.86319  0.98529  0.15039  Biso   1.000  C
  C323     1.0000 0.64432  0.64317  0.02462  Biso   1.000  C
  C324     1.0000 0.52317  0.84074  0.36912  Biso   1.000  C
  C325     1.0000 0.85636  0.47653  0.64776  Biso   1.000  C
  C326     1.0000 0.64563  0.82440  0.52462  Biso   1.000  C
  C327     1.0000 0.50874  0.62508  0.87035  Biso   1.000  C
  C328     1.0000 0.36421  0.48141  0.87361  Biso   1.000  C
  C329     1.0000 0.14796  0.82428  0.99472  Biso   1.000  C
  C330     1.0000 0.99848  0.61768  0.66769  Biso   1.000  C
  C331     1.0000 0.66485  0.97582  0.65509  Biso   1.000  C
  C332     1.0000 0.89198  0.32166  0.50009  Biso   1.000  C
  C333     1.0000 0.02199  0.12166  0.85277  Biso   1.000  C
  C334     1.0000 0.17157  0.97171  0.86860  Biso   1.000  C
  C335     1.0000 0.39281  0.31873  0.99571  Biso   1.000  C
  C336     1.0000 0.50828  0.12457  0.65745  Biso   1.000  C
  C337     1.0000 0.67378  0.49900  0.88320  Biso   1.000  C
  C338     1.0000 0.87972  0.63668  0.51289  Biso   1.000  C
  C339     1.0000 0.49398  0.86018  0.67806  Biso   1.000  C
  C340     1.0000 0.16910  0.48760  0.64347  Biso   1.000  C
  C341     1.0000 0.37618  0.62874  0.02177  Biso   1.000  C
  C342     1.0000 0.99518  0.85247  0.85508  Biso   1.000  C
  C343     1.0000 0.86153  0.99506  0.88460  Biso   1.000  C
  C344     1.0000 0.65690  0.13424  0.50116  Biso   1.000  C
  C345     1.0000 0.03110  0.35333  0.66414  Biso   1.000  C
  C346     1.0000 0.35612  0.99003  0.63200  Biso   1.000  C
  C347     1.0000 0.15877  0.12988  0.00134  Biso   1.000  C
  C348     1.0000 0.52511  0.36217  0.84567  Biso   1.000  C
  C349     1.0000 0.36321  0.47265  0.14470  Biso   1.000  C
  C350     1.0000 0.15797  0.33216  0.50371  Biso   1.000  C
  C351     1.0000 0.52127  0.10843  0.34841  Biso   1.000  C
  C352     1.0000 0.87008  0.47697  0.37773  Biso   1.000  C
  C353     1.0000 0.66172  0.33348  0.99684  Biso   1.000  C
  C354     1.0000 0.03214  0.11723  0.16792  Biso   1.000  C
  C355     1.0000 0.17618  0.98161  0.13644  Biso   1.000  C
  C356     1.0000 0.37851  0.83049  0.50662  Biso   1.000  C
  C357     1.0000 0.02028  0.61641  0.35568  Biso   1.000  C
  C358     1.0000 0.68010  0.97519  0.38764  Biso   1.000  C
  C359     1.0000 0.87974  0.82990  0.01287  Biso   1.000  C
  C360     1.0000 0.51508  0.60559  0.18096  Biso   1.000  C
  C361     1.0000 0.02398  0.14272  0.87394  Biso   1.000  C
  C362     1.0000 0.88574  0.98855  0.17172  Biso   1.000  C
  C363     1.0000 0.17124  0.84332  0.99086  Biso   1.000  C
  C364     1.0000 0.50785  0.14458  0.63418  Biso   1.000  C
  C365     1.0000 0.39328  0.97284  0.34706  Biso   1.000  C
  C366     1.0000 0.66680  0.84646  0.52262  Biso   1.000  C
  C367     1.0000 0.50890  0.64611  0.89332  Biso   1.000  C
  C368     1.0000 0.65052  0.48774  0.17219  Biso   1.000  C
  C369     1.0000 0.37123  0.34024  0.99603  Biso   1.000  C
  C370     1.0000 0.99777  0.63912  0.64484  Biso   1.000  C
  C371     1.0000 0.15719  0.48957  0.35393  Biso   1.000  C
  C372     1.0000 0.87035  0.34347  0.49967  Biso   1.000  C
  C373     1.0000 0.01281  0.82983  0.14554  Biso   1.000  C
  C374     1.0000 0.14880  0.97356  0.84763  Biso   1.000  C
  C375     1.0000 0.87084  0.12079  0.01877  Biso   1.000  C
  C376     1.0000 0.52166  0.82052  0.39188  Biso   1.000  C
  C377     1.0000 0.64172  0.97836  0.67532  Biso   1.000  C
  C378     1.0000 0.36505  0.11792  0.50120  Biso   1.000  C
  C379     1.0000 0.52532  0.32040  0.13204  Biso   1.000  C
  C380     1.0000 0.38612  0.48411  0.85243  Biso   1.000  C
  C381     1.0000 0.66647  0.62268  0.02250  Biso   1.000  C
  C382     1.0000 0.03202  0.32596  0.37601  Biso   1.000  C
  C383     1.0000 0.87794  0.47917  0.66926  Biso   1.000  C
  C384     1.0000 0.16576  0.61945  0.51438  Biso   1.000  C
  C385     1.0000 0.20709  0.12324  0.99751  Biso   1.000  C
  C386     1.0000 0.03454  0.16491  0.15919  Biso   1.000  C
  C387     1.0000 0.17128  0.98141  0.18457  Biso   1.000  C
  C388     1.0000 0.70481  0.12619  0.49943  Biso   1.000  C
  C389     1.0000 0.52435  0.15711  0.35165  Biso   1.000  C
  C390     1.0000 0.67521  0.97576  0.33921  Biso   1.000  C
  C391     1.0000 0.32834  0.62076  0.01566  Biso   1.000  C
  C392     1.0000 0.51371  0.65338  0.17880  Biso   1.000  C
  C393     1.0000 0.36952  0.47364  0.19250  Biso   1.000  C
  C394     1.0000 0.83237  0.63007  0.51913  Biso   1.000  C
  C395     1.0000 0.01949  0.66489  0.36425  Biso   1.000  C
  C396     1.0000 0.87688  0.47990  0.32930  Biso   1.000  C
  C397     1.0000 0.83158  0.83733  0.01583  Biso   1.000  C
  C398     1.0000 0.99307  0.80437  0.86028  Biso   1.000  C
  C399     1.0000 0.86423  0.99018  0.83596  Biso   1.000  C
  C400     1.0000 0.33091  0.83806  0.50104  Biso   1.000  C
  C401     1.0000 0.49637  0.81066  0.67451  Biso   1.000  C
  C402     1.0000 0.35893  0.98488  0.67974  Biso   1.000  C
  C403     1.0000 0.71179  0.34049  0.00264  Biso   1.000  C
  C404     1.0000 0.51397  0.31453  0.84620  Biso   1.000  C
  C405     1.0000 0.66903  0.49881  0.83478  Biso   1.000  C
  C406     1.0000 0.20716  0.34086  0.49527  Biso   1.000  C
  C407     1.0000 0.03843  0.30497  0.65816  Biso   1.000  C
  C408     1.0000 0.16117  0.49054  0.69184  Biso   1.000  C
  C409     1.0000 0.16325  0.96972  0.82038  Biso   1.000  C
  C410     1.0000 0.84389  0.13709  0.01981  Biso   1.000  C
  C411     1.0000 0.00928  0.80285  0.16018  Biso   1.000  C
  C412     1.0000 0.65645  0.97854  0.70361  Biso   1.000  C
  C413     1.0000 0.33890  0.13491  0.49867  Biso   1.000  C
  C414     1.0000 0.51828  0.79252  0.37805  Biso   1.000  C
  C415     1.0000 0.36897  0.48500  0.82532  Biso   1.000  C
  C416     1.0000 0.69158  0.64077  0.02027  Biso   1.000  C
  C417     1.0000 0.52062  0.29351  0.14724  Biso   1.000  C
  C418     1.0000 0.86212  0.48096  0.69620  Biso   1.000  C
  C419     1.0000 0.19356  0.63436  0.51298  Biso   1.000  C
  C420     1.0000 0.03327  0.29896  0.36085  Biso   1.000  C
  C421     1.0000 0.87115  0.98910  0.19879  Biso   1.000  C
  C422     1.0000 0.19655  0.82447  0.98919  Biso   1.000  C
  C423     1.0000 0.02500  0.16995  0.85744  Biso   1.000  C
  C424     1.0000 0.37825  0.96736  0.32097  Biso   1.000  C
  C425     1.0000 0.69335  0.83191  0.52360  Biso   1.000  C
  C426     1.0000 0.50733  0.17224  0.64888  Biso   1.000  C
  C427     1.0000 0.66667  0.48580  0.19916  Biso   1.000  C
  C428     1.0000 0.34402  0.32384  0.99106  Biso   1.000  C
  C429     1.0000 0.50975  0.67416  0.87848  Biso   1.000  C
  C430     1.0000 0.17370  0.48829  0.32683  Biso   1.000  C
  C431     1.0000 0.84293  0.32826  0.49923  Biso   1.000  C
  C432     1.0000 0.99357  0.66642  0.65940  Biso   1.000  C
  C433     1.0000 0.02473  0.13703  0.82508  Biso   1.000  C
  C434     1.0000 0.83702  0.98516  0.16650  Biso   1.000  C
  C435     1.0000 0.16108  0.79600  0.99296  Biso   1.000  C
  C436     1.0000 0.50517  0.14150  0.68453  Biso   1.000  C
  C437     1.0000 0.34371  0.97356  0.35160  Biso   1.000  C
  C438     1.0000 0.66104  0.79760  0.52885  Biso   1.000  C
  C439     1.0000 0.50789  0.64411  0.84432  Biso   1.000  C
  C440     1.0000 0.69903  0.48675  0.16659  Biso   1.000  C
  C441     1.0000 0.37816  0.29101  0.99282  Biso   1.000  C
  C442     1.0000 0.99394  0.63344  0.69389  Biso   1.000  C
  C443     1.0000 0.20610  0.49573  0.36036  Biso   1.000  C
  C444     1.0000 0.87555  0.29473  0.49909  Biso   1.000  C
  C445     1.0000 0.01252  0.83341  0.19503  Biso   1.000  C
  C446     1.0000 0.19764  0.96776  0.85295  Biso   1.000  C
  C447     1.0000 0.87677  0.16883  0.01493  Biso   1.000  C
  C448     1.0000 0.52300  0.82303  0.34375  Biso   1.000  C
  C449     1.0000 0.69063  0.97388  0.67193  Biso   1.000  C
  C450     1.0000 0.37494  0.16636  0.50245  Biso   1.000  C
  C451     1.0000 0.52266  0.32367  0.18133  Biso   1.000  C
  C452     1.0000 0.33667  0.48421  0.85909  Biso   1.000  C
  C453     1.0000 0.65655  0.67179  0.02478  Biso   1.000  C
  C454     1.0000 0.03199  0.33190  0.32599  Biso   1.000  C
  C455     1.0000 0.82900  0.47514  0.66244  Biso   1.000  C
  C456     1.0000 0.16150  0.66801  0.51511  Biso   1.000  C
  C457     1.0000 0.02179  0.63387  0.32981  Biso   1.000  C
  C458     1.0000 0.32837  0.98346  0.64522  Biso   1.000  C
  C459     1.0000 0.67890  0.30770  0.99873  Biso   1.000  C
  C460     1.0000 0.51780  0.61875  0.20943  Biso   1.000  C
  C461     1.0000 0.83252  0.99665  0.86960  Biso   1.000  C
  C462     1.0000 0.17493  0.30663  0.50204  Biso   1.000  C
  C463     1.0000 0.52179  0.12294  0.32052  Biso   1.000  C
  C464     1.0000 0.19478  0.48696  0.66062  Biso   1.000  C
  C465     1.0000 0.86265  0.80327  0.01731  Biso   1.000  C
  C466     1.0000 0.03480  0.13266  0.19387  Biso   1.000  C
  C467     1.0000 0.70087  0.49695  0.86770  Biso   1.000  C
  C468     1.0000 0.36169  0.80393  0.50856  Biso   1.000  C
  C469     1.0000 0.03466  0.33827  0.69032  Biso   1.000  C
  C470     1.0000 0.70750  0.97870  0.37240  Biso   1.000  C
  C471     1.0000 0.36120  0.65530  0.02080  Biso   1.000  C
  C472     1.0000 0.52336  0.34836  0.81671  Biso   1.000  C
  C473     1.0000 0.20289  0.97615  0.15126  Biso   1.000  C
  C474     1.0000 0.86390  0.66338  0.51259  Biso   1.000  C
  C475     1.0000 0.49173  0.84562  0.70673  Biso   1.000  C
  C476     1.0000 0.84331  0.47533  0.36161  Biso   1.000  C
  C477     1.0000 0.17452  0.15565  0.99742  Biso   1.000  C
  C478     1.0000 0.98951  0.83773  0.82835  Biso   1.000  C
  C479     1.0000 0.33664  0.46991  0.16064  Biso   1.000  C
  C480     1.0000 0.67304  0.16010  0.49585  Biso   1.000  C
  C481     1.0000 0.37774  0.77651  0.51364  Biso   1.000  C
  C482     1.0000 0.52657  0.36563  0.79025  Biso   1.000  C
  C483     1.0000 0.81551  0.46794  0.37633  Biso   1.000  C
  C484     1.0000 0.87711  0.77621  0.01446  Biso   1.000  C
  C485     1.0000 0.03186  0.35304  0.71780  Biso   1.000  C
  C486     1.0000 0.30925  0.46737  0.14328  Biso   1.000  C
  C487     1.0000 0.15938  0.27918  0.50384  Biso   1.000  C
  C488     1.0000 0.98496  0.85471  0.80234  Biso   1.000  C
  C489     1.0000 0.73345  0.98173  0.39072  Biso   1.000  C
  C490     1.0000 0.66333  0.27933  0.99726  Biso   1.000  C
  C491     1.0000 0.48521  0.86336  0.73172  Biso   1.000  C
  C492     1.0000 0.22973  0.97073  0.13437  Biso   1.000  C
  C493     1.0000 0.65877  0.18702  0.49313  Biso   1.000  C
  C494     1.0000 0.52052  0.60140  0.23583  Biso   1.000  C
  C495     1.0000 0.22205  0.48556  0.64598  Biso   1.000  C
  C496     1.0000 0.16141  0.18371  0.99408  Biso   1.000  C
  C497     1.0000 0.02741  0.61830  0.30199  Biso   1.000  C
  C498     1.0000 0.72852  0.49198  0.88334  Biso   1.000  C
  C499     1.0000 0.88032  0.69069  0.51095  Biso   1.000  C
  C500     1.0000 0.03141  0.11696  0.22227  Biso   1.000  C
  C501     1.0000 0.30225  0.97802  0.62789  Biso   1.000  C
  C502     1.0000 0.37548  0.68247  0.02651  Biso   1.000  C
  C503     1.0000 0.52019  0.10648  0.29413  Biso   1.000  C
  C504     1.0000 0.80650  0.99962  0.88597  Biso   1.000  C
  C505     1.0000 0.65319  0.50395  0.80797  Biso   1.000  C
  C506     1.0000 0.80507  0.61375  0.52159  Biso   1.000  C
  C507     1.0000 0.50050  0.78242  0.66150  Biso   1.000  C
  C508     1.0000 0.14541  0.49316  0.71793  Biso   1.000  C
  C509     1.0000 0.30249  0.60410  0.00853  Biso   1.000  C
  C510     1.0000 0.99025  0.77744  0.87892  Biso   1.000  C
  C511     1.0000 0.87707  0.98696  0.80643  Biso   1.000  C
  C512     1.0000 0.73075  0.10946  0.50119  Biso   1.000  C
  C513     1.0000 0.04296  0.27858  0.64291  Biso   1.000  C
  C514     1.0000 0.37226  0.98748  0.70848  Biso   1.000  C
  C515     1.0000 0.23436  0.10917  0.99978  Biso   1.000  C
  C516     1.0000 0.51226  0.28454  0.86026  Biso   1.000  C
  C517     1.0000 0.38628  0.47203  0.21838  Biso   1.000  C
  C518     1.0000 0.23364  0.35788  0.49205  Biso   1.000  C
  C519     1.0000 0.52983  0.18505  0.36641  Biso   1.000  C
  C520     1.0000 0.89343  0.48545  0.30251  Biso   1.000  C
  C521     1.0000 0.73782  0.36019  0.00739  Biso   1.000  C
  C522     1.0000 0.03340  0.19228  0.14301  Biso   1.000  C
  C523     1.0000 0.15767  0.98359  0.21337  Biso   1.000  C
  C524     1.0000 0.30350  0.85346  0.49555  Biso   1.000  C
  C525     1.0000 0.01580  0.69103  0.38035  Biso   1.000  C
  C526     1.0000 0.66094  0.97204  0.31139  Biso   1.000  C
  C527     1.0000 0.80638  0.85578  0.01590  Biso   1.000  C
  C528     1.0000 0.51071  0.68183  0.16529  Biso   1.000  C
  C529     1.0000 0.81610  0.12231  0.02336  Biso   1.000  C
  C530     1.0000 0.00998  0.77580  0.14450  Biso   1.000  C
  C531     1.0000 0.14736  0.97551  0.79397  Biso   1.000  C
  C532     1.0000 0.31108  0.11815  0.49900  Biso   1.000  C
  C533     1.0000 0.51355  0.76629  0.39648  Biso   1.000  C
  C534     1.0000 0.64050  0.98055  0.73100  Biso   1.000  C
  C535     1.0000 0.72005  0.62658  0.01539  Biso   1.000  C
  C536     1.0000 0.51993  0.26761  0.12933  Biso   1.000  C
  C537     1.0000 0.38516  0.48805  0.79784  Biso   1.000  C
  C538     1.0000 0.21919  0.61785  0.50685  Biso   1.000  C
  C539     1.0000 0.03880  0.27322  0.37715  Biso   1.000  C
  C540     1.0000 0.87849  0.48513  0.72270  Biso   1.000  C
  C541     1.0000 0.22473  0.83743  0.98944  Biso   1.000  C
  C542     1.0000 0.02996  0.19712  0.87264  Biso   1.000  C
  C543     1.0000 0.88805  0.98971  0.22543  Biso   1.000  C
  C544     1.0000 0.72015  0.84801  0.51951  Biso   1.000  C
  C545     1.0000 0.50540  0.19866  0.63160  Biso   1.000  C
  C546     1.0000 0.39461  0.96020  0.29418  Biso   1.000  C
  C547     1.0000 0.31671  0.34099  0.98912  Biso   1.000  C
  C548     1.0000 0.50819  0.70015  0.89751  Biso   1.000  C
  C549     1.0000 0.65042  0.48780  0.22562  Biso   1.000  C
  C550     1.0000 0.81728  0.34505  0.49786  Biso   1.000  C
  C551     1.0000 0.99578  0.69318  0.64253  Biso   1.000  C
  C552     1.0000 0.15730  0.48159  0.29955  Biso   1.000  C
  C553     1.0000 0.02510  0.12012  0.79776  Biso   1.000  C
  C554     1.0000 0.80975  0.98352  0.15009  Biso   1.000  C
  C555     1.0000 0.14245  0.76983  0.99681  Biso   1.000  C
  C556     1.0000 0.50354  0.12527  0.71183  Biso   1.000  C
  C557     1.0000 0.31568  0.97900  0.36470  Biso   1.000  C
  C558     1.0000 0.64589  0.77121  0.53427  Biso   1.000  C
  C559     1.0000 0.50762  0.62974  0.81520  Biso   1.000  C
  C560     1.0000 0.72730  0.48407  0.15046  Biso   1.000  C
  C561     1.0000 0.39668  0.26543  0.99576  Biso   1.000  C
  C562     1.0000 0.98873  0.61797  0.72081  Biso   1.000  C
  C563     1.0000 0.23131  0.50411  0.37839  Biso   1.000  C
  C564     1.0000 0.89044  0.26741  0.50138  Biso   1.000  C
  C565     1.0000 0.01340  0.84937  0.22274  Biso   1.000  C
  C566     1.0000 0.22492  0.96359  0.86705  Biso   1.000  C
  C567     1.0000 0.89228  0.19603  0.00841  Biso   1.000  C
  C568     1.0000 0.52205  0.83616  0.31483  Biso   1.000  C
  C569     1.0000 0.71899  0.97358  0.65679  Biso   1.000  C
  C570     1.0000 0.39255  0.19442  0.50455  Biso   1.000  C
  C571     1.0000 0.52337  0.33715  0.20946  Biso   1.000  C
  C572     1.0000 0.30981  0.48272  0.87590  Biso   1.000  C
  C573     1.0000 0.63858  0.69759  0.02811  Biso   1.000  C
  C574     1.0000 0.03025  0.34908  0.29903  Biso   1.000  C
  C575     1.0000 0.80319  0.46965  0.64309  Biso   1.000  C
  C576     1.0000 0.14598  0.69499  0.52192  Biso   1.000  C
  C577     1.0000 0.31079  0.46898  0.11174  Biso   1.000  C
  C578     1.0000 0.12858  0.27829  0.51008  Biso   1.000  C
  C579     1.0000 0.52120  0.07475  0.29713  Biso   1.000  C
  C580     1.0000 0.81586  0.47003  0.40792  Biso   1.000  C
  C581     1.0000 0.63156  0.27839  0.99628  Biso   1.000  C
  C582     1.0000 0.02836  0.08565  0.22152  Biso   1.000  C
  C583     1.0000 0.22922  0.97065  0.10300  Biso   1.000  C
  C584     1.0000 0.40907  0.77594  0.51826  Biso   1.000  C
  C585     1.0000 0.02742  0.58645  0.30280  Biso   1.000  C
  C586     1.0000 0.73145  0.98233  0.42253  Biso   1.000  C
  C587     1.0000 0.90920  0.77626  0.01044  Biso   1.000  C
  C588     1.0000 0.51763  0.56950  0.23208  Biso   1.000  C
  C589     1.0000 0.72999  0.49100  0.91398  Biso   1.000  C
  C590     1.0000 0.91124  0.68976  0.50930  Biso   1.000  C
  C591     1.0000 0.48638  0.89414  0.72825  Biso   1.000  C
  C592     1.0000 0.22206  0.48281  0.61311  Biso   1.000  C
  C593     1.0000 0.40771  0.68155  0.02887  Biso   1.000  C
  C594     1.0000 0.99084  0.88506  0.80211  Biso   1.000  C
  C595     1.0000 0.81112  0.00098  0.91798  Biso   1.000  C
  C596     1.0000 0.62797  0.18712  0.49609  Biso   1.000  C
  C597     1.0000 0.02463  0.38335  0.71664  Biso   1.000  C
  C598     1.0000 0.30441  0.97868  0.59600  Biso   1.000  C
  C599     1.0000 0.13042  0.18488  0.99844  Biso   1.000  C
  C600     1.0000 0.52907  0.39749  0.79346  Biso   1.000  C
  C601     1.0000 0.22553  0.96798  0.89871  Biso   1.000  C
  C602     1.0000 0.92418  0.19377  0.00601  Biso   1.000  C
  C603     1.0000 0.01564  0.88056  0.22197  Biso   1.000  C
  C604     1.0000 0.71997  0.97511  0.62445  Biso   1.000  C
  C605     1.0000 0.42475  0.18983  0.50546  Biso   1.000  C
  C606     1.0000 0.52421  0.86764  0.31314  Biso   1.000  C
  C607     1.0000 0.31134  0.48108  0.90734  Biso   1.000  C
  C608     1.0000 0.60700  0.69402  0.03034  Biso   1.000  C
  C609     1.0000 0.52366  0.36868  0.21201  Biso   1.000  C
  C610     1.0000 0.80684  0.46322  0.61150  Biso   1.000  C
  C611     1.0000 0.11260  0.69506  0.52186  Biso   1.000  C
  C612     1.0000 0.03114  0.38050  0.29783  Biso   1.000  C
  C613     1.0000 0.80998  0.97968  0.11883  Biso   1.000  C
  C614     1.0000 0.11233  0.77359  0.00609  Biso   1.000  C
  C615     1.0000 0.02343  0.08835  0.79914  Biso   1.000  C
  C616     1.0000 0.31558  0.98924  0.39475  Biso   1.000  C
  C617     1.0000 0.61497  0.77156  0.53598  Biso   1.000  C
  C618     1.0000 0.50507  0.09331  0.71306  Biso   1.000  C
  C619     1.0000 0.72613  0.48515  0.11756  Biso   1.000  C
  C620     1.0000 0.42717  0.26720  0.00054  Biso   1.000  C
  C621     1.0000 0.50886  0.59854  0.81478  Biso   1.000  C
  C622     1.0000 0.23021  0.50465  0.40991  Biso   1.000  C
  C623     1.0000 0.92307  0.26747  0.50243  Biso   1.000  C
  C624     1.0000 0.99020  0.58644  0.72213  Biso   1.000  C
  C625     1.0000 0.03044  0.19503  0.90492  Biso   1.000  C
  C626     1.0000 0.91963  0.98979  0.22321  Biso   1.000  C
  C627     1.0000 0.22878  0.86737  0.99080  Biso   1.000  C
  C628     1.0000 0.51132  0.19767  0.60086  Biso   1.000  C
  C629     1.0000 0.42518  0.95880  0.29501  Biso   1.000  C
  C630     1.0000 0.72135  0.87904  0.51645  Biso   1.000  C
  C631     1.0000 0.50877  0.69695  0.92871  Biso   1.000  C
  C632     1.0000 0.61888  0.48944  0.22564  Biso   1.000  C
  C633     1.0000 0.31686  0.37213  0.99122  Biso   1.000  C
  C634     1.0000 0.00393  0.69235  0.61196  Biso   1.000  C
  C635     1.0000 0.12670  0.47898  0.30028  Biso   1.000  C
  C636     1.0000 0.81829  0.37613  0.50148  Biso   1.000  C
  C637     1.0000 0.01377  0.77653  0.11405  Biso   1.000  C
  C638     1.0000 0.11549  0.97754  0.79673  Biso   1.000  C
  C639     1.0000 0.81543  0.09089  0.02615  Biso   1.000  C
  C640     1.0000 0.51370  0.76885  0.42725  Biso   1.000  C
  C641     1.0000 0.60838  0.98228  0.72936  Biso   1.000  C
  C642     1.0000 0.30972  0.08608  0.50250  Biso   1.000  C
  C643     1.0000 0.52116  0.26972  0.09738  Biso   1.000  C
  C644     1.0000 0.41676  0.48810  0.80079  Biso   1.000  C
  C645     1.0000 0.72246  0.59462  0.01277  Biso   1.000  C
  C646     1.0000 0.03892  0.27345  0.40821  Biso   1.000  C
  C647     1.0000 0.91043  0.48895  0.72213  Biso   1.000  C
  C648     1.0000 0.21776  0.58716  0.50462  Biso   1.000  C
  C649     1.0000 0.01017  0.69051  0.41111  Biso   1.000  C
  C650     1.0000 0.40175  0.99509  0.71118  Biso   1.000  C
  C651     1.0000 0.73434  0.39065  0.01081  Biso   1.000  C
  C652     1.0000 0.51182  0.68488  0.13323  Biso   1.000  C
  C653     1.0000 0.90945  0.98504  0.80434  Biso   1.000  C
  C654     1.0000 0.22940  0.38950  0.49339  Biso   1.000  C
  C655     1.0000 0.53362  0.18491  0.39799  Biso   1.000  C
  C656     1.0000 0.11557  0.50027  0.71746  Biso   1.000  C
  C657     1.0000 0.80781  0.88737  0.01459  Biso   1.000  C
  C658     1.0000 0.03052  0.19013  0.11234  Biso   1.000  C
  C659     1.0000 0.62205  0.50301  0.80659  Biso   1.000  C
  C660     1.0000 0.30373  0.88399  0.49239  Biso   1.000  C
  C661     1.0000 0.03869  0.27985  0.61194  Biso   1.000  C
  C662     1.0000 0.63000  0.96764  0.31235  Biso   1.000  C
  C663     1.0000 0.30382  0.57321  0.00453  Biso   1.000  C
  C664     1.0000 0.51298  0.28298  0.89198  Biso   1.000  C
  C665     1.0000 0.12649  0.98778  0.21503  Biso   1.000  C
  C666     1.0000 0.80554  0.58202  0.52170  Biso   1.000  C
  C667     1.0000 0.50000  0.78125  0.62909  Biso   1.000  C
  C668     1.0000 0.92395  0.48703  0.30408  Biso   1.000  C
  C669     1.0000 0.23290  0.07794  0.00250  Biso   1.000  C
  C670     1.0000 0.99522  0.77911  0.91063  Biso   1.000  C
  C671     1.0000 0.41726  0.47070  0.21848  Biso   1.000  C
  C672     1.0000 0.72880  0.07809  0.50879  Biso   1.000  C
  C673     1.0000 0.20993  0.96671  0.80545  Biso   1.000  C
  C674     1.0000 0.82956  0.18315  0.01805  Biso   1.000  C
  C675     1.0000 0.00789  0.78791  0.20710  Biso   1.000  C
  C676     1.0000 0.70291  0.97800  0.71991  Biso   1.000  C
  C677     1.0000 0.32914  0.18150  0.49831  Biso   1.000  C
  C678     1.0000 0.52224  0.77584  0.33344  Biso   1.000  C
  C679     1.0000 0.32166  0.48343  0.81354  Biso   1.000  C
  C680     1.0000 0.70413  0.68633  0.02232  Biso   1.000  C
  C681     1.0000 0.51810  0.27594  0.19244  Biso   1.000  C
  C682     1.0000 0.81395  0.48340  0.70765  Biso   1.000  C
  C683     1.0000 0.20824  0.68153  0.51326  Biso   1.000  C
  C684     1.0000 0.03488  0.28476  0.31520  Biso   1.000  C
  C685     1.0000 0.82360  0.98846  0.21339  Biso   1.000  C
  C686     1.0000 0.20685  0.77726  0.99221  Biso   1.000  C
  C687     1.0000 0.02898  0.18355  0.81143  Biso   1.000  C
  C688     1.0000 0.33074  0.96931  0.30524  Biso   1.000  C
  C689     1.0000 0.70698  0.78373  0.52598  Biso   1.000  C
  C690     1.0000 0.50757  0.18928  0.69417  Biso   1.000  C
  C691     1.0000 0.71269  0.48511  0.21444  Biso   1.000  C
  C692     1.0000 0.33249  0.27663  0.98917  Biso   1.000  C
  C693     1.0000 0.50667  0.68929  0.83083  Biso   1.000  C
  C694     1.0000 0.21988  0.49067  0.31486  Biso   1.000  C
  C695     1.0000 0.82698  0.28203  0.49561  Biso   1.000  C
  C696     1.0000 0.98747  0.67939  0.70612  Biso   1.000  C
  C697     1.0000 0.72285  0.98240  0.32714  Biso   1.000  C
  C698     1.0000 0.31486  0.66727  0.01381  Biso   1.000  C
  C699     1.0000 0.03861  0.29094  0.70287  Biso   1.000  C
  C700     1.0000 0.21840  0.97900  0.19835  Biso   1.000  C
  C701     1.0000 0.81881  0.67697  0.52172  Biso   1.000  C
  C702     1.0000 0.51509  0.30255  0.80037  Biso   1.000  C
  C703     1.0000 0.82817  0.48016  0.31540  Biso   1.000  C
  C704     1.0000 0.21943  0.17069  0.99265  Biso   1.000  C
  C705     1.0000 0.49632  0.79911  0.72210  Biso   1.000  C
  C706     1.0000 0.32224  0.47351  0.20705  Biso   1.000  C
  C707     1.0000 0.72010  0.17343  0.49060  Biso   1.000  C
  C708     1.0000 0.98704  0.79175  0.81407  Biso   1.000  C
  C709     1.0000 0.31317  0.97495  0.69034  Biso   1.000  C
  C710     1.0000 0.72566  0.29546  0.00385  Biso   1.000  C
  C711     1.0000 0.01699  0.68085  0.31842  Biso   1.000  C
  C712     1.0000 0.81578  0.99039  0.82551  Biso   1.000  C
  C713     1.0000 0.22121  0.29446  0.49786  Biso   1.000  C
  C714     1.0000 0.51416  0.66404  0.22565  Biso   1.000  C
  C715     1.0000 0.20757  0.48523  0.70809  Biso   1.000  C
  C716     1.0000 0.81635  0.79128  0.01893  Biso   1.000  C
  C717     1.0000 0.52169  0.16978  0.30454  Biso   1.000  C
  C718     1.0000 0.71393  0.49740  0.82063  Biso   1.000  C
  C719     1.0000 0.31469  0.79315  0.50258  Biso   1.000  C
  C720     1.0000 0.03602  0.17909  0.20697  Biso   1.000  C
  C721     1.0000 0.53944  0.77716  0.30638  Biso   1.000  C
  C722     1.0000 0.29546  0.50093  0.81746  Biso   1.000  C
  C723     1.0000 0.79840  0.28554  0.50900  Biso   1.000  C
  C724     1.0000 0.98845  0.76257  0.20682  Biso   1.000  C
  C725     1.0000 0.78674  0.49717  0.70170  Biso   1.000  C
  C726     1.0000 0.30496  0.28011  0.97198  Biso   1.000  C
  C727     1.0000 0.02102  0.25617  0.32003  Biso   1.000  C
  C728     1.0000 0.24120  0.97465  0.80737  Biso   1.000  C
  C729     1.0000 0.73590  0.78984  0.53932  Biso   1.000  C
  C730     1.0000 0.50026  0.27788  0.21838  Biso   1.000  C
  C731     1.0000 0.72559  0.95746  0.72121  Biso   1.000  C
  C732     1.0000 0.23200  0.77621  0.97266  Biso   1.000  C
  C733     1.0000 0.49389  0.18725  0.72220  Biso   1.000  C
  C734     1.0000 0.71015  0.46631  0.23969  Biso   1.000  C
  C735     1.0000 0.20389  0.71016  0.50045  Biso   1.000  C
  C736     1.0000 0.01387  0.21136  0.81266  Biso   1.000  C
  C737     1.0000 0.24679  0.47557  0.32268  Biso   1.000  C
  C738     1.0000 0.73191  0.68358  0.03792  Biso   1.000  C
  C739     1.0000 0.00696  0.67865  0.73192  Biso   1.000  C
  C740     1.0000 0.79789  0.96947  0.20990  Biso   1.000  C
  C741     1.0000 0.30445  0.18130  0.47622  Biso   1.000  C
  C742     1.0000 0.52928  0.69224  0.80846  Biso   1.000  C
  C743     1.0000 0.30390  0.95269  0.30909  Biso   1.000  C
  C744     1.0000 0.83632  0.21272  0.03139  Biso   1.000  C
  C745     1.0000 0.03093  0.70951  0.32219  Biso   1.000  C
  C746     1.0000 0.28524  0.98817  0.68928  Biso   1.000  C
  C747     1.0000 0.75529  0.29954  0.99434  Biso   1.000  C
  C748     1.0000 0.52952  0.69069  0.22110  Biso   1.000  C
  C749     1.0000 0.81766  0.97063  0.80210  Biso   1.000  C
  C750     1.0000 0.24896  0.29736  0.51361  Biso   1.000  C
  C751     1.0000 0.53279  0.16332  0.27602  Biso   1.000  C
  C752     1.0000 0.23216  0.46605  0.70487  Biso   1.000  C
  C753     1.0000 0.79428  0.79124  0.99683  Biso   1.000  C
  C754     1.0000 0.05086  0.17500  0.23653  Biso   1.000  C
  C755     1.0000 0.70707  0.48030  0.79534  Biso   1.000  C
  C756     1.0000 0.28575  0.79893  0.51398  Biso   1.000  C
  C757     1.0000 0.02343  0.26343  0.70026  Biso   1.000  C
  C758     1.0000 0.71504  0.99632  0.30001  Biso   1.000  C
  C759     1.0000 0.28479  0.66354  0.02033  Biso   1.000  C
  C760     1.0000 0.53449  0.30240  0.77406  Biso   1.000  C
  C761     1.0000 0.24610  0.99459  0.19473  Biso   1.000  C
  C762     1.0000 0.81903  0.70460  0.50576  Biso   1.000  C
  C763     1.0000 0.47674  0.79795  0.74690  Biso   1.000  C
  C764     1.0000 0.80141  0.49417  0.32246  Biso   1.000  C
  C765     1.0000 0.23766  0.17845  0.01762  Biso   1.000  C
  C766     1.0000 0.96642  0.79327  0.78980  Biso   1.000  C
  C767     1.0000 0.32917  0.49023  0.23274  Biso   1.000  C
  C768     1.0000 0.71702  0.20035  0.47399  Biso   1.000  C
  C769     1.0000 0.48441  0.71173  0.83196  Biso   1.000  C
  C770     1.0000 0.81603  0.47214  0.73855  Biso   1.000  C
  C771     1.0000 0.70297  0.75441  0.51354  Biso   1.000  C
  C772     1.0000 0.96904  0.70426  0.70098  Biso   1.000  C
  C773     1.0000 0.32320  0.46462  0.78738  Biso   1.000  C
  C774     1.0000 0.20567  0.75465  0.01482  Biso   1.000  C
  C775     1.0000 0.04684  0.17869  0.78688  Biso   1.000  C
  C776     1.0000 0.70179  0.99911  0.74245  Biso   1.000  C
  C777     1.0000 0.83291  0.25555  0.47976  Biso   1.000  C
  C778     1.0000 0.52346  0.21632  0.68843  Biso   1.000  C
  C779     1.0000 0.20264  0.95316  0.77753  Biso   1.000  C
  C780     1.0000 0.33218  0.24884  0.00594  Biso   1.000  C
  C781     1.0000 0.53497  0.24995  0.19063  Biso   1.000  C
  C782     1.0000 0.21713  0.50217  0.28521  Biso   1.000  C
  C783     1.0000 0.32901  0.20557  0.51798  Biso   1.000  C
  C784     1.0000 0.05219  0.28924  0.28924  Biso   1.000  C
  C785     1.0000 0.74051  0.50128  0.21105  Biso   1.000  C
  C786     1.0000 0.80277  0.18163  0.00011  Biso   1.000  C
  C787     1.0000 0.02796  0.79289  0.23105  Biso   1.000  C
  C788     1.0000 0.33453  0.98624  0.27772  Biso   1.000  C
  C789     1.0000 0.23822  0.67624  0.52267  Biso   1.000  C
  C790     1.0000 0.50307  0.75009  0.33690  Biso   1.000  C
  C791     1.0000 0.82677  0.00746  0.23980  Biso   1.000  C
  C792     1.0000 0.70220  0.71446  0.00571  Biso   1.000  C
  C793     1.0000 0.50849  0.19736  0.30966  Biso   1.000  C
  C794     1.0000 0.29343  0.46136  0.20527  Biso   1.000  C
  C795     1.0000 0.21750  0.26851  0.47845  Biso   1.000  C
  C796     1.0000 0.02377  0.20752  0.20320  Biso   1.000  C
  C797     1.0000 0.83040  0.46538  0.28759  Biso   1.000  C
  C798     1.0000 0.71855  0.26841  0.01922  Biso   1.000  C
  C799     1.0000 0.99946  0.67626  0.29220  Biso   1.000  C
  C800     1.0000 0.21446  0.96202  0.22510  Biso   1.000  C
  C801     1.0000 0.31883  0.76363  0.49214  Biso   1.000  C
  C802     1.0000 0.50190  0.66068  0.25395  Biso   1.000  C
  C803     1.0000 0.75068  0.96764  0.32948  Biso   1.000  C
  C804     1.0000 0.81552  0.76923  0.04194  Biso   1.000  C
  C805     1.0000 0.51924  0.77794  0.72142  Biso   1.000  C
  C806     1.0000 0.73953  0.51472  0.82216  Biso   1.000  C
  C807     1.0000 0.79447  0.67292  0.54030  Biso   1.000  C
  C808     1.0000 0.00534  0.76686  0.81413  Biso   1.000  C
  C809     1.0000 0.20677  0.50091  0.73462  Biso   1.000  C
  C810     1.0000 0.32077  0.69495  0.00018  Biso   1.000  C
  C811     1.0000 0.05523  0.29600  0.73011  Biso   1.000  C
  C812     1.0000 0.78881  0.00654  0.82890  Biso   1.000  C
  C813     1.0000 0.74762  0.17078  0.50659  Biso   1.000  C
  C814     1.0000 0.49332  0.27925  0.80307  Biso   1.000  C
  C815     1.0000 0.31834  0.95487  0.71342  Biso   1.000  C
  C816     1.0000 0.22243  0.18774  0.96664  Biso   1.000  C
  C817     1.0000 0.02055  0.23348  0.79246  Biso   1.000  C
  C818     1.0000 0.77830  0.96868  0.23319  Biso   1.000  C
  C819     1.0000 0.25248  0.75365  0.97553  Biso   1.000  C
  C820     1.0000 0.49565  0.21051  0.74116  Biso   1.000  C
  C821     1.0000 0.28363  0.95288  0.28650  Biso   1.000  C
  C822     1.0000 0.75585  0.76791  0.54048  Biso   1.000  C
  C823     1.0000 0.52792  0.71559  0.78978  Biso   1.000  C
  C824     1.0000 0.73091  0.46601  0.26114  Biso   1.000  C
  C825     1.0000 0.28375  0.25844  0.97038  Biso   1.000  C
  C826     1.0000 0.00563  0.70175  0.75051  Biso   1.000  C
  C827     1.0000 0.26813  0.47173  0.30298  Biso   1.000  C
  C828     1.0000 0.77832  0.26404  0.50409  Biso   1.000  C
  C829     1.0000 0.99014  0.74311  0.22918  Biso   1.000  C
  C830     1.0000 0.25974  0.97346  0.78471  Biso   1.000  C
  C831     1.0000 0.81737  0.23499  0.02711  Biso   1.000  C
  C832     1.0000 0.53659  0.75453  0.28623  Biso   1.000  C
  C833     1.0000 0.74724  0.95974  0.74170  Biso   1.000  C
  C834     1.0000 0.28467  0.20406  0.47473  Biso   1.000  C
  C835     1.0000 0.49729  0.25624  0.23946  Biso   1.000  C
  C836     1.0000 0.27366  0.49944  0.79626  Biso   1.000  C
  C837     1.0000 0.75510  0.70135  0.03151  Biso   1.000  C
  C838     1.0000 0.02423  0.23571  0.29910  Biso   1.000  C
  C839     1.0000 0.76488  0.50067  0.72368  Biso   1.000  C
  C840     1.0000 0.22501  0.73244  0.49937  Biso   1.000  C
  C841     1.0000 0.22263  0.94988  0.75402  Biso   1.000  C
  C842     1.0000 0.78330  0.20418  0.00053  Biso   1.000  C
  C843     1.0000 0.02877  0.77157  0.25204  Biso   1.000  C
  C844     1.0000 0.72320  0.00204  0.76315  Biso   1.000  C
  C845     1.0000 0.30688  0.22648  0.51623  Biso   1.000  C
  C846     1.0000 0.50205  0.72931  0.31545  Biso   1.000  C
  C847     1.0000 0.29920  0.46257  0.76897  Biso   1.000  C
  C848     1.0000 0.72485  0.73484  0.00502  Biso   1.000  C
  C849     1.0000 0.53522  0.22987  0.21343  Biso   1.000  C
  C850     1.0000 0.79748  0.47898  0.76014  Biso   1.000  C
  C851     1.0000 0.25795  0.69819  0.52038  Biso   1.000  C
  C852     1.0000 0.05405  0.26882  0.26841  Biso   1.000  C
  C853     1.0000 0.80561  0.00568  0.26122  Biso   1.000  C
  C854     1.0000 0.22737  0.73585  0.01779  Biso   1.000  C
  C855     1.0000 0.05233  0.20082  0.76553  Biso   1.000  C
  C856     1.0000 0.31158  0.98798  0.25887  Biso   1.000  C
  C857     1.0000 0.72455  0.73309  0.51508  Biso   1.000  C
  C858     1.0000 0.52413  0.23725  0.70904  Biso   1.000  C
  C859     1.0000 0.76163  0.49853  0.23195  Biso   1.000  C
  C860     1.0000 0.31014  0.22773  0.00699  Biso   1.000  C
  C861     1.0000 0.48164  0.73106  0.80897  Biso   1.000  C
  C862     1.0000 0.23890  0.49864  0.26554  Biso   1.000  C
  C863     1.0000 0.81182  0.23494  0.47784  Biso   1.000  C
  C864     1.0000 0.96850  0.72634  0.72235  Biso   1.000  C
  C865     1.0000 0.72728  0.47904  0.77426  Biso   1.000  C
  C866     1.0000 0.79710  0.72477  0.50960  Biso   1.000  C
  C867     1.0000 0.48145  0.77796  0.76824  Biso   1.000  C
  C868     1.0000 0.25378  0.46319  0.72531  Biso   1.000  C
  C869     1.0000 0.26381  0.68478  0.01612  Biso   1.000  C
  C870     1.0000 0.96619  0.77216  0.76848  Biso   1.000  C
  C871     1.0000 0.79499  0.96784  0.78267  Biso   1.000  C
  C872     1.0000 0.73865  0.21989  0.47198  Biso   1.000  C
  C873     1.0000 0.02502  0.24146  0.72147  Biso   1.000  C
  C874     1.0000 0.26698  0.98568  0.71318  Biso   1.000  C
  C875     1.0000 0.26121  0.19779  0.01336  Biso   1.000  C
  C876     1.0000 0.53150  0.27962  0.75345  Biso   1.000  C
  C877     1.0000 0.31142  0.49060  0.25747  Biso   1.000  C
  C878     1.0000 0.26996  0.27599  0.51085  Biso   1.000  C
  C879     1.0000 0.52908  0.18419  0.25328  Biso   1.000  C
  C880     1.0000 0.77777  0.49409  0.30404  Biso   1.000  C
  C881     1.0000 0.77657  0.27837  0.99836  Biso   1.000  C
  C882     1.0000 0.05031  0.19443  0.25773  Biso   1.000  C
  C883     1.0000 0.26836  0.99062  0.21477  Biso   1.000  C
  C884     1.0000 0.26579  0.77628  0.51542  Biso   1.000  C
  C885     1.0000 0.02768  0.73014  0.30010  Biso   1.000  C
  C886     1.0000 0.73468  0.99539  0.27748  Biso   1.000  C
  C887     1.0000 0.77353  0.76964  0.99735  Biso   1.000  C
  C888     1.0000 0.53260  0.71129  0.24153  Biso   1.000  C
  C889     1.0000 0.77045  0.96981  0.30747  Biso   1.000  C
  C890     1.0000 0.29988  0.71600  0.99389  Biso   1.000  C
  C891     1.0000 0.05528  0.27585  0.75132  Biso   1.000  C
  C892     1.0000 0.23716  0.95875  0.24489  Biso   1.000  C
  C893     1.0000 0.77224  0.69373  0.54277  Biso   1.000  C
  C894     1.0000 0.49259  0.25634  0.78262  Biso   1.000  C
  C895     1.0000 0.80545  0.46486  0.26950  Biso   1.000  C
  C896     1.0000 0.24397  0.20799  0.96479  Biso   1.000  C
  C897     1.0000 0.52236  0.75628  0.74272  Biso   1.000  C
  C898     1.0000 0.27439  0.46327  0.22816  Biso   1.000  C
  C899     1.0000 0.76912  0.19162  0.50441  Biso   1.000  C
  C900     1.0000 0.00400  0.74559  0.79234  Biso   1.000  C
  C901     1.0000 0.29704  0.94910  0.73457  Biso   1.000  C
  C902     1.0000 0.73944  0.24664  0.02126  Biso   1.000  C
  C903     1.0000 0.99801  0.69832  0.27080  Biso   1.000  C
  C904     1.0000 0.76717  0.00252  0.80838  Biso   1.000  C
  C905     1.0000 0.23967  0.24714  0.47873  Biso   1.000  C
  C906     1.0000 0.50343  0.68235  0.27442  Biso   1.000  C
  C907     1.0000 0.22953  0.49934  0.75369  Biso   1.000  C
  C908     1.0000 0.79334  0.74815  0.04185  Biso   1.000  C
  C909     1.0000 0.50611  0.21922  0.28815  Biso   1.000  C
  C910     1.0000 0.75769  0.51446  0.79936  Biso   1.000  C
  C911     1.0000 0.29947  0.74129  0.49480  Biso   1.000  C
  C912     1.0000 0.02330  0.22723  0.22606  Biso   1.000  C
  C913     1.0000 0.77221  0.49439  0.75266  Biso   1.000  C
  C914     1.0000 0.75059  0.74054  0.52800  Biso   1.000  C
  C915     1.0000 0.50397  0.73405  0.78888  Biso   1.000  C
  C916     1.0000 0.27591  0.48128  0.77216  Biso   1.000  C
  C917     1.0000 0.25029  0.73328  0.99864  Biso   1.000  C
  C918     1.0000 0.98743  0.72549  0.74670  Biso   1.000  C
  C919     1.0000 0.74699  0.98265  0.76177  Biso   1.000  C
  C920     1.0000 0.78414  0.23881  0.48937  Biso   1.000  C
  C921     1.0000 0.03927  0.22733  0.77050  Biso   1.000  C
  C922     1.0000 0.25052  0.96203  0.75878  Biso   1.000  C
  C923     1.0000 0.28639  0.23281  0.98734  Biso   1.000  C
  C924     1.0000 0.50914  0.23546  0.73549  Biso   1.000  C
  C925     1.0000 0.26158  0.48063  0.27450  Biso   1.000  C
  C926     1.0000 0.28600  0.22701  0.49429  Biso   1.000  C
  C927     1.0000 0.51639  0.23299  0.23698  Biso   1.000  C
  C928     1.0000 0.75656  0.48159  0.25615  Biso   1.000  C
  C929     1.0000 0.79024  0.23041  0.01331  Biso   1.000  C
  C930     1.0000 0.04028  0.24250  0.27420  Biso   1.000  C
  C931     1.0000 0.28696  0.97143  0.26220  Biso   1.000  C
  C932     1.0000 0.25085  0.72621  0.51137  Biso   1.000  C
  C933     1.0000 0.01121  0.74704  0.25159  Biso   1.000  C
  C934     1.0000 0.78269  0.98667  0.25723  Biso   1.000  C
  C935     1.0000 0.75094  0.72779  0.01879  Biso   1.000  C
  C936     1.0000 0.51861  0.73114  0.29019  Biso   1.000  C
  C937     1.0000 0.76834  0.25248  0.01073  Biso   1.000  C
  C938     1.0000 0.01094  0.72479  0.27581  Biso   1.000  C
  C939     1.0000 0.27165  0.96529  0.73496  Biso   1.000  C
  C940     1.0000 0.26467  0.24978  0.49507  Biso   1.000  C
  C941     1.0000 0.51910  0.70736  0.26820  Biso   1.000  C
  C942     1.0000 0.77022  0.98385  0.78483  Biso   1.000  C
  C943     1.0000 0.77367  0.74929  0.01907  Biso   1.000  C
  C944     1.0000 0.51593  0.21174  0.26004  Biso   1.000  C
  C945     1.0000 0.25206  0.47974  0.75035  Biso   1.000  C
  C946     1.0000 0.27367  0.74827  0.50811  Biso   1.000  C
  C947     1.0000 0.03826  0.22055  0.25159  Biso   1.000  C
  C948     1.0000 0.75118  0.49812  0.77572  Biso   1.000  C
  C949     1.0000 0.27193  0.71189  0.00363  Biso   1.000  C
  C950     1.0000 0.04075  0.24868  0.74591  Biso   1.000  C
  C951     1.0000 0.76228  0.98333  0.28109  Biso   1.000  C
  C952     1.0000 0.77384  0.71915  0.52749  Biso   1.000  C
  C953     1.0000 0.51130  0.25789  0.75859  Biso   1.000  C
  C954     1.0000 0.26403  0.97351  0.23996  Biso   1.000  C
  C955     1.0000 0.26198  0.21261  0.98859  Biso   1.000  C
  C956     1.0000 0.50312  0.75697  0.76640  Biso   1.000  C
  C957     1.0000 0.78060  0.48005  0.27735  Biso   1.000  C
  C958     1.0000 0.76377  0.21551  0.48773  Biso   1.000  C
  C959     1.0000 0.98426  0.74842  0.76908  Biso   1.000  C
  C960     1.0000 0.28462  0.47526  0.25413  Biso   1.000  C
  Cu1      1.0000 0.01224  0.48768  0.66525  Biso   1.000  Cu
  Cu2      1.0000 0.66891  0.97935  0.52123  Biso   1.000  Cu
  Cu3      1.0000 0.50892  0.63479  0.02665  Biso   1.000  Cu
  Cu4      1.0000 0.51933  0.49264  0.85717  Biso   1.000  Cu
  Cu5      1.0000 0.17863  0.97439  0.99994  Biso   1.000  Cu
  Cu6      1.0000 0.01191  0.63866  0.51427  Biso   1.000  Cu
  Cu7      1.0000 0.50986  0.99305  0.66582  Biso   1.000  Cu
  Cu8      1.0000 0.86758  0.48096  0.51224  Biso   1.000  Cu
  Cu9      1.0000 0.02514  0.13833  0.01088  Biso   1.000  Cu
  Cu10     1.0000 0.01333  0.98730  0.85596  Biso   1.000  Cu
  Cu11     1.0000 0.36451  0.47354  0.00909  Biso   1.000  Cu
  Cu12     1.0000 0.52406  0.13444  0.50152  Biso   1.000  Cu
  Cu13     1.0000 0.02465  0.48172  0.35610  Biso   1.000  Cu
  Cu14     1.0000 0.36205  0.98477  0.49924  Biso   1.000  Cu
  Cu15     1.0000 0.52385  0.32911  0.99946  Biso   1.000  Cu
  Cu16     1.0000 0.51971  0.47317  0.16609  Biso   1.000  Cu
  Cu17     1.0000 0.86652  0.98586  0.01650  Biso   1.000  Cu
  Cu18     1.0000 0.02303  0.32623  0.50874  Biso   1.000  Cu
  Cu19     1.0000 0.52341  0.97580  0.35832  Biso   1.000  Cu
  Cu20     1.0000 0.16664  0.48581  0.50926  Biso   1.000  Cu
  Cu21     1.0000 0.01139  0.83386  0.01069  Biso   1.000  Cu
  Cu22     1.0000 0.01966  0.98304  0.16611  Biso   1.000  Cu
  Cu23     1.0000 0.67309  0.49096  0.01431  Biso   1.000  Cu
  Cu24     1.0000 0.51406  0.82694  0.52580  Biso   1.000  Cu
  Cu25     1.0000 0.23264  0.97452  0.00164  Biso   1.000  Cu
  Cu26     1.0000 0.03064  0.19060  0.01004  Biso   1.000  Cu
  Cu27     1.0000 0.02161  0.98397  0.22116  Biso   1.000  Cu
  Cu28     1.0000 0.72378  0.97795  0.52336  Biso   1.000  Cu
  Cu29     1.0000 0.52533  0.18734  0.49613  Biso   1.000  Cu
  Cu30     1.0000 0.52835  0.97132  0.30434  Biso   1.000  Cu
  Cu31     1.0000 0.30981  0.46910  0.00984  Biso   1.000  Cu
  Cu32     1.0000 0.50606  0.68641  0.03201  Biso   1.000  Cu
  Cu33     1.0000 0.51834  0.46850  0.22104  Biso   1.000  Cu
  Cu34     1.0000 0.81291  0.47875  0.50850  Biso   1.000  Cu
  Cu35     1.0000 0.01059  0.69264  0.50972  Biso   1.000  Cu
  Cu36     1.0000 0.02470  0.48194  0.30105  Biso   1.000  Cu
  Cu37     1.0000 0.81296  0.99002  0.01809  Biso   1.000  Cu
  Cu38     1.0000 0.01129  0.78034  0.00847  Biso   1.000  Cu
  Cu39     1.0000 0.01015  0.98853  0.79991  Biso   1.000  Cu
  Cu40     1.0000 0.30781  0.98743  0.49567  Biso   1.000  Cu
  Cu41     1.0000 0.51061  0.77284  0.52864  Biso   1.000  Cu
  Cu42     1.0000 0.50372  0.99654  0.72068  Biso   1.000  Cu
  Cu43     1.0000 0.72930  0.49241  0.01592  Biso   1.000  Cu
  Cu44     1.0000 0.52856  0.27706  0.99481  Biso   1.000  Cu
  Cu45     1.0000 0.51977  0.49990  0.80323  Biso   1.000  Cu
  Cu46     1.0000 0.22389  0.49080  0.51039  Biso   1.000  Cu
  Cu47     1.0000 0.02488  0.27282  0.51050  Biso   1.000  Cu
  Cu48     1.0000 0.01246  0.48602  0.72051  Biso   1.000  Cu
  H1       1.0000 0.24401  0.78091  0.52278  Biso   1.000  H
  H2       1.0000 0.54326  0.27977  0.73457  Biso   1.000  H
  H3       1.0000 0.75817  0.50425  0.30995  Biso   1.000  H
  H4       1.0000 0.76130  0.76752  0.97716  Biso   1.000  H
  H5       1.0000 0.01656  0.22062  0.71534  Biso   1.000  H
  H6       1.0000 0.31467  0.50234  0.27903  Biso   1.000  H
  H7       1.0000 0.29107  0.27730  0.52170  Biso   1.000  H
  H8       1.0000 0.94721  0.76903  0.75582  Biso   1.000  H
  H9       1.0000 0.73261  0.00693  0.25772  Biso   1.000  H
  H10      1.0000 0.79734  0.28175  0.98962  Biso   1.000  H
  H11      1.0000 0.46791  0.77689  0.78700  Biso   1.000  H
  H12      1.0000 0.28810  0.00264  0.20883  Biso   1.000  H
  H13      1.0000 0.73330  0.24011  0.46007  Biso   1.000  H
  H14      1.0000 0.54958  0.72706  0.23879  Biso   1.000  H
  H15      1.0000 0.27089  0.44630  0.72005  Biso   1.000  H
  H16      1.0000 0.27561  0.19952  0.03376  Biso   1.000  H
  H17      1.0000 0.03744  0.75070  0.30408  Biso   1.000  H
  H18      1.0000 0.72620  0.46082  0.75806  Biso   1.000  H
  H19      1.0000 0.79768  0.74609  0.49734  Biso   1.000  H
  H20      1.0000 0.06213  0.18659  0.27724  Biso   1.000  H
  H21      1.0000 0.24824  0.00055  0.71568  Biso   1.000  H
  H22      1.0000 0.24168  0.68094  0.02144  Biso   1.000  H
  H23      1.0000 0.53692  0.17934  0.23184  Biso   1.000  H
  H24      1.0000 0.79914  0.95328  0.76544  Biso   1.000  H
  H25      1.0000 0.28146  0.98299  0.78470  Biso   1.000  H
  H26      1.0000 0.82060  0.25593  0.03712  Biso   1.000  H
  H27      1.0000 0.97357  0.72487  0.22721  Biso   1.000  H
  H28      1.0000 0.76640  0.94523  0.74384  Biso   1.000  H
  H29      1.0000 0.26786  0.20357  0.45779  Biso   1.000  H
  H30      1.0000 0.54748  0.75495  0.26599  Biso   1.000  H
  H31      1.0000 0.25989  0.51854  0.79623  Biso   1.000  H
  H32      1.0000 0.77690  0.69550  0.03717  Biso   1.000  H
  H33      1.0000 0.47969  0.26060  0.25508  Biso   1.000  H
  H34      1.0000 0.74314  0.50962  0.71745  Biso   1.000  H
  H35      1.0000 0.22271  0.75199  0.48765  Biso   1.000  H
  H36      1.0000 0.01519  0.21359  0.30005  Biso   1.000  H
  H37      1.0000 0.75955  0.95503  0.23427  Biso   1.000  H
  H38      1.0000 0.26863  0.75129  0.95898  Biso   1.000  H
  H39      1.0000 0.00959  0.25383  0.79293  Biso   1.000  H
  H40      1.0000 0.26426  0.93818  0.28883  Biso   1.000  H
  H41      1.0000 0.77549  0.77037  0.55372  Biso   1.000  H
  H42      1.0000 0.48474  0.20804  0.76207  Biso   1.000  H
  H43      1.0000 0.72905  0.45358  0.28240  Biso   1.000  H
  H44      1.0000 0.26529  0.25992  0.95672  Biso   1.000  H
  H45      1.0000 0.54490  0.71838  0.77392  Biso   1.000  H
  H46      1.0000 0.28917  0.46291  0.30804  Biso   1.000  H
  H47      1.0000 0.75640  0.26644  0.51353  Biso   1.000  H
  H48      1.0000 0.02098  0.70003  0.76967  Biso   1.000  H
  H49      1.0000 0.23575  0.50567  0.24293  Biso   1.000  H
  H50      1.0000 0.30518  0.24206  0.53416  Biso   1.000  H
  H51      1.0000 0.55095  0.21192  0.21219  Biso   1.000  H
  H52      1.0000 0.78386  0.50572  0.22867  Biso   1.000  H
  H53      1.0000 0.76269  0.20080  0.98906  Biso   1.000  H
  H54      1.0000 0.06578  0.27236  0.24717  Biso   1.000  H
  H55      1.0000 0.31239  0.00274  0.24192  Biso   1.000  H
  H56      1.0000 0.28113  0.69297  0.52832  Biso   1.000  H
  H57      1.0000 0.04485  0.77307  0.26909  Biso   1.000  H
  H58      1.0000 0.80481  0.01826  0.28071  Biso   1.000  H
  H59      1.0000 0.72234  0.75458  0.99328  Biso   1.000  H
  H60      1.0000 0.48689  0.71068  0.31779  Biso   1.000  H
  H61      1.0000 0.80144  0.46986  0.78161  Biso   1.000  H
  H62      1.0000 0.72155  0.71256  0.50464  Biso   1.000  H
  H63      1.0000 0.46149  0.74435  0.80907  Biso   1.000  H
  H64      1.0000 0.30178  0.44791  0.75168  Biso   1.000  H
  H65      1.0000 0.22604  0.72093  0.03690  Biso   1.000  H
  H66      1.0000 0.95276  0.74206  0.72159  Biso   1.000  H
  H67      1.0000 0.72194  0.01785  0.78002  Biso   1.000  H
  H68      1.0000 0.81693  0.21625  0.46546  Biso   1.000  H
  H69      1.0000 0.06450  0.19861  0.74526  Biso   1.000  H
  H70      1.0000 0.21755  0.93861  0.73495  Biso   1.000  H
  H71      1.0000 0.31440  0.20847  0.02092  Biso   1.000  H
  H72      1.0000 0.53721  0.25777  0.70317  Biso   1.000  H
  H73      1.0000 0.77720  0.52770  0.80051  Biso   1.000  H
  H74      1.0000 0.75239  0.68716  0.55484  Biso   1.000  H
  H75      1.0000 0.53896  0.73973  0.73856  Biso   1.000  H
  H76      1.0000 0.22656  0.51147  0.77271  Biso   1.000  H
  H77      1.0000 0.30676  0.73536  0.98296  Biso   1.000  H
  H78      1.0000 0.01821  0.72723  0.79717  Biso   1.000  H
  H79      1.0000 0.74866  0.01551  0.80892  Biso   1.000  H
  H80      1.0000 0.78946  0.19028  0.51713  Biso   1.000  H
  H81      1.0000 0.06523  0.28141  0.77174  Biso   1.000  H
  H82      1.0000 0.30083  0.93437  0.75259  Biso   1.000  H
  H83      1.0000 0.24700  0.21738  0.94385  Biso   1.000  H
  H84      1.0000 0.47683  0.23886  0.78681  Biso   1.000  H
  H85      1.0000 0.25344  0.45236  0.22788  Biso   1.000  H
  H86      1.0000 0.23441  0.22670  0.46796  Biso   1.000  H
  H87      1.0000 0.49947  0.23990  0.29489  Biso   1.000  H
  H88      1.0000 0.80511  0.45317  0.24860  Biso   1.000  H
  H89      1.0000 0.73586  0.22633  0.03295  Biso   1.000  H
  H90      1.0000 0.01445  0.24914  0.22278  Biso   1.000  H
  H91      1.0000 0.23482  0.94346  0.26225  Biso   1.000  H
  H92      1.0000 0.30255  0.71964  0.48757  Biso   1.000  H
  H93      1.0000 0.98371  0.69363  0.25170  Biso   1.000  H
  H94      1.0000 0.79255  0.96112  0.31141  Biso   1.000  H
  H95      1.0000 0.79308  0.73390  0.06021  Biso   1.000  H
  H96      1.0000 0.49276  0.67932  0.29544  Biso   1.000  H
  H97      1.0000 0.88683  0.99937  0.92351  Biso   1.000  H
  H98      1.0000 0.92273  0.85097  0.00703  Biso   1.000  H
  H99      1.0000 0.00501  0.89520  0.87495  Biso   1.000  H
  H100     1.0000 0.37903  0.99754  0.59319  Biso   1.000  H
  H101     1.0000 0.42008  0.85225  0.51314  Biso   1.000  H
  H102     1.0000 0.49925  0.89960  0.65150  Biso   1.000  H
  H103     1.0000 0.65414  0.49824  0.92541  Biso   1.000  H
  H104     1.0000 0.61517  0.35163  0.99640  Biso   1.000  H
  H105     1.0000 0.53260  0.40228  0.87084  Biso   1.000  H
  H106     1.0000 0.14836  0.49270  0.60051  Biso   1.000  H
  H107     1.0000 0.11778  0.35344  0.50643  Biso   1.000  H
  H108     1.0000 0.01877  0.39370  0.63996  Biso   1.000  H
  H109     1.0000 0.15638  0.98778  0.09333  Biso   1.000  H
  H110     1.0000 0.11520  0.10970  0.00404  Biso   1.000  H
  H111     1.0000 0.02740  0.07469  0.14703  Biso   1.000  H
  H112     1.0000 0.65779  0.97906  0.43127  Biso   1.000  H
  H113     1.0000 0.61527  0.11237  0.50821  Biso   1.000  H
  H114     1.0000 0.51476  0.06614  0.37431  Biso   1.000  H
  H115     1.0000 0.38630  0.47521  0.10161  Biso   1.000  H
  H116     1.0000 0.41491  0.60584  0.03132  Biso   1.000  H
  H117     1.0000 0.51042  0.56330  0.15759  Biso   1.000  H
  H118     1.0000 0.88930  0.47451  0.42446  Biso   1.000  H
  H119     1.0000 0.92238  0.61551  0.50224  Biso   1.000  H
  H120     1.0000 0.01911  0.57389  0.37664  Biso   1.000  H
  H121     1.0000 0.10740  0.98075  0.87306  Biso   1.000  H
  H122     1.0000 0.89031  0.07682  0.02025  Biso   1.000  H
  H123     1.0000 0.01497  0.85008  0.10019  Biso   1.000  H
  H124     1.0000 0.59719  0.98317  0.65445  Biso   1.000  H
  H125     1.0000 0.38592  0.07621  0.50531  Biso   1.000  H
  H126     1.0000 0.52985  0.84231  0.43363  Biso   1.000  H
  H127     1.0000 0.42786  0.48575  0.87440  Biso   1.000  H
  H128     1.0000 0.64810  0.57565  0.02750  Biso   1.000  H
  H129     1.0000 0.52642  0.34375  0.09297  Biso   1.000  H
  H130     1.0000 0.92173  0.47359  0.64827  Biso   1.000  H
  H131     1.0000 0.14143  0.57889  0.50768  Biso   1.000  H
  H132     1.0000 0.02564  0.34823  0.41794  Biso   1.000  H
  H133     1.0000 0.92772  0.99198  0.14782  Biso   1.000  H
  H134     1.0000 0.15595  0.89003  0.99138  Biso   1.000  H
  H135     1.0000 0.02238  0.11991  0.91806  Biso   1.000  H
  H136     1.0000 0.43501  0.98020  0.36857  Biso   1.000  H
  H137     1.0000 0.64526  0.88997  0.52102  Biso   1.000  H
  H138     1.0000 0.51059  0.12224  0.59334  Biso   1.000  H
  H139     1.0000 0.60819  0.48457  0.14976  Biso   1.000  H
  H140     1.0000 0.38830  0.38009  0.01327  Biso   1.000  H
  H141     1.0000 0.51037  0.61909  0.93016  Biso   1.000  H
  H142     1.0000 0.11660  0.49076  0.37530  Biso   1.000  H
  H143     1.0000 0.89447  0.38621  0.50379  Biso   1.000  H
  H144     1.0000 0.00802  0.61608  0.60427  Biso   1.000  H
  H145     1.0000 0.60974  0.50018  0.88021  Biso   1.000  H
  H146     1.0000 0.88146  0.57428  0.51285  Biso   1.000  H
  H147     1.0000 0.49771  0.85513  0.61199  Biso   1.000  H
  H148     1.0000 0.10437  0.49039  0.64424  Biso   1.000  H
  H149     1.0000 0.37988  0.56610  0.01247  Biso   1.000  H
  H150     1.0000 0.00756  0.85293  0.91636  Biso   1.000  H
  H151     1.0000 0.92746  0.99656  0.87811  Biso   1.000  H
  H152     1.0000 0.65473  0.07239  0.51497  Biso   1.000  H
  H153     1.0000 0.01777  0.35092  0.60079  Biso   1.000  H
  H154     1.0000 0.41888  0.00600  0.63575  Biso   1.000  H
  H155     1.0000 0.15524  0.07046  0.00202  Biso   1.000  H
  H156     1.0000 0.52447  0.35761  0.90833  Biso   1.000  H
  H157     1.0000 0.42705  0.47145  0.14118  Biso   1.000  H
  H158     1.0000 0.15371  0.39573  0.50192  Biso   1.000  H
  H159     1.0000 0.52974  0.10885  0.41256  Biso   1.000  H
  H160     1.0000 0.93515  0.47781  0.37935  Biso   1.000  H
  H161     1.0000 0.65974  0.39631  0.99393  Biso   1.000  H
  H162     1.0000 0.02818  0.11441  0.10202  Biso   1.000  H
  H163     1.0000 0.11107  0.99247  0.13881  Biso   1.000  H
  H164     1.0000 0.38011  0.89562  0.50096  Biso   1.000  H
  H165     1.0000 0.02164  0.61593  0.42081  Biso   1.000  H
  H166     1.0000 0.61821  0.97726  0.38479  Biso   1.000  H
  H167     1.0000 0.88277  0.89347  0.00201  Biso   1.000  H
  H168     1.0000 0.51258  0.61173  0.11820  Biso   1.000  H
  H169     1.0000 0.01273  0.08230  0.87459  Biso   1.000  H
  H170     1.0000 0.88582  0.98684  0.10721  Biso   1.000  H
  H171     1.0000 0.10647  0.84892  0.99615  Biso   1.000  H
  H172     1.0000 0.51723  0.07984  0.63787  Biso   1.000  H
  H173     1.0000 0.39017  0.98636  0.41381  Biso   1.000  H
  H174     1.0000 0.60275  0.84540  0.51944  Biso   1.000  H
  H175     1.0000 0.51194  0.58110  0.88905  Biso   1.000  H
  H176     1.0000 0.65143  0.49209  0.10710  Biso   1.000  H
  H177     1.0000 0.43323  0.34247  0.00504  Biso   1.000  H
  H178     1.0000 0.00122  0.57637  0.64825  Biso   1.000  H
  H179     1.0000 0.15491  0.49278  0.41525  Biso   1.000  H
  H180     1.0000 0.93276  0.34475  0.50448  Biso   1.000  H
  H181     1.0000 0.01857  0.89247  0.14586  Biso   1.000  H
  H182     1.0000 0.14973  0.97607  0.90948  Biso   1.000  H
  H183     1.0000 0.93357  0.11860  0.01446  Biso   1.000  H
  H184     1.0000 0.52548  0.88711  0.38514  Biso   1.000  H
  H185     1.0000 0.64568  0.97281  0.61112  Biso   1.000  H
  H186     1.0000 0.42814  0.11256  0.49704  Biso   1.000  H
  H187     1.0000 0.53166  0.38579  0.13772  Biso   1.000  H
  H188     1.0000 0.38661  0.47263  0.91703  Biso   1.000  H
  H189     1.0000 0.60318  0.61754  0.02467  Biso   1.000  H
  H190     1.0000 0.03090  0.38923  0.37399  Biso   1.000  H
  H191     1.0000 0.88119  0.47993  0.60904  Biso   1.000  H
  H192     1.0000 0.10554  0.62063  0.51493  Biso   1.000  H
  H193     1.0000 0.28245  0.84412  0.49092  Biso   1.000  H
  H194     1.0000 0.51125  0.26444  0.84761  Biso   1.000  H
  H195     1.0000 0.88197  0.48860  0.28271  Biso   1.000  H
  H196     1.0000 0.78647  0.84373  0.02193  Biso   1.000  H
  H197     1.0000 0.04930  0.25936  0.65368  Biso   1.000  H
  H198     1.0000 0.37460  0.46847  0.23826  Biso   1.000  H
  H199     1.0000 0.25506  0.34786  0.49073  Biso   1.000  H
  H200     1.0000 0.98777  0.75636  0.86870  Biso   1.000  H
  H201     1.0000 0.67280  0.97280  0.29122  Biso   1.000  H
  H202     1.0000 0.76001  0.35301  0.00749  Biso   1.000  H
  H203     1.0000 0.49982  0.76303  0.67454  Biso   1.000  H
  H204     1.0000 0.17071  0.98567  0.23217  Biso   1.000  H
  H205     1.0000 0.75252  0.11682  0.49561  Biso   1.000  H
  H206     1.0000 0.50711  0.70173  0.17687  Biso   1.000  H
  H207     1.0000 0.15495  0.49259  0.73925  Biso   1.000  H
  H208     1.0000 0.25366  0.12357  0.00005  Biso   1.000  H
  H209     1.0000 0.01197  0.71118  0.36890  Biso   1.000  H
  H210     1.0000 0.66451  0.50808  0.78739  Biso   1.000  H
  H211     1.0000 0.78384  0.62232  0.52613  Biso   1.000  H
  H212     1.0000 0.03595  0.21389  0.15130  Biso   1.000  H
  H213     1.0000 0.35890  0.98368  0.72907  Biso   1.000  H
  H214     1.0000 0.28085  0.61363  0.00315  Biso   1.000  H
  H215     1.0000 0.53174  0.20616  0.35697  Biso   1.000  H
  H216     1.0000 0.86426  0.98655  0.78526  Biso   1.000  H
  H217     1.0000 0.25208  0.50707  0.36767  Biso   1.000  H
  H218     1.0000 0.38268  0.21457  0.50519  Biso   1.000  H
  H219     1.0000 0.52345  0.32326  0.22790  Biso   1.000  H
  H220     1.0000 0.74814  0.47923  0.16069  Biso   1.000  H
  H221     1.0000 0.88074  0.21669  0.00827  Biso   1.000  H
  H222     1.0000 0.03057  0.33833  0.27962  Biso   1.000  H
  H223     1.0000 0.29653  0.97986  0.35175  Biso   1.000  H
  H224     1.0000 0.15686  0.71451  0.52788  Biso   1.000  H
  H225     1.0000 0.01052  0.84131  0.24490  Biso   1.000  H
  H226     1.0000 0.78879  0.98553  0.15940  Biso   1.000  H
  H227     1.0000 0.65004  0.71661  0.03035  Biso   1.000  H
  H228     1.0000 0.52128  0.82421  0.29570  Biso   1.000  H
  H229     1.0000 0.78183  0.46981  0.65218  Biso   1.000  H
  H230     1.0000 0.65771  0.75123  0.53935  Biso   1.000  H
  H231     1.0000 0.50914  0.64430  0.79675  Biso   1.000  H
  H232     1.0000 0.28830  0.48138  0.86657  Biso   1.000  H
  H233     1.0000 0.14997  0.74771  0.99425  Biso   1.000  H
  H234     1.0000 0.98256  0.62833  0.74052  Biso   1.000  H
  H235     1.0000 0.74107  0.97286  0.66742  Biso   1.000  H
  H236     1.0000 0.88048  0.24490  0.50336  Biso   1.000  H
  H237     1.0000 0.02731  0.12950  0.77694  Biso   1.000  H
  H238     1.0000 0.24547  0.96053  0.85678  Biso   1.000  H
  H239     1.0000 0.38586  0.24365  0.99420  Biso   1.000  H
  H240     1.0000 0.50025  0.13468  0.73276  Biso   1.000  H
  H241     1.0000 0.74846  0.48841  0.87188  Biso   1.000  H
  H242     1.0000 0.86963  0.71004  0.51704  Biso   1.000  H
  H243     1.0000 0.47864  0.85308  0.75066  Biso   1.000  H
  H244     1.0000 0.24292  0.48145  0.65729  Biso   1.000  H
  H245     1.0000 0.36469  0.70256  0.02855  Biso   1.000  H
  H246     1.0000 0.98130  0.84347  0.78220  Biso   1.000  H
  H247     1.0000 0.78568  0.99694  0.87493  Biso   1.000  H
  H248     1.0000 0.67070  0.20790  0.49245  Biso   1.000  H
  H249     1.0000 0.03348  0.34185  0.73848  Biso   1.000  H
  H250     1.0000 0.28096  0.97267  0.63791  Biso   1.000  H
  H251     1.0000 0.17572  0.20094  0.98879  Biso   1.000  H
  H252     1.0000 0.52280  0.35752  0.76867  Biso   1.000  H
  H253     1.0000 0.28724  0.46485  0.15354  Biso   1.000  H
  H254     1.0000 0.17220  0.25942  0.50318  Biso   1.000  H
  H255     1.0000 0.51660  0.11865  0.27393  Biso   1.000  H
  H256     1.0000 0.79371  0.46379  0.36540  Biso   1.000  H
  H257     1.0000 0.67507  0.25986  0.99344  Biso   1.000  H
  H258     1.0000 0.02964  0.12689  0.24391  Biso   1.000  H
  H259     1.0000 0.24852  0.96606  0.14694  Biso   1.000  H
  H260     1.0000 0.36496  0.75658  0.51545  Biso   1.000  H
  H261     1.0000 0.02893  0.62873  0.28003  Biso   1.000  H
  H262     1.0000 0.75429  0.98270  0.37906  Biso   1.000  H
  H263     1.0000 0.86483  0.75506  0.01402  Biso   1.000  H
  H264     1.0000 0.52666  0.61074  0.25785  Biso   1.000  H
  H265     1.0000 0.03365  0.21724  0.86348  Biso   1.000  H
  H266     1.0000 0.87677  0.98940  0.24574  Biso   1.000  H
  H267     1.0000 0.24279  0.82436  0.98920  Biso   1.000  H
  H268     1.0000 0.49868  0.21891  0.64162  Biso   1.000  H
  H269     1.0000 0.38453  0.95758  0.27203  Biso   1.000  H
  H270     1.0000 0.74095  0.83561  0.51678  Biso   1.000  H
  H271     1.0000 0.51061  0.72235  0.89010  Biso   1.000  H
  H272     1.0000 0.66420  0.48906  0.24504  Biso   1.000  H
  H273     1.0000 0.29605  0.32860  0.98770  Biso   1.000  H
  H274     1.0000 0.99292  0.71394  0.65092  Biso   1.000  H
  H275     1.0000 0.16845  0.47945  0.27931  Biso   1.000  H
  H276     1.0000 0.79629  0.33582  0.49455  Biso   1.000  H
  H277     1.0000 0.00631  0.75536  0.15789  Biso   1.000  H
  H278     1.0000 0.15798  0.97787  0.77398  Biso   1.000  H
  H279     1.0000 0.79549  0.13330  0.02714  Biso   1.000  H
  H280     1.0000 0.51794  0.74519  0.38559  Biso   1.000  H
  H281     1.0000 0.65126  0.97712  0.75322  Biso   1.000  H
  H282     1.0000 0.29176  0.12914  0.49143  Biso   1.000  H
  H283     1.0000 0.51694  0.24701  0.13879  Biso   1.000  H
  H284     1.0000 0.37549  0.48933  0.77576  Biso   1.000  H
  H285     1.0000 0.73925  0.64122  0.01320  Biso   1.000  H
  H286     1.0000 0.04501  0.25302  0.36742  Biso   1.000  H
  H287     1.0000 0.86826  0.48707  0.74340  Biso   1.000  H
  H288     1.0000 0.23953  0.62791  0.50074  Biso   1.000  H
  H289     1.0000 0.11980  0.20625  0.99859  Biso   1.000  H
  H290     1.0000 0.02716  0.07162  0.24080  Biso   1.000  H
  H291     1.0000 0.24755  0.96470  0.09047  Biso   1.000  H
  H292     1.0000 0.61540  0.20748  0.49766  Biso   1.000  H
  H293     1.0000 0.51817  0.06131  0.27805  Biso   1.000  H
  H294     1.0000 0.75068  0.98312  0.43767  Biso   1.000  H
  H295     1.0000 0.41914  0.70350  0.03172  Biso   1.000  H
  H296     1.0000 0.51747  0.55454  0.25072  Biso   1.000  H
  H297     1.0000 0.28822  0.46630  0.09960  Biso   1.000  H
  H298     1.0000 0.92194  0.71040  0.51351  Biso   1.000  H
  H299     1.0000 0.03073  0.57537  0.28287  Biso   1.000  H
  H300     1.0000 0.79551  0.46605  0.41936  Biso   1.000  H
  H301     1.0000 0.91986  0.75541  0.00811  Biso   1.000  H
  H302     1.0000 0.98804  0.89661  0.78129  Biso   1.000  H
  H303     1.0000 0.79162  0.00300  0.93139  Biso   1.000  H
  H304     1.0000 0.41910  0.75484  0.52258  Biso   1.000  H
  H305     1.0000 0.48484  0.90873  0.74694  Biso   1.000  H
  H306     1.0000 0.28359  0.97498  0.58585  Biso   1.000  H
  H307     1.0000 0.62134  0.25689  0.99357  Biso   1.000  H
  H308     1.0000 0.52937  0.41217  0.77411  Biso   1.000  H
  H309     1.0000 0.75021  0.49099  0.92575  Biso   1.000  H
  H310     1.0000 0.11813  0.25749  0.51095  Biso   1.000  H
  H311     1.0000 0.02207  0.39431  0.73696  Biso   1.000  H
  H312     1.0000 0.24324  0.48302  0.60168  Biso   1.000  H
  H313     1.0000 0.24596  0.96771  0.90958  Biso   1.000  H
  H314     1.0000 0.93534  0.21367  0.00243  Biso   1.000  H
  H315     1.0000 0.01054  0.89071  0.24142  Biso   1.000  H
  H316     1.0000 0.74198  0.97799  0.61475  Biso   1.000  H
  H317     1.0000 0.43879  0.20732  0.51157  Biso   1.000  H
  H318     1.0000 0.52587  0.87665  0.29066  Biso   1.000  H
  H319     1.0000 0.29086  0.48264  0.92031  Biso   1.000  H
  H320     1.0000 0.59239  0.71183  0.02988  Biso   1.000  H
  H321     1.0000 0.52445  0.37978  0.23231  Biso   1.000  H
  H322     1.0000 0.78599  0.45971  0.59860  Biso   1.000  H
  H323     1.0000 0.10212  0.71603  0.52706  Biso   1.000  H
  H324     1.0000 0.03068  0.39257  0.27762  Biso   1.000  H
  H325     1.0000 0.78955  0.97829  0.10784  Biso   1.000  H
  H326     1.0000 0.09815  0.75502  0.00978  Biso   1.000  H
  H327     1.0000 0.02552  0.07590  0.77994  Biso   1.000  H
  H328     1.0000 0.29661  0.99931  0.40502  Biso   1.000  H
  H329     1.0000 0.60277  0.75195  0.53989  Biso   1.000  H
  H330     1.0000 0.50477  0.08369  0.73521  Biso   1.000  H
  H331     1.0000 0.74583  0.47849  0.10678  Biso   1.000  H
  H332     1.0000 0.43932  0.24812  0.00149  Biso   1.000  H
  H333     1.0000 0.50989  0.58791  0.79346  Biso   1.000  H
  H334     1.0000 0.24988  0.50810  0.42135  Biso   1.000  H
  H335     1.0000 0.93396  0.24777  0.50116  Biso   1.000  H
  H336     1.0000 0.98878  0.57556  0.74243  Biso   1.000  H
  H337     1.0000 0.03410  0.21507  0.91612  Biso   1.000  H
  H338     1.0000 0.93144  0.98916  0.24428  Biso   1.000  H
  H339     1.0000 0.25056  0.87684  0.99087  Biso   1.000  H
  H340     1.0000 0.51081  0.21736  0.58878  Biso   1.000  H
  H341     1.0000 0.43563  0.95250  0.27430  Biso   1.000  H
  H342     1.0000 0.74237  0.88867  0.51511  Biso   1.000  H
  H343     1.0000 0.51014  0.71658  0.94169  Biso   1.000  H
  H344     1.0000 0.60907  0.49073  0.24672  Biso   1.000  H
  H345     1.0000 0.29611  0.38397  0.99547  Biso   1.000  H
  H346     1.0000 0.00517  0.71491  0.60045  Biso   1.000  H
  H347     1.0000 0.11530  0.47242  0.27946  Biso   1.000  H
  H348     1.0000 0.79739  0.38824  0.50199  Biso   1.000  H
  H349     1.0000 0.01351  0.75608  0.10463  Biso   1.000  H
  H350     1.0000 0.10235  0.98289  0.77811  Biso   1.000  H
  H351     1.0000 0.79428  0.07859  0.03040  Biso   1.000  H
  H352     1.0000 0.51414  0.75037  0.44091  Biso   1.000  H
  H353     1.0000 0.59833  0.98448  0.74977  Biso   1.000  H
  H354     1.0000 0.28740  0.07750  0.50448  Biso   1.000  H
  H355     1.0000 0.52283  0.25032  0.08452  Biso   1.000  H
  H356     1.0000 0.42908  0.48815  0.78135  Biso   1.000  H
  H357     1.0000 0.74179  0.58445  0.00778  Biso   1.000  H
  H358     1.0000 0.04064  0.25293  0.41984  Biso   1.000  H
  H359     1.0000 0.92126  0.49611  0.74203  Biso   1.000  H
  H360     1.0000 0.23550  0.57482  0.49669  Biso   1.000  H
  H361     1.0000 0.00510  0.70914  0.42300  Biso   1.000  H
  H362     1.0000 0.41077  0.99719  0.73260  Biso   1.000  H
  H363     1.0000 0.75335  0.40516  0.01392  Biso   1.000  H
  H364     1.0000 0.51238  0.70541  0.12285  Biso   1.000  H
  H365     1.0000 0.91752  0.98128  0.78324  Biso   1.000  H
  H366     1.0000 0.24842  0.40450  0.49399  Biso   1.000  H
  H367     1.0000 0.53887  0.20547  0.40834  Biso   1.000  H
  H368     1.0000 0.10456  0.50413  0.73831  Biso   1.000  H
  H369     1.0000 0.78746  0.89983  0.01743  Biso   1.000  H
  H370     1.0000 0.02645  0.21107  0.10146  Biso   1.000  H
  H371     1.0000 0.61174  0.50448  0.78497  Biso   1.000  H
  H372     1.0000 0.28343  0.89550  0.49362  Biso   1.000  H
  H373     1.0000 0.04188  0.25991  0.59949  Biso   1.000  H
  H374     1.0000 0.61850  0.96342  0.29134  Biso   1.000  H
  H375     1.0000 0.28404  0.56224  0.99929  Biso   1.000  H
  H376     1.0000 0.51000  0.26149  0.90281  Biso   1.000  H
  H377     1.0000 0.11643  0.99090  0.23649  Biso   1.000  H
  H378     1.0000 0.78387  0.57186  0.52438  Biso   1.000  H
  H379     1.0000 0.49984  0.76013  0.61746  Biso   1.000  H
  H380     1.0000 0.93451  0.49113  0.28275  Biso   1.000  H
  H381     1.0000 0.25296  0.06678  0.00409  Biso   1.000  H
  H382     1.0000 0.99516  0.76034  0.92392  Biso   1.000  H
  H383     1.0000 0.42734  0.46779  0.23957  Biso   1.000  H
  H384     1.0000 0.74791  0.06445  0.50938  Biso   1.000  H
  H385     1.0000 0.25002  0.46702  0.34496  Biso   1.000  H
  H386     1.0000 0.30057  0.16622  0.45854  Biso   1.000  H
  H387     1.0000 0.48689  0.29726  0.22164  Biso   1.000  H
  H388     1.0000 0.69294  0.45046  0.24178  Biso   1.000  H
  H389     1.0000 0.85619  0.21585  0.04332  Biso   1.000  H
  H390     1.0000 0.00537  0.24896  0.33883  Biso   1.000  H
  H391     1.0000 0.30145  0.93915  0.32850  Biso   1.000  H
  H392     1.0000 0.18343  0.71595  0.48863  Biso   1.000  H
  H393     1.0000 0.97330  0.75918  0.18930  Biso   1.000  H
  H394     1.0000 0.79672  0.95545  0.19132  Biso   1.000  H
  H395     1.0000 0.73730  0.66443  0.05035  Biso   1.000  H
  H396     1.0000 0.55550  0.79320  0.30378  Biso   1.000  H
  H397     1.0000 0.78176  0.50723  0.67967  Biso   1.000  H
  H398     1.0000 0.74179  0.80975  0.54981  Biso   1.000  H
  H399     1.0000 0.54847  0.67757  0.80757  Biso   1.000  H
  H400     1.0000 0.29557  0.51763  0.83332  Biso   1.000  H
  H401     1.0000 0.23548  0.79188  0.95630  Biso   1.000  H
  H402     1.0000 0.02176  0.66061  0.73350  Biso   1.000  H
  H403     1.0000 0.72742  0.93977  0.70565  Biso   1.000  H
  H404     1.0000 0.79258  0.30537  0.52153  Biso   1.000  H
  H405     1.0000 0.99430  0.21375  0.82675  Biso   1.000  H
  H406     1.0000 0.25089  0.98574  0.82544  Biso   1.000  H
  H407     1.0000 0.30115  0.30065  0.95851  Biso   1.000  H
  H408     1.0000 0.48134  0.16862  0.72869  Biso   1.000  H
  H409     1.0000 0.28664  0.44919  0.18763  Biso   1.000  H
  H410     1.0000 0.19662  0.26356  0.46677  Biso   1.000  H
  H411     1.0000 0.49967  0.20107  0.33222  Biso   1.000  H
  H412     1.0000 0.84929  0.45271  0.28222  Biso   1.000  H
  H413     1.0000 0.69761  0.26551  0.02990  Biso   1.000  H
  H414     1.0000 0.01066  0.21382  0.18409  Biso   1.000  H
  H415     1.0000 0.19408  0.94850  0.22670  Biso   1.000  H
  H416     1.0000 0.34027  0.75916  0.48104  Biso   1.000  H
  H417     1.0000 0.98992  0.65642  0.28545  Biso   1.000  H
  H418     1.0000 0.75330  0.95594  0.34920  Biso   1.000  H
  H419     1.0000 0.83238  0.77164  0.05720  Biso   1.000  H
  H420     1.0000 0.48941  0.64137  0.25807  Biso   1.000  H
  H421     1.0000 0.74632  0.53194  0.83817  Biso   1.000  H
  H422     1.0000 0.79239  0.65446  0.55465  Biso   1.000  H
  H423     1.0000 0.53474  0.77720  0.70420  Biso   1.000  H
  H424     1.0000 0.19063  0.51816  0.73846  Biso   1.000  H
  H425     1.0000 0.34344  0.70000  0.99075  Biso   1.000  H
  H426     1.0000 0.02075  0.76492  0.83163  Biso   1.000  H
  H427     1.0000 0.78712  0.02471  0.84404  Biso   1.000  H
  H428     1.0000 0.75217  0.15306  0.52225  Biso   1.000  H
  H429     1.0000 0.06916  0.31569  0.73212  Biso   1.000  H
  H430     1.0000 0.33788  0.94279  0.71572  Biso   1.000  H
  H431     1.0000 0.21129  0.18276  0.94693  Biso   1.000  H
  H432     1.0000 0.47678  0.27799  0.81997  Biso   1.000  H
  H433     1.0000 0.27738  0.00502  0.67210  Biso   1.000  H
  H434     1.0000 0.76168  0.31808  0.98007  Biso   1.000  H
  H435     1.0000 0.04381  0.71850  0.34110  Biso   1.000  H
  H436     1.0000 0.83674  0.95725  0.80027  Biso   1.000  H
  H437     1.0000 0.25387  0.31748  0.52500  Biso   1.000  H
  H438     1.0000 0.54067  0.69411  0.20123  Biso   1.000  H
  H439     1.0000 0.23238  0.45250  0.68556  Biso   1.000  H
  H440     1.0000 0.79348  0.80780  0.97951  Biso   1.000  H
  H441     1.0000 0.54290  0.14287  0.27030  Biso   1.000  H
  H442     1.0000 0.68895  0.46496  0.79459  Biso   1.000  H
  H443     1.0000 0.27783  0.81896  0.52246  Biso   1.000  H
  H444     1.0000 0.06382  0.15672  0.24083  Biso   1.000  H
  H445     1.0000 0.69635  0.00933  0.29815  Biso   1.000  H
  H446     1.0000 0.27934  0.64302  0.02948  Biso   1.000  H
  H447     1.0000 0.01143  0.25973  0.67992  Biso   1.000  H
  H448     1.0000 0.25062  0.00919  0.17660  Biso   1.000  H
  H449     1.0000 0.83605  0.70916  0.48859  Biso   1.000  H
  H450     1.0000 0.55188  0.31868  0.77107  Biso   1.000  H
  H451     1.0000 0.79878  0.50523  0.34268  Biso   1.000  H
  H452     1.0000 0.23546  0.16857  0.03824  Biso   1.000  H
  H453     1.0000 0.45937  0.81382  0.74892  Biso   1.000  H
  H454     1.0000 0.34903  0.50214  0.23438  Biso   1.000  H
  H455     1.0000 0.69934  0.20442  0.45942  Biso   1.000  H
  H456     1.0000 0.94826  0.80945  0.78794  Biso   1.000  H
  H457     1.0000 0.68213  0.74936  0.50250  Biso   1.000  H
  H458     1.0000 0.46985  0.71236  0.85030  Biso   1.000  H
  H459     1.0000 0.83359  0.45835  0.74611  Biso   1.000  H
  H460     1.0000 0.18793  0.75313  0.03044  Biso   1.000  H
  H461     1.0000 0.95248  0.70593  0.68283  Biso   1.000  H
  H462     1.0000 0.34270  0.45181  0.78343  Biso   1.000  H
  H463     1.0000 0.85381  0.25197  0.46842  Biso   1.000  H
  H464     1.0000 0.05700  0.15743  0.78479  Biso   1.000  H
  H465     1.0000 0.68435  0.01357  0.73969  Biso   1.000  H
  H466     1.0000 0.35288  0.24545  0.01961  Biso   1.000  H
  H467     1.0000 0.53433  0.22100  0.66879  Biso   1.000  H
  H468     1.0000 0.18038  0.94695  0.77400  Biso   1.000  H
  H469     1.0000 0.34326  0.20582  0.53770  Biso   1.000  H
  H470     1.0000 0.55045  0.24544  0.17351  Biso   1.000  H
  H471     1.0000 0.19807  0.51348  0.27882  Biso   1.000  H
  H472     1.0000 0.79512  0.16201  0.98753  Biso   1.000  H
  H473     1.0000 0.06489  0.31026  0.28644  Biso   1.000  H
  H474     1.0000 0.74460  0.51838  0.19462  Biso   1.000  H
  H475     1.0000 0.24414  0.65601  0.53135  Biso   1.000  H
  H476     1.0000 0.04155  0.81310  0.23421  Biso   1.000  H
  H477     1.0000 0.35485  0.99894  0.27304  Biso   1.000  H
  H478     1.0000 0.68197  0.72224  0.99632  Biso   1.000  H
  H479     1.0000 0.48817  0.74774  0.35464  Biso   1.000  H
  H480     1.0000 0.84511  0.02311  0.24370  Biso   1.000  H
  N1       1.0000 0.70020  0.15500  0.49500  Biso   1.000  N
  N2       1.0000 0.51444  0.64572  0.20570  Biso   1.000  N
  N3       1.0000 0.18860  0.48546  0.68798  Biso   1.000  N
  N4       1.0000 0.20137  0.15005  0.99604  Biso   1.000  N
  N5       1.0000 0.02041  0.66091  0.33699  Biso   1.000  N
  N6       1.0000 0.69610  0.49684  0.84057  Biso   1.000  N
  N7       1.0000 0.83754  0.65726  0.51785  Biso   1.000  N
  N8       1.0000 0.03489  0.15989  0.18701  Biso   1.000  N
  N9       1.0000 0.33296  0.98100  0.67249  Biso   1.000  N
  N10      1.0000 0.33438  0.64860  0.01724  Biso   1.000  N
  N11      1.0000 0.52114  0.15052  0.32466  Biso   1.000  N
  N12      1.0000 0.83789  0.99351  0.84248  Biso   1.000  N
  N13      1.0000 0.33543  0.81089  0.50358  Biso   1.000  N
  N14      1.0000 0.51763  0.32120  0.81950  Biso   1.000  N
  N15      1.0000 0.84893  0.47892  0.33388  Biso   1.000  N
  N16      1.0000 0.83581  0.81039  0.01815  Biso   1.000  N
  N17      1.0000 0.03832  0.31121  0.68500  Biso   1.000  N
  N18      1.0000 0.34165  0.47216  0.18767  Biso   1.000  N
  N19      1.0000 0.20202  0.31383  0.49724  Biso   1.000  N
  N20      1.0000 0.98975  0.81046  0.83331  Biso   1.000  N
  N21      1.0000 0.70238  0.97841  0.34602  Biso   1.000  N
  N22      1.0000 0.70563  0.31355  0.00161  Biso   1.000  N
  N23      1.0000 0.49470  0.81783  0.70219  Biso   1.000  N
  N24      1.0000 0.19942  0.97940  0.17808  Biso   1.000  N
  N25      1.0000 0.83468  0.47988  0.68977  Biso   1.000  N
  N26      1.0000 0.68858  0.80366  0.52622  Biso   1.000  N
  N27      1.0000 0.50946  0.67055  0.85074  Biso   1.000  N
  N28      1.0000 0.34171  0.48362  0.83199  Biso   1.000  N
  N29      1.0000 0.18882  0.79795  0.99089  Biso   1.000  N
  N30      1.0000 0.99090  0.66015  0.68694  Biso   1.000  N
  N31      1.0000 0.68459  0.97606  0.69926  Biso   1.000  N
  N32      1.0000 0.84785  0.30031  0.49844  Biso   1.000  N
  N33      1.0000 0.02448  0.16368  0.83047  Biso   1.000  N
  N34      1.0000 0.19106  0.96747  0.82526  Biso   1.000  N
  N35      1.0000 0.35094  0.29643  0.99077  Biso   1.000  N
  N36      1.0000 0.50675  0.16868  0.67637  Biso   1.000  N
  N37      1.0000 0.20049  0.49211  0.33367  Biso   1.000  N
  N38      1.0000 0.34752  0.16219  0.49922  Biso   1.000  N
  N39      1.0000 0.52114  0.29710  0.17392  Biso   1.000  N
  N40      1.0000 0.69407  0.48594  0.19409  Biso   1.000  N
  N41      1.0000 0.84910  0.16430  0.01773  Biso   1.000  N
  N42      1.0000 0.03293  0.30441  0.33320  Biso   1.000  N
  N43      1.0000 0.35051  0.96842  0.32526  Biso   1.000  N
  N44      1.0000 0.18924  0.66208  0.51466  Biso   1.000  N
  N45      1.0000 0.00919  0.80609  0.18770  Biso   1.000  N
  N46      1.0000 0.84346  0.98858  0.19378  Biso   1.000  N
  N47      1.0000 0.68439  0.66704  0.02242  Biso   1.000  N
  N48      1.0000 0.52123  0.79637  0.35056  Biso   1.000  N
  O1       1.0000 0.35827  0.51614  0.00641  Biso   1.000  O
  O2       1.0000 0.01871  0.32504  0.55193  Biso   1.000  O
  O3       1.0000 0.56633  0.97794  0.36000  Biso   1.000  O
  O4       1.0000 0.85695  0.52321  0.51858  Biso   1.000  O
  O5       1.0000 0.52496  0.32789  0.95770  Biso   1.000  O
  O6       1.0000 0.06061  0.98166  0.16681  Biso   1.000  O
  O7       1.0000 0.18177  0.01730  0.00142  Biso   1.000  O
  O8       1.0000 0.50669  0.83101  0.56652  Biso   1.000  O
  O9       1.0000 0.98406  0.48431  0.35587  Biso   1.000  O
  O10      1.0000 0.67300  0.02345  0.52148  Biso   1.000  O
  O11      1.0000 0.00735  0.83436  0.96969  Biso   1.000  O
  O12      1.0000 0.47867  0.47090  0.16510  Biso   1.000  O
  O13      1.0000 0.67816  0.44947  0.01271  Biso   1.000  O
  O14      1.0000 0.01081  0.63967  0.47156  Biso   1.000  O
  O15      1.0000 0.46640  0.99825  0.66433  Biso   1.000  O
  O16      1.0000 0.17465  0.44245  0.50846  Biso   1.000  O
  O17      1.0000 0.50952  0.63689  0.06994  Biso   1.000  O
  O18      1.0000 0.97141  0.98872  0.85269  Biso   1.000  O
  O19      1.0000 0.86268  0.94379  0.01013  Biso   1.000  O
  O20      1.0000 0.53087  0.13386  0.45994  Biso   1.000  O
  O21      1.0000 0.05376  0.48921  0.66804  Biso   1.000  O
  O22      1.0000 0.35595  0.94393  0.49308  Biso   1.000  O
  O23      1.0000 0.02627  0.13758  0.05371  Biso   1.000  O
  O24      1.0000 0.56046  0.50033  0.85677  Biso   1.000  O
  O25      1.0000 0.97819  0.98718  0.16863  Biso   1.000  O
  O26      1.0000 0.18186  0.93303  0.99767  Biso   1.000  O
  O27      1.0000 0.02676  0.14415  0.96805  Biso   1.000  O
  O28      1.0000 0.48368  0.97180  0.35113  Biso   1.000  O
  O29      1.0000 0.66932  0.93849  0.52079  Biso   1.000  O
  O30      1.0000 0.51489  0.14256  0.54209  Biso   1.000  O
  O31      1.0000 0.56052  0.47423  0.17296  Biso   1.000  O
  O32      1.0000 0.36478  0.43175  0.01144  Biso   1.000  O
  O33      1.0000 0.51315  0.63939  0.98484  Biso   1.000  O
  O34      1.0000 0.06627  0.48002  0.35192  Biso   1.000  O
  O35      1.0000 0.87060  0.43758  0.50428  Biso   1.000  O
  O36      1.0000 0.01327  0.63980  0.55711  Biso   1.000  O
  O37      1.0000 0.05645  0.98709  0.85129  Biso   1.000  O
  O38      1.0000 0.86308  0.02798  0.02154  Biso   1.000  O
  O39      1.0000 0.01404  0.82910  0.05250  Biso   1.000  O
  O40      1.0000 0.55038  0.98576  0.67257  Biso   1.000  O
  O41      1.0000 0.36218  0.02555  0.50429  Biso   1.000  O
  O42      1.0000 0.51931  0.82198  0.48512  Biso   1.000  O
  O43      1.0000 0.47908  0.48644  0.85146  Biso   1.000  O
  O44      1.0000 0.67552  0.53288  0.01050  Biso   1.000  O
  O45      1.0000 0.52425  0.32353  0.04183  Biso   1.000  O
  O46      1.0000 0.97030  0.48487  0.66969  Biso   1.000  O
  O47      1.0000 0.16865  0.52716  0.50989  Biso   1.000  O
  O48      1.0000 0.02344  0.32379  0.46730  Biso   1.000  O
  O49      1.0000 0.01863  0.94124  0.16884  Biso   1.000  O
  O50      1.0000 0.17876  0.97684  0.95932  Biso   1.000  O
  O51      1.0000 0.98275  0.14060  0.01248  Biso   1.000  O
  O52      1.0000 0.52958  0.93216  0.35921  Biso   1.000  O
  O53      1.0000 0.66996  0.97413  0.56387  Biso   1.000  O
  O54      1.0000 0.48306  0.13709  0.49706  Biso   1.000  O
  O55      1.0000 0.52549  0.43264  0.16726  Biso   1.000  O
  O56      1.0000 0.36429  0.47329  0.96636  Biso   1.000  O
  O57      1.0000 0.55152  0.63835  0.02625  Biso   1.000  O
  O58      1.0000 0.02409  0.43904  0.35197  Biso   1.000  O
  O59      1.0000 0.86083  0.47304  0.55285  Biso   1.000  O
  O60      1.0000 0.05351  0.64220  0.51448  Biso   1.000  O
  O61      1.0000 0.01781  0.02947  0.85173  Biso   1.000  O
  O62      1.0000 0.86192  0.98197  0.05803  Biso   1.000  O
  O63      1.0000 0.05515  0.83044  0.00935  Biso   1.000  O
  O64      1.0000 0.51665  0.03359  0.66531  Biso   1.000  O
  O65      1.0000 0.36388  0.99130  0.45740  Biso   1.000  O
  O66      1.0000 0.55564  0.82250  0.53013  Biso   1.000  O
  O67      1.0000 0.51155  0.53490  0.86235  Biso   1.000  O
  O68      1.0000 0.67449  0.49338  0.05641  Biso   1.000  O
  O69      1.0000 0.48322  0.32287  0.99713  Biso   1.000  O
  O70      1.0000 0.01326  0.52949  0.67109  Biso   1.000  O
  O71      1.0000 0.17446  0.48833  0.46650  Biso   1.000  O
  O72      1.0000 0.98246  0.32116  0.50739  Biso   1.000  O
  O73      1.0000 0.01499  0.44478  0.66494  Biso   1.000  O
  O74      1.0000 0.67594  0.97885  0.47969  Biso   1.000  O
  O75      1.0000 0.46626  0.63077  0.02226  Biso   1.000  O
  O76      1.0000 0.52791  0.45389  0.84964  Biso   1.000  O
  O77      1.0000 0.17928  0.97411  0.04340  Biso   1.000  O
  O78      1.0000 0.97158  0.64091  0.50915  Biso   1.000  O
  O79      1.0000 0.50113  0.95084  0.67337  Biso   1.000  O
  O80      1.0000 0.86367  0.48747  0.46904  Biso   1.000  O
  O81      1.0000 0.06844  0.13611  0.01175  Biso   1.000  O
  O82      1.0000 0.01149  0.94578  0.85220  Biso   1.000  O
  O83      1.0000 0.36288  0.47801  0.05231  Biso   1.000  O
  O84      1.0000 0.56686  0.13653  0.50973  Biso   1.000  O
  O85      1.0000 0.02428  0.52424  0.35447  Biso   1.000  O
  O86      1.0000 0.35925  0.98080  0.53992  Biso   1.000  O
  O87      1.0000 0.56734  0.32840  0.99933  Biso   1.000  O
  O88      1.0000 0.51458  0.51479  0.17332  Biso   1.000  O
  O89      1.0000 0.86433  0.98617  0.97444  Biso   1.000  O
  O90      1.0000 0.06510  0.32606  0.51050  Biso   1.000  O
  O91      1.0000 0.52251  0.01735  0.35192  Biso   1.000  O
  O92      1.0000 0.17013  0.48299  0.55282  Biso   1.000  O
  O93      1.0000 0.96987  0.82761  0.01531  Biso   1.000  O
  O94      1.0000 0.02438  0.02495  0.16985  Biso   1.000  O
  O95      1.0000 0.67677  0.48996  0.97369  Biso   1.000  O
  O96      1.0000 0.47181  0.82789  0.51527  Biso   1.000  O
  O97      1.0000 0.48226  0.18512  0.49386  Biso   1.000  O
  O98      1.0000 0.52471  0.42597  0.21599  Biso   1.000  O
  O99      1.0000 0.22272  0.49444  0.46890  Biso   1.000  O
  O100     1.0000 0.98718  0.18961  0.00937  Biso   1.000  O
  O101     1.0000 0.02103  0.43873  0.30405  Biso   1.000  O
  O102     1.0000 0.72255  0.49196  0.05924  Biso   1.000  O
  O103     1.0000 0.05081  0.69139  0.51591  Biso   1.000  O
  O104     1.0000 0.02786  0.94186  0.21596  Biso   1.000  O
  O105     1.0000 0.31498  0.99164  0.45361  Biso   1.000  O
  O106     1.0000 0.54673  0.68790  0.03165  Biso   1.000  O
  O107     1.0000 0.52911  0.93039  0.31101  Biso   1.000  O
  O108     1.0000 0.81344  0.98665  0.05850  Biso   1.000  O
  O109     1.0000 0.55364  0.77471  0.53058  Biso   1.000  O
  O110     1.0000 0.51213  0.53928  0.81326  Biso   1.000  O
  O111     1.0000 0.81303  0.46980  0.54971  Biso   1.000  O
  O112     1.0000 0.05366  0.78241  0.01257  Biso   1.000  O
  O113     1.0000 0.00558  0.52787  0.71865  Biso   1.000  O
  O114     1.0000 0.31623  0.46752  0.96620  Biso   1.000  O
  O115     1.0000 0.98234  0.27204  0.50807  Biso   1.000  O
  O116     1.0000 0.01393  0.03079  0.80260  Biso   1.000  O
  O117     1.0000 0.71989  0.97548  0.56464  Biso   1.000  O
  O118     1.0000 0.48736  0.27549  0.99957  Biso   1.000  O
  O119     1.0000 0.51015  0.03837  0.71515  Biso   1.000  O
  O120     1.0000 0.22688  0.97221  0.96043  Biso   1.000  O
  O121     1.0000 0.05471  0.49233  0.71602  Biso   1.000  O
  O122     1.0000 0.72092  0.01957  0.52292  Biso   1.000  O
  O123     1.0000 0.50434  0.68531  0.07247  Biso   1.000  O
  O124     1.0000 0.56016  0.50548  0.80828  Biso   1.000  O
  O125     1.0000 0.22931  0.01704  0.00126  Biso   1.000  O
  O126     1.0000 0.01204  0.68759  0.46946  Biso   1.000  O
  O127     1.0000 0.46135  0.00192  0.71480  Biso   1.000  O
  O128     1.0000 0.80903  0.52093  0.51883  Biso   1.000  O
  O129     1.0000 0.03080  0.18674  0.05262  Biso   1.000  O
  O130     1.0000 0.97077  0.98910  0.80365  Biso   1.000  O
  O131     1.0000 0.30926  0.51144  0.00774  Biso   1.000  O
  O132     1.0000 0.52990  0.18281  0.45554  Biso   1.000  O
  O133     1.0000 0.98383  0.48142  0.30708  Biso   1.000  O
  O134     1.0000 0.30872  0.94447  0.49040  Biso   1.000  O
  O135     1.0000 0.52223  0.28083  0.95199  Biso   1.000  O
  O136     1.0000 0.47688  0.46440  0.21441  Biso   1.000  O
  O137     1.0000 0.81493  0.94889  0.01274  Biso   1.000  O
  O138     1.0000 0.02342  0.27715  0.55380  Biso   1.000  O
  O139     1.0000 0.56859  0.97560  0.31169  Biso   1.000  O
  O140     1.0000 0.22346  0.44872  0.50760  Biso   1.000  O
  O141     1.0000 0.00928  0.78545  0.96823  Biso   1.000  O
  O142     1.0000 0.06571  0.98619  0.21547  Biso   1.000  O
  O143     1.0000 0.72681  0.45023  0.01624  Biso   1.000  O
  O144     1.0000 0.50908  0.78165  0.57027  Biso   1.000  O
  O145     1.0000 0.55997  0.47498  0.22231  Biso   1.000  O
  O146     1.0000 0.21715  0.53071  0.51431  Biso   1.000  O
  O147     1.0000 0.51939  0.19169  0.54034  Biso   1.000  O
  O148     1.0000 0.06731  0.47956  0.30317  Biso   1.000  O
  O149     1.0000 0.72463  0.53452  0.01355  Biso   1.000  O
  O150     1.0000 0.02940  0.19253  0.96691  Biso   1.000  O
  O151     1.0000 0.97798  0.98387  0.21582  Biso   1.000  O
  O152     1.0000 0.31307  0.02786  0.49916  Biso   1.000  O
  O153     1.0000 0.00865  0.68852  0.55204  Biso   1.000  O
  O154     1.0000 0.48652  0.97045  0.30327  Biso   1.000  O
  O155     1.0000 0.81632  0.03216  0.01922  Biso   1.000  O
  O156     1.0000 0.50943  0.68693  0.99039  Biso   1.000  O
  O157     1.0000 0.47678  0.49320  0.80296  Biso   1.000  O
  O158     1.0000 0.82105  0.43591  0.50237  Biso   1.000  O
  O159     1.0000 0.51611  0.77339  0.48620  Biso   1.000  O
  O160     1.0000 0.97047  0.48517  0.71742  Biso   1.000  O
  O161     1.0000 0.31654  0.42751  0.00979  Biso   1.000  O
  O162     1.0000 0.01356  0.77990  0.05154  Biso   1.000  O
  O163     1.0000 0.05371  0.98350  0.80230  Biso   1.000  O
  O164     1.0000 0.71852  0.93642  0.52505  Biso   1.000  O
  O165     1.0000 0.02445  0.27529  0.46651  Biso   1.000  O
  O166     1.0000 0.54628  0.98984  0.72163  Biso   1.000  O
  O167     1.0000 0.22973  0.93314  0.99833  Biso   1.000  O
  O168     1.0000 0.53215  0.27558  0.03796  Biso   1.000  O
  O169     1.0000 0.02320  0.02531  0.22002  Biso   1.000  O
  O170     1.0000 0.22856  0.97178  0.04405  Biso   1.000  O
  O171     1.0000 0.07140  0.18429  0.00793  Biso   1.000  O
  O172     1.0000 0.52556  0.01382  0.30345  Biso   1.000  O
  O173     1.0000 0.72378  0.98109  0.48255  Biso   1.000  O
  O174     1.0000 0.56707  0.18349  0.50184  Biso   1.000  O
  O175     1.0000 0.51271  0.50960  0.22187  Biso   1.000  O
  O176     1.0000 0.31407  0.47194  0.05278  Biso   1.000  O
  O177     1.0000 0.46556  0.67958  0.03565  Biso   1.000  O
  O178     1.0000 0.02323  0.52202  0.30502  Biso   1.000  O
  O179     1.0000 0.81490  0.48234  0.46666  Biso   1.000  O
  O180     1.0000 0.97023  0.68908  0.51020  Biso   1.000  O
  O181     1.0000 0.00631  0.94457  0.80318  Biso   1.000  O
  O182     1.0000 0.81665  0.99463  0.97774  Biso   1.000  O
  O183     1.0000 0.96810  0.77887  0.00761  Biso   1.000  O
  O184     1.0000 0.49568  0.95378  0.72246  Biso   1.000  O
  O185     1.0000 0.31082  0.98484  0.53672  Biso   1.000  O
  O186     1.0000 0.46946  0.78069  0.52819  Biso   1.000  O
  O187     1.0000 0.52257  0.45700  0.80079  Biso   1.000  O
  O188     1.0000 0.72710  0.48884  0.97477  Biso   1.000  O
  O189     1.0000 0.57015  0.28186  0.99002  Biso   1.000  O
  O190     1.0000 0.01362  0.44466  0.71393  Biso   1.000  O
  O191     1.0000 0.21934  0.48533  0.55229  Biso   1.000  O
  O192     1.0000 0.06731  0.27821  0.51355  Biso   1.000  O
