data_image0
_cell_length_a       46.4851
_cell_length_b       46.7365
_cell_length_c       46.5127
_cell_angle_alpha    90
_cell_angle_beta     90
_cell_angle_gamma    90

_symmetry_space_group_name_H-M    "P 1"
_symmetry_int_tables_number       1

loop_
  _symmetry_equiv_pos_as_xyz
  'x, y, z'

loop_
  _atom_site_label
  _atom_site_occupancy
  _atom_site_fract_x
  _atom_site_fract_y
  _atom_site_fract_z
  _atom_site_thermal_displace_type
  _atom_site_B_iso_or_equiv
  _atom_site_type_symbol
  C1       1.0000 0.55970  0.97584  0.36349  Biso   1.000  C
  C2       1.0000 0.31442  0.53470  0.05934  Biso   1.000  C
  C3       1.0000 0.98775  0.29910  0.59913  Biso   1.000  C
  C4       1.0000 0.05840  0.97074  0.21952  Biso   1.000  C
  C5       1.0000 0.80346  0.53084  0.51170  Biso   1.000  C
  C6       1.0000 0.49309  0.29131  0.98790  Biso   1.000  C
  C7       1.0000 0.96135  0.47306  0.35378  Biso   1.000  C
  C8       1.0000 0.17444  0.03699  0.03514  Biso   1.000  C
  C9       1.0000 0.50205  0.79749  0.59445  Biso   1.000  C
  C10      1.0000 0.46107  0.47287  0.23057  Biso   1.000  C
  C11      1.0000 0.67662  0.04121  0.54984  Biso   1.000  C
  C12      1.0000 0.98874  0.79641  0.97986  Biso   1.000  C
  C13      1.0000 0.42537  0.97379  0.72194  Biso   1.000  C
  C14      1.0000 0.67732  0.41411  0.01450  Biso   1.000  C
  C15      1.0000 0.98285  0.65292  0.47478  Biso   1.000  C
  C16      1.0000 0.93197  0.97006  0.86028  Biso   1.000  C
  C17      1.0000 0.17294  0.42199  0.56559  Biso   1.000  C
  C18      1.0000 0.49968  0.65821  0.08540  Biso   1.000  C
  C19      1.0000 0.02199  0.47870  0.72705  Biso   1.000  C
  C20      1.0000 0.81181  0.92029  0.05061  Biso   1.000  C
  C21      1.0000 0.48712  0.16192  0.47971  Biso   1.000  C
  C22      1.0000 0.52153  0.47524  0.85278  Biso   1.000  C
  C23      1.0000 0.31597  0.92073  0.52950  Biso   1.000  C
  C24      1.0000 0.99178  0.15990  0.09336  Biso   1.000  C
  C25      1.0000 0.30840  0.02630  0.54276  Biso   1.000  C
  C26      1.0000 0.49272  0.29979  0.09491  Biso   1.000  C
  C27      1.0000 0.07116  0.47845  0.37105  Biso   1.000  C
  C28      1.0000 0.81561  0.02994  0.04900  Biso   1.000  C
  C29      1.0000 0.98894  0.29664  0.49020  Biso   1.000  C
  C30      1.0000 0.56777  0.48526  0.20787  Biso   1.000  C
  C31      1.0000 0.17209  0.53324  0.55903  Biso   1.000  C
  C32      1.0000 0.99386  0.80245  0.09033  Biso   1.000  C
  C33      1.0000 0.45003  0.97881  0.35872  Biso   1.000  C
  C34      1.0000 0.67842  0.52248  0.01141  Biso   1.000  C
  C35      1.0000 0.51499  0.79760  0.48652  Biso   1.000  C
  C36      1.0000 0.95220  0.98814  0.22398  Biso   1.000  C
  C37      1.0000 0.68227  0.93022  0.54963  Biso   1.000  C
  C38      1.0000 0.49786  0.65136  0.97621  Biso   1.000  C
  C39      1.0000 0.91122  0.48002  0.70624  Biso   1.000  C
  C40      1.0000 0.17663  0.92709  0.03216  Biso   1.000  C
  C41      1.0000 0.99116  0.65533  0.58601  Biso   1.000  C
  C42      1.0000 0.41089  0.47186  0.86617  Biso   1.000  C
  C43      1.0000 0.80569  0.41992  0.51177  Biso   1.000  C
  C44      1.0000 0.98946  0.15976  0.98432  Biso   1.000  C
  C45      1.0000 0.53705  0.97010  0.71996  Biso   1.000  C
  C46      1.0000 0.31677  0.42680  0.05804  Biso   1.000  C
  C47      1.0000 0.48086  0.15650  0.59272  Biso   1.000  C
  C48      1.0000 0.03810  0.98231  0.85904  Biso   1.000  C
  C49      1.0000 0.97960  0.03022  0.85942  Biso   1.000  C
  C50      1.0000 0.81473  0.98084  0.10541  Biso   1.000  C
  C51      1.0000 0.04667  0.80079  0.03498  Biso   1.000  C
  C52      1.0000 0.48653  0.02599  0.71825  Biso   1.000  C
  C53      1.0000 0.31260  0.98178  0.48087  Biso   1.000  C
  C54      1.0000 0.55934  0.79750  0.54847  Biso   1.000  C
  C55      1.0000 0.46117  0.52589  0.85223  Biso   1.000  C
  C56      1.0000 0.68378  0.46583  0.06953  Biso   1.000  C
  C57      1.0000 0.43920  0.30213  0.03863  Biso   1.000  C
  C58      1.0000 0.97156  0.53280  0.71747  Biso   1.000  C
  C59      1.0000 0.18146  0.47373  0.50965  Biso   1.000  C
  C60      1.0000 0.93284  0.29741  0.54234  Biso   1.000  C
  C61      1.0000 0.00056  0.92761  0.22023  Biso   1.000  C
  C62      1.0000 0.16936  0.98169  0.97916  Biso   1.000  C
  C63      1.0000 0.93735  0.15762  0.04043  Biso   1.000  C
  C64      1.0000 0.50367  0.92262  0.35958  Biso   1.000  C
  C65      1.0000 0.67722  0.98628  0.60254  Biso   1.000  C
  C66      1.0000 0.43056  0.15695  0.53231  Biso   1.000  C
  C67      1.0000 0.52029  0.42652  0.21595  Biso   1.000  C
  C68      1.0000 0.30668  0.47968  0.00979  Biso   1.000  C
  C69      1.0000 0.55101  0.65139  0.03032  Biso   1.000  C
  C70      1.0000 0.01529  0.42258  0.36433  Biso   1.000  C
  C71      1.0000 0.79484  0.47606  0.56559  Biso   1.000  C
  C72      1.0000 0.04868  0.65194  0.52532  Biso   1.000  C
  C73      1.0000 0.00862  0.52978  0.35634  Biso   1.000  C
  C74      1.0000 0.30717  0.96629  0.59096  Biso   1.000  C
  C75      1.0000 0.54588  0.29520  0.04736  Biso   1.000  C
  C76      1.0000 0.51000  0.53394  0.21615  Biso   1.000  C
  C77      1.0000 0.81241  0.97423  0.99405  Biso   1.000  C
  C78      1.0000 0.04337  0.29518  0.54167  Biso   1.000  C
  C79      1.0000 0.50274  0.03201  0.35665  Biso   1.000  C
  C80      1.0000 0.16230  0.48238  0.61733  Biso   1.000  C
  C81      1.0000 0.93616  0.79595  0.03276  Biso   1.000  C
  C82      1.0000 0.01494  0.03500  0.22085  Biso   1.000  C
  C83      1.0000 0.67363  0.46673  0.96011  Biso   1.000  C
  C84      1.0000 0.44933  0.79838  0.53082  Biso   1.000  C
  C85      1.0000 0.96380  0.42423  0.72263  Biso   1.000  C
  C86      1.0000 0.68667  0.98700  0.49610  Biso   1.000  C
  C87      1.0000 0.44327  0.66123  0.03372  Biso   1.000  C
  C88      1.0000 0.47163  0.41844  0.86359  Biso   1.000  C
  C89      1.0000 0.17415  0.98129  0.08499  Biso   1.000  C
  C90      1.0000 0.93875  0.64993  0.53324  Biso   1.000  C
  C91      1.0000 0.48008  0.91872  0.72034  Biso   1.000  C
  C92      1.0000 0.81425  0.47359  0.45734  Biso   1.000  C
  C93      1.0000 0.04575  0.16043  0.03961  Biso   1.000  C
  C94      1.0000 0.98903  0.92321  0.85563  Biso   1.000  C
  C95      1.0000 0.32338  0.48261  0.11650  Biso   1.000  C
  C96      1.0000 0.53899  0.16231  0.54027  Biso   1.000  C
  C97      1.0000 0.67314  0.07239  0.55588  Biso   1.000  C
  C98      1.0000 0.50029  0.65948  0.11817  Biso   1.000  C
  C99      1.0000 0.05418  0.47720  0.73101  Biso   1.000  C
  C100     1.0000 0.17572  0.06962  0.03818  Biso   1.000  C
  C101     1.0000 0.97487  0.65273  0.44373  Biso   1.000  C
  C102     1.0000 0.55544  0.47539  0.84986  Biso   1.000  C
  C103     1.0000 0.80503  0.56281  0.51431  Biso   1.000  C
  C104     1.0000 0.99444  0.15983  0.12603  Biso   1.000  C
  C105     1.0000 0.39302  0.96999  0.72037  Biso   1.000  C
  C106     1.0000 0.31448  0.56705  0.05541  Biso   1.000  C
  C107     1.0000 0.49121  0.16312  0.44705  Biso   1.000  C
  C108     1.0000 0.89898  0.96824  0.86278  Biso   1.000  C
  C109     1.0000 0.31824  0.88821  0.52625  Biso   1.000  C
  C110     1.0000 0.49811  0.29168  0.95525  Biso   1.000  C
  C111     1.0000 0.92954  0.47302  0.34690  Biso   1.000  C
  C112     1.0000 0.81035  0.88847  0.04249  Biso   1.000  C
  C113     1.0000 0.98666  0.29793  0.63270  Biso   1.000  C
  C114     1.0000 0.42873  0.47578  0.23506  Biso   1.000  C
  C115     1.0000 0.17180  0.38942  0.56292  Biso   1.000  C
  C116     1.0000 0.98472  0.79681  0.94724  Biso   1.000  C
  C117     1.0000 0.59141  0.97967  0.36584  Biso   1.000  C
  C118     1.0000 0.67620  0.38239  0.02033  Biso   1.000  C
  C119     1.0000 0.50652  0.79851  0.62500  Biso   1.000  C
  C120     1.0000 0.09101  0.96734  0.21785  Biso   1.000  C
  C121     1.0000 0.81730  0.98847  0.13649  Biso   1.000  C
  C122     1.0000 0.07870  0.80151  0.03112  Biso   1.000  C
  C123     1.0000 0.97701  0.06088  0.85762  Biso   1.000  C
  C124     1.0000 0.31693  0.98498  0.44959  Biso   1.000  C
  C125     1.0000 0.59104  0.80082  0.54811  Biso   1.000  C
  C126     1.0000 0.48792  0.05823  0.71752  Biso   1.000  C
  C127     1.0000 0.68576  0.46738  0.10188  Biso   1.000  C
  C128     1.0000 0.40827  0.30337  0.03350  Biso   1.000  C
  C129     1.0000 0.46246  0.55803  0.85208  Biso   1.000  C
  C130     1.0000 0.18830  0.47209  0.47786  Biso   1.000  C
  C131     1.0000 0.90042  0.29409  0.53959  Biso   1.000  C
  C132     1.0000 0.97381  0.56451  0.71572  Biso   1.000  C
  C133     1.0000 0.16824  0.98238  0.94752  Biso   1.000  C
  C134     1.0000 0.90679  0.15558  0.03915  Biso   1.000  C
  C135     1.0000 0.00116  0.89583  0.22088  Biso   1.000  C
  C136     1.0000 0.67465  0.98384  0.63593  Biso   1.000  C
  C137     1.0000 0.39742  0.15680  0.52763  Biso   1.000  C
  C138     1.0000 0.50217  0.89074  0.35824  Biso   1.000  C
  C139     1.0000 0.30178  0.47994  0.97820  Biso   1.000  C
  C140     1.0000 0.58337  0.64880  0.02944  Biso   1.000  C
  C141     1.0000 0.52173  0.39530  0.21777  Biso   1.000  C
  C142     1.0000 0.79204  0.47411  0.59787  Biso   1.000  C
  C143     1.0000 0.08152  0.65497  0.52471  Biso   1.000  C
  C144     1.0000 0.01428  0.39050  0.36302  Biso   1.000  C
  C145     1.0000 0.32700  0.48729  0.14860  Biso   1.000  C
  C146     1.0000 0.07662  0.29473  0.54370  Biso   1.000  C
  C147     1.0000 0.49907  0.06328  0.35565  Biso   1.000  C
  C148     1.0000 0.81950  0.47268  0.42585  Biso   1.000  C
  C149     1.0000 0.57603  0.29658  0.05644  Biso   1.000  C
  C150     1.0000 0.00647  0.06495  0.22136  Biso   1.000  C
  C151     1.0000 0.17652  0.97681  0.11659  Biso   1.000  C
  C152     1.0000 0.41684  0.79701  0.52760  Biso   1.000  C
  C153     1.0000 0.00304  0.56112  0.35321  Biso   1.000  C
  C154     1.0000 0.68688  0.98610  0.46397  Biso   1.000  C
  C155     1.0000 0.90410  0.79558  0.02691  Biso   1.000  C
  C156     1.0000 0.50879  0.56567  0.21499  Biso   1.000  C
  C157     1.0000 0.66811  0.46601  0.92819  Biso   1.000  C
  C158     1.0000 0.90631  0.65058  0.53273  Biso   1.000  C
  C159     1.0000 0.48339  0.88672  0.72066  Biso   1.000  C
  C160     1.0000 0.15873  0.49082  0.64768  Biso   1.000  C
  C161     1.0000 0.41138  0.66376  0.03879  Biso   1.000  C
  C162     1.0000 0.99000  0.89123  0.85372  Biso   1.000  C
  C163     1.0000 0.80971  0.97786  0.96181  Biso   1.000  C
  C164     1.0000 0.57062  0.16136  0.54397  Biso   1.000  C
  C165     1.0000 0.96364  0.39171  0.72274  Biso   1.000  C
  C166     1.0000 0.30581  0.95670  0.62176  Biso   1.000  C
  C167     1.0000 0.07804  0.16112  0.03761  Biso   1.000  C
  C168     1.0000 0.48261  0.38749  0.86208  Biso   1.000  C
  C169     1.0000 0.99703  0.80387  0.12221  Biso   1.000  C
  C170     1.0000 0.07008  0.97868  0.85656  Biso   1.000  C
  C171     1.0000 0.81461  0.06161  0.05080  Biso   1.000  C
  C172     1.0000 0.51783  0.79811  0.45453  Biso   1.000  C
  C173     1.0000 0.56880  0.97202  0.72306  Biso   1.000  C
  C174     1.0000 0.30389  0.05849  0.54494  Biso   1.000  C
  C175     1.0000 0.48948  0.30120  0.12619  Biso   1.000  C
  C176     1.0000 0.37979  0.47843  0.87053  Biso   1.000  C
  C177     1.0000 0.67953  0.55405  0.01244  Biso   1.000  C
  C178     1.0000 0.99155  0.29713  0.45703  Biso   1.000  C
  C179     1.0000 0.88012  0.48636  0.69981  Biso   1.000  C
  C180     1.0000 0.17345  0.56464  0.55229  Biso   1.000  C
  C181     1.0000 0.98250  0.16092  0.95320  Biso   1.000  C
  C182     1.0000 0.92025  0.98376  0.22505  Biso   1.000  C
  C183     1.0000 0.17556  0.89494  0.02966  Biso   1.000  C
  C184     1.0000 0.48131  0.15427  0.62470  Biso   1.000  C
  C185     1.0000 0.41812  0.97705  0.35813  Biso   1.000  C
  C186     1.0000 0.68363  0.89806  0.54779  Biso   1.000  C
  C187     1.0000 0.50062  0.64862  0.94342  Biso   1.000  C
  C188     1.0000 0.59999  0.48582  0.20486  Biso   1.000  C
  C189     1.0000 0.31632  0.39570  0.05046  Biso   1.000  C
  C190     1.0000 0.99054  0.65662  0.61803  Biso   1.000  C
  C191     1.0000 0.10220  0.47877  0.37352  Biso   1.000  C
  C192     1.0000 0.80613  0.38741  0.51275  Biso   1.000  C
  C193     1.0000 0.83409  0.97221  0.94312  Biso   1.000  C
  C194     1.0000 0.88877  0.82233  0.03243  Biso   1.000  C
  C195     1.0000 0.99046  0.87514  0.88127  Biso   1.000  C
  C196     1.0000 0.33172  0.95899  0.63945  Biso   1.000  C
  C197     1.0000 0.39931  0.82359  0.53191  Biso   1.000  C
  C198     1.0000 0.48513  0.87076  0.69484  Biso   1.000  C
  C199     1.0000 0.63764  0.46512  0.91764  Biso   1.000  C
  C200     1.0000 0.59226  0.32251  0.05136  Biso   1.000  C
  C201     1.0000 0.48426  0.37067  0.88831  Biso   1.000  C
  C202     1.0000 0.12961  0.49007  0.65809  Biso   1.000  C
  C203     1.0000 0.09257  0.32132  0.54828  Biso   1.000  C
  C204     1.0000 0.97107  0.37474  0.69726  Biso   1.000  C
  C205     1.0000 0.15184  0.97292  0.13505  Biso   1.000  C
  C206     1.0000 0.09445  0.13414  0.03756  Biso   1.000  C
  C207     1.0000 0.00316  0.07983  0.19325  Biso   1.000  C
  C208     1.0000 0.65850  0.98582  0.44726  Biso   1.000  C
  C209     1.0000 0.58952  0.13592  0.54324  Biso   1.000  C
  C210     1.0000 0.49619  0.08013  0.38276  Biso   1.000  C
  C211     1.0000 0.35509  0.48721  0.16193  Biso   1.000  C
  C212     1.0000 0.39468  0.63750  0.04738  Biso   1.000  C
  C213     1.0000 0.50757  0.58179  0.18857  Biso   1.000  C
  C214     1.0000 0.84971  0.47532  0.41398  Biso   1.000  C
  C215     1.0000 0.88759  0.62630  0.52607  Biso   1.000  C
  C216     1.0000 0.99831  0.57684  0.37925  Biso   1.000  C
  C217     1.0000 0.08799  0.98225  0.88192  Biso   1.000  C
  C218     1.0000 0.84174  0.07739  0.04639  Biso   1.000  C
  C219     1.0000 0.00056  0.83049  0.13811  Biso   1.000  C
  C220     1.0000 0.58705  0.97415  0.69707  Biso   1.000  C
  C221     1.0000 0.33137  0.07528  0.53764  Biso   1.000  C
  C222     1.0000 0.51499  0.82569  0.43700  Biso   1.000  C
  C223     1.0000 0.36826  0.47508  0.89967  Biso   1.000  C
  C224     1.0000 0.65265  0.57072  0.01615  Biso   1.000  C
  C225     1.0000 0.49600  0.32848  0.14120  Biso   1.000  C
  C226     1.0000 0.86542  0.48023  0.67166  Biso   1.000  C
  C227     1.0000 0.14814  0.58150  0.54536  Biso   1.000  C
  C228     1.0000 0.99830  0.32393  0.44253  Biso   1.000  C
  C229     1.0000 0.90199  0.98602  0.19961  Biso   1.000  C
  C230     1.0000 0.14847  0.87957  0.02909  Biso   1.000  C
  C231     1.0000 0.98490  0.13292  0.93649  Biso   1.000  C
  C232     1.0000 0.40000  0.97720  0.38484  Biso   1.000  C
  C233     1.0000 0.65638  0.88188  0.54814  Biso   1.000  C
  C234     1.0000 0.48008  0.12629  0.63927  Biso   1.000  C
  C235     1.0000 0.61261  0.48188  0.17702  Biso   1.000  C
  C236     1.0000 0.34244  0.37907  0.04814  Biso   1.000  C
  C237     1.0000 0.48939  0.62399  0.92813  Biso   1.000  C
  C238     1.0000 0.11528  0.47654  0.40141  Biso   1.000  C
  C239     1.0000 0.83391  0.37168  0.51614  Biso   1.000  C
  C240     1.0000 0.98429  0.63044  0.63451  Biso   1.000  C
  C241     1.0000 0.57467  0.47353  0.87475  Biso   1.000  C
  C242     1.0000 0.83304  0.57815  0.51875  Biso   1.000  C
  C243     1.0000 0.49905  0.82255  0.64202  Biso   1.000  C
  C244     1.0000 0.07238  0.48410  0.70588  Biso   1.000  C
  C245     1.0000 0.34162  0.58208  0.05188  Biso   1.000  C
  C246     1.0000 0.98753  0.82420  0.93226  Biso   1.000  C
  C247     1.0000 0.88347  0.97020  0.89153  Biso   1.000  C
  C248     1.0000 0.64476  0.08692  0.55286  Biso   1.000  C
  C249     1.0000 0.98275  0.32437  0.64759  Biso   1.000  C
  C250     1.0000 0.37820  0.96954  0.69331  Biso   1.000  C
  C251     1.0000 0.14921  0.08692  0.04041  Biso   1.000  C
  C252     1.0000 0.49309  0.31784  0.93854  Biso   1.000  C
  C253     1.0000 0.41100  0.48020  0.20937  Biso   1.000  C
  C254     1.0000 0.14497  0.37434  0.55772  Biso   1.000  C
  C255     1.0000 0.49403  0.13578  0.43121  Biso   1.000  C
  C256     1.0000 0.90856  0.47403  0.37161  Biso   1.000  C
  C257     1.0000 0.64857  0.36834  0.02830  Biso   1.000  C
  C258     1.0000 0.99873  0.13339  0.14072  Biso   1.000  C
  C259     1.0000 0.10426  0.96979  0.18902  Biso   1.000  C
  C260     1.0000 0.34519  0.87468  0.52865  Biso   1.000  C
  C261     1.0000 0.98106  0.62486  0.42933  Biso   1.000  C
  C262     1.0000 0.60579  0.98359  0.39388  Biso   1.000  C
  C263     1.0000 0.83802  0.87352  0.04030  Biso   1.000  C
  C264     1.0000 0.50320  0.63338  0.13554  Biso   1.000  C
  C265     1.0000 0.98281  0.07822  0.88403  Biso   1.000  C
  C266     1.0000 0.84622  0.98796  0.14997  Biso   1.000  C
  C267     1.0000 0.09394  0.82880  0.02674  Biso   1.000  C
  C268     1.0000 0.48246  0.07409  0.69015  Biso   1.000  C
  C269     1.0000 0.34501  0.98662  0.43525  Biso   1.000  C
  C270     1.0000 0.60712  0.82906  0.54921  Biso   1.000  C
  C271     1.0000 0.46835  0.57379  0.88001  Biso   1.000  C
  C272     1.0000 0.66027  0.47420  0.12092  Biso   1.000  C
  C273     1.0000 0.39201  0.33010  0.03635  Biso   1.000  C
  C274     1.0000 0.97796  0.57902  0.68882  Biso   1.000  C
  C275     1.0000 0.16259  0.47288  0.45899  Biso   1.000  C
  C276     1.0000 0.88502  0.32034  0.53041  Biso   1.000  C
  C277     1.0000 0.00407  0.88101  0.19339  Biso   1.000  C
  C278     1.0000 0.14007  0.98282  0.93191  Biso   1.000  C
  C279     1.0000 0.89058  0.12885  0.04164  Biso   1.000  C
  C280     1.0000 0.50497  0.87535  0.38503  Biso   1.000  C
  C281     1.0000 0.64567  0.97846  0.64884  Biso   1.000  C
  C282     1.0000 0.38138  0.12994  0.52636  Biso   1.000  C
  C283     1.0000 0.51223  0.37957  0.19228  Biso   1.000  C
  C284     1.0000 0.32492  0.47288  0.95810  Biso   1.000  C
  C285     1.0000 0.59950  0.62176  0.02578  Biso   1.000  C
  C286     1.0000 0.00948  0.37464  0.38967  Biso   1.000  C
  C287     1.0000 0.81809  0.47833  0.61619  Biso   1.000  C
  C288     1.0000 0.09747  0.62869  0.53055  Biso   1.000  C
  C289     1.0000 0.34589  0.84257  0.52678  Biso   1.000  C
  C290     1.0000 0.49356  0.31749  0.90757  Biso   1.000  C
  C291     1.0000 0.87750  0.47091  0.36510  Biso   1.000  C
  C292     1.0000 0.83494  0.84397  0.03350  Biso   1.000  C
  C293     1.0000 0.97514  0.32364  0.67808  Biso   1.000  C
  C294     1.0000 0.37976  0.48190  0.21394  Biso   1.000  C
  C295     1.0000 0.14491  0.34349  0.55894  Biso   1.000  C
  C296     1.0000 0.98504  0.82283  0.90061  Biso   1.000  C
  C297     1.0000 0.63787  0.98422  0.39462  Biso   1.000  C
  C298     1.0000 0.64701  0.33864  0.03710  Biso   1.000  C
  C299     1.0000 0.50032  0.81950  0.67381  Biso   1.000  C
  C300     1.0000 0.13617  0.97173  0.18962  Biso   1.000  C
  C301     1.0000 0.64243  0.11878  0.55186  Biso   1.000  C
  C302     1.0000 0.50590  0.63512  0.16703  Biso   1.000  C
  C303     1.0000 0.10326  0.48679  0.71095  Biso   1.000  C
  C304     1.0000 0.14967  0.11698  0.03633  Biso   1.000  C
  C305     1.0000 0.98377  0.62842  0.39771  Biso   1.000  C
  C306     1.0000 0.60513  0.47040  0.86908  Biso   1.000  C
  C307     1.0000 0.83496  0.60930  0.52128  Biso   1.000  C
  C308     1.0000 0.99831  0.13265  0.17200  Biso   1.000  C
  C309     1.0000 0.34807  0.96374  0.69441  Biso   1.000  C
  C310     1.0000 0.34154  0.61400  0.04691  Biso   1.000  C
  C311     1.0000 0.49338  0.13404  0.39986  Biso   1.000  C
  C312     1.0000 0.85244  0.97428  0.89034  Biso   1.000  C
  C313     1.0000 0.16620  0.47488  0.42882  Biso   1.000  C
  C314     1.0000 0.34987  0.12937  0.53176  Biso   1.000  C
  C315     1.0000 0.50944  0.34890  0.19325  Biso   1.000  C
  C316     1.0000 0.66340  0.47470  0.15336  Biso   1.000  C
  C317     1.0000 0.85899  0.13032  0.04336  Biso   1.000  C
  C318     1.0000 0.00634  0.34363  0.38796  Biso   1.000  C
  C319     1.0000 0.34580  0.98492  0.40395  Biso   1.000  C
  C320     1.0000 0.12931  0.63087  0.52774  Biso   1.000  C
  C321     1.0000 0.99995  0.84970  0.19292  Biso   1.000  C
  C322     1.0000 0.84634  0.98882  0.18140  Biso   1.000  C
  C323     1.0000 0.62973  0.62309  0.01745  Biso   1.000  C
  C324     1.0000 0.50896  0.84395  0.38450  Biso   1.000  C
  C325     1.0000 0.81473  0.47883  0.64691  Biso   1.000  C
  C326     1.0000 0.63868  0.82816  0.54966  Biso   1.000  C
  C327     1.0000 0.47917  0.60326  0.87664  Biso   1.000  C
  C328     1.0000 0.31925  0.47881  0.92716  Biso   1.000  C
  C329     1.0000 0.12554  0.82795  0.02803  Biso   1.000  C
  C330     1.0000 0.97999  0.60896  0.68651  Biso   1.000  C
  C331     1.0000 0.64341  0.97813  0.67927  Biso   1.000  C
  C332     1.0000 0.85347  0.32046  0.52957  Biso   1.000  C
  C333     1.0000 0.97788  0.10908  0.88416  Biso   1.000  C
  C334     1.0000 0.14194  0.97706  0.90079  Biso   1.000  C
  C335     1.0000 0.36142  0.32745  0.03777  Biso   1.000  C
  C336     1.0000 0.48467  0.10542  0.69179  Biso   1.000  C
  C337     1.0000 0.63060  0.46764  0.88612  Biso   1.000  C
  C338     1.0000 0.85624  0.62982  0.52363  Biso   1.000  C
  C339     1.0000 0.49403  0.83990  0.69547  Biso   1.000  C
  C340     1.0000 0.12691  0.48879  0.69019  Biso   1.000  C
  C341     1.0000 0.36320  0.63564  0.04505  Biso   1.000  C
  C342     1.0000 0.98683  0.84405  0.87929  Biso   1.000  C
  C343     1.0000 0.83198  0.97563  0.91296  Biso   1.000  C
  C344     1.0000 0.62013  0.13951  0.54875  Biso   1.000  C
  C345     1.0000 0.97018  0.34442  0.69943  Biso   1.000  C
  C346     1.0000 0.32822  0.95848  0.67020  Biso   1.000  C
  C347     1.0000 0.12609  0.13589  0.03632  Biso   1.000  C
  C348     1.0000 0.48984  0.33944  0.88658  Biso   1.000  C
  C349     1.0000 0.35677  0.48408  0.19345  Biso   1.000  C
  C350     1.0000 0.12438  0.32071  0.55404  Biso   1.000  C
  C351     1.0000 0.49617  0.11174  0.38028  Biso   1.000  C
  C352     1.0000 0.85247  0.47037  0.38292  Biso   1.000  C
  C353     1.0000 0.62507  0.32028  0.04716  Biso   1.000  C
  C354     1.0000 0.00120  0.11151  0.19390  Biso   1.000  C
  C355     1.0000 0.15549  0.97288  0.16669  Biso   1.000  C
  C356     1.0000 0.36810  0.82130  0.52931  Biso   1.000  C
  C357     1.0000 0.99301  0.60762  0.37783  Biso   1.000  C
  C358     1.0000 0.66041  0.98544  0.41598  Biso   1.000  C
  C359     1.0000 0.85715  0.82297  0.03074  Biso   1.000  C
  C360     1.0000 0.50549  0.61355  0.18936  Biso   1.000  C
  C361     1.0000 0.97950  0.13215  0.90496  Biso   1.000  C
  C362     1.0000 0.87047  0.98664  0.20092  Biso   1.000  C
  C363     1.0000 0.14826  0.84790  0.02797  Biso   1.000  C
  C364     1.0000 0.48267  0.12732  0.67102  Biso   1.000  C
  C365     1.0000 0.36905  0.98197  0.38242  Biso   1.000  C
  C366     1.0000 0.65906  0.85082  0.54668  Biso   1.000  C
  C367     1.0000 0.48788  0.62513  0.89741  Biso   1.000  C
  C368     1.0000 0.64371  0.47843  0.17612  Biso   1.000  C
  C369     1.0000 0.33994  0.34944  0.04199  Biso   1.000  C
  C370     1.0000 0.98344  0.63133  0.66516  Biso   1.000  C
  C371     1.0000 0.14685  0.47668  0.40510  Biso   1.000  C
  C372     1.0000 0.83182  0.34158  0.52384  Biso   1.000  C
  C373     1.0000 0.99854  0.82952  0.17006  Biso   1.000  C
  C374     1.0000 0.11866  0.97571  0.88059  Biso   1.000  C
  C375     1.0000 0.83817  0.10809  0.04649  Biso   1.000  C
  C376     1.0000 0.51347  0.82331  0.40612  Biso   1.000  C
  C377     1.0000 0.61890  0.97473  0.69851  Biso   1.000  C
  C378     1.0000 0.32938  0.10755  0.53572  Biso   1.000  C
  C379     1.0000 0.50109  0.32807  0.17260  Biso   1.000  C
  C380     1.0000 0.33753  0.48027  0.90219  Biso   1.000  C
  C381     1.0000 0.65149  0.60218  0.01545  Biso   1.000  C
  C382     1.0000 0.00086  0.32213  0.40944  Biso   1.000  C
  C383     1.0000 0.83395  0.47962  0.67073  Biso   1.000  C
  C384     1.0000 0.14975  0.61056  0.53655  Biso   1.000  C
  C385     1.0000 0.17610  0.13212  0.03346  Biso   1.000  C
  C386     1.0000 0.99652  0.15895  0.18811  Biso   1.000  C
  C387     1.0000 0.15281  0.97079  0.21503  Biso   1.000  C
  C388     1.0000 0.66825  0.13535  0.55981  Biso   1.000  C
  C389     1.0000 0.49344  0.16012  0.38289  Biso   1.000  C
  C390     1.0000 0.65501  0.98298  0.36782  Biso   1.000  C
  C391     1.0000 0.31502  0.62906  0.04496  Biso   1.000  C
  C392     1.0000 0.50540  0.66196  0.18235  Biso   1.000  C
  C393     1.0000 0.36572  0.47800  0.24204  Biso   1.000  C
  C394     1.0000 0.80831  0.62422  0.51979  Biso   1.000  C
  C395     1.0000 0.98090  0.65506  0.38183  Biso   1.000  C
  C396     1.0000 0.86524  0.46942  0.33641  Biso   1.000  C
  C397     1.0000 0.80693  0.82926  0.02994  Biso   1.000  C
  C398     1.0000 0.98196  0.79670  0.88433  Biso   1.000  C
  C399     1.0000 0.83574  0.97695  0.86421  Biso   1.000  C
  C400     1.0000 0.31864  0.82552  0.52627  Biso   1.000  C
  C401     1.0000 0.50929  0.79392  0.68936  Biso   1.000  C
  C402     1.0000 0.33128  0.95808  0.72032  Biso   1.000  C
  C403     1.0000 0.67271  0.32156  0.03836  Biso   1.000  C
  C404     1.0000 0.49876  0.29288  0.88954  Biso   1.000  C
  C405     1.0000 0.61721  0.46928  0.83976  Biso   1.000  C
  C406     1.0000 0.17252  0.32775  0.56179  Biso   1.000  C
  C407     1.0000 0.97393  0.29693  0.69373  Biso   1.000  C
  C408     1.0000 0.11678  0.48452  0.73999  Biso   1.000  C
  C409     1.0000 0.13342  0.96905  0.85364  Biso   1.000  C
  C410     1.0000 0.81090  0.12226  0.05050  Biso   1.000  C
  C411     1.0000 0.99590  0.80226  0.18460  Biso   1.000  C
  C412     1.0000 0.63219  0.97395  0.72771  Biso   1.000  C
  C413     1.0000 0.30243  0.12182  0.53963  Biso   1.000  C
  C414     1.0000 0.51597  0.79582  0.39095  Biso   1.000  C
  C415     1.0000 0.31861  0.48652  0.87810  Biso   1.000  C
  C416     1.0000 0.67791  0.61715  0.00922  Biso   1.000  C
  C417     1.0000 0.49963  0.30238  0.18907  Biso   1.000  C
  C418     1.0000 0.81614  0.48222  0.69696  Biso   1.000  C
  C419     1.0000 0.17702  0.62635  0.53600  Biso   1.000  C
  C420     1.0000 0.00218  0.29415  0.39323  Biso   1.000  C
  C421     1.0000 0.85771  0.98548  0.22981  Biso   1.000  C
  C422     1.0000 0.17452  0.83082  0.02891  Biso   1.000  C
  C423     1.0000 0.97329  0.15750  0.88926  Biso   1.000  C
  C424     1.0000 0.35555  0.98279  0.35502  Biso   1.000  C
  C425     1.0000 0.68710  0.83561  0.54517  Biso   1.000  C
  C426     1.0000 0.48760  0.15396  0.68779  Biso   1.000  C
  C427     1.0000 0.66168  0.47520  0.20261  Biso   1.000  C
  C428     1.0000 0.31387  0.33287  0.04103  Biso   1.000  C
  C429     1.0000 0.49627  0.64912  0.88042  Biso   1.000  C
  C430     1.0000 0.16550  0.47760  0.37989  Biso   1.000  C
  C431     1.0000 0.80489  0.32641  0.52697  Biso   1.000  C
  C432     1.0000 0.98584  0.65856  0.68122  Biso   1.000  C
  C433     1.0000 0.97238  0.12407  0.85651  Biso   1.000  C
  C434     1.0000 0.82172  0.99071  0.19947  Biso   1.000  C
  C435     1.0000 0.14104  0.79974  0.02952  Biso   1.000  C
  C436     1.0000 0.48968  0.11997  0.71963  Biso   1.000  C
  C437     1.0000 0.31908  0.98393  0.38602  Biso   1.000  C
  C438     1.0000 0.65397  0.80174  0.54679  Biso   1.000  C
  C439     1.0000 0.48231  0.61860  0.84878  Biso   1.000  C
  C440     1.0000 0.69071  0.46863  0.16798  Biso   1.000  C
  C441     1.0000 0.34571  0.30061  0.03238  Biso   1.000  C
  C442     1.0000 0.97791  0.62597  0.71327  Biso   1.000  C
  C443     1.0000 0.19459  0.47464  0.41566  Biso   1.000  C
  C444     1.0000 0.83759  0.29441  0.53769  Biso   1.000  C
  C445     1.0000 0.99752  0.83255  0.22021  Biso   1.000  C
  C446     1.0000 0.16820  0.96995  0.88472  Biso   1.000  C
  C447     1.0000 0.84214  0.15618  0.04348  Biso   1.000  C
  C448     1.0000 0.50833  0.82714  0.35653  Biso   1.000  C
  C449     1.0000 0.66904  0.97952  0.69830  Biso   1.000  C
  C450     1.0000 0.33335  0.15529  0.53358  Biso   1.000  C
  C451     1.0000 0.51292  0.33405  0.22036  Biso   1.000  C
  C452     1.0000 0.29174  0.48729  0.91540  Biso   1.000  C
  C453     1.0000 0.64599  0.64961  0.01567  Biso   1.000  C
  C454     1.0000 0.01025  0.32720  0.36101  Biso   1.000  C
  C455     1.0000 0.78682  0.47668  0.66179  Biso   1.000  C
  C456     1.0000 0.14564  0.65637  0.52160  Biso   1.000  C
  C457     1.0000 0.99533  0.62274  0.35061  Biso   1.000  C
  C458     1.0000 0.30103  0.95187  0.68357  Biso   1.000  C
  C459     1.0000 0.63993  0.29407  0.05445  Biso   1.000  C
  C460     1.0000 0.50705  0.62971  0.21676  Biso   1.000  C
  C461     1.0000 0.80477  0.98091  0.89860  Biso   1.000  C
  C462     1.0000 0.14023  0.29396  0.55408  Biso   1.000  C
  C463     1.0000 0.49948  0.12618  0.35312  Biso   1.000  C
  C464     1.0000 0.15261  0.48787  0.71078  Biso   1.000  C
  C465     1.0000 0.84170  0.79644  0.02511  Biso   1.000  C
  C466     1.0000 0.00188  0.12710  0.22143  Biso   1.000  C
  C467     1.0000 0.65537  0.46653  0.86624  Biso   1.000  C
  C468     1.0000 0.35298  0.79423  0.52766  Biso   1.000  C
  C469     1.0000 0.96286  0.32842  0.72452  Biso   1.000  C
  C470     1.0000 0.68717  0.98372  0.40154  Biso   1.000  C
  C471     1.0000 0.34761  0.66203  0.04060  Biso   1.000  C
  C472     1.0000 0.49281  0.32486  0.85910  Biso   1.000  C
  C473     1.0000 0.18411  0.97632  0.18036  Biso   1.000  C
  C474     1.0000 0.84157  0.65585  0.52498  Biso   1.000  C
  C475     1.0000 0.49661  0.82402  0.72318  Biso   1.000  C
  C476     1.0000 0.82797  0.46819  0.36389  Biso   1.000  C
  C477     1.0000 0.14226  0.16329  0.03265  Biso   1.000  C
  C478     1.0000 0.98363  0.82922  0.85152  Biso   1.000  C
  C479     1.0000 0.33150  0.48414  0.21085  Biso   1.000  C
  C480     1.0000 0.63443  0.16593  0.55465  Biso   1.000  C
  C481     1.0000 0.37079  0.76723  0.52556  Biso   1.000  C
  C482     1.0000 0.49122  0.34165  0.83218  Biso   1.000  C
  C483     1.0000 0.79892  0.46720  0.37534  Biso   1.000  C
  C484     1.0000 0.85743  0.77069  0.02035  Biso   1.000  C
  C485     1.0000 0.95524  0.34426  0.75189  Biso   1.000  C
  C486     1.0000 0.30272  0.48811  0.19893  Biso   1.000  C
  C487     1.0000 0.12364  0.26644  0.54950  Biso   1.000  C
  C488     1.0000 0.98514  0.84435  0.82373  Biso   1.000  C
  C489     1.0000 0.71436  0.98232  0.41786  Biso   1.000  C
  C490     1.0000 0.62376  0.27030  0.06852  Biso   1.000  C
  C491     1.0000 0.49524  0.84107  0.74951  Biso   1.000  C
  C492     1.0000 0.20872  0.98226  0.16124  Biso   1.000  C
  C493     1.0000 0.61728  0.19126  0.55389  Biso   1.000  C
  C494     1.0000 0.51065  0.61473  0.24473  Biso   1.000  C
  C495     1.0000 0.18040  0.49074  0.69763  Biso   1.000  C
  C496     1.0000 0.12571  0.18950  0.03286  Biso   1.000  C
  C497     1.0000 0.00485  0.60664  0.32380  Biso   1.000  C
  C498     1.0000 0.68550  0.46685  0.87665  Biso   1.000  C
  C499     1.0000 0.85982  0.68109  0.52935  Biso   1.000  C
  C500     1.0000 0.00125  0.11254  0.24915  Biso   1.000  C
  C501     1.0000 0.27568  0.94731  0.66507  Biso   1.000  C
  C502     1.0000 0.36424  0.68885  0.03374  Biso   1.000  C
  C503     1.0000 0.50373  0.10926  0.32617  Biso   1.000  C
  C504     1.0000 0.77863  0.98555  0.91730  Biso   1.000  C
  C505     1.0000 0.59844  0.47142  0.81396  Biso   1.000  C
  C506     1.0000 0.78016  0.61003  0.51245  Biso   1.000  C
  C507     1.0000 0.51764  0.76853  0.67156  Biso   1.000  C
  C508     1.0000 0.09833  0.47831  0.76407  Biso   1.000  C
  C509     1.0000 0.28509  0.61337  0.04939  Biso   1.000  C
  C510     1.0000 0.97942  0.77004  0.89890  Biso   1.000  C
  C511     1.0000 0.85007  0.97194  0.83636  Biso   1.000  C
  C512     1.0000 0.69572  0.12238  0.56365  Biso   1.000  C
  C513     1.0000 0.98083  0.26935  0.67899  Biso   1.000  C
  C514     1.0000 0.34746  0.96013  0.74757  Biso   1.000  C
  C515     1.0000 0.20285  0.11672  0.03256  Biso   1.000  C
  C516     1.0000 0.50654  0.26592  0.90503  Biso   1.000  C
  C517     1.0000 0.38328  0.47283  0.26754  Biso   1.000  C
  C518     1.0000 0.19977  0.34397  0.56650  Biso   1.000  C
  C519     1.0000 0.49271  0.18753  0.39775  Biso   1.000  C
  C520     1.0000 0.88660  0.47075  0.31311  Biso   1.000  C
  C521     1.0000 0.70077  0.33421  0.03021  Biso   1.000  C
  C522     1.0000 0.99177  0.18534  0.17416  Biso   1.000  C
  C523     1.0000 0.13913  0.96847  0.24412  Biso   1.000  C
  C524     1.0000 0.29176  0.84069  0.52647  Biso   1.000  C
  C525     1.0000 0.97210  0.68097  0.39791  Biso   1.000  C
  C526     1.0000 0.63973  0.98045  0.34118  Biso   1.000  C
  C527     1.0000 0.77931  0.84413  0.03438  Biso   1.000  C
  C528     1.0000 0.50292  0.68956  0.16512  Biso   1.000  C
  C529     1.0000 0.78488  0.10702  0.05451  Biso   1.000  C
  C530     1.0000 0.99599  0.77587  0.16843  Biso   1.000  C
  C531     1.0000 0.11296  0.96595  0.82820  Biso   1.000  C
  C532     1.0000 0.27522  0.10488  0.54378  Biso   1.000  C
  C533     1.0000 0.52129  0.77018  0.40907  Biso   1.000  C
  C534     1.0000 0.61462  0.96852  0.75322  Biso   1.000  C
  C535     1.0000 0.70525  0.60249  0.00334  Biso   1.000  C
  C536     1.0000 0.48562  0.27698  0.17530  Biso   1.000  C
  C537     1.0000 0.32896  0.48687  0.84926  Biso   1.000  C
  C538     1.0000 0.20331  0.61240  0.54877  Biso   1.000  C
  C539     1.0000 0.99388  0.26877  0.41037  Biso   1.000  C
  C540     1.0000 0.82909  0.48833  0.72416  Biso   1.000  C
  C541     1.0000 0.20251  0.84691  0.02999  Biso   1.000  C
  C542     1.0000 0.97207  0.18530  0.90476  Biso   1.000  C
  C543     1.0000 0.87544  0.98297  0.25546  Biso   1.000  C
  C544     1.0000 0.71479  0.85128  0.54562  Biso   1.000  C
  C545     1.0000 0.48635  0.18102  0.67187  Biso   1.000  C
  C546     1.0000 0.37255  0.97772  0.33003  Biso   1.000  C
  C547     1.0000 0.28724  0.34821  0.04708  Biso   1.000  C
  C548     1.0000 0.51075  0.67287  0.89577  Biso   1.000  C
  C549     1.0000 0.64886  0.48072  0.23051  Biso   1.000  C
  C550     1.0000 0.77732  0.34108  0.52188  Biso   1.000  C
  C551     1.0000 0.99263  0.68444  0.66552  Biso   1.000  C
  C552     1.0000 0.15188  0.47968  0.35163  Biso   1.000  C
  C553     1.0000 0.97088  0.10640  0.83020  Biso   1.000  C
  C554     1.0000 0.79324  0.99829  0.18532  Biso   1.000  C
  C555     1.0000 0.12490  0.77322  0.02737  Biso   1.000  C
  C556     1.0000 0.49463  0.10519  0.74635  Biso   1.000  C
  C557     1.0000 0.29112  0.98489  0.40024  Biso   1.000  C
  C558     1.0000 0.63848  0.77511  0.54851  Biso   1.000  C
  C559     1.0000 0.47590  0.60189  0.82298  Biso   1.000  C
  C560     1.0000 0.71685  0.46073  0.14874  Biso   1.000  C
  C561     1.0000 0.36214  0.27423  0.02547  Biso   1.000  C
  C562     1.0000 0.97332  0.61155  0.74179  Biso   1.000  C
  C563     1.0000 0.22006  0.47282  0.43457  Biso   1.000  C
  C564     1.0000 0.85350  0.26787  0.54443  Biso   1.000  C
  C565     1.0000 0.99339  0.84754  0.24788  Biso   1.000  C
  C566     1.0000 0.19623  0.97300  0.90121  Biso   1.000  C
  C567     1.0000 0.85824  0.18264  0.03771  Biso   1.000  C
  C568     1.0000 0.50381  0.84419  0.33018  Biso   1.000  C
  C569     1.0000 0.69791  0.98491  0.68396  Biso   1.000  C
  C570     1.0000 0.34877  0.18196  0.52897  Biso   1.000  C
  C571     1.0000 0.51938  0.34929  0.24737  Biso   1.000  C
  C572     1.0000 0.26811  0.49132  0.93469  Biso   1.000  C
  C573     1.0000 0.63312  0.67731  0.02306  Biso   1.000  C
  C574     1.0000 0.01718  0.34298  0.33528  Biso   1.000  C
  C575     1.0000 0.76060  0.47263  0.64387  Biso   1.000  C
  C576     1.0000 0.12829  0.68271  0.51272  Biso   1.000  C
  C577     1.0000 0.29960  0.48823  0.16699  Biso   1.000  C
  C578     1.0000 0.09204  0.26737  0.54235  Biso   1.000  C
  C579     1.0000 0.50528  0.07714  0.32742  Biso   1.000  C
  C580     1.0000 0.79487  0.46797  0.40624  Biso   1.000  C
  C581     1.0000 0.59102  0.27119  0.06774  Biso   1.000  C
  C582     1.0000 0.00482  0.08127  0.24833  Biso   1.000  C
  C583     1.0000 0.20576  0.98101  0.12980  Biso   1.000  C
  C584     1.0000 0.40233  0.76943  0.52548  Biso   1.000  C
  C585     1.0000 0.00668  0.57601  0.32467  Biso   1.000  C
  C586     1.0000 0.71473  0.98439  0.45036  Biso   1.000  C
  C587     1.0000 0.88791  0.76889  0.02227  Biso   1.000  C
  C588     1.0000 0.50959  0.58326  0.24212  Biso   1.000  C
  C589     1.0000 0.69136  0.46833  0.90738  Biso   1.000  C
  C590     1.0000 0.89195  0.67842  0.53293  Biso   1.000  C
  C591     1.0000 0.48915  0.87257  0.74825  Biso   1.000  C
  C592     1.0000 0.18393  0.49361  0.66598  Biso   1.000  C
  C593     1.0000 0.39674  0.69039  0.03147  Biso   1.000  C
  C594     1.0000 0.98708  0.87597  0.82471  Biso   1.000  C
  C595     1.0000 0.78152  0.98290  0.94840  Biso   1.000  C
  C596     1.0000 0.58458  0.18889  0.54896  Biso   1.000  C
  C597     1.0000 0.95432  0.37565  0.74967  Biso   1.000  C
  C598     1.0000 0.27755  0.95106  0.63468  Biso   1.000  C
  C599     1.0000 0.09370  0.18751  0.03362  Biso   1.000  C
  C600     1.0000 0.48622  0.37217  0.83343  Biso   1.000  C
  C601     1.0000 0.19567  0.97940  0.93254  Biso   1.000  C
  C602     1.0000 0.88975  0.18327  0.03528  Biso   1.000  C
  C603     1.0000 0.99765  0.88003  0.24657  Biso   1.000  C
  C604     1.0000 0.70141  0.98695  0.65268  Biso   1.000  C
  C605     1.0000 0.37979  0.18417  0.52659  Biso   1.000  C
  C606     1.0000 0.50216  0.87550  0.33054  Biso   1.000  C
  C607     1.0000 0.27252  0.48816  0.96595  Biso   1.000  C
  C608     1.0000 0.60144  0.67617  0.02990  Biso   1.000  C
  C609     1.0000 0.52613  0.37979  0.24539  Biso   1.000  C
  C610     1.0000 0.76319  0.47218  0.61203  Biso   1.000  C
  C611     1.0000 0.09617  0.68122  0.51593  Biso   1.000  C
  C612     1.0000 0.01952  0.37502  0.33563  Biso   1.000  C
  C613     1.0000 0.79222  0.99574  0.15333  Biso   1.000  C
  C614     1.0000 0.09281  0.77334  0.03215  Biso   1.000  C
  C615     1.0000 0.97194  0.07548  0.82981  Biso   1.000  C
  C616     1.0000 0.29017  0.98680  0.43245  Biso   1.000  C
  C617     1.0000 0.60737  0.77338  0.54730  Biso   1.000  C
  C618     1.0000 0.49416  0.07374  0.74456  Biso   1.000  C
  C619     1.0000 0.71337  0.46229  0.11700  Biso   1.000  C
  C620     1.0000 0.39259  0.27682  0.02604  Biso   1.000  C
  C621     1.0000 0.46543  0.57249  0.82512  Biso   1.000  C
  C622     1.0000 0.21649  0.47191  0.46527  Biso   1.000  C
  C623     1.0000 0.88475  0.26854  0.54675  Biso   1.000  C
  C624     1.0000 0.97219  0.58084  0.74298  Biso   1.000  C
  C625     1.0000 0.97615  0.18711  0.93565  Biso   1.000  C
  C626     1.0000 0.90653  0.98154  0.25299  Biso   1.000  C
  C627     1.0000 0.20272  0.87853  0.02911  Biso   1.000  C
  C628     1.0000 0.48405  0.18101  0.64074  Biso   1.000  C
  C629     1.0000 0.40419  0.97742  0.33030  Biso   1.000  C
  C630     1.0000 0.71385  0.88373  0.54675  Biso   1.000  C
  C631     1.0000 0.51485  0.67143  0.92710  Biso   1.000  C
  C632     1.0000 0.61712  0.48564  0.23125  Biso   1.000  C
  C633     1.0000 0.28789  0.37879  0.05023  Biso   1.000  C
  C634     1.0000 0.99587  0.68258  0.63419  Biso   1.000  C
  C635     1.0000 0.12180  0.47948  0.34831  Biso   1.000  C
  C636     1.0000 0.77698  0.37196  0.51462  Biso   1.000  C
  C637     1.0000 0.99576  0.77668  0.13715  Biso   1.000  C
  C638     1.0000 0.08213  0.96903  0.82920  Biso   1.000  C
  C639     1.0000 0.78682  0.07636  0.05592  Biso   1.000  C
  C640     1.0000 0.52086  0.77048  0.44042  Biso   1.000  C
  C641     1.0000 0.58212  0.96620  0.75037  Biso   1.000  C
  C642     1.0000 0.27757  0.07330  0.55048  Biso   1.000  C
  C643     1.0000 0.48206  0.27636  0.14349  Biso   1.000  C
  C644     1.0000 0.36056  0.48520  0.84534  Biso   1.000  C
  C645     1.0000 0.70673  0.56994  0.00778  Biso   1.000  C
  C646     1.0000 0.98842  0.27020  0.44095  Biso   1.000  C
  C647     1.0000 0.85946  0.49097  0.72455  Biso   1.000  C
  C648     1.0000 0.20057  0.58116  0.55538  Biso   1.000  C
  C649     1.0000 0.97006  0.67946  0.42960  Biso   1.000  C
  C650     1.0000 0.37792  0.96809  0.74916  Biso   1.000  C
  C651     1.0000 0.70321  0.36435  0.02123  Biso   1.000  C
  C652     1.0000 0.50098  0.68729  0.13312  Biso   1.000  C
  C653     1.0000 0.88210  0.97012  0.83543  Biso   1.000  C
  C654     1.0000 0.19885  0.37394  0.56811  Biso   1.000  C
  C655     1.0000 0.49240  0.18905  0.42986  Biso   1.000  C
  C656     1.0000 0.06700  0.47413  0.76044  Biso   1.000  C
  C657     1.0000 0.78307  0.87381  0.04049  Biso   1.000  C
  C658     1.0000 0.99130  0.18609  0.14315  Biso   1.000  C
  C659     1.0000 0.56622  0.47385  0.81925  Biso   1.000  C
  C660     1.0000 0.29189  0.87165  0.52506  Biso   1.000  C
  C661     1.0000 0.98746  0.27007  0.64817  Biso   1.000  C
  C662     1.0000 0.60860  0.97906  0.33970  Biso   1.000  C
  C663     1.0000 0.28647  0.58284  0.05464  Biso   1.000  C
  C664     1.0000 0.50581  0.26613  0.93808  Biso   1.000  C
  C665     1.0000 0.10782  0.96563  0.24482  Biso   1.000  C
  C666     1.0000 0.77889  0.57907  0.51026  Biso   1.000  C
  C667     1.0000 0.51920  0.77237  0.63931  Biso   1.000  C
  C668     1.0000 0.91770  0.47151  0.31872  Biso   1.000  C
  C669     1.0000 0.20261  0.08598  0.03414  Biso   1.000  C
  C670     1.0000 0.98124  0.76965  0.93028  Biso   1.000  C
  C671     1.0000 0.41540  0.47187  0.26408  Biso   1.000  C
  C672     1.0000 0.69838  0.09095  0.56038  Biso   1.000  C
  C673     1.0000 0.17848  0.96182  0.83678  Biso   1.000  C
  C674     1.0000 0.79488  0.16891  0.05083  Biso   1.000  C
  C675     1.0000 0.99647  0.78397  0.23021  Biso   1.000  C
  C676     1.0000 0.67893  0.97366  0.74589  Biso   1.000  C
  C677     1.0000 0.28973  0.16828  0.54208  Biso   1.000  C
  C678     1.0000 0.51394  0.78168  0.34378  Biso   1.000  C
  C679     1.0000 0.27003  0.49319  0.87027  Biso   1.000  C
  C680     1.0000 0.69307  0.66429  0.00832  Biso   1.000  C
  C681     1.0000 0.50668  0.28710  0.23326  Biso   1.000  C
  C682     1.0000 0.76981  0.47668  0.70871  Biso   1.000  C
  C683     1.0000 0.19371  0.66878  0.52496  Biso   1.000  C
  C684     1.0000 0.00839  0.28025  0.34660  Biso   1.000  C
  C685     1.0000 0.81145  0.99090  0.24628  Biso   1.000  C
  C686     1.0000 0.18667  0.78341  0.03286  Biso   1.000  C
  C687     1.0000 0.96691  0.17075  0.84209  Biso   1.000  C
  C688     1.0000 0.31104  0.98107  0.33674  Biso   1.000  C
  C689     1.0000 0.70131  0.78899  0.54290  Biso   1.000  C
  C690     1.0000 0.49420  0.16661  0.73380  Biso   1.000  C
  C691     1.0000 0.70880  0.46861  0.21238  Biso   1.000  C
  C692     1.0000 0.29786  0.28741  0.03133  Biso   1.000  C
  C693     1.0000 0.49659  0.66276  0.83341  Biso   1.000  C
  C694     1.0000 0.21456  0.47679  0.37089  Biso   1.000  C
  C695     1.0000 0.79119  0.28198  0.54162  Biso   1.000  C
  C696     1.0000 0.98076  0.67315  0.72725  Biso   1.000  C
  C697     1.0000 0.70241  0.98542  0.35521  Biso   1.000  C
  C698     1.0000 0.29918  0.67560  0.04237  Biso   1.000  C
  C699     1.0000 0.96065  0.28187  0.73913  Biso   1.000  C
  C700     1.0000 0.19861  0.97472  0.22726  Biso   1.000  C
  C701     1.0000 0.79558  0.67077  0.52586  Biso   1.000  C
  C702     1.0000 0.50278  0.27790  0.84308  Biso   1.000  C
  C703     1.0000 0.82016  0.46967  0.31587  Biso   1.000  C
  C704     1.0000 0.18854  0.17953  0.03098  Biso   1.000  C
  C705     1.0000 0.50726  0.77904  0.73535  Biso   1.000  C
  C706     1.0000 0.32039  0.47939  0.25947  Biso   1.000  C
  C707     1.0000 0.68116  0.18178  0.56278  Biso   1.000  C
  C708     1.0000 0.98385  0.78329  0.83571  Biso   1.000  C
  C709     1.0000 0.28263  0.94884  0.72847  Biso   1.000  C
  C710     1.0000 0.68460  0.27746  0.05633  Biso   1.000  C
  C711     1.0000 0.99095  0.66888  0.33593  Biso   1.000  C
  C712     1.0000 0.78814  0.97866  0.85248  Biso   1.000  C
  C713     1.0000 0.18624  0.28079  0.55824  Biso   1.000  C
  C714     1.0000 0.50858  0.67707  0.22799  Biso   1.000  C
  C715     1.0000 0.16217  0.48536  0.75822  Biso   1.000  C
  C716     1.0000 0.79417  0.78113  0.02401  Biso   1.000  C
  C717     1.0000 0.49544  0.17290  0.33791  Biso   1.000  C
  C718     1.0000 0.66192  0.46940  0.81909  Biso   1.000  C
  C719     1.0000 0.30541  0.77872  0.52623  Biso   1.000  C
  C720     1.0000 0.99916  0.17321  0.23637  Biso   1.000  C
  C721     1.0000 0.52785  0.78769  0.31391  Biso   1.000  C
  C722     1.0000 0.27365  0.50651  0.84298  Biso   1.000  C
  C723     1.0000 0.76508  0.29203  0.55745  Biso   1.000  C
  C724     1.0000 0.97978  0.75747  0.22461  Biso   1.000  C
  C725     1.0000 0.74111  0.49020  0.70472  Biso   1.000  C
  C726     1.0000 0.27245  0.29010  0.01180  Biso   1.000  C
  C727     1.0000 0.99463  0.28564  0.31880  Biso   1.000  C
  C728     1.0000 0.20485  0.97977  0.83468  Biso   1.000  C
  C729     1.0000 0.72928  0.78976  0.55678  Biso   1.000  C
  C730     1.0000 0.49430  0.29088  0.26270  Biso   1.000  C
  C731     1.0000 0.70477  0.95624  0.74348  Biso   1.000  C
  C732     1.0000 0.21405  0.78637  0.01877  Biso   1.000  C
  C733     1.0000 0.48053  0.16354  0.76213  Biso   1.000  C
  C734     1.0000 0.70674  0.45341  0.23978  Biso   1.000  C
  C735     1.0000 0.21350  0.67256  0.55010  Biso   1.000  C
  C736     1.0000 0.94451  0.19238  0.84602  Biso   1.000  C
  C737     1.0000 0.24134  0.46061  0.37339  Biso   1.000  C
  C738     1.0000 0.71901  0.66216  0.02459  Biso   1.000  C
  C739     1.0000 0.99170  0.66954  0.75677  Biso   1.000  C
  C740     1.0000 0.78144  0.98310  0.24108  Biso   1.000  C
  C741     1.0000 0.26177  0.16696  0.52663  Biso   1.000  C
  C742     1.0000 0.50823  0.66016  0.80409  Biso   1.000  C
  C743     1.0000 0.28436  0.96474  0.34035  Biso   1.000  C
  C744     1.0000 0.79889  0.19510  0.06835  Biso   1.000  C
  C745     1.0000 0.00187  0.69729  0.34439  Biso   1.000  C
  C746     1.0000 0.25200  0.95932  0.72438  Biso   1.000  C
  C747     1.0000 0.71332  0.28290  0.06931  Biso   1.000  C
  C748     1.0000 0.52726  0.70190  0.22612  Biso   1.000  C
  C749     1.0000 0.76070  0.96525  0.85826  Biso   1.000  C
  C750     1.0000 0.21041  0.27672  0.57974  Biso   1.000  C
  C751     1.0000 0.51775  0.17315  0.31560  Biso   1.000  C
  C752     1.0000 0.18990  0.46944  0.75810  Biso   1.000  C
  C753     1.0000 0.77206  0.78423  0.00119  Biso   1.000  C
  C754     1.0000 0.02060  0.17147  0.26094  Biso   1.000  C
  C755     1.0000 0.66274  0.49314  0.79822  Biso   1.000  C
  C756     1.0000 0.27790  0.78117  0.50848  Biso   1.000  C
  C757     1.0000 0.94805  0.25396  0.73050  Biso   1.000  C
  C758     1.0000 0.69708  0.00268  0.32958  Biso   1.000  C
  C759     1.0000 0.27356  0.67461  0.06053  Biso   1.000  C
  C760     1.0000 0.51849  0.28155  0.81504  Biso   1.000  C
  C761     1.0000 0.22390  0.99603  0.22616  Biso   1.000  C
  C762     1.0000 0.80186  0.70068  0.51342  Biso   1.000  C
  C763     1.0000 0.48344  0.77543  0.75647  Biso   1.000  C
  C764     1.0000 0.79303  0.48633  0.31832  Biso   1.000  C
  C765     1.0000 0.21763  0.17441  0.04404  Biso   1.000  C
  C766     1.0000 0.96235  0.78302  0.81223  Biso   1.000  C
  C767     1.0000 0.33018  0.49306  0.28586  Biso   1.000  C
  C768     1.0000 0.67799  0.20780  0.54423  Biso   1.000  C
  C769     1.0000 0.48974  0.69269  0.84108  Biso   1.000  C
  C770     1.0000 0.77452  0.46418  0.73797  Biso   1.000  C
  C771     1.0000 0.69482  0.76306  0.52669  Biso   1.000  C
  C772     1.0000 0.96657  0.70194  0.72031  Biso   1.000  C
  C773     1.0000 0.24123  0.48150  0.87676  Biso   1.000  C
  C774     1.0000 0.18338  0.75670  0.04956  Biso   1.000  C
  C775     1.0000 0.98220  0.16974  0.81332  Biso   1.000  C
  C776     1.0000 0.67395  0.99087  0.77294  Biso   1.000  C
  C777     1.0000 0.79370  0.25295  0.53301  Biso   1.000  C
  C778     1.0000 0.51223  0.19145  0.72907  Biso   1.000  C
  C779     1.0000 0.17338  0.93944  0.81488  Biso   1.000  C
  C780     1.0000 0.30196  0.25945  0.04786  Biso   1.000  C
  C781     1.0000 0.51722  0.25911  0.22592  Biso   1.000  C
  C782     1.0000 0.21324  0.49723  0.34672  Biso   1.000  C
  C783     1.0000 0.29595  0.19289  0.55965  Biso   1.000  C
  C784     1.0000 0.02201  0.25232  0.35323  Biso   1.000  C
  C785     1.0000 0.73603  0.48147  0.20505  Biso   1.000  C
  C786     1.0000 0.76524  0.16459  0.03967  Biso   1.000  C
  C787     1.0000 0.01346  0.78541  0.25733  Biso   1.000  C
  C788     1.0000 0.31384  0.99704  0.30950  Biso   1.000  C
  C789     1.0000 0.19614  0.68769  0.50093  Biso   1.000  C
  C790     1.0000 0.49872  0.75493  0.34642  Biso   1.000  C
  C791     1.0000 0.81937  0.99996  0.27596  Biso   1.000  C
  C792     1.0000 0.68750  0.69180  0.99418  Biso   1.000  C
  C793     1.0000 0.47593  0.19764  0.33768  Biso   1.000  C
  C794     1.0000 0.29100  0.46503  0.25834  Biso   1.000  C
  C795     1.0000 0.18685  0.26161  0.53261  Biso   1.000  C
  C796     1.0000 0.98063  0.19942  0.23539  Biso   1.000  C
  C797     1.0000 0.82661  0.45744  0.28764  Biso   1.000  C
  C798     1.0000 0.67841  0.24667  0.05050  Biso   1.000  C
  C799     1.0000 0.98159  0.66560  0.30615  Biso   1.000  C
  C800     1.0000 0.19848  0.95502  0.25125  Biso   1.000  C
  C801     1.0000 0.30943  0.75106  0.54043  Biso   1.000  C
  C802     1.0000 0.48993  0.67437  0.25208  Biso   1.000  C
  C803     1.0000 0.73071  0.96982  0.35702  Biso   1.000  C
  C804     1.0000 0.79714  0.75546  0.04100  Biso   1.000  C
  C805     1.0000 0.53273  0.76161  0.73783  Biso   1.000  C
  C806     1.0000 0.68258  0.44697  0.81463  Biso   1.000  C
  C807     1.0000 0.76947  0.66669  0.54367  Biso   1.000  C
  C808     1.0000 0.00241  0.75874  0.83663  Biso   1.000  C
  C809     1.0000 0.15811  0.50345  0.78509  Biso   1.000  C
  C810     1.0000 0.29930  0.69973  0.02121  Biso   1.000  C
  C811     1.0000 0.96950  0.28621  0.77058  Biso   1.000  C
  C812     1.0000 0.79350  0.99045  0.82388  Biso   1.000  C
  C813     1.0000 0.70612  0.17970  0.58262  Biso   1.000  C
  C814     1.0000 0.48368  0.25178  0.84480  Biso   1.000  C
  C815     1.0000 0.28702  0.93149  0.75477  Biso   1.000  C
  C816     1.0000 0.18513  0.20449  0.01321  Biso   1.000  C
  C817     1.0000 0.94152  0.21453  0.82531  Biso   1.000  C
  C818     1.0000 0.76101  0.98548  0.26292  Biso   1.000  C
  C819     1.0000 0.23632  0.76503  0.02141  Biso   1.000  C
  C820     1.0000 0.48432  0.18397  0.78336  Biso   1.000  C
  C821     1.0000 0.26293  0.96516  0.31779  Biso   1.000  C
  C822     1.0000 0.74826  0.76616  0.55419  Biso   1.000  C
  C823     1.0000 0.51365  0.68244  0.78520  Biso   1.000  C
  C824     1.0000 0.72932  0.45566  0.25946  Biso   1.000  C
  C825     1.0000 0.25156  0.26855  0.01123  Biso   1.000  C
  C826     1.0000 0.98970  0.69180  0.77615  Biso   1.000  C
  C827     1.0000 0.26491  0.46457  0.35341  Biso   1.000  C
  C828     1.0000 0.74311  0.27278  0.56525  Biso   1.000  C
  C829     1.0000 0.98284  0.73530  0.24600  Biso   1.000  C
  C830     1.0000 0.22603  0.97247  0.81305  Biso   1.000  C
  C831     1.0000 0.77685  0.21542  0.07322  Biso   1.000  C
  C832     1.0000 0.52622  0.76573  0.29186  Biso   1.000  C
  C833     1.0000 0.72566  0.95491  0.76459  Biso   1.000  C
  C834     1.0000 0.24177  0.18676  0.53373  Biso   1.000  C
  C835     1.0000 0.49080  0.26735  0.28111  Biso   1.000  C
  C836     1.0000 0.25239  0.50488  0.82172  Biso   1.000  C
  C837     1.0000 0.73788  0.68550  0.02675  Biso   1.000  C
  C838     1.0000 0.99257  0.26386  0.29871  Biso   1.000  C
  C839     1.0000 0.71914  0.48568  0.72550  Biso   1.000  C
  C840     1.0000 0.23625  0.69291  0.54829  Biso   1.000  C
  C841     1.0000 0.19582  0.93249  0.79627  Biso   1.000  C
  C842     1.0000 0.74441  0.18512  0.04507  Biso   1.000  C
  C843     1.0000 0.01168  0.76373  0.27816  Biso   1.000  C
  C844     1.0000 0.69678  0.98955  0.79522  Biso   1.000  C
  C845     1.0000 0.27647  0.21321  0.56527  Biso   1.000  C
  C846     1.0000 0.49876  0.73452  0.32451  Biso   1.000  C
  C847     1.0000 0.21974  0.48295  0.85470  Biso   1.000  C
  C848     1.0000 0.70679  0.71552  0.99846  Biso   1.000  C
  C849     1.0000 0.51189  0.23628  0.24593  Biso   1.000  C
  C850     1.0000 0.75235  0.46056  0.75750  Biso   1.000  C
  C851     1.0000 0.21635  0.71090  0.50313  Biso   1.000  C
  C852     1.0000 0.01997  0.23258  0.33141  Biso   1.000  C
  C853     1.0000 0.79855  0.99982  0.29768  Biso   1.000  C
  C854     1.0000 0.20483  0.73587  0.05240  Biso   1.000  C
  C855     1.0000 0.97684  0.19152  0.79311  Biso   1.000  C
  C856     1.0000 0.29341  0.99523  0.28855  Biso   1.000  C
  C857     1.0000 0.71375  0.74047  0.52516  Biso   1.000  C
  C858     1.0000 0.51253  0.21256  0.74890  Biso   1.000  C
  C859     1.0000 0.75847  0.48224  0.22472  Biso   1.000  C
  C860     1.0000 0.28062  0.23765  0.04418  Biso   1.000  C
  C861     1.0000 0.49509  0.71493  0.82177  Biso   1.000  C
  C862     1.0000 0.23437  0.49830  0.32606  Biso   1.000  C
  C863     1.0000 0.77228  0.23299  0.54374  Biso   1.000  C
  C864     1.0000 0.96954  0.72485  0.74023  Biso   1.000  C
  C865     1.0000 0.68245  0.49219  0.77347  Biso   1.000  C
  C866     1.0000 0.78403  0.72372  0.52198  Biso   1.000  C
  C867     1.0000 0.48518  0.75280  0.77540  Biso   1.000  C
  C868     1.0000 0.20942  0.46981  0.78127  Biso   1.000  C
  C869     1.0000 0.25197  0.69572  0.05921  Biso   1.000  C
  C870     1.0000 0.96325  0.76228  0.78909  Biso   1.000  C
  C871     1.0000 0.73981  0.96512  0.83474  Biso   1.000  C
  C872     1.0000 0.69795  0.23128  0.54682  Biso   1.000  C
  C873     1.0000 0.94496  0.23147  0.75136  Biso   1.000  C
  C874     1.0000 0.23062  0.95590  0.74592  Biso   1.000  C
  C875     1.0000 0.23946  0.19469  0.04341  Biso   1.000  C
  C876     1.0000 0.51759  0.26080  0.79374  Biso   1.000  C
  C877     1.0000 0.31065  0.49501  0.30950  Biso   1.000  C
  C878     1.0000 0.22879  0.25240  0.57844  Biso   1.000  C
  C879     1.0000 0.51739  0.19471  0.29457  Biso   1.000  C
  C880     1.0000 0.77480  0.48986  0.29530  Biso   1.000  C
  C881     1.0000 0.73406  0.26254  0.07113  Biso   1.000  C
  C882     1.0000 0.02174  0.19273  0.28077  Biso   1.000  C
  C883     1.0000 0.24654  0.99790  0.24714  Biso   1.000  C
  C884     1.0000 0.25679  0.75978  0.50971  Biso   1.000  C
  C885     1.0000 0.00218  0.72077  0.32539  Biso   1.000  C
  C886     1.0000 0.71998  0.00679  0.30928  Biso   1.000  C
  C887     1.0000 0.75314  0.76025  0.00010  Biso   1.000  C
  C888     1.0000 0.52777  0.72248  0.24814  Biso   1.000  C
  C889     1.0000 0.75104  0.97294  0.33554  Biso   1.000  C
  C890     1.0000 0.27710  0.71942  0.02048  Biso   1.000  C
  C891     1.0000 0.96486  0.26371  0.79001  Biso   1.000  C
  C892     1.0000 0.22320  0.95557  0.26957  Biso   1.000  C
  C893     1.0000 0.75242  0.69082  0.54966  Biso   1.000  C
  C894     1.0000 0.48244  0.23327  0.82245  Biso   1.000  C
  C895     1.0000 0.80487  0.45659  0.26666  Biso   1.000  C
  C896     1.0000 0.20746  0.22579  0.01227  Biso   1.000  C
  C897     1.0000 0.53288  0.74030  0.75789  Biso   1.000  C
  C898     1.0000 0.27214  0.46839  0.28199  Biso   1.000  C
  C899     1.0000 0.72702  0.20053  0.58081  Biso   1.000  C
  C900     1.0000 0.00177  0.73718  0.81389  Biso   1.000  C
  C901     1.0000 0.26639  0.93153  0.77656  Biso   1.000  C
  C902     1.0000 0.69999  0.22692  0.05333  Biso   1.000  C
  C903     1.0000 0.98362  0.68779  0.28627  Biso   1.000  C
  C904     1.0000 0.77191  0.98982  0.80284  Biso   1.000  C
  C905     1.0000 0.20607  0.23867  0.53220  Biso   1.000  C
  C906     1.0000 0.49154  0.69527  0.27362  Biso   1.000  C
  C907     1.0000 0.17820  0.50314  0.80749  Biso   1.000  C
  C908     1.0000 0.77566  0.73377  0.03945  Biso   1.000  C
  C909     1.0000 0.47753  0.21874  0.31529  Biso   1.000  C
  C910     1.0000 0.70062  0.44612  0.79052  Biso   1.000  C
  C911     1.0000 0.28928  0.72821  0.54001  Biso   1.000  C
  C912     1.0000 0.98453  0.22043  0.25656  Biso   1.000  C
  C913     1.0000 0.72466  0.47155  0.75109  Biso   1.000  C
  C914     1.0000 0.73925  0.74087  0.54042  Biso   1.000  C
  C915     1.0000 0.50817  0.71003  0.79496  Biso   1.000  C
  C916     1.0000 0.22650  0.49028  0.82642  Biso   1.000  C
  C917     1.0000 0.23126  0.74088  0.03823  Biso   1.000  C
  C918     1.0000 0.97830  0.71808  0.76821  Biso   1.000  C
  C919     1.0000 0.72179  0.97328  0.78785  Biso   1.000  C
  C920     1.0000 0.74826  0.24398  0.55880  Biso   1.000  C
  C921     1.0000 0.95650  0.21297  0.79913  Biso   1.000  C
  C922     1.0000 0.22120  0.94868  0.79519  Biso   1.000  C
  C923     1.0000 0.25613  0.24210  0.02802  Biso   1.000  C
  C924     1.0000 0.50031  0.20997  0.77683  Biso   1.000  C
  C925     1.0000 0.26157  0.48516  0.33112  Biso   1.000  C
  C926     1.0000 0.24830  0.20977  0.55218  Biso   1.000  C
  C927     1.0000 0.50114  0.24097  0.27319  Biso   1.000  C
  C928     1.0000 0.75484  0.46892  0.25011  Biso   1.000  C
  C929     1.0000 0.75035  0.21126  0.05954  Biso   1.000  C
  C930     1.0000 0.00498  0.23703  0.30416  Biso   1.000  C
  C931     1.0000 0.26845  0.97848  0.29158  Biso   1.000  C
  C932     1.0000 0.23680  0.71304  0.52637  Biso   1.000  C
  C933     1.0000 0.99604  0.73813  0.27372  Biso   1.000  C
  C934     1.0000 0.76916  0.99317  0.29075  Biso   1.000  C
  C935     1.0000 0.73255  0.71063  0.01325  Biso   1.000  C
  C936     1.0000 0.51268  0.73929  0.29832  Biso   1.000  C
  C937     1.0000 0.72884  0.23403  0.06148  Biso   1.000  C
  C938     1.0000 0.99315  0.71581  0.29714  Biso   1.000  C
  C939     1.0000 0.23941  0.94241  0.77094  Biso   1.000  C
  C940     1.0000 0.22611  0.23406  0.55477  Biso   1.000  C
  C941     1.0000 0.51059  0.71975  0.27262  Biso   1.000  C
  C942     1.0000 0.74533  0.97614  0.80836  Biso   1.000  C
  C943     1.0000 0.75400  0.73638  0.01976  Biso   1.000  C
  C944     1.0000 0.49820  0.21735  0.29343  Biso   1.000  C
  C945     1.0000 0.20334  0.48540  0.80544  Biso   1.000  C
  C946     1.0000 0.26247  0.73281  0.52528  Biso   1.000  C
  C947     1.0000 0.00384  0.21646  0.28049  Biso   1.000  C
  C948     1.0000 0.70152  0.46904  0.77140  Biso   1.000  C
  C949     1.0000 0.25447  0.71874  0.04040  Biso   1.000  C
  C950     1.0000 0.95324  0.23804  0.77988  Biso   1.000  C
  C951     1.0000 0.74692  0.99392  0.31314  Biso   1.000  C
  C952     1.0000 0.76051  0.71759  0.53918  Biso   1.000  C
  C953     1.0000 0.50057  0.23611  0.79649  Biso   1.000  C
  C954     1.0000 0.24486  0.97685  0.26921  Biso   1.000  C
  C955     1.0000 0.23378  0.22012  0.02711  Biso   1.000  C
  C956     1.0000 0.50894  0.73518  0.77528  Biso   1.000  C
  C957     1.0000 0.77803  0.47005  0.27080  Biso   1.000  C
  C958     1.0000 0.72268  0.22493  0.56418  Biso   1.000  C
  C959     1.0000 0.98280  0.74042  0.79050  Biso   1.000  C
  C960     1.0000 0.28162  0.48537  0.30688  Biso   1.000  C
  Cu1      1.0000 0.97253  0.47612  0.69200  Biso   1.000  Cu
  Cu2      1.0000 0.65360  0.98463  0.54868  Biso   1.000  Cu
  Cu3      1.0000 0.49524  0.62920  0.03121  Biso   1.000  Cu
  Cu4      1.0000 0.47077  0.47406  0.88704  Biso   1.000  Cu
  Cu5      1.0000 0.14530  0.98228  0.03318  Biso   1.000  Cu
  Cu6      1.0000 0.99417  0.62403  0.53067  Biso   1.000  Cu
  Cu7      1.0000 0.47981  0.97235  0.69330  Biso   1.000  Cu
  Cu8      1.0000 0.83070  0.47671  0.51559  Biso   1.000  Cu
  Cu9      1.0000 0.99185  0.13320  0.03818  Biso   1.000  Cu
  Cu10     1.0000 0.98706  0.97657  0.88606  Biso   1.000  Cu
  Cu11     1.0000 0.34336  0.48047  0.05877  Biso   1.000  Cu
  Cu12     1.0000 0.48308  0.13330  0.53561  Biso   1.000  Cu
  Cu13     1.0000 0.00878  0.47627  0.38671  Biso   1.000  Cu
  Cu14     1.0000 0.33796  0.97529  0.53780  Biso   1.000  Cu
  Cu15     1.0000 0.49515  0.32466  0.04014  Biso   1.000  Cu
  Cu16     1.0000 0.50975  0.47889  0.19011  Biso   1.000  Cu
  Cu17     1.0000 0.84129  0.97528  0.04888  Biso   1.000  Cu
  Cu18     1.0000 0.98738  0.32481  0.54478  Biso   1.000  Cu
  Cu19     1.0000 0.50444  0.97749  0.38716  Biso   1.000  Cu
  Cu20     1.0000 0.14605  0.47748  0.55868  Biso   1.000  Cu
  Cu21     1.0000 0.98856  0.82367  0.03348  Biso   1.000  Cu
  Cu22     1.0000 0.00356  0.98132  0.19516  Biso   1.000  Cu
  Cu23     1.0000 0.65154  0.46856  0.01553  Biso   1.000  Cu
  Cu24     1.0000 0.50404  0.82339  0.53991  Biso   1.000  Cu
  Cu25     1.0000 0.20033  0.98217  0.03112  Biso   1.000  Cu
  Cu26     1.0000 0.98978  0.18652  0.03903  Biso   1.000  Cu
  Cu27     1.0000 0.00719  0.98086  0.24893  Biso   1.000  Cu
  Cu28     1.0000 0.70803  0.98777  0.55078  Biso   1.000  Cu
  Cu29     1.0000 0.48496  0.18723  0.53859  Biso   1.000  Cu
  Cu30     1.0000 0.50572  0.97731  0.33388  Biso   1.000  Cu
  Cu31     1.0000 0.28712  0.48040  0.06689  Biso   1.000  Cu
  Cu32     1.0000 0.49817  0.68147  0.02924  Biso   1.000  Cu
  Cu33     1.0000 0.51853  0.48269  0.24560  Biso   1.000  Cu
  Cu34     1.0000 0.77663  0.47690  0.50619  Biso   1.000  Cu
  Cu35     1.0000 0.99070  0.67912  0.53167  Biso   1.000  Cu
  Cu36     1.0000 0.02047  0.47478  0.33556  Biso   1.000  Cu
  Cu37     1.0000 0.78854  0.97570  0.05187  Biso   1.000  Cu
  Cu38     1.0000 0.99164  0.77159  0.03581  Biso   1.000  Cu
  Cu39     1.0000 0.98343  0.97721  0.83319  Biso   1.000  Cu
  Cu40     1.0000 0.28447  0.97176  0.53524  Biso   1.000  Cu
  Cu41     1.0000 0.50594  0.76992  0.54034  Biso   1.000  Cu
  Cu42     1.0000 0.48114  0.97024  0.74673  Biso   1.000  Cu
  Cu43     1.0000 0.70437  0.46704  0.01265  Biso   1.000  Cu
  Cu44     1.0000 0.49128  0.27077  0.04197  Biso   1.000  Cu
  Cu45     1.0000 0.46211  0.47095  0.83339  Biso   1.000  Cu
  Cu46     1.0000 0.19753  0.47832  0.56797  Biso   1.000  Cu
  Cu47     1.0000 0.98923  0.27213  0.54438  Biso   1.000  Cu
  Cu48     1.0000 0.96229  0.48027  0.74557  Biso   1.000  Cu
  H1       1.0000 0.23645  0.76440  0.49797  Biso   1.000  H
  H2       1.0000 0.52984  0.26443  0.77484  Biso   1.000  H
  H3       1.0000 0.75602  0.50111  0.29672  Biso   1.000  H
  H4       1.0000 0.73425  0.76108  0.98576  Biso   1.000  H
  H5       1.0000 0.93900  0.21014  0.74419  Biso   1.000  H
  H6       1.0000 0.31868  0.50736  0.32830  Biso   1.000  H
  H7       1.0000 0.24468  0.25106  0.59604  Biso   1.000  H
  H8       1.0000 0.94899  0.76511  0.76986  Biso   1.000  H
  H9       1.0000 0.71584  0.02060  0.29156  Biso   1.000  H
  H10      1.0000 0.75702  0.26909  0.07932  Biso   1.000  H
  H11      1.0000 0.46767  0.74722  0.78982  Biso   1.000  H
  H12      1.0000 0.26318  0.01472  0.24435  Biso   1.000  H
  H13      1.0000 0.69745  0.25062  0.53277  Biso   1.000  H
  H14      1.0000 0.54312  0.73993  0.24356  Biso   1.000  H
  H15      1.0000 0.23088  0.46082  0.77881  Biso   1.000  H
  H16      1.0000 0.25844  0.18961  0.05668  Biso   1.000  H
  H17      1.0000 0.01036  0.74276  0.33008  Biso   1.000  H
  H18      1.0000 0.68096  0.50805  0.75781  Biso   1.000  H
  H19      1.0000 0.78663  0.74386  0.51160  Biso   1.000  H
  H20      1.0000 0.03916  0.19298  0.29792  Biso   1.000  H
  H21      1.0000 0.20727  0.96249  0.74072  Biso   1.000  H
  H22      1.0000 0.23527  0.69274  0.07624  Biso   1.000  H
  H23      1.0000 0.53222  0.19385  0.27620  Biso   1.000  H
  H24      1.0000 0.71923  0.95473  0.83903  Biso   1.000  H
  H25      1.0000 0.24635  0.98379  0.81273  Biso   1.000  H
  H26      1.0000 0.78028  0.23367  0.08721  Biso   1.000  H
  H27      1.0000 0.97195  0.71568  0.24258  Biso   1.000  H
  H28      1.0000 0.74651  0.94351  0.76130  Biso   1.000  H
  H29      1.0000 0.22021  0.18203  0.52492  Biso   1.000  H
  H30      1.0000 0.53733  0.76863  0.27074  Biso   1.000  H
  H31      1.0000 0.25202  0.51790  0.80220  Biso   1.000  H
  H32      1.0000 0.75919  0.68231  0.03911  Biso   1.000  H
  H33      1.0000 0.48130  0.27093  0.30159  Biso   1.000  H
  H34      1.0000 0.69828  0.49417  0.72217  Biso   1.000  H
  H35      1.0000 0.25039  0.69398  0.56652  Biso   1.000  H
  H36      1.0000 0.97998  0.26949  0.27970  Biso   1.000  H
  H37      1.0000 0.73820  0.98078  0.25714  Biso   1.000  H
  H38      1.0000 0.25443  0.76750  0.00679  Biso   1.000  H
  H39      1.0000 0.93107  0.23450  0.83161  Biso   1.000  H
  H40      1.0000 0.24305  0.95315  0.32115  Biso   1.000  H
  H41      1.0000 0.76890  0.76824  0.56608  Biso   1.000  H
  H42      1.0000 0.47594  0.17895  0.80566  Biso   1.000  H
  H43      1.0000 0.72847  0.44560  0.28177  Biso   1.000  H
  H44      1.0000 0.23103  0.27375  0.99999  Biso   1.000  H
  H45      1.0000 0.52285  0.67713  0.76406  Biso   1.000  H
  H46      1.0000 0.28510  0.45443  0.35944  Biso   1.000  H
  H47      1.0000 0.72672  0.28117  0.57894  Biso   1.000  H
  H48      1.0000 0.99513  0.68878  0.79921  Biso   1.000  H
  H49      1.0000 0.22961  0.51190  0.30739  Biso   1.000  H
  H50      1.0000 0.28297  0.23192  0.57887  Biso   1.000  H
  H51      1.0000 0.51689  0.21334  0.23970  Biso   1.000  H
  H52      1.0000 0.77910  0.49265  0.22107  Biso   1.000  H
  H53      1.0000 0.72345  0.18072  0.03601  Biso   1.000  H
  H54      1.0000 0.03000  0.21149  0.33617  Biso   1.000  H
  H55      1.0000 0.29797  0.00547  0.26864  Biso   1.000  H
  H56      1.0000 0.21811  0.72379  0.48290  Biso   1.000  H
  H57      1.0000 0.02420  0.76453  0.29893  Biso   1.000  H
  H58      1.0000 0.80342  0.00984  0.31841  Biso   1.000  H
  H59      1.0000 0.70310  0.73615  0.99015  Biso   1.000  H
  H60      1.0000 0.48901  0.71264  0.32749  Biso   1.000  H
  H61      1.0000 0.75844  0.45021  0.77797  Biso   1.000  H
  H62      1.0000 0.70777  0.72108  0.51507  Biso   1.000  H
  H63      1.0000 0.48983  0.73657  0.83092  Biso   1.000  H
  H64      1.0000 0.19758  0.47609  0.85988  Biso   1.000  H
  H65      1.0000 0.20362  0.71680  0.06665  Biso   1.000  H
  H66      1.0000 0.96229  0.74531  0.73182  Biso   1.000  H
  H67      1.0000 0.69676  0.00130  0.81536  Biso   1.000  H
  H68      1.0000 0.77442  0.21108  0.53931  Biso   1.000  H
  H69      1.0000 0.98900  0.19380  0.77316  Biso   1.000  H
  H70      1.0000 0.19389  0.91209  0.78421  Biso   1.000  H
  H71      1.0000 0.28569  0.21714  0.05475  Biso   1.000  H
  H72      1.0000 0.52460  0.23226  0.74378  Biso   1.000  H
  H73      1.0000 0.71260  0.42600  0.78865  Biso   1.000  H
  H74      1.0000 0.73328  0.68795  0.56451  Biso   1.000  H
  H75      1.0000 0.55147  0.72422  0.75706  Biso   1.000  H
  H76      1.0000 0.17130  0.51444  0.82801  Biso   1.000  H
  H77      1.0000 0.27969  0.73475  0.00204  Biso   1.000  H
  H78      1.0000 0.01376  0.71682  0.81691  Biso   1.000  H
  H79      1.0000 0.77681  0.99707  0.78075  Biso   1.000  H
  H80      1.0000 0.74647  0.19692  0.59565  Biso   1.000  H
  H81      1.0000 0.97294  0.26776  0.81223  Biso   1.000  H
  H82      1.0000 0.27305  0.92508  0.79758  Biso   1.000  H
  H83      1.0000 0.20388  0.24532  0.00073  Biso   1.000  H
  H84      1.0000 0.46787  0.21539  0.82423  Biso   1.000  H
  H85      1.0000 0.25153  0.45834  0.28535  Biso   1.000  H
  H86      1.0000 0.20198  0.22517  0.51358  Biso   1.000  H
  H87      1.0000 0.46161  0.23614  0.31108  Biso   1.000  H
  H88      1.0000 0.80901  0.44331  0.24785  Biso   1.000  H
  H89      1.0000 0.69373  0.20517  0.04774  Biso   1.000  H
  H90      1.0000 0.97002  0.23810  0.25431  Biso   1.000  H
  H91      1.0000 0.22648  0.93847  0.28621  Biso   1.000  H
  H92      1.0000 0.29225  0.70737  0.55064  Biso   1.000  H
  H93      1.0000 0.97668  0.68151  0.26421  Biso   1.000  H
  H94      1.0000 0.77221  0.96043  0.34133  Biso   1.000  H
  H95      1.0000 0.77775  0.71563  0.05627  Biso   1.000  H
  H96      1.0000 0.47901  0.69041  0.29297  Biso   1.000  H
  H97      1.0000 0.85538  0.96707  0.95292  Biso   1.000  H
  H98      1.0000 0.90172  0.84182  0.03545  Biso   1.000  H
  H99      1.0000 0.99244  0.88552  0.90287  Biso   1.000  H
  H100     1.0000 0.35406  0.96322  0.63136  Biso   1.000  H
  H101     1.0000 0.40951  0.84485  0.53625  Biso   1.000  H
  H102     1.0000 0.48101  0.88150  0.67439  Biso   1.000  H
  H103     1.0000 0.62050  0.46652  0.93251  Biso   1.000  H
  H104     1.0000 0.57987  0.34270  0.04746  Biso   1.000  H
  H105     1.0000 0.48215  0.37948  0.91152  Biso   1.000  H
  H106     1.0000 0.11317  0.49099  0.64134  Biso   1.000  H
  H107     1.0000 0.08028  0.34118  0.55013  Biso   1.000  H
  H108     1.0000 0.97844  0.38444  0.67671  Biso   1.000  H
  H109     1.0000 0.12990  0.97081  0.12571  Biso   1.000  H
  H110     1.0000 0.08465  0.11223  0.03796  Biso   1.000  H
  H111     1.0000 0.00286  0.06800  0.17191  Biso   1.000  H
  H112     1.0000 0.63831  0.98751  0.45916  Biso   1.000  H
  H113     1.0000 0.58118  0.11358  0.53710  Biso   1.000  H
  H114     1.0000 0.49411  0.06772  0.40194  Biso   1.000  H
  H115     1.0000 0.37574  0.48915  0.15245  Biso   1.000  H
  H116     1.0000 0.40537  0.61756  0.05314  Biso   1.000  H
  H117     1.0000 0.50695  0.57115  0.16648  Biso   1.000  H
  H118     1.0000 0.86857  0.47655  0.42769  Biso   1.000  H
  H119     1.0000 0.89741  0.60510  0.52588  Biso   1.000  H
  H120     1.0000 0.99657  0.56444  0.40015  Biso   1.000  H
  H121     1.0000 0.07809  0.99148  0.90174  Biso   1.000  H
  H122     1.0000 0.86221  0.06571  0.04280  Biso   1.000  H
  H123     1.0000 0.00179  0.85112  0.12638  Biso   1.000  H
  H124     1.0000 0.57620  0.97937  0.67720  Biso   1.000  H
  H125     1.0000 0.35336  0.06436  0.53610  Biso   1.000  H
  H126     1.0000 0.51248  0.84661  0.44701  Biso   1.000  H
  H127     1.0000 0.38099  0.47150  0.91871  Biso   1.000  H
  H128     1.0000 0.63260  0.55931  0.01915  Biso   1.000  H
  H129     1.0000 0.49676  0.34975  0.13048  Biso   1.000  H
  H130     1.0000 0.87917  0.47985  0.65290  Biso   1.000  H
  H131     1.0000 0.12683  0.57154  0.54601  Biso   1.000  H
  H132     1.0000 0.00108  0.34256  0.45666  Biso   1.000  H
  H133     1.0000 0.91260  0.98702  0.17979  Biso   1.000  H
  H134     1.0000 0.12812  0.89106  0.02859  Biso   1.000  H
  H135     1.0000 0.99189  0.11434  0.94919  Biso   1.000  H
  H136     1.0000 0.41126  0.97118  0.40519  Biso   1.000  H
  H137     1.0000 0.63394  0.89154  0.55055  Biso   1.000  H
  H138     1.0000 0.47824  0.10569  0.62878  Biso   1.000  H
  H139     1.0000 0.59972  0.48064  0.15747  Biso   1.000  H
  H140     1.0000 0.36234  0.38938  0.04541  Biso   1.000  H
  H141     1.0000 0.48316  0.60439  0.94153  Biso   1.000  H
  H142     1.0000 0.10395  0.47685  0.42133  Biso   1.000  H
  H143     1.0000 0.85513  0.38164  0.51335  Biso   1.000  H
  H144     1.0000 0.98211  0.61066  0.62145  Biso   1.000  H
  H145     1.0000 0.56598  0.47535  0.89719  Biso   1.000  H
  H146     1.0000 0.85312  0.56451  0.51891  Biso   1.000  H
  H147     1.0000 0.49359  0.84293  0.63189  Biso   1.000  H
  H148     1.0000 0.06172  0.48255  0.68466  Biso   1.000  H
  H149     1.0000 0.36146  0.56899  0.05283  Biso   1.000  H
  H150     1.0000 0.99295  0.84472  0.94403  Biso   1.000  H
  H151     1.0000 0.89470  0.96719  0.91234  Biso   1.000  H
  H152     1.0000 0.62479  0.07598  0.54808  Biso   1.000  H
  H153     1.0000 0.98255  0.34398  0.63473  Biso   1.000  H
  H154     1.0000 0.39029  0.97377  0.67322  Biso   1.000  H
  H155     1.0000 0.12830  0.07672  0.04552  Biso   1.000  H
  H156     1.0000 0.48888  0.33797  0.94844  Biso   1.000  H
  H157     1.0000 0.42035  0.48182  0.18815  Biso   1.000  H
  H158     1.0000 0.12622  0.38572  0.55226  Biso   1.000  H
  H159     1.0000 0.49815  0.11545  0.44335  Biso   1.000  H
  H160     1.0000 0.91658  0.47818  0.39464  Biso   1.000  H
  H161     1.0000 0.62999  0.38155  0.02793  Biso   1.000  H
  H162     1.0000 0.99930  0.11286  0.12796  Biso   1.000  H
  H163     1.0000 0.09015  0.97353  0.17042  Biso   1.000  H
  H164     1.0000 0.36615  0.88527  0.52743  Biso   1.000  H
  H165     1.0000 0.98611  0.60465  0.43965  Biso   1.000  H
  H166     1.0000 0.59207  0.98281  0.41361  Biso   1.000  H
  H167     1.0000 0.85793  0.88481  0.04558  Biso   1.000  H
  H168     1.0000 0.50483  0.61335  0.12437  Biso   1.000  H
  H169     1.0000 0.99022  0.06794  0.90397  Biso   1.000  H
  H170     1.0000 0.86569  0.98834  0.13687  Biso   1.000  H
  H171     1.0000 0.08061  0.84839  0.02776  Biso   1.000  H
  H172     1.0000 0.47700  0.06395  0.66822  Biso   1.000  H
  H173     1.0000 0.36702  0.98556  0.44594  Biso   1.000  H
  H174     1.0000 0.59741  0.85057  0.54551  Biso   1.000  H
  H175     1.0000 0.46529  0.56290  0.90040  Biso   1.000  H
  H176     1.0000 0.63935  0.47375  0.11107  Biso   1.000  H
  H177     1.0000 0.40095  0.35114  0.04246  Biso   1.000  H
  H178     1.0000 0.98339  0.56513  0.67064  Biso   1.000  H
  H179     1.0000 0.14142  0.47232  0.46893  Biso   1.000  H
  H180     1.0000 0.89670  0.34026  0.52579  Biso   1.000  H
  H181     1.0000 0.00733  0.89225  0.17303  Biso   1.000  H
  H182     1.0000 0.11976  0.98667  0.94315  Biso   1.000  H
  H183     1.0000 0.90074  0.10940  0.04657  Biso   1.000  H
  H184     1.0000 0.50491  0.88892  0.40505  Biso   1.000  H
  H185     1.0000 0.62811  0.97602  0.63436  Biso   1.000  H
  H186     1.0000 0.39376  0.11078  0.52342  Biso   1.000  H
  H187     1.0000 0.50933  0.39049  0.17099  Biso   1.000  H
  H188     1.0000 0.34663  0.46674  0.96458  Biso   1.000  H
  H189     1.0000 0.58737  0.60230  0.02614  Biso   1.000  H
  H190     1.0000 0.00661  0.38644  0.41011  Biso   1.000  H
  H191     1.0000 0.83863  0.48110  0.60512  Biso   1.000  H
  H192     1.0000 0.08760  0.60652  0.53189  Biso   1.000  H
  H193     1.0000 0.27278  0.82758  0.52706  Biso   1.000  H
  H194     1.0000 0.51259  0.24620  0.89261  Biso   1.000  H
  H195     1.0000 0.88133  0.46827  0.29139  Biso   1.000  H
  H196     1.0000 0.75687  0.83539  0.03223  Biso   1.000  H
  H197     1.0000 0.98076  0.24963  0.69147  Biso   1.000  H
  H198     1.0000 0.37454  0.46617  0.28986  Biso   1.000  H
  H199     1.0000 0.22046  0.33459  0.56771  Biso   1.000  H
  H200     1.0000 0.97902  0.74923  0.88855  Biso   1.000  H
  H201     1.0000 0.65218  0.97359  0.32310  Biso   1.000  H
  H202     1.0000 0.72081  0.32361  0.03213  Biso   1.000  H
  H203     1.0000 0.52477  0.74791  0.68107  Biso   1.000  H
  H204     1.0000 0.15284  0.96810  0.26361  Biso   1.000  H
  H205     1.0000 0.71400  0.13587  0.56515  Biso   1.000  H
  H206     1.0000 0.50072  0.71128  0.17460  Biso   1.000  H
  H207     1.0000 0.10733  0.47598  0.78529  Biso   1.000  H
  H208     1.0000 0.22420  0.12560  0.03008  Biso   1.000  H
  H209     1.0000 0.97117  0.70212  0.38758  Biso   1.000  H
  H210     1.0000 0.60657  0.46750  0.79266  Biso   1.000  H
  H211     1.0000 0.75921  0.62187  0.50991  Biso   1.000  H
  H212     1.0000 0.98884  0.20414  0.18669  Biso   1.000  H
  H213     1.0000 0.33789  0.95485  0.76782  Biso   1.000  H
  H214     1.0000 0.26519  0.62566  0.04579  Biso   1.000  H
  H215     1.0000 0.49186  0.20744  0.38502  Biso   1.000  H
  H216     1.0000 0.83956  0.96705  0.81546  Biso   1.000  H
  H217     1.0000 0.24175  0.47549  0.42512  Biso   1.000  H
  H218     1.0000 0.33551  0.20106  0.52924  Biso   1.000  H
  H219     1.0000 0.52542  0.33843  0.26723  Biso   1.000  H
  H220     1.0000 0.73884  0.45801  0.15729  Biso   1.000  H
  H221     1.0000 0.84781  0.20382  0.03747  Biso   1.000  H
  H222     1.0000 0.02678  0.33174  0.31679  Biso   1.000  H
  H223     1.0000 0.27126  0.98253  0.38910  Biso   1.000  H
  H224     1.0000 0.14049  0.70313  0.51048  Biso   1.000  H
  H225     1.0000 0.99072  0.83477  0.26853  Biso   1.000  H
  H226     1.0000 0.77386  0.00517  0.19779  Biso   1.000  H
  H227     1.0000 0.64607  0.69584  0.02589  Biso   1.000  H
  H228     1.0000 0.50455  0.83319  0.31026  Biso   1.000  H
  H229     1.0000 0.73908  0.46910  0.65440  Biso   1.000  H
  H230     1.0000 0.65070  0.75578  0.55244  Biso   1.000  H
  H231     1.0000 0.47780  0.61059  0.80133  Biso   1.000  H
  H232     1.0000 0.24516  0.49686  0.92702  Biso   1.000  H
  H233     1.0000 0.13644  0.75194  0.02613  Biso   1.000  H
  H234     1.0000 0.97184  0.62404  0.76158  Biso   1.000  H
  H235     1.0000 0.71534  0.99263  0.69614  Biso   1.000  H
  H236     1.0000 0.84217  0.24854  0.55069  Biso   1.000  H
  H237     1.0000 0.96766  0.11848  0.80972  Biso   1.000  H
  H238     1.0000 0.21654  0.97231  0.88793  Biso   1.000  H
  H239     1.0000 0.35185  0.25242  0.02088  Biso   1.000  H
  H240     1.0000 0.49837  0.11309  0.76707  Biso   1.000  H
  H241     1.0000 0.70498  0.46780  0.86257  Biso   1.000  H
  H242     1.0000 0.84870  0.70194  0.53195  Biso   1.000  H
  H243     1.0000 0.49976  0.83446  0.77130  Biso   1.000  H
  H244     1.0000 0.20060  0.49356  0.70957  Biso   1.000  H
  H245     1.0000 0.35287  0.70728  0.02686  Biso   1.000  H
  H246     1.0000 0.98281  0.83234  0.80494  Biso   1.000  H
  H247     1.0000 0.75671  0.98754  0.90832  Biso   1.000  H
  H248     1.0000 0.62276  0.21187  0.55951  Biso   1.000  H
  H249     1.0000 0.95112  0.33453  0.77428  Biso   1.000  H
  H250     1.0000 0.25515  0.94160  0.67361  Biso   1.000  H
  H251     1.0000 0.13710  0.21042  0.03002  Biso   1.000  H
  H252     1.0000 0.49607  0.33076  0.81080  Biso   1.000  H
  H253     1.0000 0.28190  0.48892  0.21076  Biso   1.000  H
  H254     1.0000 0.13295  0.24399  0.55355  Biso   1.000  H
  H255     1.0000 0.50586  0.12074  0.30589  Biso   1.000  H
  H256     1.0000 0.78055  0.46227  0.36024  Biso   1.000  H
  H257     1.0000 0.63311  0.25200  0.07816  Biso   1.000  H
  H258     1.0000 0.00031  0.12251  0.26813  Biso   1.000  H
  H259     1.0000 0.23116  0.98061  0.17021  Biso   1.000  H
  H260     1.0000 0.36061  0.74585  0.52425  Biso   1.000  H
  H261     1.0000 0.01053  0.61411  0.30269  Biso   1.000  H
  H262     1.0000 0.73422  0.97842  0.40614  Biso   1.000  H
  H263     1.0000 0.84295  0.75321  0.01207  Biso   1.000  H
  H264     1.0000 0.51199  0.62742  0.26544  Biso   1.000  H
  H265     1.0000 0.96973  0.20623  0.89581  Biso   1.000  H
  H266     1.0000 0.86853  0.98049  0.27770  Biso   1.000  H
  H267     1.0000 0.22211  0.83457  0.02790  Biso   1.000  H
  H268     1.0000 0.48905  0.20269  0.67997  Biso   1.000  H
  H269     1.0000 0.36147  0.97790  0.30880  Biso   1.000  H
  H270     1.0000 0.73664  0.84200  0.54400  Biso   1.000  H
  H271     1.0000 0.52030  0.69182  0.88482  Biso   1.000  H
  H272     1.0000 0.66316  0.48413  0.24991  Biso   1.000  H
  H273     1.0000 0.26495  0.33725  0.04664  Biso   1.000  H
  H274     1.0000 0.99585  0.70367  0.67620  Biso   1.000  H
  H275     1.0000 0.16724  0.47996  0.33248  Biso   1.000  H
  H276     1.0000 0.75726  0.32836  0.52281  Biso   1.000  H
  H277     1.0000 0.99684  0.75582  0.18013  Biso   1.000  H
  H278     1.0000 0.12181  0.96277  0.80723  Biso   1.000  H
  H279     1.0000 0.76337  0.11606  0.05762  Biso   1.000  H
  H280     1.0000 0.52639  0.74850  0.40080  Biso   1.000  H
  H281     1.0000 0.62553  0.96527  0.77442  Biso   1.000  H
  H282     1.0000 0.25437  0.11702  0.54724  Biso   1.000  H
  H283     1.0000 0.48138  0.25765  0.18813  Biso   1.000  H
  H284     1.0000 0.31818  0.49083  0.82987  Biso   1.000  H
  H285     1.0000 0.72443  0.61605  0.99806  Biso   1.000  H
  H286     1.0000 0.98932  0.24945  0.39762  Biso   1.000  H
  H287     1.0000 0.81928  0.49274  0.74483  Biso   1.000  H
  H288     1.0000 0.22389  0.62256  0.55089  Biso   1.000  H
  H289     1.0000 0.08205  0.20812  0.03158  Biso   1.000  H
  H290     1.0000 0.00525  0.06928  0.26932  Biso   1.000  H
  H291     1.0000 0.22484  0.98042  0.11496  Biso   1.000  H
  H292     1.0000 0.57279  0.20854  0.55153  Biso   1.000  H
  H293     1.0000 0.50883  0.06657  0.30680  Biso   1.000  H
  H294     1.0000 0.73641  0.98463  0.46127  Biso   1.000  H
  H295     1.0000 0.40733  0.70933  0.02375  Biso   1.000  H
  H296     1.0000 0.51264  0.56958  0.26271  Biso   1.000  H
  H297     1.0000 0.27882  0.48773  0.15567  Biso   1.000  H
  H298     1.0000 0.90571  0.69803  0.53315  Biso   1.000  H
  H299     1.0000 0.00792  0.56475  0.30437  Biso   1.000  H
  H300     1.0000 0.77217  0.46463  0.41216  Biso   1.000  H
  H301     1.0000 0.90024  0.74919  0.01706  Biso   1.000  H
  H302     1.0000 0.98523  0.89070  0.80656  Biso   1.000  H
  H303     1.0000 0.76222  0.98578  0.96070  Biso   1.000  H
  H304     1.0000 0.41543  0.74992  0.52602  Biso   1.000  H
  H305     1.0000 0.48490  0.88221  0.76940  Biso   1.000  H
  H306     1.0000 0.25982  0.94957  0.61922  Biso   1.000  H
  H307     1.0000 0.57754  0.25553  0.08035  Biso   1.000  H
  H308     1.0000 0.48523  0.38516  0.81462  Biso   1.000  H
  H309     1.0000 0.71501  0.47270  0.91504  Biso   1.000  H
  H310     1.0000 0.08097  0.24770  0.53670  Biso   1.000  H
  H311     1.0000 0.94890  0.38771  0.76903  Biso   1.000  H
  H312     1.0000 0.20602  0.49646  0.65805  Biso   1.000  H
  H313     1.0000 0.21670  0.98203  0.94498  Biso   1.000  H
  H314     1.0000 0.90038  0.20445  0.03224  Biso   1.000  H
  H315     1.0000 0.99809  0.89226  0.26580  Biso   1.000  H
  H316     1.0000 0.72033  0.99576  0.63976  Biso   1.000  H
  H317     1.0000 0.39197  0.20422  0.52312  Biso   1.000  H
  H318     1.0000 0.49886  0.88602  0.31057  Biso   1.000  H
  H319     1.0000 0.25456  0.49311  0.98014  Biso   1.000  H
  H320     1.0000 0.59025  0.69705  0.03337  Biso   1.000  H
  H321     1.0000 0.53425  0.39202  0.26338  Biso   1.000  H
  H322     1.0000 0.74349  0.47184  0.59974  Biso   1.000  H
  H323     1.0000 0.08217  0.70036  0.51290  Biso   1.000  H
  H324     1.0000 0.02565  0.38923  0.31694  Biso   1.000  H
  H325     1.0000 0.77304  0.00059  0.14184  Biso   1.000  H
  H326     1.0000 0.08266  0.75360  0.03510  Biso   1.000  H
  H327     1.0000 0.96983  0.06381  0.80945  Biso   1.000  H
  H328     1.0000 0.26905  0.98974  0.44175  Biso   1.000  H
  H329     1.0000 0.59593  0.75386  0.55162  Biso   1.000  H
  H330     1.0000 0.49879  0.06363  0.76481  Biso   1.000  H
  H331     1.0000 0.73170  0.45582  0.10148  Biso   1.000  H
  H332     1.0000 0.40477  0.25738  0.02134  Biso   1.000  H
  H333     1.0000 0.46015  0.56090  0.80295  Biso   1.000  H
  H334     1.0000 0.23447  0.47429  0.47955  Biso   1.000  H
  H335     1.0000 0.89305  0.24729  0.55116  Biso   1.000  H
  H336     1.0000 0.96602  0.57278  0.76434  Biso   1.000  H
  H337     1.0000 0.97530  0.20764  0.94505  Biso   1.000  H
  H338     1.0000 0.91961  0.97883  0.27345  Biso   1.000  H
  H339     1.0000 0.22268  0.89194  0.03103  Biso   1.000  H
  H340     1.0000 0.48683  0.20181  0.62835  Biso   1.000  H
  H341     1.0000 0.41639  0.97842  0.31022  Biso   1.000  H
  H342     1.0000 0.73411  0.89511  0.54954  Biso   1.000  H
  H343     1.0000 0.52610  0.69014  0.93654  Biso   1.000  H
  H344     1.0000 0.60830  0.49244  0.25231  Biso   1.000  H
  H345     1.0000 0.26698  0.38973  0.05130  Biso   1.000  H
  H346     1.0000 0.00201  0.70090  0.62069  Biso   1.000  H
  H347     1.0000 0.11166  0.48092  0.32619  Biso   1.000  H
  H348     1.0000 0.75685  0.38371  0.51063  Biso   1.000  H
  H349     1.0000 0.99755  0.75557  0.12562  Biso   1.000  H
  H350     1.0000 0.06912  0.96717  0.80983  Biso   1.000  H
  H351     1.0000 0.76724  0.06318  0.05698  Biso   1.000  H
  H352     1.0000 0.52553  0.75068  0.45125  Biso   1.000  H
  H353     1.0000 0.56883  0.96049  0.76940  Biso   1.000  H
  H354     1.0000 0.25832  0.06331  0.56051  Biso   1.000  H
  H355     1.0000 0.47582  0.25703  0.13291  Biso   1.000  H
  H356     1.0000 0.36916  0.48761  0.82335  Biso   1.000  H
  H357     1.0000 0.72727  0.55992  0.00244  Biso   1.000  H
  H358     1.0000 0.98007  0.25105  0.45184  Biso   1.000  H
  H359     1.0000 0.86829  0.49735  0.74477  Biso   1.000  H
  H360     1.0000 0.21985  0.57056  0.56390  Biso   1.000  H
  H361     1.0000 0.96811  0.69876  0.44377  Biso   1.000  H
  H362     1.0000 0.39069  0.96778  0.76867  Biso   1.000  H
  H363     1.0000 0.72435  0.37513  0.01747  Biso   1.000  H
  H364     1.0000 0.50083  0.70600  0.11977  Biso   1.000  H
  H365     1.0000 0.89339  0.96928  0.81460  Biso   1.000  H
  H366     1.0000 0.21855  0.38574  0.57142  Biso   1.000  H
  H367     1.0000 0.48777  0.20971  0.44102  Biso   1.000  H
  H368     1.0000 0.05394  0.46632  0.77883  Biso   1.000  H
  H369     1.0000 0.76343  0.88536  0.04504  Biso   1.000  H
  H370     1.0000 0.98658  0.20861  0.13155  Biso   1.000  H
  H371     1.0000 0.55005  0.47435  0.80141  Biso   1.000  H
  H372     1.0000 0.27125  0.88406  0.52236  Biso   1.000  H
  H373     1.0000 0.99088  0.24945  0.63852  Biso   1.000  H
  H374     1.0000 0.59926  0.97468  0.31843  Biso   1.000  H
  H375     1.0000 0.26593  0.57174  0.05711  Biso   1.000  H
  H376     1.0000 0.51084  0.24676  0.94794  Biso   1.000  H
  H377     1.0000 0.09779  0.96503  0.26548  Biso   1.000  H
  H378     1.0000 0.75665  0.56798  0.50809  Biso   1.000  H
  H379     1.0000 0.52588  0.75372  0.62475  Biso   1.000  H
  H380     1.0000 0.93176  0.46932  0.29976  Biso   1.000  H
  H381     1.0000 0.22240  0.07503  0.03240  Biso   1.000  H
  H382     1.0000 0.98426  0.74852  0.94092  Biso   1.000  H
  H383     1.0000 0.42972  0.46769  0.28262  Biso   1.000  H
  H384     1.0000 0.71995  0.08227  0.55846  Biso   1.000  H
  H385     1.0000 0.24258  0.44563  0.39053  Biso   1.000  H
  H386     1.0000 0.25508  0.14828  0.51388  Biso   1.000  H
  H387     1.0000 0.48602  0.31095  0.27384  Biso   1.000  H
  H388     1.0000 0.68863  0.43972  0.24651  Biso   1.000  H
  H389     1.0000 0.82006  0.20097  0.07779  Biso   1.000  H
  H390     1.0000 0.98152  0.30499  0.31613  Biso   1.000  H
  H391     1.0000 0.28331  0.95149  0.36016  Biso   1.000  H
  H392     1.0000 0.21165  0.65765  0.56870  Biso   1.000  H
  H393     1.0000 0.96524  0.75472  0.20735  Biso   1.000  H
  H394     1.0000 0.77057  0.97499  0.22226  Biso   1.000  H
  H395     1.0000 0.72301  0.64276  0.03528  Biso   1.000  H
  H396     1.0000 0.54062  0.80713  0.31130  Biso   1.000  H
  H397     1.0000 0.73576  0.50120  0.68569  Biso   1.000  H
  H398     1.0000 0.73432  0.80789  0.57051  Biso   1.000  H
  H399     1.0000 0.51159  0.63887  0.79388  Biso   1.000  H
  H400     1.0000 0.29270  0.52067  0.83815  Biso   1.000  H
  H401     1.0000 0.21966  0.80530  0.00470  Biso   1.000  H
  H402     1.0000 0.00223  0.65125  0.76555  Biso   1.000  H
  H403     1.0000 0.70846  0.94443  0.72354  Biso   1.000  H
  H404     1.0000 0.76459  0.31514  0.56383  Biso   1.000  H
  H405     1.0000 0.93027  0.19240  0.86531  Biso   1.000  H
  H406     1.0000 0.20677  0.99790  0.85016  Biso   1.000  H
  H407     1.0000 0.26892  0.31098  0.00197  Biso   1.000  H
  H408     1.0000 0.46525  0.14418  0.76644  Biso   1.000  H
  H409     1.0000 0.28405  0.45175  0.23840  Biso   1.000  H
  H410     1.0000 0.17369  0.26622  0.51540  Biso   1.000  H
  H411     1.0000 0.45928  0.20125  0.35616  Biso   1.000  H
  H412     1.0000 0.84598  0.44425  0.28249  Biso   1.000  H
  H413     1.0000 0.65887  0.24001  0.04108  Biso   1.000  H
  H414     1.0000 0.96519  0.20184  0.21888  Biso   1.000  H
  H415     1.0000 0.18040  0.93741  0.25098  Biso   1.000  H
  H416     1.0000 0.32836  0.74791  0.55427  Biso   1.000  H
  H417     1.0000 0.97530  0.64501  0.29831  Biso   1.000  H
  H418     1.0000 0.73307  0.95441  0.37339  Biso   1.000  H
  H419     1.0000 0.81477  0.75210  0.05486  Biso   1.000  H
  H420     1.0000 0.47693  0.65515  0.25288  Biso   1.000  H
  H421     1.0000 0.68353  0.43099  0.83163  Biso   1.000  H
  H422     1.0000 0.76374  0.64514  0.55259  Biso   1.000  H
  H423     1.0000 0.55030  0.76534  0.72358  Biso   1.000  H
  H424     1.0000 0.13895  0.51624  0.78664  Biso   1.000  H
  H425     1.0000 0.31780  0.70438  0.00626  Biso   1.000  H
  H426     1.0000 0.01641  0.75411  0.85360  Biso   1.000  H
  H427     1.0000 0.81511  0.00000  0.81736  Biso   1.000  H
  H428     1.0000 0.70703  0.16284  0.59901  Biso   1.000  H
  H429     1.0000 0.98321  0.30383  0.77842  Biso   1.000  H
  H430     1.0000 0.30623  0.92094  0.76049  Biso   1.000  H
  H431     1.0000 0.16451  0.20983  0.99969  Biso   1.000  H
  H432     1.0000 0.46907  0.24895  0.86244  Biso   1.000  H
  H433     1.0000 0.24769  0.96972  0.70355  Biso   1.000  H
  H434     1.0000 0.72052  0.30601  0.07527  Biso   1.000  H
  H435     1.0000 0.01391  0.70056  0.36543  Biso   1.000  H
  H436     1.0000 0.75601  0.95187  0.87660  Biso   1.000  H
  H437     1.0000 0.21109  0.29108  0.59821  Biso   1.000  H
  H438     1.0000 0.54407  0.70290  0.20713  Biso   1.000  H
  H439     1.0000 0.19200  0.45496  0.73939  Biso   1.000  H
  H440     1.0000 0.76821  0.80376  0.98840  Biso   1.000  H
  H441     1.0000 0.53577  0.15795  0.31472  Biso   1.000  H
  H442     1.0000 0.65114  0.51331  0.80242  Biso   1.000  H
  H443     1.0000 0.27756  0.80105  0.49590  Biso   1.000  H
  H444     1.0000 0.03571  0.15382  0.26097  Biso   1.000  H
  H445     1.0000 0.67527  0.01351  0.32605  Biso   1.000  H
  H446     1.0000 0.27046  0.65626  0.07482  Biso   1.000  H
  H447     1.0000 0.93816  0.25255  0.70989  Biso   1.000  H
  H448     1.0000 0.22558  0.01225  0.20714  Biso   1.000  H
  H449     1.0000 0.81801  0.70606  0.49639  Biso   1.000  H
  H450     1.0000 0.53179  0.29977  0.81025  Biso   1.000  H
  H451     1.0000 0.78657  0.49914  0.33797  Biso   1.000  H
  H452     1.0000 0.22416  0.15596  0.05696  Biso   1.000  H
  H453     1.0000 0.46422  0.78768  0.75749  Biso   1.000  H
  H454     1.0000 0.35099  0.50513  0.28859  Biso   1.000  H
  H455     1.0000 0.66312  0.20757  0.52609  Biso   1.000  H
  H456     1.0000 0.94632  0.79863  0.81178  Biso   1.000  H
  H457     1.0000 0.67389  0.75947  0.51625  Biso   1.000  H
  H458     1.0000 0.47620  0.69735  0.85973  Biso   1.000  H
  H459     1.0000 0.79430  0.45461  0.74708  Biso   1.000  H
  H460     1.0000 0.16320  0.75423  0.06095  Biso   1.000  H
  H461     1.0000 0.95811  0.70727  0.69831  Biso   1.000  H
  H462     1.0000 0.23555  0.46931  0.89550  Biso   1.000  H
  H463     1.0000 0.81027  0.24504  0.51912  Biso   1.000  H
  H464     1.0000 0.99531  0.15044  0.80877  Biso   1.000  H
  H465     1.0000 0.65458  0.00391  0.77831  Biso   1.000  H
  H466     1.0000 0.32175  0.25167  0.05981  Biso   1.000  H
  H467     1.0000 0.52471  0.19373  0.70753  Biso   1.000  H
  H468     1.0000 0.15443  0.92686  0.81334  Biso   1.000  H
  H469     1.0000 0.31754  0.19433  0.56971  Biso   1.000  H
  H470     1.0000 0.53087  0.25650  0.20575  Biso   1.000  H
  H471     1.0000 0.19442  0.51251  0.34296  Biso   1.000  H
  H472     1.0000 0.75938  0.14721  0.02444  Biso   1.000  H
  H473     1.0000 0.03652  0.24680  0.37278  Biso   1.000  H
  H474     1.0000 0.74177  0.49235  0.18581  Biso   1.000  H
  H475     1.0000 0.18124  0.68584  0.48251  Biso   1.000  H
  H476     1.0000 0.03020  0.80187  0.26236  Biso   1.000  H
  H477     1.0000 0.33263  0.01027  0.30888  Biso   1.000  H
  H478     1.0000 0.66856  0.69531  0.98088  Biso   1.000  H
  H479     1.0000 0.48719  0.74893  0.36661  Biso   1.000  H
  H480     1.0000 0.84055  0.00853  0.28146  Biso   1.000  H
  N1       1.0000 0.66168  0.16147  0.55946  Biso   1.000  N
  N2       1.0000 0.50734  0.65667  0.20957  Biso   1.000  N
  N3       1.0000 0.14436  0.48525  0.73751  Biso   1.000  N
  N4       1.0000 0.16961  0.15933  0.03265  Biso   1.000  N
  N5       1.0000 0.98910  0.65006  0.35518  Biso   1.000  N
  N6       1.0000 0.64494  0.46813  0.84060  Biso   1.000  N
  N7       1.0000 0.81406  0.65091  0.52332  Biso   1.000  N
  N8       1.0000 0.99800  0.15443  0.21566  Biso   1.000  N
  N9       1.0000 0.30443  0.95213  0.71197  Biso   1.000  N
  N10      1.0000 0.31915  0.65664  0.04268  Biso   1.000  N
  N11      1.0000 0.49587  0.15324  0.35654  Biso   1.000  N
  N12      1.0000 0.80857  0.97996  0.87061  Biso   1.000  N
  N13      1.0000 0.32455  0.79852  0.52674  Biso   1.000  N
  N14      1.0000 0.49960  0.29746  0.86248  Biso   1.000  N
  N15      1.0000 0.83775  0.46916  0.33793  Biso   1.000  N
  N16      1.0000 0.81344  0.80133  0.02648  Biso   1.000  N
  N17      1.0000 0.96531  0.30105  0.72038  Biso   1.000  N
  N18      1.0000 0.33809  0.47991  0.23863  Biso   1.000  N
  N19      1.0000 0.16736  0.30034  0.55980  Biso   1.000  N
  N20      1.0000 0.98376  0.80246  0.85566  Biso   1.000  N
  N21      1.0000 0.68219  0.98395  0.37426  Biso   1.000  N
  N22      1.0000 0.66714  0.29772  0.05109  Biso   1.000  N
  N23      1.0000 0.50550  0.79880  0.71634  Biso   1.000  N
  N24      1.0000 0.17920  0.97516  0.20735  Biso   1.000  N
  N25      1.0000 0.78944  0.47928  0.69004  Biso   1.000  N
  N26      1.0000 0.68210  0.80797  0.54573  Biso   1.000  N
  N27      1.0000 0.49061  0.64519  0.85350  Biso   1.000  N
  N28      1.0000 0.29229  0.48933  0.88734  Biso   1.000  N
  N29      1.0000 0.16885  0.80381  0.03032  Biso   1.000  N
  N30      1.0000 0.98150  0.65298  0.70784  Biso   1.000  N
  N31      1.0000 0.66028  0.97575  0.72494  Biso   1.000  N
  N32      1.0000 0.81101  0.29996  0.53435  Biso   1.000  N
  N33      1.0000 0.97120  0.15174  0.86127  Biso   1.000  N
  N34      1.0000 0.16153  0.96563  0.85782  Biso   1.000  N
  N35      1.0000 0.31848  0.30634  0.03368  Biso   1.000  N
  N36      1.0000 0.49062  0.14777  0.71465  Biso   1.000  N
  N37      1.0000 0.19182  0.47601  0.38785  Biso   1.000  N
  N38      1.0000 0.30760  0.14852  0.53786  Biso   1.000  N
  N39      1.0000 0.50593  0.30774  0.21481  Biso   1.000  N
  N40      1.0000 0.68787  0.47062  0.19550  Biso   1.000  N
  N41      1.0000 0.81401  0.15007  0.04833  Biso   1.000  N
  N42      1.0000 0.00804  0.29993  0.36644  Biso   1.000  N
  N43      1.0000 0.32750  0.98309  0.35909  Biso   1.000  N
  N44      1.0000 0.17297  0.65126  0.52551  Biso   1.000  N
  N45      1.0000 0.99698  0.80545  0.21225  Biso   1.000  N
  N46      1.0000 0.82973  0.98906  0.22639  Biso   1.000  N
  N47      1.0000 0.67291  0.64429  0.00956  Biso   1.000  N
  N48      1.0000 0.51412  0.80037  0.36311  Biso   1.000  N
  O1       1.0000 0.33776  0.52199  0.05451  Biso   1.000  O
  O2       1.0000 0.98424  0.32342  0.58676  Biso   1.000  O
  O3       1.0000 0.54639  0.97290  0.38622  Biso   1.000  O
  O4       1.0000 0.82614  0.51640  0.51460  Biso   1.000  O
  O5       1.0000 0.49314  0.31584  0.00002  Biso   1.000  O
  O6       1.0000 0.04481  0.97311  0.19527  Biso   1.000  O
  O7       1.0000 0.14893  0.02660  0.03272  Biso   1.000  O
  O8       1.0000 0.49974  0.82105  0.58036  Biso   1.000  O
  O9       1.0000 0.96843  0.47038  0.38009  Biso   1.000  O
  O10      1.0000 0.65284  0.02649  0.55038  Biso   1.000  O
  O11      1.0000 0.98803  0.82060  0.99246  Biso   1.000  O
  O12      1.0000 0.46895  0.47170  0.20301  Biso   1.000  O
  O13      1.0000 0.65382  0.42791  0.01661  Biso   1.000  O
  O14      1.0000 0.98764  0.62855  0.48805  Biso   1.000  O
  O15      1.0000 0.43802  0.97711  0.69747  Biso   1.000  O
  O16      1.0000 0.15043  0.43569  0.55946  Biso   1.000  O
  O17      1.0000 0.49941  0.63517  0.07298  Biso   1.000  O
  O18      1.0000 0.94528  0.96810  0.88425  Biso   1.000  O
  O19      1.0000 0.83582  0.93264  0.05183  Biso   1.000  O
  O20      1.0000 0.48651  0.13854  0.49416  Biso   1.000  O
  O21      1.0000 0.01373  0.48160  0.70144  Biso   1.000  O
  O22      1.0000 0.33970  0.93519  0.53285  Biso   1.000  O
  O23      1.0000 0.98980  0.13611  0.08048  Biso   1.000  O
  O24      1.0000 0.51140  0.47337  0.87894  Biso   1.000  O
  O25      1.0000 0.96360  0.99008  0.19793  Biso   1.000  O
  O26      1.0000 0.15265  0.94026  0.03082  Biso   1.000  O
  O27      1.0000 0.99182  0.13507  0.99499  Biso   1.000  O
  O28      1.0000 0.46318  0.98151  0.38330  Biso   1.000  O
  O29      1.0000 0.65815  0.94218  0.54687  Biso   1.000  O
  O30      1.0000 0.47946  0.13311  0.57798  Biso   1.000  O
  O31      1.0000 0.55293  0.48485  0.18443  Biso   1.000  O
  O32      1.0000 0.34089  0.44025  0.06246  Biso   1.000  O
  O33      1.0000 0.49400  0.62821  0.99060  Biso   1.000  O
  O34      1.0000 0.05415  0.48097  0.39389  Biso   1.000  O
  O35      1.0000 0.82893  0.43512  0.51686  Biso   1.000  O
  O36      1.0000 0.99261  0.63159  0.57232  Biso   1.000  O
  O37      1.0000 0.02728  0.98682  0.88356  Biso   1.000  O
  O38      1.0000 0.84018  0.01735  0.04858  Biso   1.000  O
  O39      1.0000 0.99219  0.82581  0.07610  Biso   1.000  O
  O40      1.0000 0.52376  0.96736  0.69537  Biso   1.000  O
  O41      1.0000 0.33314  0.01518  0.54480  Biso   1.000  O
  O42      1.0000 0.51339  0.82174  0.49944  Biso   1.000  O
  O43      1.0000 0.42786  0.46975  0.88840  Biso   1.000  O
  O44      1.0000 0.65542  0.50886  0.00959  Biso   1.000  O
  O45      1.0000 0.49874  0.32205  0.08186  Biso   1.000  O
  O46      1.0000 0.92869  0.47768  0.68558  Biso   1.000  O
  O47      1.0000 0.14911  0.51928  0.55294  Biso   1.000  O
  O48      1.0000 0.98825  0.32103  0.50233  Biso   1.000  O
  O49      1.0000 0.00091  0.94042  0.19583  Biso   1.000  O
  O50      1.0000 0.14425  0.98170  0.99137  Biso   1.000  O
  O51      1.0000 0.95071  0.13467  0.04026  Biso   1.000  O
  O52      1.0000 0.50114  0.93476  0.38430  Biso   1.000  O
  O53      1.0000 0.65268  0.98278  0.59056  Biso   1.000  O
  O54      1.0000 0.44246  0.13219  0.53385  Biso   1.000  O
  O55      1.0000 0.51421  0.43847  0.19148  Biso   1.000  O
  O56      1.0000 0.33250  0.47601  0.01756  Biso   1.000  O
  O57      1.0000 0.53751  0.62743  0.03003  Biso   1.000  O
  O58      1.0000 0.01640  0.43562  0.38844  Biso   1.000  O
  O59      1.0000 0.82020  0.47645  0.55589  Biso   1.000  O
  O60      1.0000 0.03732  0.62622  0.52642  Biso   1.000  O
  O61      1.0000 0.98125  0.01733  0.88420  Biso   1.000  O
  O62      1.0000 0.83890  0.97840  0.09134  Biso   1.000  O
  O63      1.0000 0.03341  0.82463  0.03413  Biso   1.000  O
  O64      1.0000 0.48626  0.01477  0.69325  Biso   1.000  O
  O65      1.0000 0.33578  0.98032  0.49533  Biso   1.000  O
  O66      1.0000 0.54404  0.82015  0.54873  Biso   1.000  O
  O67      1.0000 0.46764  0.51623  0.87723  Biso   1.000  O
  O68      1.0000 0.65904  0.46474  0.05663  Biso   1.000  O
  O69      1.0000 0.45287  0.32532  0.04296  Biso   1.000  O
  O70      1.0000 0.97041  0.51785  0.69395  Biso   1.000  O
  O71      1.0000 0.15479  0.47401  0.51741  Biso   1.000  O
  O72      1.0000 0.94426  0.32173  0.54024  Biso   1.000  O
  O73      1.0000 0.96892  0.43584  0.69818  Biso   1.000  O
  O74      1.0000 0.66126  0.98840  0.50643  Biso   1.000  O
  O75      1.0000 0.45242  0.63647  0.03440  Biso   1.000  O
  O76      1.0000 0.47032  0.43178  0.88823  Biso   1.000  O
  O77      1.0000 0.14942  0.97930  0.07452  Biso   1.000  O
  O78      1.0000 0.95141  0.62519  0.53481  Biso   1.000  O
  O79      1.0000 0.47951  0.93157  0.69590  Biso   1.000  O
  O80      1.0000 0.83714  0.47590  0.47252  Biso   1.000  O
  O81      1.0000 0.03421  0.13606  0.03902  Biso   1.000  O
  O82      1.0000 0.99142  0.93401  0.87968  Biso   1.000  O
  O83      1.0000 0.34632  0.48494  0.10083  Biso   1.000  O
  O84      1.0000 0.52571  0.13870  0.53694  Biso   1.000  O
  O85      1.0000 0.00519  0.51811  0.38094  Biso   1.000  O
  O86      1.0000 0.33271  0.96778  0.58003  Biso   1.000  O
  O87      1.0000 0.53661  0.31954  0.03861  Biso   1.000  O
  O88      1.0000 0.50571  0.51961  0.19283  Biso   1.000  O
  O89      1.0000 0.83754  0.97503  0.00597  Biso   1.000  O
  O90      1.0000 0.03120  0.31933  0.54222  Biso   1.000  O
  O91      1.0000 0.50496  0.02055  0.38262  Biso   1.000  O
  O92      1.0000 0.13930  0.48035  0.60179  Biso   1.000  O
  O93      1.0000 0.94752  0.82109  0.03303  Biso   1.000  O
  O94      1.0000 0.01380  0.02195  0.19620  Biso   1.000  O
  O95      1.0000 0.65085  0.46717  0.97501  Biso   1.000  O
  O96      1.0000 0.46130  0.82262  0.53396  Biso   1.000  O
  O97      1.0000 0.44412  0.18112  0.53585  Biso   1.000  O
  O98      1.0000 0.52253  0.43906  0.24085  Biso   1.000  O
  O99      1.0000 0.20272  0.47578  0.52631  Biso   1.000  O
  O100     1.0000 0.94806  0.18332  0.03966  Biso   1.000  O
  O101     1.0000 0.01678  0.43428  0.33898  Biso   1.000  O
  O102     1.0000 0.70612  0.46941  0.05494  Biso   1.000  O
  O103     1.0000 0.03273  0.67559  0.52635  Biso   1.000  O
  O104     1.0000 0.00011  0.94089  0.24481  Biso   1.000  O
  O105     1.0000 0.28809  0.97793  0.49244  Biso   1.000  O
  O106     1.0000 0.53853  0.67580  0.03182  Biso   1.000  O
  O107     1.0000 0.50672  0.93592  0.33535  Biso   1.000  O
  O108     1.0000 0.78973  0.98043  0.09361  Biso   1.000  O
  O109     1.0000 0.55022  0.77201  0.54690  Biso   1.000  O
  O110     1.0000 0.45825  0.51213  0.82951  Biso   1.000  O
  O111     1.0000 0.77276  0.47627  0.54910  Biso   1.000  O
  O112     1.0000 0.03507  0.77663  0.03559  Biso   1.000  O
  O113     1.0000 0.96741  0.52181  0.74257  Biso   1.000  O
  O114     1.0000 0.28392  0.48336  0.02553  Biso   1.000  O
  O115     1.0000 0.94653  0.27564  0.54767  Biso   1.000  O
  O116     1.0000 0.97807  0.01711  0.83491  Biso   1.000  O
  O117     1.0000 0.70202  0.98852  0.59184  Biso   1.000  O
  O118     1.0000 0.44919  0.27780  0.03648  Biso   1.000  O
  O119     1.0000 0.48785  0.01287  0.74202  Biso   1.000  O
  O120     1.0000 0.19629  0.98054  0.98941  Biso   1.000  O
  O121     1.0000 0.00629  0.47708  0.74997  Biso   1.000  O
  O122     1.0000 0.70161  0.03133  0.54868  Biso   1.000  O
  O123     1.0000 0.49847  0.68142  0.07302  Biso   1.000  O
  O124     1.0000 0.50660  0.47644  0.83032  Biso   1.000  O
  O125     1.0000 0.19843  0.02447  0.03369  Biso   1.000  O
  O126     1.0000 0.98638  0.67731  0.48781  Biso   1.000  O
  O127     1.0000 0.43884  0.97127  0.74706  Biso   1.000  O
  O128     1.0000 0.77975  0.51893  0.50775  Biso   1.000  O
  O129     1.0000 0.99277  0.18443  0.08208  Biso   1.000  O
  O130     1.0000 0.94255  0.97445  0.83543  Biso   1.000  O
  O131     1.0000 0.29122  0.52200  0.06589  Biso   1.000  O
  O132     1.0000 0.48608  0.18669  0.49244  Biso   1.000  O
  O133     1.0000 0.97875  0.47317  0.33266  Biso   1.000  O
  O134     1.0000 0.29098  0.93147  0.52970  Biso   1.000  O
  O135     1.0000 0.49159  0.26715  0.00063  Biso   1.000  O
  O136     1.0000 0.47711  0.47583  0.25222  Biso   1.000  O
  O137     1.0000 0.78765  0.93338  0.05482  Biso   1.000  O
  O138     1.0000 0.99145  0.27557  0.58516  Biso   1.000  O
  O139     1.0000 0.54842  0.97682  0.33894  Biso   1.000  O
  O140     1.0000 0.19765  0.43284  0.57204  Biso   1.000  O
  O141     1.0000 0.99034  0.77261  0.99241  Biso   1.000  O
  O142     1.0000 0.04654  0.97134  0.24450  Biso   1.000  O
  O143     1.0000 0.70138  0.42462  0.00724  Biso   1.000  O
  O144     1.0000 0.50038  0.77245  0.58340  Biso   1.000  O
  O145     1.0000 0.55879  0.48603  0.23392  Biso   1.000  O
  O146     1.0000 0.19498  0.52135  0.56625  Biso   1.000  O
  O147     1.0000 0.48377  0.18205  0.58256  Biso   1.000  O
  O148     1.0000 0.06122  0.47817  0.34524  Biso   1.000  O
  O149     1.0000 0.70313  0.50924  0.01353  Biso   1.000  O
  O150     1.0000 0.98853  0.18352  0.99741  Biso   1.000  O
  O151     1.0000 0.96638  0.98720  0.24727  Biso   1.000  O
  O152     1.0000 0.28459  0.01098  0.54258  Biso   1.000  O
  O153     1.0000 0.98918  0.67922  0.57263  Biso   1.000  O
  O154     1.0000 0.46328  0.97529  0.33432  Biso   1.000  O
  O155     1.0000 0.79129  0.01818  0.04735  Biso   1.000  O
  O156     1.0000 0.49613  0.67581  0.98694  Biso   1.000  O
  O157     1.0000 0.42059  0.47088  0.84112  Biso   1.000  O
  O158     1.0000 0.78272  0.43350  0.50441  Biso   1.000  O
  O159     1.0000 0.51558  0.77283  0.49816  Biso   1.000  O
  O160     1.0000 0.92087  0.48015  0.73185  Biso   1.000  O
  O161     1.0000 0.29148  0.43900  0.06117  Biso   1.000  O
  O162     1.0000 0.99142  0.77782  0.08062  Biso   1.000  O
  O163     1.0000 0.02446  0.97933  0.83580  Biso   1.000  O
  O164     1.0000 0.70607  0.94295  0.55344  Biso   1.000  O
  O165     1.0000 0.98902  0.27216  0.50218  Biso   1.000  O
  O166     1.0000 0.52389  0.97022  0.74542  Biso   1.000  O
  O167     1.0000 0.20035  0.93955  0.03338  Biso   1.000  O
  O168     1.0000 0.48727  0.27636  0.08327  Biso   1.000  O
  O169     1.0000 0.01697  0.02062  0.24455  Biso   1.000  O
  O170     1.0000 0.19737  0.98448  0.07125  Biso   1.000  O
  O171     1.0000 0.03402  0.18417  0.03910  Biso   1.000  O
  O172     1.0000 0.50485  0.01696  0.33296  Biso   1.000  O
  O173     1.0000 0.71029  0.98391  0.50928  Biso   1.000  O
  O174     1.0000 0.52674  0.18663  0.53809  Biso   1.000  O
  O175     1.0000 0.51298  0.52319  0.24069  Biso   1.000  O
  O176     1.0000 0.29733  0.47908  0.10797  Biso   1.000  O
  O177     1.0000 0.45762  0.68380  0.03129  Biso   1.000  O
  O178     1.0000 0.01596  0.51517  0.33431  Biso   1.000  O
  O179     1.0000 0.78819  0.47601  0.46575  Biso   1.000  O
  O180     1.0000 0.95087  0.67542  0.53364  Biso   1.000  O
  O181     1.0000 0.98538  0.93680  0.83291  Biso   1.000  O
  O182     1.0000 0.78756  0.97434  0.00634  Biso   1.000  O
  O183     1.0000 0.94809  0.77130  0.03393  Biso   1.000  O
  O184     1.0000 0.47928  0.92986  0.74505  Biso   1.000  O
  O185     1.0000 0.28403  0.96717  0.57723  Biso   1.000  O
  O186     1.0000 0.46379  0.77587  0.53268  Biso   1.000  O
  O187     1.0000 0.46550  0.42895  0.83866  Biso   1.000  O
  O188     1.0000 0.69869  0.46448  0.97057  Biso   1.000  O
  O189     1.0000 0.53184  0.27208  0.04758  Biso   1.000  O
  O190     1.0000 0.95930  0.43824  0.74569  Biso   1.000  O
  O191     1.0000 0.18824  0.48105  0.60821  Biso   1.000  O
  O192     1.0000 0.03108  0.27159  0.54126  Biso   1.000  O
