data_image0
_cell_length_a       47.2235
_cell_length_b       46.6635
_cell_length_c       46.5877
_cell_angle_alpha    90
_cell_angle_beta     90
_cell_angle_gamma    90

_symmetry_space_group_name_H-M    "P 1"
_symmetry_int_tables_number       1

loop_
  _symmetry_equiv_pos_as_xyz
  'x, y, z'

loop_
  _atom_site_label
  _atom_site_occupancy
  _atom_site_fract_x
  _atom_site_fract_y
  _atom_site_fract_z
  _atom_site_thermal_displace_type
  _atom_site_B_iso_or_equiv
  _atom_site_type_symbol
  C1       1.0000 0.58438  0.98250  0.35712  Biso   1.000  C
  C2       1.0000 0.34370  0.55663  0.03625  Biso   1.000  C
  C3       1.0000 0.02768  0.30747  0.58581  Biso   1.000  C
  C4       1.0000 0.08138  0.99319  0.20736  Biso   1.000  C
  C5       1.0000 0.83707  0.54835  0.52578  Biso   1.000  C
  C6       1.0000 0.51225  0.31317  0.98219  Biso   1.000  C
  C7       1.0000 0.97317  0.49738  0.34559  Biso   1.000  C
  C8       1.0000 0.20285  0.05594  0.01787  Biso   1.000  C
  C9       1.0000 0.50812  0.80714  0.58688  Biso   1.000  C
  C10      1.0000 0.47381  0.48875  0.21247  Biso   1.000  C
  C11      1.0000 0.69293  0.04933  0.53786  Biso   1.000  C
  C12      1.0000 0.03343  0.81709  0.96811  Biso   1.000  C
  C13      1.0000 0.44848  0.99668  0.70391  Biso   1.000  C
  C14      1.0000 0.69626  0.43473  0.01649  Biso   1.000  C
  C15      1.0000 0.01004  0.66930  0.46936  Biso   1.000  C
  C16      1.0000 0.95532  0.99133  0.84658  Biso   1.000  C
  C17      1.0000 0.20180  0.43372  0.53974  Biso   1.000  C
  C18      1.0000 0.53155  0.67273  0.08544  Biso   1.000  C
  C19      1.0000 0.07204  0.48729  0.70896  Biso   1.000  C
  C20      1.0000 0.83779  0.93405  0.03479  Biso   1.000  C
  C21      1.0000 0.53058  0.17290  0.47987  Biso   1.000  C
  C22      1.0000 0.56831  0.48863  0.85077  Biso   1.000  C
  C23      1.0000 0.33501  0.92788  0.51201  Biso   1.000  C
  C24      1.0000 0.02254  0.17668  0.08593  Biso   1.000  C
  C25      1.0000 0.34254  0.03545  0.52797  Biso   1.000  C
  C26      1.0000 0.51863  0.31051  0.09190  Biso   1.000  C
  C27      1.0000 0.08091  0.48500  0.34396  Biso   1.000  C
  C28      1.0000 0.83667  0.04375  0.03636  Biso   1.000  C
  C29      1.0000 0.01253  0.31111  0.48111  Biso   1.000  C
  C30      1.0000 0.58246  0.50188  0.20611  Biso   1.000  C
  C31      1.0000 0.19860  0.54038  0.52204  Biso   1.000  C
  C32      1.0000 0.02868  0.81084  0.07469  Biso   1.000  C
  C33      1.0000 0.47557  0.00063  0.34551  Biso   1.000  C
  C34      1.0000 0.70490  0.54207  0.02734  Biso   1.000  C
  C35      1.0000 0.52862  0.80871  0.47989  Biso   1.000  C
  C36      1.0000 0.97025  0.99743  0.21166  Biso   1.000  C
  C37      1.0000 0.69437  0.93756  0.53887  Biso   1.000  C
  C38      1.0000 0.52682  0.66962  0.97847  Biso   1.000  C
  C39      1.0000 0.96274  0.48840  0.70288  Biso   1.000  C
  C40      1.0000 0.20482  0.94809  0.02776  Biso   1.000  C
  C41      1.0000 0.02292  0.67053  0.57631  Biso   1.000  C
  C42      1.0000 0.46025  0.50043  0.84863  Biso   1.000  C
  C43      1.0000 0.83759  0.43927  0.52002  Biso   1.000  C
  C44      1.0000 0.01166  0.16897  0.97962  Biso   1.000  C
  C45      1.0000 0.55633  0.98788  0.71049  Biso   1.000  C
  C46      1.0000 0.33824  0.44570  0.03107  Biso   1.000  C
  C47      1.0000 0.50662  0.17591  0.58791  Biso   1.000  C
  C48      1.0000 0.06201  0.99791  0.83860  Biso   1.000  C
  C49      1.0000 0.00496  0.04868  0.84783  Biso   1.000  C
  C50      1.0000 0.84007  0.98921  0.08955  Biso   1.000  C
  C51      1.0000 0.08385  0.81799  0.02297  Biso   1.000  C
  C52      1.0000 0.50417  0.04914  0.70649  Biso   1.000  C
  C53      1.0000 0.34231  0.99195  0.46446  Biso   1.000  C
  C54      1.0000 0.57131  0.81023  0.54794  Biso   1.000  C
  C55      1.0000 0.52104  0.54950  0.84656  Biso   1.000  C
  C56      1.0000 0.70305  0.48336  0.07683  Biso   1.000  C
  C57      1.0000 0.45982  0.31251  0.03954  Biso   1.000  C
  C58      1.0000 0.01857  0.54282  0.70232  Biso   1.000  C
  C59      1.0000 0.20237  0.47790  0.47743  Biso   1.000  C
  C60      1.0000 0.96610  0.31287  0.54280  Biso   1.000  C
  C61      1.0000 0.02669  0.93710  0.20396  Biso   1.000  C
  C62      1.0000 0.19747  0.99676  0.96803  Biso   1.000  C
  C63      1.0000 0.95917  0.17299  0.03795  Biso   1.000  C
  C64      1.0000 0.52369  0.93847  0.35342  Biso   1.000  C
  C65      1.0000 0.69212  0.99355  0.59413  Biso   1.000  C
  C66      1.0000 0.46649  0.16881  0.52360  Biso   1.000  C
  C67      1.0000 0.53486  0.43974  0.20811  Biso   1.000  C
  C68      1.0000 0.33783  0.50096  0.97577  Biso   1.000  C
  C69      1.0000 0.58315  0.67460  0.02654  Biso   1.000  C
  C70      1.0000 0.02511  0.43715  0.34984  Biso   1.000  C
  C71      1.0000 0.83555  0.49100  0.57795  Biso   1.000  C
  C72      1.0000 0.07070  0.66970  0.51190  Biso   1.000  C
  C73      1.0000 0.02791  0.54627  0.34311  Biso   1.000  C
  C74      1.0000 0.33232  0.97277  0.57074  Biso   1.000  C
  C75      1.0000 0.56700  0.30951  0.03247  Biso   1.000  C
  C76      1.0000 0.51946  0.55094  0.21361  Biso   1.000  C
  C77      1.0000 0.83414  0.98730  0.97965  Biso   1.000  C
  C78      1.0000 0.07294  0.30827  0.52544  Biso   1.000  C
  C79      1.0000 0.53867  0.04633  0.35235  Biso   1.000  C
  C80      1.0000 0.19931  0.49466  0.58449  Biso   1.000  C
  C81      1.0000 0.97551  0.81362  0.01674  Biso   1.000  C
  C82      1.0000 0.02843  0.04647  0.20578  Biso   1.000  C
  C83      1.0000 0.70395  0.49984  0.97034  Biso   1.000  C
  C84      1.0000 0.46544  0.80675  0.52258  Biso   1.000  C
  C85      1.0000 0.01633  0.43374  0.71175  Biso   1.000  C
  C86      1.0000 0.69913  0.99328  0.48559  Biso   1.000  C
  C87      1.0000 0.47402  0.67240  0.02873  Biso   1.000  C
  C88      1.0000 0.50741  0.44027  0.85180  Biso   1.000  C
  C89      1.0000 0.20054  0.00391  0.07651  Biso   1.000  C
  C90      1.0000 0.96137  0.66905  0.53056  Biso   1.000  C
  C91      1.0000 0.49743  0.94092  0.70603  Biso   1.000  C
  C92      1.0000 0.83845  0.50084  0.46879  Biso   1.000  C
  C93      1.0000 0.06930  0.17666  0.02593  Biso   1.000  C
  C94      1.0000 0.01266  0.94029  0.84090  Biso   1.000  C
  C95      1.0000 0.34604  0.50067  0.08751  Biso   1.000  C
  C96      1.0000 0.57075  0.18030  0.54549  Biso   1.000  C
  C97      1.0000 0.69420  0.08161  0.54048  Biso   1.000  C
  C98      1.0000 0.52854  0.67483  0.11722  Biso   1.000  C
  C99      1.0000 0.10471  0.48747  0.71043  Biso   1.000  C
  C100     1.0000 0.20332  0.08646  0.01025  Biso   1.000  C
  C101     1.0000 0.00628  0.66834  0.43675  Biso   1.000  C
  C102     1.0000 0.60095  0.48502  0.85025  Biso   1.000  C
  C103     1.0000 0.83535  0.57951  0.51921  Biso   1.000  C
  C104     1.0000 0.02458  0.17468  0.11763  Biso   1.000  C
  C105     1.0000 0.41666  0.99241  0.70219  Biso   1.000  C
  C106     1.0000 0.34389  0.58853  0.03781  Biso   1.000  C
  C107     1.0000 0.53673  0.17274  0.44821  Biso   1.000  C
  C108     1.0000 0.92350  0.99006  0.84915  Biso   1.000  C
  C109     1.0000 0.33577  0.89650  0.51096  Biso   1.000  C
  C110     1.0000 0.51283  0.31366  0.95054  Biso   1.000  C
  C111     1.0000 0.94217  0.49907  0.34394  Biso   1.000  C
  C112     1.0000 0.83942  0.90190  0.03412  Biso   1.000  C
  C113     1.0000 0.03814  0.30815  0.61588  Biso   1.000  C
  C114     1.0000 0.44133  0.48467  0.21211  Biso   1.000  C
  C115     1.0000 0.20268  0.40141  0.53873  Biso   1.000  C
  C116     1.0000 0.03588  0.81546  0.93529  Biso   1.000  C
  C117     1.0000 0.61631  0.97640  0.35663  Biso   1.000  C
  C118     1.0000 0.69482  0.40339  0.00998  Biso   1.000  C
  C119     1.0000 0.50263  0.80879  0.61780  Biso   1.000  C
  C120     1.0000 0.11281  0.99940  0.20830  Biso   1.000  C
  C121     1.0000 0.83958  0.98706  0.12182  Biso   1.000  C
  C122     1.0000 0.11548  0.81776  0.02694  Biso   1.000  C
  C123     1.0000 0.00961  0.07934  0.84912  Biso   1.000  C
  C124     1.0000 0.34598  0.99625  0.43219  Biso   1.000  C
  C125     1.0000 0.60158  0.81168  0.55582  Biso   1.000  C
  C126     1.0000 0.49899  0.08093  0.70909  Biso   1.000  C
  C127     1.0000 0.70628  0.47887  0.10808  Biso   1.000  C
  C128     1.0000 0.42735  0.31488  0.04013  Biso   1.000  C
  C129     1.0000 0.52404  0.58033  0.84683  Biso   1.000  C
  C130     1.0000 0.20495  0.47709  0.44598  Biso   1.000  C
  C131     1.0000 0.93390  0.31543  0.54755  Biso   1.000  C
  C132     1.0000 0.01773  0.57560  0.70332  Biso   1.000  C
  C133     1.0000 0.19602  0.99491  0.93579  Biso   1.000  C
  C134     1.0000 0.92709  0.17337  0.03879  Biso   1.000  C
  C135     1.0000 0.03130  0.90387  0.20292  Biso   1.000  C
  C136     1.0000 0.69085  0.99511  0.62627  Biso   1.000  C
  C137     1.0000 0.43441  0.16664  0.52446  Biso   1.000  C
  C138     1.0000 0.52383  0.90734  0.35498  Biso   1.000  C
  C139     1.0000 0.33503  0.49966  0.94360  Biso   1.000  C
  C140     1.0000 0.61524  0.67415  0.02311  Biso   1.000  C
  C141     1.0000 0.53543  0.40743  0.21042  Biso   1.000  C
  C142     1.0000 0.83625  0.48836  0.61034  Biso   1.000  C
  C143     1.0000 0.10177  0.66661  0.50522  Biso   1.000  C
  C144     1.0000 0.02314  0.40529  0.35121  Biso   1.000  C
  C145     1.0000 0.34761  0.50050  0.11917  Biso   1.000  C
  C146     1.0000 0.10533  0.30886  0.52488  Biso   1.000  C
  C147     1.0000 0.53903  0.07909  0.35167  Biso   1.000  C
  C148     1.0000 0.84019  0.50132  0.43678  Biso   1.000  C
  C149     1.0000 0.59964  0.31006  0.03339  Biso   1.000  C
  C150     1.0000 0.03229  0.07739  0.20650  Biso   1.000  C
  C151     1.0000 0.20314  0.00512  0.10850  Biso   1.000  C
  C152     1.0000 0.43424  0.80589  0.51550  Biso   1.000  C
  C153     1.0000 0.02481  0.57820  0.34052  Biso   1.000  C
  C154     1.0000 0.70498  0.99182  0.45389  Biso   1.000  C
  C155     1.0000 0.94431  0.81473  0.01323  Biso   1.000  C
  C156     1.0000 0.51661  0.58299  0.21355  Biso   1.000  C
  C157     1.0000 0.70296  0.50556  0.93897  Biso   1.000  C
  C158     1.0000 0.92892  0.67217  0.53449  Biso   1.000  C
  C159     1.0000 0.49776  0.90824  0.70803  Biso   1.000  C
  C160     1.0000 0.20156  0.49740  0.61646  Biso   1.000  C
  C161     1.0000 0.44251  0.67595  0.02344  Biso   1.000  C
  C162     1.0000 0.01553  0.90934  0.84068  Biso   1.000  C
  C163     1.0000 0.83246  0.98822  0.94835  Biso   1.000  C
  C164     1.0000 0.60301  0.18032  0.54787  Biso   1.000  C
  C165     1.0000 0.01521  0.40179  0.71053  Biso   1.000  C
  C166     1.0000 0.33022  0.96515  0.60273  Biso   1.000  C
  C167     1.0000 0.10136  0.17828  0.02443  Biso   1.000  C
  C168     1.0000 0.50451  0.40792  0.85417  Biso   1.000  C
  C169     1.0000 0.02519  0.81118  0.10781  Biso   1.000  C
  C170     1.0000 0.09391  0.99766  0.84103  Biso   1.000  C
  C171     1.0000 0.83712  0.07473  0.03549  Biso   1.000  C
  C172     1.0000 0.53253  0.80906  0.44743  Biso   1.000  C
  C173     1.0000 0.58878  0.98701  0.71219  Biso   1.000  C
  C174     1.0000 0.34486  0.06572  0.53712  Biso   1.000  C
  C175     1.0000 0.51961  0.31021  0.12316  Biso   1.000  C
  C176     1.0000 0.42834  0.50554  0.84877  Biso   1.000  C
  C177     1.0000 0.70739  0.57444  0.02546  Biso   1.000  C
  C178     1.0000 0.01389  0.31116  0.44825  Biso   1.000  C
  C179     1.0000 0.93095  0.49332  0.70423  Biso   1.000  C
  C180     1.0000 0.19591  0.57200  0.52213  Biso   1.000  C
  C181     1.0000 0.01840  0.16906  0.94850  Biso   1.000  C
  C182     1.0000 0.93731  0.99677  0.21257  Biso   1.000  C
  C183     1.0000 0.20703  0.91632  0.03534  Biso   1.000  C
  C184     1.0000 0.49753  0.17655  0.61824  Biso   1.000  C
  C185     1.0000 0.44450  0.00056  0.34184  Biso   1.000  C
  C186     1.0000 0.69579  0.90595  0.54259  Biso   1.000  C
  C187     1.0000 0.52692  0.67025  0.94649  Biso   1.000  C
  C188     1.0000 0.61454  0.50248  0.20445  Biso   1.000  C
  C189     1.0000 0.33713  0.41399  0.03102  Biso   1.000  C
  C190     1.0000 0.02880  0.67160  0.60857  Biso   1.000  C
  C191     1.0000 0.11407  0.48187  0.34382  Biso   1.000  C
  C192     1.0000 0.83744  0.40764  0.52709  Biso   1.000  C
  C193     1.0000 0.85993  0.98840  0.93087  Biso   1.000  C
  C194     1.0000 0.92582  0.84077  0.01890  Biso   1.000  C
  C195     1.0000 0.02278  0.89409  0.86667  Biso   1.000  C
  C196     1.0000 0.35549  0.96869  0.62111  Biso   1.000  C
  C197     1.0000 0.41618  0.83132  0.51551  Biso   1.000  C
  C198     1.0000 0.49611  0.89033  0.68176  Biso   1.000  C
  C199     1.0000 0.67594  0.50011  0.92419  Biso   1.000  C
  C200     1.0000 0.61595  0.33606  0.02965  Biso   1.000  C
  C201     1.0000 0.50582  0.39188  0.88169  Biso   1.000  C
  C202     1.0000 0.17474  0.49293  0.63092  Biso   1.000  C
  C203     1.0000 0.12098  0.33620  0.52680  Biso   1.000  C
  C204     1.0000 0.02225  0.38588  0.68425  Biso   1.000  C
  C205     1.0000 0.17785  0.00509  0.12699  Biso   1.000  C
  C206     1.0000 0.11905  0.15136  0.02156  Biso   1.000  C
  C207     1.0000 0.03244  0.09367  0.17992  Biso   1.000  C
  C208     1.0000 0.68014  0.99111  0.43533  Biso   1.000  C
  C209     1.0000 0.62007  0.15393  0.54173  Biso   1.000  C
  C210     1.0000 0.53759  0.09529  0.37933  Biso   1.000  C
  C211     1.0000 0.37481  0.49754  0.13502  Biso   1.000  C
  C212     1.0000 0.42433  0.64904  0.02529  Biso   1.000  C
  C213     1.0000 0.52047  0.59856  0.18660  Biso   1.000  C
  C214     1.0000 0.86838  0.50264  0.42226  Biso   1.000  C
  C215     1.0000 0.91270  0.64558  0.53006  Biso   1.000  C
  C216     1.0000 0.02356  0.59471  0.36841  Biso   1.000  C
  C217     1.0000 0.11084  0.99622  0.86708  Biso   1.000  C
  C218     1.0000 0.86382  0.09168  0.03609  Biso   1.000  C
  C219     1.0000 0.02362  0.83697  0.12431  Biso   1.000  C
  C220     1.0000 0.60907  0.98389  0.68725  Biso   1.000  C
  C221     1.0000 0.37079  0.08387  0.53230  Biso   1.000  C
  C222     1.0000 0.53167  0.83661  0.43101  Biso   1.000  C
  C223     1.0000 0.41163  0.50434  0.87646  Biso   1.000  C
  C224     1.0000 0.68120  0.59277  0.03046  Biso   1.000  C
  C225     1.0000 0.52240  0.33895  0.13660  Biso   1.000  C
  C226     1.0000 0.91554  0.49021  0.67768  Biso   1.000  C
  C227     1.0000 0.16878  0.58692  0.51698  Biso   1.000  C
  C228     1.0000 0.01612  0.33821  0.43157  Biso   1.000  C
  C229     1.0000 0.92135  0.99746  0.18512  Biso   1.000  C
  C230     1.0000 0.17953  0.89922  0.03553  Biso   1.000  C
  C231     1.0000 0.01575  0.14282  0.93128  Biso   1.000  C
  C232     1.0000 0.42767  0.99936  0.36967  Biso   1.000  C
  C233     1.0000 0.66874  0.88947  0.54577  Biso   1.000  C
  C234     1.0000 0.50045  0.14952  0.63443  Biso   1.000  C
  C235     1.0000 0.62854  0.49754  0.17795  Biso   1.000  C
  C236     1.0000 0.36395  0.39739  0.03327  Biso   1.000  C
  C237     1.0000 0.52431  0.64597  0.92821  Biso   1.000  C
  C238     1.0000 0.12814  0.48265  0.37179  Biso   1.000  C
  C239     1.0000 0.86372  0.39331  0.53470  Biso   1.000  C
  C240     1.0000 0.03219  0.64397  0.62389  Biso   1.000  C
  C241     1.0000 0.61969  0.49112  0.87588  Biso   1.000  C
  C242     1.0000 0.86235  0.59567  0.52028  Biso   1.000  C
  C243     1.0000 0.50422  0.83599  0.63298  Biso   1.000  C
  C244     1.0000 0.12110  0.48857  0.68355  Biso   1.000  C
  C245     1.0000 0.37021  0.60413  0.03299  Biso   1.000  C
  C246     1.0000 0.03450  0.84253  0.91821  Biso   1.000  C
  C247     1.0000 0.90908  0.98872  0.87760  Biso   1.000  C
  C248     1.0000 0.66817  0.09927  0.53849  Biso   1.000  C
  C249     1.0000 0.03574  0.33481  0.63164  Biso   1.000  C
  C250     1.0000 0.40287  0.98372  0.67508  Biso   1.000  C
  C251     1.0000 0.17541  0.10107  0.01409  Biso   1.000  C
  C252     1.0000 0.50985  0.34141  0.93673  Biso   1.000  C
  C253     1.0000 0.42526  0.49116  0.18689  Biso   1.000  C
  C254     1.0000 0.17539  0.38463  0.53653  Biso   1.000  C
  C255     1.0000 0.53984  0.14546  0.43142  Biso   1.000  C
  C256     1.0000 0.92412  0.49983  0.37244  Biso   1.000  C
  C257     1.0000 0.66629  0.38751  0.01495  Biso   1.000  C
  C258     1.0000 0.03083  0.14846  0.13177  Biso   1.000  C
  C259     1.0000 0.12735  0.00037  0.18004  Biso   1.000  C
  C260     1.0000 0.36239  0.88063  0.51126  Biso   1.000  C
  C261     1.0000 0.01174  0.64189  0.42056  Biso   1.000  C
  C262     1.0000 0.63144  0.98059  0.38308  Biso   1.000  C
  C263     1.0000 0.86781  0.88821  0.03095  Biso   1.000  C
  C264     1.0000 0.52971  0.64929  0.13687  Biso   1.000  C
  C265     1.0000 0.01084  0.09295  0.87811  Biso   1.000  C
  C266     1.0000 0.86680  0.98733  0.13644  Biso   1.000  C
  C267     1.0000 0.12932  0.84579  0.03065  Biso   1.000  C
  C268     1.0000 0.49771  0.09892  0.68340  Biso   1.000  C
  C269     1.0000 0.37417  0.99647  0.41811  Biso   1.000  C
  C270     1.0000 0.61911  0.83805  0.55110  Biso   1.000  C
  C271     1.0000 0.52524  0.59560  0.87450  Biso   1.000  C
  C272     1.0000 0.68034  0.48440  0.12413  Biso   1.000  C
  C273     1.0000 0.41210  0.34337  0.04149  Biso   1.000  C
  C274     1.0000 0.02286  0.59137  0.67572  Biso   1.000  C
  C275     1.0000 0.17909  0.47759  0.42796  Biso   1.000  C
  C276     1.0000 0.91794  0.34306  0.54170  Biso   1.000  C
  C277     1.0000 0.02778  0.88859  0.17562  Biso   1.000  C
  C278     1.0000 0.16788  0.99770  0.91987  Biso   1.000  C
  C279     1.0000 0.91356  0.14544  0.03786  Biso   1.000  C
  C280     1.0000 0.53140  0.89196  0.38079  Biso   1.000  C
  C281     1.0000 0.66338  0.99430  0.64060  Biso   1.000  C
  C282     1.0000 0.41920  0.13826  0.52826  Biso   1.000  C
  C283     1.0000 0.53267  0.38937  0.18504  Biso   1.000  C
  C284     1.0000 0.36153  0.49951  0.92564  Biso   1.000  C
  C285     1.0000 0.63019  0.64748  0.02445  Biso   1.000  C
  C286     1.0000 0.01711  0.38983  0.37832  Biso   1.000  C
  C287     1.0000 0.86374  0.48690  0.62585  Biso   1.000  C
  C288     1.0000 0.11797  0.63826  0.50786  Biso   1.000  C
  C289     1.0000 0.36212  0.84921  0.51283  Biso   1.000  C
  C290     1.0000 0.50811  0.33939  0.90474  Biso   1.000  C
  C291     1.0000 0.89292  0.49924  0.36932  Biso   1.000  C
  C292     1.0000 0.87111  0.85754  0.02622  Biso   1.000  C
  C293     1.0000 0.03354  0.33366  0.66402  Biso   1.000  C
  C294     1.0000 0.39435  0.49036  0.18812  Biso   1.000  C
  C295     1.0000 0.17400  0.35345  0.53498  Biso   1.000  C
  C296     1.0000 0.02979  0.84074  0.88709  Biso   1.000  C
  C297     1.0000 0.66347  0.98325  0.38393  Biso   1.000  C
  C298     1.0000 0.66865  0.35679  0.02218  Biso   1.000  C
  C299     1.0000 0.50310  0.83737  0.66472  Biso   1.000  C
  C300     1.0000 0.15913  0.00259  0.17945  Biso   1.000  C
  C301     1.0000 0.67088  0.12996  0.54085  Biso   1.000  C
  C302     1.0000 0.52404  0.65039  0.16671  Biso   1.000  C
  C303     1.0000 0.15157  0.49349  0.68541  Biso   1.000  C
  C304     1.0000 0.17387  0.13274  0.01341  Biso   1.000  C
  C305     1.0000 0.01241  0.64462  0.38961  Biso   1.000  C
  C306     1.0000 0.65189  0.49136  0.87408  Biso   1.000  C
  C307     1.0000 0.86019  0.62636  0.52624  Biso   1.000  C
  C308     1.0000 0.03121  0.14735  0.16253  Biso   1.000  C
  C309     1.0000 0.37215  0.97980  0.67365  Biso   1.000  C
  C310     1.0000 0.37076  0.63451  0.03039  Biso   1.000  C
  C311     1.0000 0.53393  0.14650  0.40121  Biso   1.000  C
  C312     1.0000 0.87707  0.99076  0.87648  Biso   1.000  C
  C313     1.0000 0.18096  0.47815  0.39523  Biso   1.000  C
  C314     1.0000 0.38693  0.13744  0.53199  Biso   1.000  C
  C315     1.0000 0.52711  0.35869  0.18793  Biso   1.000  C
  C316     1.0000 0.68066  0.48801  0.15597  Biso   1.000  C
  C317     1.0000 0.88253  0.14465  0.03447  Biso   1.000  C
  C318     1.0000 0.01779  0.35879  0.37781  Biso   1.000  C
  C319     1.0000 0.37493  0.99650  0.38649  Biso   1.000  C
  C320     1.0000 0.14962  0.63960  0.50909  Biso   1.000  C
  C321     1.0000 0.02526  0.85788  0.17696  Biso   1.000  C
  C322     1.0000 0.86642  0.99148  0.16755  Biso   1.000  C
  C323     1.0000 0.66217  0.64614  0.02264  Biso   1.000  C
  C324     1.0000 0.53041  0.85989  0.37993  Biso   1.000  C
  C325     1.0000 0.86249  0.48667  0.65798  Biso   1.000  C
  C326     1.0000 0.65043  0.83595  0.55185  Biso   1.000  C
  C327     1.0000 0.52780  0.62603  0.87531  Biso   1.000  C
  C328     1.0000 0.35891  0.50433  0.89525  Biso   1.000  C
  C329     1.0000 0.16039  0.84574  0.03677  Biso   1.000  C
  C330     1.0000 0.02284  0.62259  0.67625  Biso   1.000  C
  C331     1.0000 0.66216  0.98962  0.67135  Biso   1.000  C
  C332     1.0000 0.88653  0.34055  0.54058  Biso   1.000  C
  C333     1.0000 0.01518  0.12434  0.87799  Biso   1.000  C
  C334     1.0000 0.16653  0.99724  0.88728  Biso   1.000  C
  C335     1.0000 0.38177  0.34308  0.04068  Biso   1.000  C
  C336     1.0000 0.49744  0.12924  0.68496  Biso   1.000  C
  C337     1.0000 0.67444  0.49512  0.89396  Biso   1.000  C
  C338     1.0000 0.88051  0.64733  0.53150  Biso   1.000  C
  C339     1.0000 0.49989  0.85956  0.68513  Biso   1.000  C
  C340     1.0000 0.17248  0.49568  0.66205  Biso   1.000  C
  C341     1.0000 0.39405  0.65407  0.02684  Biso   1.000  C
  C342     1.0000 0.02491  0.86242  0.86626  Biso   1.000  C
  C343     1.0000 0.85700  0.98912  0.89939  Biso   1.000  C
  C344     1.0000 0.65154  0.15342  0.54281  Biso   1.000  C
  C345     1.0000 0.02970  0.35585  0.68490  Biso   1.000  C
  C346     1.0000 0.35324  0.97364  0.65117  Biso   1.000  C
  C347     1.0000 0.15085  0.15241  0.01912  Biso   1.000  C
  C348     1.0000 0.50542  0.36043  0.88123  Biso   1.000  C
  C349     1.0000 0.37265  0.49249  0.16668  Biso   1.000  C
  C350     1.0000 0.15256  0.33296  0.53059  Biso   1.000  C
  C351     1.0000 0.53435  0.12626  0.37890  Biso   1.000  C
  C352     1.0000 0.87041  0.49891  0.39066  Biso   1.000  C
  C353     1.0000 0.64802  0.33628  0.02797  Biso   1.000  C
  C354     1.0000 0.03416  0.12533  0.18268  Biso   1.000  C
  C355     1.0000 0.17991  0.00481  0.15809  Biso   1.000  C
  C356     1.0000 0.38452  0.82834  0.51362  Biso   1.000  C
  C357     1.0000 0.01623  0.62459  0.36626  Biso   1.000  C
  C358     1.0000 0.68431  0.98581  0.40501  Biso   1.000  C
  C359     1.0000 0.89507  0.83918  0.02059  Biso   1.000  C
  C360     1.0000 0.52226  0.62985  0.18882  Biso   1.000  C
  C361     1.0000 0.01707  0.14561  0.89994  Biso   1.000  C
  C362     1.0000 0.89006  0.99593  0.18743  Biso   1.000  C
  C363     1.0000 0.18128  0.86799  0.03673  Biso   1.000  C
  C364     1.0000 0.49758  0.15191  0.66469  Biso   1.000  C
  C365     1.0000 0.39749  0.99900  0.36588  Biso   1.000  C
  C366     1.0000 0.67181  0.85827  0.54955  Biso   1.000  C
  C367     1.0000 0.52682  0.64777  0.89673  Biso   1.000  C
  C368     1.0000 0.65904  0.49352  0.17730  Biso   1.000  C
  C369     1.0000 0.36107  0.36649  0.03903  Biso   1.000  C
  C370     1.0000 0.02746  0.64502  0.65512  Biso   1.000  C
  C371     1.0000 0.15975  0.48241  0.37389  Biso   1.000  C
  C372     1.0000 0.86487  0.36183  0.53827  Biso   1.000  C
  C373     1.0000 0.02266  0.83601  0.15610  Biso   1.000  C
  C374     1.0000 0.14361  0.99596  0.86649  Biso   1.000  C
  C375     1.0000 0.86212  0.12291  0.03325  Biso   1.000  C
  C376     1.0000 0.52967  0.83732  0.40077  Biso   1.000  C
  C377     1.0000 0.63978  0.98655  0.69170  Biso   1.000  C
  C378     1.0000 0.36762  0.11464  0.53607  Biso   1.000  C
  C379     1.0000 0.52337  0.33667  0.16788  Biso   1.000  C
  C380     1.0000 0.38100  0.50664  0.87526  Biso   1.000  C
  C381     1.0000 0.68269  0.62296  0.02534  Biso   1.000  C
  C382     1.0000 0.01738  0.33682  0.39963  Biso   1.000  C
  C383     1.0000 0.88436  0.48758  0.67901  Biso   1.000  C
  C384     1.0000 0.16991  0.61797  0.51486  Biso   1.000  C
  C385     1.0000 0.20008  0.14873  0.01332  Biso   1.000  C
  C386     1.0000 0.02786  0.17347  0.17988  Biso   1.000  C
  C387     1.0000 0.17493  0.00420  0.20618  Biso   1.000  C
  C388     1.0000 0.69905  0.14488  0.54354  Biso   1.000  C
  C389     1.0000 0.53112  0.17511  0.38574  Biso   1.000  C
  C390     1.0000 0.67956  0.98204  0.35776  Biso   1.000  C
  C391     1.0000 0.34422  0.65071  0.03324  Biso   1.000  C
  C392     1.0000 0.52170  0.67822  0.18087  Biso   1.000  C
  C393     1.0000 0.37778  0.48343  0.21424  Biso   1.000  C
  C394     1.0000 0.83229  0.64114  0.53160  Biso   1.000  C
  C395     1.0000 0.00720  0.67105  0.37492  Biso   1.000  C
  C396     1.0000 0.87688  0.49921  0.34211  Biso   1.000  C
  C397     1.0000 0.84493  0.84023  0.02407  Biso   1.000  C
  C398     1.0000 0.02816  0.81323  0.87264  Biso   1.000  C
  C399     1.0000 0.86048  0.99309  0.85036  Biso   1.000  C
  C400     1.0000 0.33639  0.83247  0.51166  Biso   1.000  C
  C401     1.0000 0.50394  0.81028  0.68072  Biso   1.000  C
  C402     1.0000 0.35363  0.98395  0.69909  Biso   1.000  C
  C403     1.0000 0.69546  0.34114  0.02324  Biso   1.000  C
  C404     1.0000 0.50542  0.31183  0.88893  Biso   1.000  C
  C405     1.0000 0.66536  0.48534  0.84817  Biso   1.000  C
  C406     1.0000 0.20016  0.33709  0.53871  Biso   1.000  C
  C407     1.0000 0.03690  0.30599  0.67993  Biso   1.000  C
  C408     1.0000 0.16603  0.49528  0.71276  Biso   1.000  C
  C409     1.0000 0.15961  0.99576  0.83971  Biso   1.000  C
  C410     1.0000 0.83478  0.13760  0.03127  Biso   1.000  C
  C411     1.0000 0.02267  0.80908  0.17151  Biso   1.000  C
  C412     1.0000 0.65256  0.98767  0.71942  Biso   1.000  C
  C413     1.0000 0.34019  0.12861  0.54136  Biso   1.000  C
  C414     1.0000 0.52911  0.81150  0.38447  Biso   1.000  C
  C415     1.0000 0.36569  0.51136  0.84881  Biso   1.000  C
  C416     1.0000 0.70957  0.63751  0.02158  Biso   1.000  C
  C417     1.0000 0.52219  0.30975  0.18398  Biso   1.000  C
  C418     1.0000 0.86861  0.48648  0.70639  Biso   1.000  C
  C419     1.0000 0.19640  0.63270  0.51471  Biso   1.000  C
  C420     1.0000 0.01718  0.31054  0.38383  Biso   1.000  C
  C421     1.0000 0.87509  0.99584  0.21503  Biso   1.000  C
  C422     1.0000 0.20939  0.85199  0.03692  Biso   1.000  C
  C423     1.0000 0.01923  0.17308  0.88557  Biso   1.000  C
  C424     1.0000 0.38384  0.00078  0.33733  Biso   1.000  C
  C425     1.0000 0.70038  0.84258  0.55162  Biso   1.000  C
  C426     1.0000 0.49582  0.17877  0.68085  Biso   1.000  C
  C427     1.0000 0.67510  0.49434  0.20348  Biso   1.000  C
  C428     1.0000 0.33248  0.35202  0.03974  Biso   1.000  C
  C429     1.0000 0.52759  0.67487  0.88218  Biso   1.000  C
  C430     1.0000 0.17716  0.48112  0.34858  Biso   1.000  C
  C431     1.0000 0.83727  0.34486  0.53871  Biso   1.000  C
  C432     1.0000 0.02310  0.67172  0.67048  Biso   1.000  C
  C433     1.0000 0.01723  0.14181  0.85238  Biso   1.000  C
  C434     1.0000 0.83985  0.99454  0.18339  Biso   1.000  C
  C435     1.0000 0.17710  0.81849  0.03713  Biso   1.000  C
  C436     1.0000 0.49623  0.14364  0.71186  Biso   1.000  C
  C437     1.0000 0.34982  0.99757  0.36790  Biso   1.000  C
  C438     1.0000 0.66654  0.80843  0.55381  Biso   1.000  C
  C439     1.0000 0.52777  0.64314  0.84804  Biso   1.000  C
  C440     1.0000 0.70717  0.48618  0.17219  Biso   1.000  C
  C441     1.0000 0.36336  0.31685  0.04128  Biso   1.000  C
  C442     1.0000 0.01722  0.63883  0.70293  Biso   1.000  C
  C443     1.0000 0.20932  0.47826  0.38150  Biso   1.000  C
  C444     1.0000 0.87160  0.31216  0.54370  Biso   1.000  C
  C445     1.0000 0.02846  0.84106  0.20414  Biso   1.000  C
  C446     1.0000 0.19208  0.99484  0.87140  Biso   1.000  C
  C447     1.0000 0.86686  0.17175  0.03057  Biso   1.000  C
  C448     1.0000 0.52595  0.84502  0.35350  Biso   1.000  C
  C449     1.0000 0.68789  0.98908  0.68956  Biso   1.000  C
  C450     1.0000 0.37066  0.16409  0.53360  Biso   1.000  C
  C451     1.0000 0.52574  0.34513  0.21509  Biso   1.000  C
  C452     1.0000 0.33153  0.50784  0.88120  Biso   1.000  C
  C453     1.0000 0.67810  0.67204  0.01668  Biso   1.000  C
  C454     1.0000 0.01772  0.34285  0.35131  Biso   1.000  C
  C455     1.0000 0.83550  0.48628  0.67439  Biso   1.000  C
  C456     1.0000 0.16568  0.66644  0.50720  Biso   1.000  C
  C457     1.0000 0.01362  0.64103  0.34012  Biso   1.000  C
  C458     1.0000 0.32428  0.97302  0.66575  Biso   1.000  C
  C459     1.0000 0.66310  0.30919  0.03114  Biso   1.000  C
  C460     1.0000 0.51924  0.64557  0.21492  Biso   1.000  C
  C461     1.0000 0.82891  0.99154  0.88593  Biso   1.000  C
  C462     1.0000 0.16836  0.30453  0.52934  Biso   1.000  C
  C463     1.0000 0.53445  0.14385  0.35236  Biso   1.000  C
  C464     1.0000 0.19927  0.49955  0.67832  Biso   1.000  C
  C465     1.0000 0.88054  0.81160  0.01738  Biso   1.000  C
  C466     1.0000 0.03413  0.14082  0.21061  Biso   1.000  C
  C467     1.0000 0.70076  0.49418  0.87695  Biso   1.000  C
  C468     1.0000 0.36935  0.80043  0.51133  Biso   1.000  C
  C469     1.0000 0.02776  0.34004  0.71217  Biso   1.000  C
  C470     1.0000 0.71145  0.98378  0.39133  Biso   1.000  C
  C471     1.0000 0.37872  0.68073  0.02760  Biso   1.000  C
  C472     1.0000 0.50116  0.34466  0.85610  Biso   1.000  C
  C473     1.0000 0.20837  0.00645  0.17204  Biso   1.000  C
  C474     1.0000 0.86534  0.67344  0.53727  Biso   1.000  C
  C475     1.0000 0.50269  0.84464  0.71330  Biso   1.000  C
  C476     1.0000 0.84452  0.49577  0.37450  Biso   1.000  C
  C477     1.0000 0.16607  0.18009  0.02020  Biso   1.000  C
  C478     1.0000 0.02065  0.84612  0.84028  Biso   1.000  C
  C479     1.0000 0.34570  0.48841  0.18070  Biso   1.000  C
  C480     1.0000 0.66765  0.17960  0.54711  Biso   1.000  C
  C481     1.0000 0.38785  0.77447  0.50918  Biso   1.000  C
  C482     1.0000 0.49793  0.36001  0.82953  Biso   1.000  C
  C483     1.0000 0.81640  0.49567  0.38831  Biso   1.000  C
  C484     1.0000 0.89813  0.78502  0.00917  Biso   1.000  C
  C485     1.0000 0.01847  0.35575  0.73816  Biso   1.000  C
  C486     1.0000 0.31805  0.49379  0.16553  Biso   1.000  C
  C487     1.0000 0.15054  0.27838  0.52632  Biso   1.000  C
  C488     1.0000 0.01633  0.86222  0.81215  Biso   1.000  C
  C489     1.0000 0.73759  0.98552  0.40905  Biso   1.000  C
  C490     1.0000 0.64635  0.28209  0.03674  Biso   1.000  C
  C491     1.0000 0.50281  0.86220  0.73963  Biso   1.000  C
  C492     1.0000 0.23348  0.00686  0.15361  Biso   1.000  C
  C493     1.0000 0.65018  0.20652  0.55363  Biso   1.000  C
  C494     1.0000 0.51574  0.62921  0.24326  Biso   1.000  C
  C495     1.0000 0.22696  0.50477  0.66427  Biso   1.000  C
  C496     1.0000 0.14954  0.20677  0.02560  Biso   1.000  C
  C497     1.0000 0.02039  0.62600  0.31304  Biso   1.000  C
  C498     1.0000 0.72755  0.50195  0.88956  Biso   1.000  C
  C499     1.0000 0.88236  0.69938  0.54397  Biso   1.000  C
  C500     1.0000 0.03477  0.12368  0.23654  Biso   1.000  C
  C501     1.0000 0.29777  0.96675  0.64743  Biso   1.000  C
  C502     1.0000 0.39656  0.70846  0.02810  Biso   1.000  C
  C503     1.0000 0.53795  0.12840  0.32440  Biso   1.000  C
  C504     1.0000 0.80263  0.98969  0.90318  Biso   1.000  C
  C505     1.0000 0.64856  0.47931  0.82087  Biso   1.000  C
  C506     1.0000 0.80560  0.62433  0.52554  Biso   1.000  C
  C507     1.0000 0.50133  0.78243  0.66569  Biso   1.000  C
  C508     1.0000 0.15005  0.49260  0.73966  Biso   1.000  C
  C509     1.0000 0.31649  0.63601  0.03810  Biso   1.000  C
  C510     1.0000 0.02895  0.78633  0.88948  Biso   1.000  C
  C511     1.0000 0.87520  0.99705  0.82280  Biso   1.000  C
  C512     1.0000 0.72559  0.12553  0.54411  Biso   1.000  C
  C513     1.0000 0.04209  0.28058  0.66300  Biso   1.000  C
  C514     1.0000 0.36765  0.99279  0.72626  Biso   1.000  C
  C515     1.0000 0.22726  0.13417  0.00887  Biso   1.000  C
  C516     1.0000 0.51157  0.28514  0.90364  Biso   1.000  C
  C517     1.0000 0.39542  0.47573  0.24143  Biso   1.000  C
  C518     1.0000 0.22815  0.35398  0.54032  Biso   1.000  C
  C519     1.0000 0.52974  0.20265  0.40163  Biso   1.000  C
  C520     1.0000 0.89610  0.50152  0.31568  Biso   1.000  C
  C521     1.0000 0.72444  0.35591  0.01661  Biso   1.000  C
  C522     1.0000 0.02121  0.20006  0.16500  Biso   1.000  C
  C523     1.0000 0.16022  0.00493  0.23455  Biso   1.000  C
  C524     1.0000 0.30918  0.84851  0.51073  Biso   1.000  C
  C525     1.0000 0.99856  0.69752  0.39221  Biso   1.000  C
  C526     1.0000 0.66478  0.97568  0.32999  Biso   1.000  C
  C527     1.0000 0.81676  0.85255  0.03179  Biso   1.000  C
  C528     1.0000 0.52156  0.70452  0.16363  Biso   1.000  C
  C529     1.0000 0.80848  0.12168  0.03361  Biso   1.000  C
  C530     1.0000 0.02420  0.78212  0.15492  Biso   1.000  C
  C531     1.0000 0.14268  0.99576  0.81311  Biso   1.000  C
  C532     1.0000 0.31495  0.11221  0.54662  Biso   1.000  C
  C533     1.0000 0.53428  0.78420  0.39956  Biso   1.000  C
  C534     1.0000 0.63312  0.98898  0.74511  Biso   1.000  C
  C535     1.0000 0.73787  0.62066  0.02074  Biso   1.000  C
  C536     1.0000 0.51870  0.28243  0.16895  Biso   1.000  C
  C537     1.0000 0.38214  0.51331  0.82275  Biso   1.000  C
  C538     1.0000 0.22355  0.61709  0.52021  Biso   1.000  C
  C539     1.0000 0.01127  0.28418  0.40118  Biso   1.000  C
  C540     1.0000 0.88513  0.48918  0.73442  Biso   1.000  C
  C541     1.0000 0.23705  0.86762  0.03783  Biso   1.000  C
  C542     1.0000 0.02401  0.19938  0.90266  Biso   1.000  C
  C543     1.0000 0.89095  0.99466  0.24178  Biso   1.000  C
  C544     1.0000 0.72695  0.85840  0.55002  Biso   1.000  C
  C545     1.0000 0.49146  0.20561  0.66497  Biso   1.000  C
  C546     1.0000 0.40046  0.00037  0.31019  Biso   1.000  C
  C547     1.0000 0.30629  0.36943  0.03829  Biso   1.000  C
  C548     1.0000 0.52590  0.70088  0.90055  Biso   1.000  C
  C549     1.0000 0.66204  0.50214  0.23062  Biso   1.000  C
  C550     1.0000 0.81014  0.36059  0.53353  Biso   1.000  C
  C551     1.0000 0.02599  0.70028  0.65607  Biso   1.000  C
  C552     1.0000 0.16289  0.47758  0.32053  Biso   1.000  C
  C553     1.0000 0.01425  0.12820  0.82501  Biso   1.000  C
  C554     1.0000 0.81314  0.99342  0.16893  Biso   1.000  C
  C555     1.0000 0.16232  0.79039  0.03462  Biso   1.000  C
  C556     1.0000 0.49822  0.12773  0.73830  Biso   1.000  C
  C557     1.0000 0.32194  0.00054  0.38274  Biso   1.000  C
  C558     1.0000 0.65060  0.78232  0.56115  Biso   1.000  C
  C559     1.0000 0.52544  0.62882  0.81948  Biso   1.000  C
  C560     1.0000 0.73573  0.48141  0.15668  Biso   1.000  C
  C561     1.0000 0.37961  0.28830  0.03924  Biso   1.000  C
  C562     1.0000 0.00903  0.62319  0.73004  Biso   1.000  C
  C563     1.0000 0.23576  0.47754  0.40054  Biso   1.000  C
  C564     1.0000 0.88868  0.28539  0.55096  Biso   1.000  C
  C565     1.0000 0.03303  0.85668  0.23107  Biso   1.000  C
  C566     1.0000 0.21985  0.99028  0.88784  Biso   1.000  C
  C567     1.0000 0.88081  0.19856  0.02748  Biso   1.000  C
  C568     1.0000 0.51865  0.85979  0.32749  Biso   1.000  C
  C569     1.0000 0.71631  0.99215  0.67612  Biso   1.000  C
  C570     1.0000 0.38626  0.19207  0.52829  Biso   1.000  C
  C571     1.0000 0.52961  0.36376  0.24154  Biso   1.000  C
  C572     1.0000 0.30385  0.50737  0.89793  Biso   1.000  C
  C573     1.0000 0.66363  0.70026  0.01356  Biso   1.000  C
  C574     1.0000 0.02241  0.35787  0.32452  Biso   1.000  C
  C575     1.0000 0.80759  0.48389  0.65970  Biso   1.000  C
  C576     1.0000 0.15011  0.69349  0.50052  Biso   1.000  C
  C577     1.0000 0.31935  0.50033  0.13437  Biso   1.000  C
  C578     1.0000 0.12027  0.28174  0.52359  Biso   1.000  C
  C579     1.0000 0.53816  0.09596  0.32313  Biso   1.000  C
  C580     1.0000 0.81460  0.49606  0.42074  Biso   1.000  C
  C581     1.0000 0.61513  0.28367  0.03811  Biso   1.000  C
  C582     1.0000 0.03189  0.09275  0.23391  Biso   1.000  C
  C583     1.0000 0.23087  0.00531  0.12224  Biso   1.000  C
  C584     1.0000 0.42058  0.77803  0.51221  Biso   1.000  C
  C585     1.0000 0.02538  0.59486  0.31350  Biso   1.000  C
  C586     1.0000 0.73380  0.98877  0.44042  Biso   1.000  C
  C587     1.0000 0.93015  0.78676  0.00915  Biso   1.000  C
  C588     1.0000 0.51396  0.59799  0.24142  Biso   1.000  C
  C589     1.0000 0.72820  0.50858  0.92115  Biso   1.000  C
  C590     1.0000 0.91434  0.70018  0.54303  Biso   1.000  C
  C591     1.0000 0.50167  0.89344  0.73522  Biso   1.000  C
  C592     1.0000 0.22739  0.50486  0.63305  Biso   1.000  C
  C593     1.0000 0.42895  0.70331  0.02475  Biso   1.000  C
  C594     1.0000 0.01216  0.89285  0.81479  Biso   1.000  C
  C595     1.0000 0.80488  0.98743  0.93421  Biso   1.000  C
  C596     1.0000 0.61780  0.20619  0.55497  Biso   1.000  C
  C597     1.0000 0.01262  0.38572  0.73735  Biso   1.000  C
  C598     1.0000 0.30273  0.96096  0.61669  Biso   1.000  C
  C599     1.0000 0.11752  0.20624  0.02598  Biso   1.000  C
  C600     1.0000 0.50042  0.39093  0.82747  Biso   1.000  C
  C601     1.0000 0.22185  0.99330  0.91909  Biso   1.000  C
  C602     1.0000 0.91110  0.19986  0.03462  Biso   1.000  C
  C603     1.0000 0.03336  0.88832  0.23115  Biso   1.000  C
  C604     1.0000 0.71756  0.99489  0.64345  Biso   1.000  C
  C605     1.0000 0.41747  0.19310  0.52350  Biso   1.000  C
  C606     1.0000 0.51448  0.89037  0.32968  Biso   1.000  C
  C607     1.0000 0.30529  0.50190  0.92941  Biso   1.000  C
  C608     1.0000 0.63191  0.70119  0.01596  Biso   1.000  C
  C609     1.0000 0.53300  0.39447  0.23919  Biso   1.000  C
  C610     1.0000 0.80920  0.48427  0.62638  Biso   1.000  C
  C611     1.0000 0.11804  0.69444  0.50123  Biso   1.000  C
  C612     1.0000 0.02595  0.38875  0.32443  Biso   1.000  C
  C613     1.0000 0.81263  0.98727  0.13781  Biso   1.000  C
  C614     1.0000 0.13198  0.78966  0.03069  Biso   1.000  C
  C615     1.0000 0.00812  0.09679  0.82340  Biso   1.000  C
  C616     1.0000 0.31980  0.00022  0.41536  Biso   1.000  C
  C617     1.0000 0.61888  0.78395  0.56263  Biso   1.000  C
  C618     1.0000 0.49777  0.09527  0.73779  Biso   1.000  C
  C619     1.0000 0.73492  0.47678  0.12457  Biso   1.000  C
  C620     1.0000 0.41082  0.28807  0.03913  Biso   1.000  C
  C621     1.0000 0.52232  0.59558  0.81999  Biso   1.000  C
  C622     1.0000 0.23358  0.47545  0.43202  Biso   1.000  C
  C623     1.0000 0.91914  0.28725  0.55250  Biso   1.000  C
  C624     1.0000 0.00982  0.59171  0.72946  Biso   1.000  C
  C625     1.0000 0.02355  0.19674  0.93354  Biso   1.000  C
  C626     1.0000 0.92186  0.99585  0.24038  Biso   1.000  C
  C627     1.0000 0.23462  0.89980  0.03797  Biso   1.000  C
  C628     1.0000 0.49178  0.20435  0.63283  Biso   1.000  C
  C629     1.0000 0.43213  0.99974  0.31316  Biso   1.000  C
  C630     1.0000 0.72441  0.88995  0.54539  Biso   1.000  C
  C631     1.0000 0.52762  0.69896  0.93138  Biso   1.000  C
  C632     1.0000 0.63132  0.50431  0.23066  Biso   1.000  C
  C633     1.0000 0.30906  0.39966  0.03078  Biso   1.000  C
  C634     1.0000 0.02739  0.69886  0.62436  Biso   1.000  C
  C635     1.0000 0.13214  0.47925  0.31829  Biso   1.000  C
  C636     1.0000 0.81007  0.39174  0.52566  Biso   1.000  C
  C637     1.0000 0.02331  0.78235  0.12210  Biso   1.000  C
  C638     1.0000 0.11149  0.99938  0.81490  Biso   1.000  C
  C639     1.0000 0.80940  0.09026  0.03270  Biso   1.000  C
  C640     1.0000 0.53244  0.78207  0.43115  Biso   1.000  C
  C641     1.0000 0.60162  0.98980  0.73984  Biso   1.000  C
  C642     1.0000 0.31828  0.07993  0.54669  Biso   1.000  C
  C643     1.0000 0.51643  0.28238  0.13761  Biso   1.000  C
  C644     1.0000 0.41315  0.51045  0.82297  Biso   1.000  C
  C645     1.0000 0.73488  0.58769  0.02182  Biso   1.000  C
  C646     1.0000 0.01165  0.28418  0.43257  Biso   1.000  C
  C647     1.0000 0.91523  0.49516  0.73124  Biso   1.000  C
  C648     1.0000 0.22310  0.58586  0.52431  Biso   1.000  C
  C649     1.0000 0.99648  0.69453  0.42284  Biso   1.000  C
  C650     1.0000 0.39809  0.99732  0.72674  Biso   1.000  C
  C651     1.0000 0.72206  0.38646  0.00748  Biso   1.000  C
  C652     1.0000 0.52298  0.70179  0.13120  Biso   1.000  C
  C653     1.0000 0.90615  0.99527  0.82210  Biso   1.000  C
  C654     1.0000 0.22953  0.38524  0.53945  Biso   1.000  C
  C655     1.0000 0.53405  0.20081  0.43316  Biso   1.000  C
  C656     1.0000 0.11911  0.49020  0.73964  Biso   1.000  C
  C657     1.0000 0.81428  0.88326  0.03756  Biso   1.000  C
  C658     1.0000 0.01907  0.20093  0.13406  Biso   1.000  C
  C659     1.0000 0.61639  0.47708  0.82279  Biso   1.000  C
  C660     1.0000 0.30907  0.88045  0.51027  Biso   1.000  C
  C661     1.0000 0.04378  0.28168  0.63075  Biso   1.000  C
  C662     1.0000 0.63388  0.97149  0.33011  Biso   1.000  C
  C663     1.0000 0.31634  0.60437  0.04137  Biso   1.000  C
  C664     1.0000 0.51458  0.28642  0.93468  Biso   1.000  C
  C665     1.0000 0.12908  0.00288  0.23367  Biso   1.000  C
  C666     1.0000 0.80765  0.59380  0.52026  Biso   1.000  C
  C667     1.0000 0.50165  0.78125  0.63448  Biso   1.000  C
  C668     1.0000 0.92669  0.50066  0.31780  Biso   1.000  C
  C669     1.0000 0.22892  0.10334  0.00670  Biso   1.000  C
  C670     1.0000 0.03253  0.78826  0.92013  Biso   1.000  C
  C671     1.0000 0.42606  0.47606  0.23843  Biso   1.000  C
  C672     1.0000 0.72253  0.09414  0.54104  Biso   1.000  C
  C673     1.0000 0.20509  0.99093  0.82474  Biso   1.000  C
  C674     1.0000 0.81925  0.18641  0.02983  Biso   1.000  C
  C675     1.0000 0.02512  0.79259  0.21584  Biso   1.000  C
  C676     1.0000 0.69846  0.98759  0.73612  Biso   1.000  C
  C677     1.0000 0.32464  0.17558  0.53974  Biso   1.000  C
  C678     1.0000 0.52572  0.79909  0.33730  Biso   1.000  C
  C679     1.0000 0.31748  0.51558  0.83559  Biso   1.000  C
  C680     1.0000 0.72461  0.68390  0.01522  Biso   1.000  C
  C681     1.0000 0.52541  0.29850  0.23072  Biso   1.000  C
  C682     1.0000 0.82201  0.48792  0.72236  Biso   1.000  C
  C683     1.0000 0.21229  0.68003  0.50762  Biso   1.000  C
  C684     1.0000 0.01624  0.29723  0.33585  Biso   1.000  C
  C685     1.0000 0.82882  0.99686  0.22967  Biso   1.000  C
  C686     1.0000 0.22308  0.80596  0.03908  Biso   1.000  C
  C687     1.0000 0.02463  0.18707  0.83806  Biso   1.000  C
  C688     1.0000 0.33687  0.00038  0.32088  Biso   1.000  C
  C689     1.0000 0.71308  0.79466  0.55230  Biso   1.000  C
  C690     1.0000 0.49427  0.19075  0.72789  Biso   1.000  C
  C691     1.0000 0.72087  0.48909  0.21837  Biso   1.000  C
  C692     1.0000 0.31598  0.30528  0.03688  Biso   1.000  C
  C693     1.0000 0.52432  0.69120  0.83691  Biso   1.000  C
  C694     1.0000 0.22282  0.48230  0.33444  Biso   1.000  C
  C695     1.0000 0.82529  0.29841  0.54186  Biso   1.000  C
  C696     1.0000 0.01589  0.68626  0.71716  Biso   1.000  C
  C697     1.0000 0.72622  0.98758  0.34386  Biso   1.000  C
  C698     1.0000 0.33275  0.69690  0.03676  Biso   1.000  C
  C699     1.0000 0.03799  0.29447  0.72779  Biso   1.000  C
  C700     1.0000 0.22247  0.00855  0.21968  Biso   1.000  C
  C701     1.0000 0.81805  0.68712  0.54147  Biso   1.000  C
  C702     1.0000 0.49995  0.29730  0.84265  Biso   1.000  C
  C703     1.0000 0.83107  0.49397  0.32698  Biso   1.000  C
  C704     1.0000 0.21209  0.19632  0.01951  Biso   1.000  C
  C705     1.0000 0.50842  0.79980  0.72874  Biso   1.000  C
  C706     1.0000 0.32943  0.47968  0.22659  Biso   1.000  C
  C707     1.0000 0.71409  0.19276  0.54565  Biso   1.000  C
  C708     1.0000 0.02079  0.79769  0.82668  Biso   1.000  C
  C709     1.0000 0.30671  0.97709  0.71129  Biso   1.000  C
  C710     1.0000 0.71007  0.29369  0.03161  Biso   1.000  C
  C711     1.0000 0.00873  0.68861  0.32845  Biso   1.000  C
  C712     1.0000 0.81373  0.99141  0.83952  Biso   1.000  C
  C713     1.0000 0.21486  0.29068  0.53495  Biso   1.000  C
  C714     1.0000 0.51560  0.69443  0.22636  Biso   1.000  C
  C715     1.0000 0.21164  0.50433  0.72622  Biso   1.000  C
  C716     1.0000 0.83495  0.79400  0.01741  Biso   1.000  C
  C717     1.0000 0.52850  0.19050  0.33937  Biso   1.000  C
  C718     1.0000 0.71224  0.48611  0.83183  Biso   1.000  C
  C719     1.0000 0.32106  0.78512  0.50796  Biso   1.000  C
  C720     1.0000 0.02653  0.18546  0.22783  Biso   1.000  C
  C721     1.0000 0.54338  0.80043  0.31141  Biso   1.000  C
  C722     1.0000 0.32038  0.53592  0.81094  Biso   1.000  C
  C723     1.0000 0.79745  0.30092  0.55737  Biso   1.000  C
  C724     1.0000 0.99857  0.77510  0.21689  Biso   1.000  C
  C725     1.0000 0.79402  0.50161  0.71870  Biso   1.000  C
  C726     1.0000 0.29162  0.31079  0.01757  Biso   1.000  C
  C727     1.0000 0.00320  0.30022  0.30746  Biso   1.000  C
  C728     1.0000 0.23202  0.00741  0.82513  Biso   1.000  C
  C729     1.0000 0.74116  0.79644  0.56782  Biso   1.000  C
  C730     1.0000 0.51237  0.30353  0.25925  Biso   1.000  C
  C731     1.0000 0.72612  0.97305  0.73416  Biso   1.000  C
  C732     1.0000 0.24814  0.80520  0.02088  Biso   1.000  C
  C733     1.0000 0.47608  0.18600  0.75416  Biso   1.000  C
  C734     1.0000 0.71691  0.47373  0.24591  Biso   1.000  C
  C735     1.0000 0.20683  0.70887  0.51878  Biso   1.000  C
  C736     1.0000 0.01271  0.21755  0.84042  Biso   1.000  C
  C737     1.0000 0.24923  0.46586  0.33699  Biso   1.000  C
  C738     1.0000 0.75130  0.68270  0.03322  Biso   1.000  C
  C739     1.0000 0.02450  0.68280  0.74668  Biso   1.000  C
  C740     1.0000 0.80108  0.98150  0.22761  Biso   1.000  C
  C741     1.0000 0.29650  0.17292  0.52492  Biso   1.000  C
  C742     1.0000 0.54128  0.69115  0.81172  Biso   1.000  C
  C743     1.0000 0.30999  0.98300  0.32265  Biso   1.000  C
  C744     1.0000 0.82234  0.21338  0.04511  Biso   1.000  C
  C745     1.0000 0.01924  0.71728  0.33422  Biso   1.000  C
  C746     1.0000 0.27940  0.99119  0.70745  Biso   1.000  C
  C747     1.0000 0.73858  0.29981  0.04385  Biso   1.000  C
  C748     1.0000 0.53390  0.72072  0.22173  Biso   1.000  C
  C749     1.0000 0.79248  0.96719  0.83948  Biso   1.000  C
  C750     1.0000 0.24090  0.29229  0.55354  Biso   1.000  C
  C751     1.0000 0.54975  0.18956  0.31484  Biso   1.000  C
  C752     1.0000 0.24226  0.49637  0.72433  Biso   1.000  C
  C753     1.0000 0.80507  0.79984  0.00284  Biso   1.000  C
  C754     1.0000 0.04687  0.18557  0.25233  Biso   1.000  C
  C755     1.0000 0.70569  0.49696  0.80235  Biso   1.000  C
  C756     1.0000 0.29442  0.78972  0.49092  Biso   1.000  C
  C757     1.0000 0.02756  0.26420  0.72482  Biso   1.000  C
  C758     1.0000 0.71773  0.00151  0.31696  Biso   1.000  C
  C759     1.0000 0.30930  0.69474  0.05978  Biso   1.000  C
  C760     1.0000 0.50977  0.29982  0.81187  Biso   1.000  C
  C761     1.0000 0.24865  0.02485  0.21397  Biso   1.000  C
  C762     1.0000 0.82017  0.71605  0.53081  Biso   1.000  C
  C763     1.0000 0.49589  0.80253  0.75701  Biso   1.000  C
  C764     1.0000 0.80671  0.47512  0.32915  Biso   1.000  C
  C765     1.0000 0.23777  0.19181  0.03551  Biso   1.000  C
  C766     1.0000 0.00213  0.80174  0.80050  Biso   1.000  C
  C767     1.0000 0.33155  0.49264  0.25480  Biso   1.000  C
  C768     1.0000 0.70915  0.21939  0.53245  Biso   1.000  C
  C769     1.0000 0.50308  0.71387  0.84037  Biso   1.000  C
  C770     1.0000 0.82489  0.46909  0.74888  Biso   1.000  C
  C771     1.0000 0.70781  0.76862  0.53598  Biso   1.000  C
  C772     1.0000 0.00254  0.71426  0.71153  Biso   1.000  C
  C773     1.0000 0.29243  0.49649  0.83650  Biso   1.000  C
  C774     1.0000 0.21939  0.78301  0.05915  Biso   1.000  C
  C775     1.0000 0.04365  0.18128  0.81206  Biso   1.000  C
  C776     1.0000 0.69390  0.00560  0.76290  Biso   1.000  C
  C777     1.0000 0.82953  0.27049  0.52650  Biso   1.000  C
  C778     1.0000 0.51079  0.21625  0.72863  Biso   1.000  C
  C779     1.0000 0.19801  0.97528  0.79829  Biso   1.000  C
  C780     1.0000 0.31591  0.27986  0.05502  Biso   1.000  C
  C781     1.0000 0.54114  0.27077  0.22700  Biso   1.000  C
  C782     1.0000 0.21795  0.50051  0.31005  Biso   1.000  C
  C783     1.0000 0.32997  0.20357  0.55219  Biso   1.000  C
  C784     1.0000 0.03057  0.26820  0.34041  Biso   1.000  C
  C785     1.0000 0.74719  0.50403  0.21340  Biso   1.000  C
  C786     1.0000 0.79145  0.18191  0.01573  Biso   1.000  C
  C787     1.0000 0.04656  0.78787  0.23786  Biso   1.000  C
  C788     1.0000 0.33981  0.02186  0.29699  Biso   1.000  C
  C789     1.0000 0.24203  0.67372  0.49672  Biso   1.000  C
  C790     1.0000 0.50335  0.77674  0.33994  Biso   1.000  C
  C791     1.0000 0.83375  0.01327  0.25675  Biso   1.000  C
  C792     1.0000 0.72257  0.70828  0.99596  Biso   1.000  C
  C793     1.0000 0.50893  0.21452  0.34264  Biso   1.000  C
  C794     1.0000 0.30203  0.46604  0.22015  Biso   1.000  C
  C795     1.0000 0.21203  0.26378  0.51675  Biso   1.000  C
  C796     1.0000 0.00415  0.20818  0.22556  Biso   1.000  C
  C797     1.0000 0.82934  0.51355  0.30129  Biso   1.000  C
  C798     1.0000 0.70542  0.26555  0.01991  Biso   1.000  C
  C799     1.0000 0.99789  0.68188  0.29901  Biso   1.000  C
  C800     1.0000 0.22046  0.99056  0.24607  Biso   1.000  C
  C801     1.0000 0.32473  0.75708  0.52318  Biso   1.000  C
  C802     1.0000 0.49790  0.69300  0.25121  Biso   1.000  C
  C803     1.0000 0.75715  0.97894  0.34605  Biso   1.000  C
  C804     1.0000 0.84035  0.76495  0.02671  Biso   1.000  C
  C805     1.0000 0.52473  0.77373  0.72403  Biso   1.000  C
  C806     1.0000 0.74065  0.47478  0.83642  Biso   1.000  C
  C807     1.0000 0.79148  0.67907  0.55505  Biso   1.000  C
  C808     1.0000 0.03834  0.76999  0.82622  Biso   1.000  C
  C809     1.0000 0.20426  0.51894  0.75406  Biso   1.000  C
  C810     1.0000 0.33402  0.72271  0.02031  Biso   1.000  C
  C811     1.0000 0.04985  0.30188  0.75540  Biso   1.000  C
  C812     1.0000 0.81102  0.01324  0.81774  Biso   1.000  C
  C813     1.0000 0.74207  0.18615  0.55660  Biso   1.000  C
  C814     1.0000 0.48679  0.26954  0.84959  Biso   1.000  C
  C815     1.0000 0.31148  0.96430  0.74048  Biso   1.000  C
  C816     1.0000 0.20712  0.22431  0.00689  Biso   1.000  C
  C817     1.0000 0.02269  0.23988  0.82155  Biso   1.000  C
  C818     1.0000 0.78059  0.98260  0.24970  Biso   1.000  C
  C819     1.0000 0.26778  0.78346  0.02121  Biso   1.000  C
  C820     1.0000 0.47378  0.20677  0.77559  Biso   1.000  C
  C821     1.0000 0.29063  0.98492  0.30105  Biso   1.000  C
  C822     1.0000 0.76040  0.77369  0.56733  Biso   1.000  C
  C823     1.0000 0.53810  0.71309  0.79219  Biso   1.000  C
  C824     1.0000 0.73817  0.47502  0.26696  Biso   1.000  C
  C825     1.0000 0.26891  0.29247  0.01670  Biso   1.000  C
  C826     1.0000 0.02207  0.70353  0.76859  Biso   1.000  C
  C827     1.0000 0.26904  0.46759  0.31537  Biso   1.000  C
  C828     1.0000 0.77712  0.27840  0.55756  Biso   1.000  C
  C829     1.0000 0.99573  0.75292  0.23741  Biso   1.000  C
  C830     1.0000 0.25132  0.00327  0.80323  Biso   1.000  C
  C831     1.0000 0.80142  0.23409  0.04409  Biso   1.000  C
  C832     1.0000 0.54101  0.77993  0.28920  Biso   1.000  C
  C833     1.0000 0.74818  0.97526  0.75406  Biso   1.000  C
  C834     1.0000 0.27590  0.19546  0.52545  Biso   1.000  C
  C835     1.0000 0.51724  0.28340  0.28221  Biso   1.000  C
  C836     1.0000 0.29916  0.53646  0.78924  Biso   1.000  C
  C837     1.0000 0.77247  0.70296  0.02976  Biso   1.000  C
  C838     1.0000 0.00478  0.27790  0.28798  Biso   1.000  C
  C839     1.0000 0.77303  0.50137  0.73936  Biso   1.000  C
  C840     1.0000 0.22648  0.73020  0.51911  Biso   1.000  C
  C841     1.0000 0.21848  0.97189  0.77616  Biso   1.000  C
  C842     1.0000 0.77093  0.20308  0.01751  Biso   1.000  C
  C843     1.0000 0.04220  0.76634  0.25920  Biso   1.000  C
  C844     1.0000 0.71629  0.00679  0.78320  Biso   1.000  C
  C845     1.0000 0.30950  0.22475  0.55002  Biso   1.000  C
  C846     1.0000 0.50045  0.75773  0.31745  Biso   1.000  C
  C847     1.0000 0.26989  0.50032  0.81697  Biso   1.000  C
  C848     1.0000 0.74614  0.72687  0.99190  Biso   1.000  C
  C849     1.0000 0.54300  0.25090  0.24945  Biso   1.000  C
  C850     1.0000 0.80289  0.46883  0.76899  Biso   1.000  C
  C851     1.0000 0.26256  0.69499  0.50019  Biso   1.000  C
  C852     1.0000 0.03376  0.24753  0.31873  Biso   1.000  C
  C853     1.0000 0.81200  0.01524  0.27698  Biso   1.000  C
  C854     1.0000 0.24113  0.76213  0.06101  Biso   1.000  C
  C855     1.0000 0.05090  0.20419  0.79242  Biso   1.000  C
  C856     1.0000 0.31683  0.02321  0.27650  Biso   1.000  C
  C857     1.0000 0.72827  0.74625  0.53466  Biso   1.000  C
  C858     1.0000 0.51111  0.23548  0.75154  Biso   1.000  C
  C859     1.0000 0.76675  0.50569  0.23490  Biso   1.000  C
  C860     1.0000 0.29258  0.25984  0.05265  Biso   1.000  C
  C861     1.0000 0.49945  0.73476  0.81901  Biso   1.000  C
  C862     1.0000 0.23704  0.49902  0.28638  Biso   1.000  C
  C863     1.0000 0.80750  0.25020  0.52708  Biso   1.000  C
  C864     1.0000 0.00138  0.73684  0.73308  Biso   1.000  C
  C865     1.0000 0.72689  0.49448  0.78192  Biso   1.000  C
  C866     1.0000 0.79935  0.73667  0.53588  Biso   1.000  C
  C867     1.0000 0.50137  0.78394  0.77967  Biso   1.000  C
  C868     1.0000 0.26322  0.50512  0.74484  Biso   1.000  C
  C869     1.0000 0.28819  0.71588  0.06068  Biso   1.000  C
  C870     1.0000 0.99893  0.78005  0.77903  Biso   1.000  C
  C871     1.0000 0.77086  0.96857  0.81952  Biso   1.000  C
  C872     1.0000 0.73167  0.23883  0.52922  Biso   1.000  C
  C873     1.0000 0.03156  0.24485  0.74648  Biso   1.000  C
  C874     1.0000 0.25934  0.99462  0.73051  Biso   1.000  C
  C875     1.0000 0.25598  0.21454  0.03993  Biso   1.000  C
  C876     1.0000 0.50682  0.27863  0.79209  Biso   1.000  C
  C877     1.0000 0.31028  0.49035  0.27587  Biso   1.000  C
  C878     1.0000 0.26108  0.26976  0.55277  Biso   1.000  C
  C879     1.0000 0.55218  0.21308  0.29685  Biso   1.000  C
  C880     1.0000 0.78570  0.47475  0.30849  Biso   1.000  C
  C881     1.0000 0.75845  0.27770  0.04472  Biso   1.000  C
  C882     1.0000 0.04577  0.21019  0.27177  Biso   1.000  C
  C883     1.0000 0.27053  0.02294  0.23299  Biso   1.000  C
  C884     1.0000 0.27262  0.76921  0.49230  Biso   1.000  C
  C885     1.0000 0.02278  0.73696  0.31088  Biso   1.000  C
  C886     1.0000 0.73761  0.00681  0.29527  Biso   1.000  C
  C887     1.0000 0.78580  0.77672  0.00079  Biso   1.000  C
  C888     1.0000 0.53130  0.74332  0.24187  Biso   1.000  C
  C889     1.0000 0.77548  0.98408  0.32316  Biso   1.000  C
  C890     1.0000 0.31257  0.74453  0.02317  Biso   1.000  C
  C891     1.0000 0.05285  0.28139  0.77794  Biso   1.000  C
  C892     1.0000 0.24319  0.99318  0.26637  Biso   1.000  C
  C893     1.0000 0.76922  0.69982  0.55769  Biso   1.000  C
  C894     1.0000 0.48568  0.24707  0.82798  Biso   1.000  C
  C895     1.0000 0.80878  0.51220  0.27947  Biso   1.000  C
  C896     1.0000 0.22567  0.24820  0.01326  Biso   1.000  C
  C897     1.0000 0.52764  0.75310  0.74695  Biso   1.000  C
  C898     1.0000 0.28003  0.46593  0.24103  Biso   1.000  C
  C899     1.0000 0.76401  0.20589  0.55520  Biso   1.000  C
  C900     1.0000 0.03740  0.75182  0.80375  Biso   1.000  C
  C901     1.0000 0.29100  0.96572  0.76203  Biso   1.000  C
  C902     1.0000 0.72672  0.24428  0.02028  Biso   1.000  C
  C903     1.0000 0.00143  0.70193  0.27585  Biso   1.000  C
  C904     1.0000 0.78802  0.01380  0.79984  Biso   1.000  C
  C905     1.0000 0.23348  0.24175  0.51893  Biso   1.000  C
  C906     1.0000 0.50054  0.71309  0.27289  Biso   1.000  C
  C907     1.0000 0.22422  0.52455  0.77617  Biso   1.000  C
  C908     1.0000 0.82055  0.74249  0.02449  Biso   1.000  C
  C909     1.0000 0.51057  0.23647  0.32216  Biso   1.000  C
  C910     1.0000 0.76129  0.47546  0.81550  Biso   1.000  C
  C911     1.0000 0.30208  0.73683  0.52099  Biso   1.000  C
  C912     1.0000 0.00367  0.23059  0.24510  Biso   1.000  C
  C913     1.0000 0.77749  0.48373  0.76403  Biso   1.000  C
  C914     1.0000 0.75314  0.74794  0.55232  Biso   1.000  C
  C915     1.0000 0.51894  0.73542  0.79645  Biso   1.000  C
  C916     1.0000 0.27414  0.51992  0.79367  Biso   1.000  C
  C917     1.0000 0.26421  0.76051  0.04106  Biso   1.000  C
  C918     1.0000 0.01434  0.73225  0.76045  Biso   1.000  C
  C919     1.0000 0.74325  0.99168  0.77882  Biso   1.000  C
  C920     1.0000 0.78187  0.25332  0.54204  Biso   1.000  C
  C921     1.0000 0.04035  0.23209  0.79688  Biso   1.000  C
  C922     1.0000 0.24440  0.98474  0.77992  Biso   1.000  C
  C923     1.0000 0.27011  0.26683  0.03384  Biso   1.000  C
  C924     1.0000 0.49183  0.23099  0.77459  Biso   1.000  C
  C925     1.0000 0.26127  0.48183  0.28985  Biso   1.000  C
  C926     1.0000 0.28173  0.22153  0.53789  Biso   1.000  C
  C927     1.0000 0.53089  0.25754  0.27686  Biso   1.000  C
  C928     1.0000 0.76395  0.49143  0.26169  Biso   1.000  C
  C929     1.0000 0.77491  0.22742  0.03256  Biso   1.000  C
  C930     1.0000 0.02024  0.25170  0.29204  Biso   1.000  C
  C931     1.0000 0.29196  0.00594  0.27991  Biso   1.000  C
  C932     1.0000 0.25377  0.72240  0.50794  Biso   1.000  C
  C933     1.0000 0.01782  0.74891  0.25826  Biso   1.000  C
  C934     1.0000 0.78608  0.00012  0.27390  Biso   1.000  C
  C935     1.0000 0.76930  0.72595  0.01146  Biso   1.000  C
  C936     1.0000 0.51832  0.75896  0.29148  Biso   1.000  C
  C937     1.0000 0.75272  0.25032  0.03278  Biso   1.000  C
  C938     1.0000 0.01496  0.72864  0.28258  Biso   1.000  C
  C939     1.0000 0.26508  0.98089  0.75658  Biso   1.000  C
  C940     1.0000 0.25738  0.24405  0.53683  Biso   1.000  C
  C941     1.0000 0.51787  0.73792  0.26891  Biso   1.000  C
  C942     1.0000 0.76741  0.99179  0.80050  Biso   1.000  C
  C943     1.0000 0.79242  0.74890  0.01328  Biso   1.000  C
  C944     1.0000 0.53155  0.23486  0.29886  Biso   1.000  C
  C945     1.0000 0.25416  0.51892  0.76976  Biso   1.000  C
  C946     1.0000 0.27663  0.74307  0.50717  Biso   1.000  C
  C947     1.0000 0.02308  0.23094  0.26925  Biso   1.000  C
  C948     1.0000 0.75450  0.48559  0.78824  Biso   1.000  C
  C949     1.0000 0.28899  0.74106  0.04365  Biso   1.000  C
  C950     1.0000 0.04080  0.25302  0.77368  Biso   1.000  C
  C951     1.0000 0.76603  0.99816  0.29785  Biso   1.000  C
  C952     1.0000 0.77533  0.72808  0.54977  Biso   1.000  C
  C953     1.0000 0.49662  0.25173  0.80012  Biso   1.000  C
  C954     1.0000 0.26808  0.00924  0.25935  Biso   1.000  C
  C955     1.0000 0.25037  0.24239  0.02926  Biso   1.000  C
  C956     1.0000 0.51615  0.75790  0.77386  Biso   1.000  C
  C957     1.0000 0.78825  0.49113  0.28253  Biso   1.000  C
  C958     1.0000 0.75853  0.23140  0.54147  Biso   1.000  C
  C959     1.0000 0.01641  0.75581  0.78181  Biso   1.000  C
  C960     1.0000 0.28424  0.47997  0.26678  Biso   1.000  C
  Cu1      1.0000 0.02045  0.48710  0.67846  Biso   1.000  Cu
  Cu2      1.0000 0.66643  0.99328  0.53911  Biso   1.000  Cu
  Cu3      1.0000 0.52812  0.64420  0.03483  Biso   1.000  Cu
  Cu4      1.0000 0.51369  0.49605  0.87612  Biso   1.000  Cu
  Cu5      1.0000 0.17320  0.00067  0.02342  Biso   1.000  Cu
  Cu6      1.0000 0.01594  0.64283  0.52191  Biso   1.000  Cu
  Cu7      1.0000 0.50292  0.99573  0.67901  Biso   1.000  Cu
  Cu8      1.0000 0.86304  0.49301  0.52493  Biso   1.000  Cu
  Cu9      1.0000 0.01614  0.14760  0.03457  Biso   1.000  Cu
  Cu10     1.0000 0.01165  0.99496  0.86946  Biso   1.000  Cu
  Cu11     1.0000 0.36919  0.50045  0.02969  Biso   1.000  Cu
  Cu12     1.0000 0.52062  0.14827  0.53541  Biso   1.000  Cu
  Cu13     1.0000 0.02741  0.49287  0.37280  Biso   1.000  Cu
  Cu14     1.0000 0.36441  0.97939  0.51876  Biso   1.000  Cu
  Cu15     1.0000 0.51516  0.33842  0.03868  Biso   1.000  Cu
  Cu16     1.0000 0.52682  0.49548  0.18168  Biso   1.000  Cu
  Cu17     1.0000 0.86552  0.98879  0.03360  Biso   1.000  Cu
  Cu18     1.0000 0.01982  0.33842  0.53348  Biso   1.000  Cu
  Cu19     1.0000 0.52804  0.99328  0.38038  Biso   1.000  Cu
  Cu20     1.0000 0.17206  0.48579  0.52939  Biso   1.000  Cu
  Cu21     1.0000 0.02882  0.84355  0.02218  Biso   1.000  Cu
  Cu22     1.0000 0.02272  0.99228  0.17746  Biso   1.000  Cu
  Cu23     1.0000 0.67537  0.48993  0.02339  Biso   1.000  Cu
  Cu24     1.0000 0.51833  0.83502  0.53305  Biso   1.000  Cu
  Cu25     1.0000 0.22790  0.00227  0.02051  Biso   1.000  Cu
  Cu26     1.0000 0.01306  0.20048  0.03224  Biso   1.000  Cu
  Cu27     1.0000 0.02569  0.99079  0.23329  Biso   1.000  Cu
  Cu28     1.0000 0.72077  0.99297  0.54005  Biso   1.000  Cu
  Cu29     1.0000 0.51667  0.20131  0.53355  Biso   1.000  Cu
  Cu30     1.0000 0.53181  0.99223  0.32653  Biso   1.000  Cu
  Cu31     1.0000 0.31382  0.50096  0.03325  Biso   1.000  Cu
  Cu32     1.0000 0.52837  0.69923  0.02910  Biso   1.000  Cu
  Cu33     1.0000 0.52815  0.49554  0.23559  Biso   1.000  Cu
  Cu34     1.0000 0.81018  0.49453  0.52400  Biso   1.000  Cu
  Cu35     1.0000 0.01705  0.69691  0.52285  Biso   1.000  Cu
  Cu36     1.0000 0.02553  0.49054  0.31850  Biso   1.000  Cu
  Cu37     1.0000 0.80963  0.99015  0.03692  Biso   1.000  Cu
  Cu38     1.0000 0.03101  0.78891  0.02182  Biso   1.000  Cu
  Cu39     1.0000 0.00771  0.99763  0.81613  Biso   1.000  Cu
  Cu40     1.0000 0.30860  0.98538  0.51517  Biso   1.000  Cu
  Cu41     1.0000 0.51919  0.78133  0.53421  Biso   1.000  Cu
  Cu42     1.0000 0.50151  0.99453  0.73332  Biso   1.000  Cu
  Cu43     1.0000 0.72774  0.48692  0.02244  Biso   1.000  Cu
  Cu44     1.0000 0.51382  0.28391  0.03493  Biso   1.000  Cu
  Cu45     1.0000 0.51582  0.49232  0.82117  Biso   1.000  Cu
  Cu46     1.0000 0.22672  0.48897  0.53288  Biso   1.000  Cu
  Cu47     1.0000 0.02009  0.28365  0.53334  Biso   1.000  Cu
  Cu48     1.0000 0.01592  0.48719  0.73325  Biso   1.000  Cu
  H1       1.0000 0.25160  0.77348  0.48497  Biso   1.000  H
  H2       1.0000 0.51026  0.28763  0.77012  Biso   1.000  H
  H3       1.0000 0.76614  0.46225  0.31069  Biso   1.000  H
  H4       1.0000 0.76824  0.77949  0.98694  Biso   1.000  H
  H5       1.0000 0.02446  0.22181  0.74562  Biso   1.000  H
  H6       1.0000 0.31344  0.49985  0.29731  Biso   1.000  H
  H7       1.0000 0.28027  0.26955  0.56572  Biso   1.000  H
  H8       1.0000 0.98293  0.78301  0.76188  Biso   1.000  H
  H9       1.0000 0.73430  0.02100  0.27695  Biso   1.000  H
  H10      1.0000 0.78068  0.28277  0.05096  Biso   1.000  H
  H11      1.0000 0.49534  0.78934  0.80099  Biso   1.000  H
  H12      1.0000 0.28768  0.03838  0.23001  Biso   1.000  H
  H13      1.0000 0.72913  0.25946  0.51777  Biso   1.000  H
  H14      1.0000 0.53794  0.76585  0.23417  Biso   1.000  H
  H15      1.0000 0.28550  0.49806  0.74154  Biso   1.000  H
  H16      1.0000 0.27769  0.20974  0.04964  Biso   1.000  H
  H17      1.0000 0.02950  0.75799  0.31730  Biso   1.000  H
  H18      1.0000 0.72338  0.50566  0.76120  Biso   1.000  H
  H19      1.0000 0.80193  0.75933  0.52944  Biso   1.000  H
  H20      1.0000 0.06142  0.21175  0.28852  Biso   1.000  H
  H21      1.0000 0.23865  0.00557  0.72909  Biso   1.000  H
  H22      1.0000 0.26935  0.71200  0.07422  Biso   1.000  H
  H23      1.0000 0.56943  0.21418  0.28132  Biso   1.000  H
  H24      1.0000 0.75311  0.95164  0.81872  Biso   1.000  H
  H25      1.0000 0.26986  0.01718  0.80379  Biso   1.000  H
  H26      1.0000 0.80737  0.25524  0.05366  Biso   1.000  H
  H27      1.0000 0.97544  0.74089  0.23977  Biso   1.000  H
  H28      1.0000 0.76587  0.95900  0.74878  Biso   1.000  H
  H29      1.0000 0.25494  0.18891  0.51860  Biso   1.000  H
  H30      1.0000 0.55546  0.78223  0.27088  Biso   1.000  H
  H31      1.0000 0.30259  0.55225  0.77107  Biso   1.000  H
  H32      1.0000 0.79179  0.70160  0.04438  Biso   1.000  H
  H33      1.0000 0.51059  0.28876  0.30390  Biso   1.000  H
  H34      1.0000 0.75364  0.51267  0.73337  Biso   1.000  H
  H35      1.0000 0.22097  0.75186  0.52732  Biso   1.000  H
  H36      1.0000 0.99371  0.28230  0.26666  Biso   1.000  H
  H37      1.0000 0.76115  0.97029  0.24775  Biso   1.000  H
  H38      1.0000 0.28387  0.78342  0.00315  Biso   1.000  H
  H39      1.0000 0.01564  0.26108  0.82056  Biso   1.000  H
  H40      1.0000 0.27444  0.96729  0.30288  Biso   1.000  H
  H41      1.0000 0.77909  0.77548  0.58238  Biso   1.000  H
  H42      1.0000 0.46039  0.20237  0.79609  Biso   1.000  H
  H43      1.0000 0.73301  0.46254  0.28573  Biso   1.000  H
  H44      1.0000 0.25033  0.29828  0.00310  Biso   1.000  H
  H45      1.0000 0.55090  0.71223  0.77302  Biso   1.000  H
  H46      1.0000 0.29039  0.45946  0.31744  Biso   1.000  H
  H47      1.0000 0.75587  0.28274  0.56889  Biso   1.000  H
  H48      1.0000 0.02694  0.69722  0.79056  Biso   1.000  H
  H49      1.0000 0.23375  0.51104  0.26668  Biso   1.000  H
  H50      1.0000 0.31721  0.24528  0.55886  Biso   1.000  H
  H51      1.0000 0.55462  0.22969  0.24532  Biso   1.000  H
  H52      1.0000 0.78637  0.51945  0.22932  Biso   1.000  H
  H53      1.0000 0.75022  0.19753  0.00810  Biso   1.000  H
  H54      1.0000 0.04766  0.22883  0.32444  Biso   1.000  H
  H55      1.0000 0.31515  0.04021  0.26111  Biso   1.000  H
  H56      1.0000 0.28491  0.68968  0.49503  Biso   1.000  H
  H57      1.0000 0.05715  0.76077  0.27690  Biso   1.000  H
  H58      1.0000 0.81196  0.02725  0.29708  Biso   1.000  H
  H59      1.0000 0.74525  0.74211  0.97402  Biso   1.000  H
  H60      1.0000 0.48241  0.74094  0.32090  Biso   1.000  H
  H61      1.0000 0.80430  0.45466  0.78866  Biso   1.000  H
  H62      1.0000 0.72719  0.72807  0.51964  Biso   1.000  H
  H63      1.0000 0.48301  0.75080  0.82027  Biso   1.000  H
  H64      1.0000 0.25138  0.48633  0.81727  Biso   1.000  H
  H65      1.0000 0.23645  0.74425  0.07775  Biso   1.000  H
  H66      1.0000 0.99315  0.75730  0.72794  Biso   1.000  H
  H67      1.0000 0.71602  0.02175  0.80161  Biso   1.000  H
  H68      1.0000 0.81096  0.22938  0.51470  Biso   1.000  H
  H69      1.0000 0.06235  0.19875  0.77219  Biso   1.000  H
  H70      1.0000 0.21404  0.95789  0.75843  Biso   1.000  H
  H71      1.0000 0.29378  0.24063  0.06561  Biso   1.000  H
  H72      1.0000 0.52845  0.25203  0.75095  Biso   1.000  H
  H73      1.0000 0.78222  0.46979  0.82511  Biso   1.000  H
  H74      1.0000 0.74907  0.69562  0.56745  Biso   1.000  H
  H75      1.0000 0.53820  0.73223  0.74335  Biso   1.000  H
  H76      1.0000 0.21831  0.53376  0.79611  Biso   1.000  H
  H77      1.0000 0.31714  0.76598  0.01410  Biso   1.000  H
  H78      1.0000 0.04979  0.73155  0.80334  Biso   1.000  H
  H79      1.0000 0.78783  0.03206  0.78401  Biso   1.000  H
  H80      1.0000 0.78504  0.20240  0.56134  Biso   1.000  H
  H81      1.0000 0.06390  0.28854  0.79784  Biso   1.000  H
  H82      1.0000 0.29896  0.95808  0.78382  Biso   1.000  H
  H83      1.0000 0.21802  0.26886  0.00728  Biso   1.000  H
  H84      1.0000 0.47524  0.22716  0.83366  Biso   1.000  H
  H85      1.0000 0.26030  0.45338  0.23760  Biso   1.000  H
  H86      1.0000 0.23143  0.22386  0.50283  Biso   1.000  H
  H87      1.0000 0.49610  0.25504  0.32465  Biso   1.000  H
  H88      1.0000 0.81281  0.52916  0.26318  Biso   1.000  H
  H89      1.0000 0.72180  0.22291  0.01125  Biso   1.000  H
  H90      1.0000 0.98871  0.24759  0.24193  Biso   1.000  H
  H91      1.0000 0.24163  0.98062  0.28789  Biso   1.000  H
  H92      1.0000 0.30543  0.71603  0.53238  Biso   1.000  H
  H93      1.0000 0.99196  0.69639  0.25461  Biso   1.000  H
  H94      1.0000 0.79685  0.97549  0.32607  Biso   1.000  H
  H95      1.0000 0.82441  0.72201  0.03432  Biso   1.000  H
  H96      1.0000 0.48774  0.71003  0.29225  Biso   1.000  H
  H97      1.0000 0.88129  0.99077  0.93980  Biso   1.000  H
  H98      1.0000 0.93596  0.86036  0.02130  Biso   1.000  H
  H99      1.0000 0.02519  0.90512  0.88717  Biso   1.000  H
  H100     1.0000 0.37680  0.96854  0.61178  Biso   1.000  H
  H101     1.0000 0.42710  0.85172  0.52226  Biso   1.000  H
  H102     1.0000 0.49505  0.89909  0.65986  Biso   1.000  H
  H103     1.0000 0.65519  0.50045  0.93683  Biso   1.000  H
  H104     1.0000 0.60608  0.35776  0.02803  Biso   1.000  H
  H105     1.0000 0.50845  0.40494  0.90204  Biso   1.000  H
  H106     1.0000 0.15502  0.49117  0.61891  Biso   1.000  H
  H107     1.0000 0.11179  0.35767  0.53104  Biso   1.000  H
  H108     1.0000 0.02352  0.39886  0.66461  Biso   1.000  H
  H109     1.0000 0.15709  0.00707  0.11643  Biso   1.000  H
  H110     1.0000 0.10914  0.13075  0.01980  Biso   1.000  H
  H111     1.0000 0.02750  0.08594  0.15843  Biso   1.000  H
  H112     1.0000 0.65769  0.99186  0.44266  Biso   1.000  H
  H113     1.0000 0.60881  0.13383  0.53809  Biso   1.000  H
  H114     1.0000 0.53582  0.08280  0.39837  Biso   1.000  H
  H115     1.0000 0.39643  0.49530  0.12408  Biso   1.000  H
  H116     1.0000 0.43285  0.62807  0.02232  Biso   1.000  H
  H117     1.0000 0.51940  0.58727  0.16579  Biso   1.000  H
  H118     1.0000 0.88777  0.50843  0.43396  Biso   1.000  H
  H119     1.0000 0.92499  0.62565  0.52587  Biso   1.000  H
  H120     1.0000 0.02442  0.58479  0.39074  Biso   1.000  H
  H121     1.0000 0.10063  0.99681  0.88777  Biso   1.000  H
  H122     1.0000 0.88541  0.08191  0.03868  Biso   1.000  H
  H123     1.0000 0.02394  0.85860  0.11368  Biso   1.000  H
  H124     1.0000 0.59886  0.98178  0.66525  Biso   1.000  H
  H125     1.0000 0.39146  0.07351  0.52724  Biso   1.000  H
  H126     1.0000 0.53439  0.85741  0.44183  Biso   1.000  H
  H127     1.0000 0.42213  0.50150  0.89775  Biso   1.000  H
  H128     1.0000 0.66205  0.58281  0.03687  Biso   1.000  H
  H129     1.0000 0.52703  0.35794  0.12326  Biso   1.000  H
  H130     1.0000 0.92766  0.49005  0.65751  Biso   1.000  H
  H131     1.0000 0.14768  0.57679  0.51620  Biso   1.000  H
  H132     1.0000 0.01965  0.35872  0.44261  Biso   1.000  H
  H133     1.0000 0.93253  0.99516  0.16507  Biso   1.000  H
  H134     1.0000 0.15959  0.91010  0.03146  Biso   1.000  H
  H135     1.0000 0.01118  0.12338  0.94266  Biso   1.000  H
  H136     1.0000 0.43577  0.99712  0.39147  Biso   1.000  H
  H137     1.0000 0.64786  0.90074  0.54397  Biso   1.000  H
  H138     1.0000 0.50367  0.12966  0.62499  Biso   1.000  H
  H139     1.0000 0.61669  0.49831  0.15760  Biso   1.000  H
  H140     1.0000 0.38556  0.40611  0.03024  Biso   1.000  H
  H141     1.0000 0.52049  0.62590  0.93980  Biso   1.000  H
  H142     1.0000 0.11745  0.48569  0.39229  Biso   1.000  H
  H143     1.0000 0.88368  0.40697  0.53622  Biso   1.000  H
  H144     1.0000 0.03670  0.62453  0.61128  Biso   1.000  H
  H145     1.0000 0.60706  0.49767  0.89495  Biso   1.000  H
  H146     1.0000 0.88444  0.58359  0.51740  Biso   1.000  H
  H147     1.0000 0.50157  0.85704  0.62057  Biso   1.000  H
  H148     1.0000 0.11094  0.48808  0.66358  Biso   1.000  H
  H149     1.0000 0.39009  0.59269  0.02816  Biso   1.000  H
  H150     1.0000 0.03553  0.86229  0.93138  Biso   1.000  H
  H151     1.0000 0.92024  0.98446  0.89777  Biso   1.000  H
  H152     1.0000 0.64958  0.08656  0.53325  Biso   1.000  H
  H153     1.0000 0.03002  0.35495  0.61920  Biso   1.000  H
  H154     1.0000 0.41841  0.97919  0.65778  Biso   1.000  H
  H155     1.0000 0.15561  0.08962  0.01778  Biso   1.000  H
  H156     1.0000 0.50768  0.36172  0.94740  Biso   1.000  H
  H157     1.0000 0.43718  0.49427  0.16611  Biso   1.000  H
  H158     1.0000 0.15318  0.39388  0.53706  Biso   1.000  H
  H159     1.0000 0.54367  0.12458  0.44165  Biso   1.000  H
  H160     1.0000 0.93653  0.49969  0.39168  Biso   1.000  H
  H161     1.0000 0.64485  0.39867  0.01520  Biso   1.000  H
  H162     1.0000 0.03394  0.12942  0.11814  Biso   1.000  H
  H163     1.0000 0.11549  0.99708  0.15890  Biso   1.000  H
  H164     1.0000 0.38376  0.88933  0.50729  Biso   1.000  H
  H165     1.0000 0.01711  0.62002  0.42653  Biso   1.000  H
  H166     1.0000 0.61859  0.98206  0.40271  Biso   1.000  H
  H167     1.0000 0.88604  0.90294  0.03322  Biso   1.000  H
  H168     1.0000 0.53147  0.62782  0.12740  Biso   1.000  H
  H169     1.0000 0.00655  0.08167  0.89877  Biso   1.000  H
  H170     1.0000 0.88894  0.98643  0.12549  Biso   1.000  H
  H171     1.0000 0.11557  0.86528  0.03057  Biso   1.000  H
  H172     1.0000 0.49692  0.08665  0.66219  Biso   1.000  H
  H173     1.0000 0.39417  0.99234  0.43215  Biso   1.000  H
  H174     1.0000 0.60983  0.85980  0.54720  Biso   1.000  H
  H175     1.0000 0.52394  0.58405  0.89566  Biso   1.000  H
  H176     1.0000 0.65953  0.48586  0.11233  Biso   1.000  H
  H177     1.0000 0.42289  0.36553  0.04381  Biso   1.000  H
  H178     1.0000 0.02477  0.57922  0.65566  Biso   1.000  H
  H179     1.0000 0.15743  0.47933  0.43767  Biso   1.000  H
  H180     1.0000 0.93146  0.36175  0.54089  Biso   1.000  H
  H181     1.0000 0.02769  0.90216  0.15583  Biso   1.000  H
  H182     1.0000 0.14593  0.00004  0.93028  Biso   1.000  H
  H183     1.0000 0.92557  0.12482  0.03919  Biso   1.000  H
  H184     1.0000 0.53378  0.90353  0.40026  Biso   1.000  H
  H185     1.0000 0.64439  0.99630  0.62795  Biso   1.000  H
  H186     1.0000 0.43053  0.11771  0.52567  Biso   1.000  H
  H187     1.0000 0.53810  0.39709  0.16319  Biso   1.000  H
  H188     1.0000 0.38349  0.49902  0.93360  Biso   1.000  H
  H189     1.0000 0.61831  0.62647  0.02900  Biso   1.000  H
  H190     1.0000 0.01233  0.40173  0.39866  Biso   1.000  H
  H191     1.0000 0.88519  0.48447  0.61641  Biso   1.000  H
  H192     1.0000 0.10885  0.61634  0.50915  Biso   1.000  H
  H193     1.0000 0.28988  0.83647  0.51253  Biso   1.000  H
  H194     1.0000 0.51301  0.26373  0.89304  Biso   1.000  H
  H195     1.0000 0.88591  0.50174  0.29439  Biso   1.000  H
  H196     1.0000 0.79641  0.84059  0.03373  Biso   1.000  H
  H197     1.0000 0.04796  0.26041  0.67344  Biso   1.000  H
  H198     1.0000 0.38453  0.47213  0.26209  Biso   1.000  H
  H199     1.0000 0.24761  0.34087  0.53752  Biso   1.000  H
  H200     1.0000 0.02446  0.76416  0.88390  Biso   1.000  H
  H201     1.0000 0.67686  0.96964  0.31134  Biso   1.000  H
  H202     1.0000 0.74522  0.34524  0.01490  Biso   1.000  H
  H203     1.0000 0.49716  0.76163  0.67840  Biso   1.000  H
  H204     1.0000 0.17150  0.00611  0.25474  Biso   1.000  H
  H205     1.0000 0.74823  0.13156  0.54779  Biso   1.000  H
  H206     1.0000 0.52040  0.72537  0.17202  Biso   1.000  H
  H207     1.0000 0.16116  0.48990  0.76029  Biso   1.000  H
  H208     1.0000 0.24599  0.14849  0.00648  Biso   1.000  H
  H209     1.0000 0.99236  0.71838  0.38152  Biso   1.000  H
  H210     1.0000 0.66081  0.47098  0.80328  Biso   1.000  H
  H211     1.0000 0.78567  0.63647  0.52511  Biso   1.000  H
  H212     1.0000 0.02068  0.22063  0.17472  Biso   1.000  H
  H213     1.0000 0.35420  0.99414  0.74642  Biso   1.000  H
  H214     1.0000 0.29661  0.64973  0.03966  Biso   1.000  H
  H215     1.0000 0.52894  0.22345  0.39042  Biso   1.000  H
  H216     1.0000 0.86232  0.99697  0.80166  Biso   1.000  H
  H217     1.0000 0.25657  0.47794  0.38897  Biso   1.000  H
  H218     1.0000 0.37433  0.21126  0.52998  Biso   1.000  H
  H219     1.0000 0.53056  0.35295  0.26248  Biso   1.000  H
  H220     1.0000 0.75703  0.47721  0.16804  Biso   1.000  H
  H221     1.0000 0.86764  0.21851  0.01962  Biso   1.000  H
  H222     1.0000 0.02620  0.34647  0.30460  Biso   1.000  H
  H223     1.0000 0.29994  0.00233  0.37249  Biso   1.000  H
  H224     1.0000 0.15992  0.71462  0.49636  Biso   1.000  H
  H225     1.0000 0.03505  0.84589  0.25278  Biso   1.000  H
  H226     1.0000 0.79348  0.99338  0.18163  Biso   1.000  H
  H227     1.0000 0.67677  0.71970  0.01119  Biso   1.000  H
  H228     1.0000 0.51010  0.84869  0.30806  Biso   1.000  H
  H229     1.0000 0.78748  0.48333  0.67104  Biso   1.000  H
  H230     1.0000 0.66214  0.76370  0.56936  Biso   1.000  H
  H231     1.0000 0.52946  0.63701  0.79715  Biso   1.000  H
  H232     1.0000 0.28425  0.51229  0.88746  Biso   1.000  H
  H233     1.0000 0.17174  0.76877  0.03655  Biso   1.000  H
  H234     1.0000 0.00432  0.63490  0.75017  Biso   1.000  H
  H235     1.0000 0.73634  0.99699  0.68715  Biso   1.000  H
  H236     1.0000 0.87815  0.26460  0.55545  Biso   1.000  H
  H237     1.0000 0.01461  0.14075  0.80429  Biso   1.000  H
  H238     1.0000 0.23947  0.98676  0.87470  Biso   1.000  H
  H239     1.0000 0.36868  0.26807  0.03840  Biso   1.000  H
  H240     1.0000 0.49841  0.13829  0.75913  Biso   1.000  H
  H241     1.0000 0.74907  0.50441  0.87830  Biso   1.000  H
  H242     1.0000 0.86975  0.71786  0.55040  Biso   1.000  H
  H243     1.0000 0.50597  0.85321  0.76089  Biso   1.000  H
  H244     1.0000 0.24565  0.51141  0.67736  Biso   1.000  H
  H245     1.0000 0.38664  0.72990  0.03141  Biso   1.000  H
  H246     1.0000 0.01674  0.85134  0.79045  Biso   1.000  H
  H247     1.0000 0.78188  0.99166  0.89246  Biso   1.000  H
  H248     1.0000 0.66201  0.22712  0.55972  Biso   1.000  H
  H249     1.0000 0.01493  0.34493  0.75873  Biso   1.000  H
  H250     1.0000 0.27690  0.96557  0.65760  Biso   1.000  H
  H251     1.0000 0.15895  0.22758  0.03041  Biso   1.000  H
  H252     1.0000 0.49205  0.35036  0.81010  Biso   1.000  H
  H253     1.0000 0.29657  0.49162  0.17552  Biso   1.000  H
  H254     1.0000 0.16041  0.25757  0.52974  Biso   1.000  H
  H255     1.0000 0.53786  0.13964  0.30382  Biso   1.000  H
  H256     1.0000 0.79682  0.49420  0.37583  Biso   1.000  H
  H257     1.0000 0.65663  0.26075  0.03904  Biso   1.000  H
  H258     1.0000 0.03358  0.13393  0.25737  Biso   1.000  H
  H259     1.0000 0.25538  0.00745  0.16186  Biso   1.000  H
  H260     1.0000 0.37971  0.75257  0.50727  Biso   1.000  H
  H261     1.0000 0.02689  0.63623  0.29266  Biso   1.000  H
  H262     1.0000 0.75951  0.98651  0.40222  Biso   1.000  H
  H263     1.0000 0.88726  0.76492  0.00409  Biso   1.000  H
  H264     1.0000 0.51169  0.63729  0.26546  Biso   1.000  H
  H265     1.0000 0.02949  0.21973  0.89558  Biso   1.000  H
  H266     1.0000 0.88116  0.99211  0.26293  Biso   1.000  H
  H267     1.0000 0.25715  0.85614  0.03903  Biso   1.000  H
  H268     1.0000 0.48863  0.22715  0.67502  Biso   1.000  H
  H269     1.0000 0.38883  0.00186  0.28931  Biso   1.000  H
  H270     1.0000 0.74777  0.84860  0.55197  Biso   1.000  H
  H271     1.0000 0.52448  0.72112  0.88950  Biso   1.000  H
  H272     1.0000 0.67479  0.50720  0.24927  Biso   1.000  H
  H273     1.0000 0.28443  0.36076  0.04259  Biso   1.000  H
  H274     1.0000 0.02446  0.72174  0.66826  Biso   1.000  H
  H275     1.0000 0.17600  0.47518  0.30192  Biso   1.000  H
  H276     1.0000 0.78821  0.34887  0.53470  Biso   1.000  H
  H277     1.0000 0.02557  0.76131  0.16642  Biso   1.000  H
  H278     1.0000 0.15416  0.99728  0.79239  Biso   1.000  H
  H279     1.0000 0.78784  0.13291  0.03674  Biso   1.000  H
  H280     1.0000 0.53618  0.76327  0.38781  Biso   1.000  H
  H281     1.0000 0.64144  0.98943  0.76778  Biso   1.000  H
  H282     1.0000 0.29536  0.12282  0.55380  Biso   1.000  H
  H283     1.0000 0.51677  0.26203  0.17926  Biso   1.000  H
  H284     1.0000 0.37238  0.51616  0.80170  Biso   1.000  H
  H285     1.0000 0.75798  0.63044  0.01587  Biso   1.000  H
  H286     1.0000 0.00690  0.26452  0.38892  Biso   1.000  H
  H287     1.0000 0.87480  0.48923  0.75514  Biso   1.000  H
  H288     1.0000 0.24277  0.62801  0.52452  Biso   1.000  H
  H289     1.0000 0.10527  0.22633  0.02819  Biso   1.000  H
  H290     1.0000 0.02926  0.08258  0.25546  Biso   1.000  H
  H291     1.0000 0.25068  0.00692  0.10915  Biso   1.000  H
  H292     1.0000 0.60495  0.22420  0.56209  Biso   1.000  H
  H293     1.0000 0.54048  0.08263  0.30592  Biso   1.000  H
  H294     1.0000 0.75324  0.98985  0.45462  Biso   1.000  H
  H295     1.0000 0.44213  0.72247  0.02846  Biso   1.000  H
  H296     1.0000 0.51095  0.58504  0.26081  Biso   1.000  H
  H297     1.0000 0.29901  0.50411  0.12501  Biso   1.000  H
  H298     1.0000 0.92679  0.71913  0.54839  Biso   1.000  H
  H299     1.0000 0.03219  0.58476  0.29362  Biso   1.000  H
  H300     1.0000 0.79322  0.49308  0.43069  Biso   1.000  H
  H301     1.0000 0.94351  0.76790  0.00324  Biso   1.000  H
  H302     1.0000 0.00744  0.90191  0.79371  Biso   1.000  H
  H303     1.0000 0.78356  0.98562  0.94655  Biso   1.000  H
  H304     1.0000 0.43240  0.75769  0.51004  Biso   1.000  H
  H305     1.0000 0.50140  0.90651  0.75557  Biso   1.000  H
  H306     1.0000 0.28301  0.95399  0.60464  Biso   1.000  H
  H307     1.0000 0.60437  0.26377  0.04203  Biso   1.000  H
  H308     1.0000 0.49584  0.40308  0.80842  Biso   1.000  H
  H309     1.0000 0.74863  0.51581  0.92865  Biso   1.000  H
  H310     1.0000 0.10607  0.26327  0.52065  Biso   1.000  H
  H311     1.0000 0.00400  0.39561  0.75642  Biso   1.000  H
  H312     1.0000 0.24792  0.51037  0.62300  Biso   1.000  H
  H313     1.0000 0.24317  0.98912  0.92903  Biso   1.000  H
  H314     1.0000 0.92198  0.22121  0.03619  Biso   1.000  H
  H315     1.0000 0.03632  0.89995  0.25172  Biso   1.000  H
  H316     1.0000 0.73869  0.99866  0.63250  Biso   1.000  H
  H317     1.0000 0.42662  0.21408  0.51988  Biso   1.000  H
  H318     1.0000 0.50533  0.90214  0.31148  Biso   1.000  H
  H319     1.0000 0.28681  0.49958  0.94500  Biso   1.000  H
  H320     1.0000 0.62175  0.72237  0.01435  Biso   1.000  H
  H321     1.0000 0.53626  0.40529  0.25996  Biso   1.000  H
  H322     1.0000 0.78628  0.48507  0.61665  Biso   1.000  H
  H323     1.0000 0.10719  0.71369  0.49535  Biso   1.000  H
  H324     1.0000 0.03155  0.39910  0.30263  Biso   1.000  H
  H325     1.0000 0.79390  0.98045  0.12666  Biso   1.000  H
  H326     1.0000 0.12032  0.76844  0.02934  Biso   1.000  H
  H327     1.0000 0.00469  0.08836  0.80128  Biso   1.000  H
  H328     1.0000 0.30041  0.00387  0.42817  Biso   1.000  H
  H329     1.0000 0.60717  0.76572  0.56902  Biso   1.000  H
  H330     1.0000 0.49860  0.08199  0.75634  Biso   1.000  H
  H331     1.0000 0.75577  0.47141  0.11414  Biso   1.000  H
  H332     1.0000 0.42169  0.26808  0.03334  Biso   1.000  H
  H333     1.0000 0.52209  0.58337  0.80021  Biso   1.000  H
  H334     1.0000 0.25168  0.47149  0.44577  Biso   1.000  H
  H335     1.0000 0.92908  0.26593  0.55742  Biso   1.000  H
  H336     1.0000 0.00255  0.57903  0.74802  Biso   1.000  H
  H337     1.0000 0.02815  0.21673  0.94362  Biso   1.000  H
  H338     1.0000 0.93488  0.99743  0.26005  Biso   1.000  H
  H339     1.0000 0.25501  0.91159  0.04165  Biso   1.000  H
  H340     1.0000 0.49019  0.22400  0.61996  Biso   1.000  H
  H341     1.0000 0.44730  0.00029  0.29457  Biso   1.000  H
  H342     1.0000 0.74362  0.90387  0.54242  Biso   1.000  H
  H343     1.0000 0.52822  0.71924  0.94338  Biso   1.000  H
  H344     1.0000 0.62200  0.51035  0.25125  Biso   1.000  H
  H345     1.0000 0.29103  0.41480  0.02916  Biso   1.000  H
  H346     1.0000 0.02396  0.71891  0.61184  Biso   1.000  H
  H347     1.0000 0.12366  0.47615  0.29722  Biso   1.000  H
  H348     1.0000 0.79053  0.40570  0.52251  Biso   1.000  H
  H349     1.0000 0.02200  0.76093  0.11241  Biso   1.000  H
  H350     1.0000 0.09982  0.00357  0.79502  Biso   1.000  H
  H351     1.0000 0.79005  0.07717  0.02998  Biso   1.000  H
  H352     1.0000 0.53354  0.75997  0.43837  Biso   1.000  H
  H353     1.0000 0.58650  0.99239  0.75907  Biso   1.000  H
  H354     1.0000 0.29976  0.06649  0.55133  Biso   1.000  H
  H355     1.0000 0.50858  0.26146  0.12701  Biso   1.000  H
  H356     1.0000 0.42531  0.51381  0.80240  Biso   1.000  H
  H357     1.0000 0.75293  0.57461  0.01711  Biso   1.000  H
  H358     1.0000 0.00508  0.26486  0.44302  Biso   1.000  H
  H359     1.0000 0.92694  0.49803  0.75124  Biso   1.000  H
  H360     1.0000 0.24232  0.57427  0.53040  Biso   1.000  H
  H361     1.0000 0.99044  0.71422  0.43551  Biso   1.000  H
  H362     1.0000 0.40745  0.00363  0.74809  Biso   1.000  H
  H363     1.0000 0.74186  0.39745  0.99947  Biso   1.000  H
  H364     1.0000 0.51967  0.72008  0.11722  Biso   1.000  H
  H365     1.0000 0.91664  0.99950  0.79984  Biso   1.000  H
  H366     1.0000 0.24967  0.39765  0.53605  Biso   1.000  H
  H367     1.0000 0.53468  0.22064  0.44654  Biso   1.000  H
  H368     1.0000 0.10460  0.48667  0.75882  Biso   1.000  H
  H369     1.0000 0.79328  0.89313  0.04114  Biso   1.000  H
  H370     1.0000 0.01374  0.22138  0.12617  Biso   1.000  H
  H371     1.0000 0.60348  0.46928  0.80459  Biso   1.000  H
  H372     1.0000 0.28922  0.89319  0.51350  Biso   1.000  H
  H373     1.0000 0.04614  0.26228  0.61926  Biso   1.000  H
  H374     1.0000 0.62489  0.96658  0.30959  Biso   1.000  H
  H375     1.0000 0.29712  0.59446  0.04793  Biso   1.000  H
  H376     1.0000 0.51683  0.26628  0.94683  Biso   1.000  H
  H377     1.0000 0.11774  0.00245  0.25504  Biso   1.000  H
  H378     1.0000 0.78857  0.58034  0.51557  Biso   1.000  H
  H379     1.0000 0.49536  0.76070  0.62485  Biso   1.000  H
  H380     1.0000 0.94053  0.50349  0.29843  Biso   1.000  H
  H381     1.0000 0.24903  0.09242  0.00114  Biso   1.000  H
  H382     1.0000 0.03661  0.76885  0.93230  Biso   1.000  H
  H383     1.0000 0.43847  0.46909  0.25755  Biso   1.000  H
  H384     1.0000 0.74065  0.08096  0.53968  Biso   1.000  H
  H385     1.0000 0.25609  0.45244  0.35576  Biso   1.000  H
  H386     1.0000 0.29195  0.15171  0.51535  Biso   1.000  H
  H387     1.0000 0.50072  0.32353  0.26166  Biso   1.000  H
  H388     1.0000 0.69833  0.46050  0.25072  Biso   1.000  H
  H389     1.0000 0.83896  0.21772  0.06184  Biso   1.000  H
  H390     1.0000 0.98767  0.31620  0.30142  Biso   1.000  H
  H391     1.0000 0.30718  0.96481  0.33770  Biso   1.000  H
  H392     1.0000 0.18598  0.71476  0.52801  Biso   1.000  H
  H393     1.0000 0.98268  0.78090  0.20075  Biso   1.000  H
  H394     1.0000 0.79487  0.96615  0.20924  Biso   1.000  H
  H395     1.0000 0.75475  0.66607  0.05001  Biso   1.000  H
  H396     1.0000 0.56123  0.81581  0.31126  Biso   1.000  H
  H397     1.0000 0.78912  0.51540  0.69951  Biso   1.000  H
  H398     1.0000 0.74588  0.81627  0.58171  Biso   1.000  H
  H399     1.0000 0.55749  0.67397  0.80958  Biso   1.000  H
  H400     1.0000 0.33845  0.54967  0.80798  Biso   1.000  H
  H401     1.0000 0.25262  0.82113  0.00548  Biso   1.000  H
  H402     1.0000 0.03243  0.66067  0.75429  Biso   1.000  H
  H403     1.0000 0.72988  0.95724  0.71544  Biso   1.000  H
  H404     1.0000 0.79164  0.32139  0.56760  Biso   1.000  H
  H405     1.0000 0.99795  0.22554  0.85805  Biso   1.000  H
  H406     1.0000 0.23641  0.02225  0.84259  Biso   1.000  H
  H407     1.0000 0.29210  0.32705  0.00095  Biso   1.000  H
  H408     1.0000 0.46206  0.16745  0.75469  Biso   1.000  H
  H409     1.0000 0.29697  0.45556  0.20005  Biso   1.000  H
  H410     1.0000 0.19560  0.26204  0.49982  Biso   1.000  H
  H411     1.0000 0.49561  0.21722  0.36195  Biso   1.000  H
  H412     1.0000 0.84637  0.52875  0.29911  Biso   1.000  H
  H413     1.0000 0.68555  0.26165  0.00851  Biso   1.000  H
  H414     1.0000 0.98761  0.20816  0.20979  Biso   1.000  H
  H415     1.0000 0.20374  0.97618  0.24526  Biso   1.000  H
  H416     1.0000 0.34183  0.75347  0.53774  Biso   1.000  H
  H417     1.0000 0.98953  0.66047  0.29686  Biso   1.000  H
  H418     1.0000 0.76590  0.96519  0.36276  Biso   1.000  H
  H419     1.0000 0.86025  0.76258  0.03818  Biso   1.000  H
  H420     1.0000 0.48392  0.67427  0.25643  Biso   1.000  H
  H421     1.0000 0.74527  0.46475  0.85687  Biso   1.000  H
  H422     1.0000 0.78992  0.65838  0.56584  Biso   1.000  H
  H423     1.0000 0.53249  0.76692  0.70251  Biso   1.000  H
  H424     1.0000 0.18321  0.52859  0.75923  Biso   1.000  H
  H425     1.0000 0.34839  0.72464  0.00202  Biso   1.000  H
  H426     1.0000 0.05367  0.76704  0.84333  Biso   1.000  H
  H427     1.0000 0.82527  0.03147  0.81415  Biso   1.000  H
  H428     1.0000 0.74699  0.16757  0.56886  Biso   1.000  H
  H429     1.0000 0.06116  0.32236  0.75911  Biso   1.000  H
  H430     1.0000 0.33160  0.95543  0.74563  Biso   1.000  H
  H431     1.0000 0.18736  0.22556  0.99499  Biso   1.000  H
  H432     1.0000 0.47798  0.26320  0.86993  Biso   1.000  H
  H433     1.0000 0.27595  0.00183  0.68651  Biso   1.000  H
  H434     1.0000 0.74362  0.32166  0.05383  Biso   1.000  H
  H435     1.0000 0.02957  0.71951  0.35640  Biso   1.000  H
  H436     1.0000 0.79352  0.94891  0.85333  Biso   1.000  H
  H437     1.0000 0.24482  0.31028  0.56853  Biso   1.000  H
  H438     1.0000 0.54864  0.72139  0.20431  Biso   1.000  H
  H439     1.0000 0.24930  0.48242  0.70738  Biso   1.000  H
  H440     1.0000 0.80022  0.81982  0.99161  Biso   1.000  H
  H441     1.0000 0.56623  0.17322  0.31254  Biso   1.000  H
  H442     1.0000 0.68693  0.50873  0.79661  Biso   1.000  H
  H443     1.0000 0.29093  0.81006  0.47982  Biso   1.000  H
  H444     1.0000 0.06534  0.17086  0.25618  Biso   1.000  H
  H445     1.0000 0.69634  0.01169  0.31378  Biso   1.000  H
  H446     1.0000 0.30808  0.67714  0.07385  Biso   1.000  H
  H447     1.0000 0.01698  0.25825  0.70571  Biso   1.000  H
  H448     1.0000 0.25220  0.03887  0.19567  Biso   1.000  H
  H449     1.0000 0.83834  0.72201  0.51850  Biso   1.000  H
  H450     1.0000 0.52048  0.31882  0.80362  Biso   1.000  H
  H451     1.0000 0.80325  0.46022  0.34770  Biso   1.000  H
  H452     1.0000 0.23984  0.17086  0.04588  Biso   1.000  H
  H453     1.0000 0.48241  0.82087  0.76345  Biso   1.000  H
  H454     1.0000 0.35190  0.50195  0.26020  Biso   1.000  H
  H455     1.0000 0.69006  0.22392  0.52135  Biso   1.000  H
  H456     1.0000 0.98944  0.82169  0.80001  Biso   1.000  H
  H457     1.0000 0.69038  0.76728  0.52124  Biso   1.000  H
  H458     1.0000 0.48993  0.71411  0.85946  Biso   1.000  H
  H459     1.0000 0.84530  0.45857  0.75320  Biso   1.000  H
  H460     1.0000 0.20224  0.78358  0.07568  Biso   1.000  H
  H461     1.0000 0.99133  0.71776  0.69116  Biso   1.000  H
  H462     1.0000 0.29003  0.47827  0.85158  Biso   1.000  H
  H463     1.0000 0.85029  0.26354  0.51598  Biso   1.000  H
  H464     1.0000 0.05213  0.15917  0.81110  Biso   1.000  H
  H465     1.0000 0.67581  0.02046  0.76576  Biso   1.000  H
  H466     1.0000 0.33152  0.27567  0.07220  Biso   1.000  H
  H467     1.0000 0.52614  0.22222  0.71224  Biso   1.000  H
  H468     1.0000 0.17751  0.96360  0.79888  Biso   1.000  H
  H469     1.0000 0.34991  0.20797  0.56303  Biso   1.000  H
  H470     1.0000 0.55079  0.26626  0.20623  Biso   1.000  H
  H471     1.0000 0.19936  0.51550  0.30821  Biso   1.000  H
  H472     1.0000 0.78958  0.16262  0.00185  Biso   1.000  H
  H473     1.0000 0.04304  0.26501  0.36018  Biso   1.000  H
  H474     1.0000 0.75144  0.51504  0.19334  Biso   1.000  H
  H475     1.0000 0.24861  0.65483  0.48547  Biso   1.000  H
  H476     1.0000 0.06585  0.80154  0.23971  Biso   1.000  H
  H477     1.0000 0.35710  0.03669  0.29880  Biso   1.000  H
  H478     1.0000 0.70576  0.70994  0.97991  Biso   1.000  H
  H479     1.0000 0.48634  0.77670  0.35911  Biso   1.000  H
  H480     1.0000 0.85095  0.02791  0.26039  Biso   1.000  H
  N1       1.0000 0.69507  0.17261  0.54542  Biso   1.000  N
  N2       1.0000 0.51881  0.67364  0.20865  Biso   1.000  N
  N3       1.0000 0.19319  0.49865  0.70606  Biso   1.000  N
  N4       1.0000 0.19328  0.17519  0.01806  Biso   1.000  N
  N5       1.0000 0.00877  0.66761  0.34712  Biso   1.000  N
  N6       1.0000 0.69324  0.48655  0.85193  Biso   1.000  N
  N7       1.0000 0.83758  0.66732  0.53738  Biso   1.000  N
  N8       1.0000 0.02996  0.16787  0.20691  Biso   1.000  N
  N9       1.0000 0.32789  0.97785  0.69287  Biso   1.000  N
  N10      1.0000 0.35118  0.67708  0.03124  Biso   1.000  N
  N11      1.0000 0.53171  0.17048  0.35816  Biso   1.000  N
  N12      1.0000 0.83391  0.99211  0.85793  Biso   1.000  N
  N13      1.0000 0.34192  0.80448  0.51013  Biso   1.000  N
  N14      1.0000 0.50117  0.31709  0.86211  Biso   1.000  N
  N15      1.0000 0.85025  0.49489  0.34778  Biso   1.000  N
  N16      1.0000 0.85366  0.81387  0.01946  Biso   1.000  N
  N17      1.0000 0.03325  0.31294  0.70774  Biso   1.000  N
  N18      1.0000 0.35062  0.48391  0.20720  Biso   1.000  N
  N19      1.0000 0.19462  0.30931  0.53505  Biso   1.000  N
  N20      1.0000 0.02299  0.81724  0.84571  Biso   1.000  N
  N21      1.0000 0.70761  0.98371  0.36375  Biso   1.000  N
  N22      1.0000 0.69024  0.31349  0.02906  Biso   1.000  N
  N23      1.0000 0.50575  0.81775  0.70789  Biso   1.000  N
  N24      1.0000 0.20248  0.00615  0.19984  Biso   1.000  N
  N25      1.0000 0.84168  0.48681  0.70204  Biso   1.000  N
  N26      1.0000 0.69413  0.81432  0.55104  Biso   1.000  N
  N27      1.0000 0.52818  0.67046  0.85463  Biso   1.000  N
  N28      1.0000 0.33765  0.51274  0.85440  Biso   1.000  N
  N29      1.0000 0.20383  0.82544  0.03808  Biso   1.000  N
  N30      1.0000 0.01864  0.66560  0.69803  Biso   1.000  N
  N31      1.0000 0.68030  0.98761  0.71651  Biso   1.000  N
  N32      1.0000 0.84372  0.31802  0.54153  Biso   1.000  N
  N33      1.0000 0.02056  0.16885  0.85832  Biso   1.000  N
  N34      1.0000 0.18640  0.99406  0.84429  Biso   1.000  N
  N35      1.0000 0.33665  0.32416  0.04058  Biso   1.000  N
  N36      1.0000 0.49476  0.17090  0.70744  Biso   1.000  N
  N37      1.0000 0.20387  0.48081  0.35463  Biso   1.000  N
  N38      1.0000 0.34427  0.15643  0.53798  Biso   1.000  N
  N39      1.0000 0.52441  0.31702  0.21055  Biso   1.000  N
  N40      1.0000 0.70138  0.48907  0.19973  Biso   1.000  N
  N41      1.0000 0.83899  0.16613  0.02980  Biso   1.000  N
  N42      1.0000 0.01667  0.31546  0.35690  Biso   1.000  N
  N43      1.0000 0.35542  0.99883  0.34124  Biso   1.000  N
  N44      1.0000 0.19304  0.66046  0.50921  Biso   1.000  N
  N45      1.0000 0.02569  0.81374  0.19799  Biso   1.000  N
  N46      1.0000 0.84762  0.99661  0.20961  Biso   1.000  N
  N47      1.0000 0.70479  0.66461  0.01834  Biso   1.000  N
  N48      1.0000 0.52681  0.81773  0.35728  Biso   1.000  N
  O1       1.0000 0.36808  0.54426  0.03455  Biso   1.000  O
  O2       1.0000 0.02376  0.33293  0.57437  Biso   1.000  O
  O3       1.0000 0.57025  0.98514  0.38022  Biso   1.000  O
  O4       1.0000 0.86226  0.53528  0.52671  Biso   1.000  O
  O5       1.0000 0.51406  0.33780  0.99446  Biso   1.000  O
  O6       1.0000 0.06995  0.99467  0.18235  Biso   1.000  O
  O7       1.0000 0.17868  0.04115  0.02001  Biso   1.000  O
  O8       1.0000 0.51171  0.83080  0.57354  Biso   1.000  O
  O9       1.0000 0.98573  0.50023  0.36984  Biso   1.000  O
  O10      1.0000 0.66906  0.03596  0.53816  Biso   1.000  O
  O11      1.0000 0.03106  0.84089  0.98081  Biso   1.000  O
  O12      1.0000 0.48352  0.49415  0.18762  Biso   1.000  O
  O13      1.0000 0.67260  0.44845  0.01860  Biso   1.000  O
  O14      1.0000 0.01538  0.64503  0.48056  Biso   1.000  O
  O15      1.0000 0.46111  0.99969  0.68044  Biso   1.000  O
  O16      1.0000 0.17697  0.44562  0.53777  Biso   1.000  O
  O17      1.0000 0.53190  0.64694  0.07531  Biso   1.000  O
  O18      1.0000 0.96957  0.99182  0.86942  Biso   1.000  O
  O19      1.0000 0.86148  0.94760  0.03076  Biso   1.000  O
  O20      1.0000 0.52962  0.14884  0.49254  Biso   1.000  O
  O21      1.0000 0.06061  0.48796  0.68360  Biso   1.000  O
  O22      1.0000 0.35936  0.93811  0.51663  Biso   1.000  O
  O23      1.0000 0.02311  0.15206  0.07269  Biso   1.000  O
  O24      1.0000 0.55572  0.49214  0.87448  Biso   1.000  O
  O25      1.0000 0.98348  0.99922  0.18779  Biso   1.000  O
  O26      1.0000 0.17939  0.96002  0.02622  Biso   1.000  O
  O27      1.0000 0.01264  0.14565  0.99217  Biso   1.000  O
  O28      1.0000 0.48637  0.99647  0.37037  Biso   1.000  O
  O29      1.0000 0.66924  0.94981  0.53717  Biso   1.000  O
  O30      1.0000 0.51121  0.15061  0.57690  Biso   1.000  O
  O31      1.0000 0.56917  0.50057  0.18323  Biso   1.000  O
  O32      1.0000 0.36248  0.45852  0.02947  Biso   1.000  O
  O33      1.0000 0.52571  0.64497  0.99196  Biso   1.000  O
  O34      1.0000 0.06798  0.48730  0.36765  Biso   1.000  O
  O35      1.0000 0.86240  0.45153  0.51912  Biso   1.000  O
  O36      1.0000 0.02095  0.64507  0.56440  Biso   1.000  O
  O37      1.0000 0.05108  0.99814  0.86490  Biso   1.000  O
  O38      1.0000 0.86015  0.02997  0.03845  Biso   1.000  O
  O39      1.0000 0.02836  0.83591  0.06396  Biso   1.000  O
  O40      1.0000 0.54581  0.98745  0.68482  Biso   1.000  O
  O41      1.0000 0.36490  0.02159  0.52191  Biso   1.000  O
  O42      1.0000 0.52559  0.83205  0.49232  Biso   1.000  O
  O43      1.0000 0.47217  0.50032  0.87230  Biso   1.000  O
  O44      1.0000 0.67919  0.53195  0.02575  Biso   1.000  O
  O45      1.0000 0.51650  0.33506  0.07919  Biso   1.000  O
  O46      1.0000 0.97574  0.49040  0.67895  Biso   1.000  O
  O47      1.0000 0.17435  0.52753  0.52161  Biso   1.000  O
  O48      1.0000 0.01704  0.33538  0.49131  Biso   1.000  O
  O49      1.0000 0.02274  0.95033  0.18007  Biso   1.000  O
  O50      1.0000 0.17305  0.99369  0.98171  Biso   1.000  O
  O51      1.0000 0.97325  0.15019  0.04009  Biso   1.000  O
  O52      1.0000 0.52366  0.95125  0.37716  Biso   1.000  O
  O53      1.0000 0.66753  0.99679  0.58120  Biso   1.000  O
  O54      1.0000 0.48209  0.14557  0.52320  Biso   1.000  O
  O55      1.0000 0.52951  0.45309  0.18420  Biso   1.000  O
  O56      1.0000 0.36391  0.50094  0.98521  Biso   1.000  O
  O57      1.0000 0.56906  0.65060  0.03142  Biso   1.000  O
  O58      1.0000 0.02487  0.45075  0.37273  Biso   1.000  O
  O59      1.0000 0.85986  0.49308  0.56528  Biso   1.000  O
  O60      1.0000 0.05742  0.64564  0.51622  Biso   1.000  O
  O61      1.0000 0.00452  0.03447  0.87102  Biso   1.000  O
  O62      1.0000 0.86414  0.98980  0.07740  Biso   1.000  O
  O63      1.0000 0.07348  0.84294  0.02352  Biso   1.000  O
  O64      1.0000 0.50580  0.03724  0.68197  Biso   1.000  O
  O65      1.0000 0.36573  0.98647  0.47722  Biso   1.000  O
  O66      1.0000 0.55911  0.83307  0.54164  Biso   1.000  O
  O67      1.0000 0.52002  0.53646  0.87051  Biso   1.000  O
  O68      1.0000 0.67803  0.48584  0.06639  Biso   1.000  O
  O69      1.0000 0.47311  0.33563  0.04016  Biso   1.000  O
  O70      1.0000 0.02066  0.52905  0.67961  Biso   1.000  O
  O71      1.0000 0.17692  0.47824  0.48851  Biso   1.000  O
  O72      1.0000 0.97776  0.33725  0.53839  Biso   1.000  O
  O73      1.0000 0.01942  0.44487  0.68629  Biso   1.000  O
  O74      1.0000 0.67411  0.99472  0.49669  Biso   1.000  O
  O75      1.0000 0.48552  0.64668  0.03149  Biso   1.000  O
  O76      1.0000 0.51000  0.45383  0.87667  Biso   1.000  O
  O77      1.0000 0.17651  0.00326  0.06613  Biso   1.000  O
  O78      1.0000 0.97289  0.64425  0.52679  Biso   1.000  O
  O79      1.0000 0.49462  0.95331  0.68225  Biso   1.000  O
  O80      1.0000 0.86070  0.49999  0.48326  Biso   1.000  O
  O81      1.0000 0.05815  0.15069  0.02920  Biso   1.000  O
  O82      1.0000 0.01309  0.95347  0.86529  Biso   1.000  O
  O83      1.0000 0.37155  0.50068  0.07479  Biso   1.000  O
  O84      1.0000 0.56053  0.15458  0.54265  Biso   1.000  O
  O85      1.0000 0.03043  0.53478  0.36816  Biso   1.000  O
  O86      1.0000 0.35681  0.97342  0.56075  Biso   1.000  O
  O87      1.0000 0.55683  0.33518  0.03381  Biso   1.000  O
  O88      1.0000 0.52292  0.53927  0.18817  Biso   1.000  O
  O89      1.0000 0.85901  0.98960  0.99144  Biso   1.000  O
  O90      1.0000 0.05981  0.33204  0.52590  Biso   1.000  O
  O91      1.0000 0.53474  0.03461  0.37628  Biso   1.000  O
  O92      1.0000 0.17624  0.49058  0.57110  Biso   1.000  O
  O93      1.0000 0.98570  0.83781  0.02213  Biso   1.000  O
  O94      1.0000 0.02624  0.03516  0.18064  Biso   1.000  O
  O95      1.0000 0.67961  0.49743  0.98223  Biso   1.000  O
  O96      1.0000 0.47632  0.83218  0.52759  Biso   1.000  O
  O97      1.0000 0.47582  0.19468  0.52590  Biso   1.000  O
  O98      1.0000 0.53609  0.45424  0.23142  Biso   1.000  O
  O99      1.0000 0.22660  0.47971  0.49199  Biso   1.000  O
  O100     1.0000 0.97035  0.19759  0.03600  Biso   1.000  O
  O101     1.0000 0.02652  0.44985  0.32520  Biso   1.000  O
  O102     1.0000 0.72750  0.48142  0.06354  Biso   1.000  O
  O103     1.0000 0.05757  0.69348  0.51465  Biso   1.000  O
  O104     1.0000 0.02718  0.94961  0.22848  Biso   1.000  O
  O105     1.0000 0.31649  0.99176  0.47514  Biso   1.000  O
  O106     1.0000 0.57141  0.69902  0.02414  Biso   1.000  O
  O107     1.0000 0.52358  0.95074  0.32929  Biso   1.000  O
  O108     1.0000 0.81437  0.99274  0.07841  Biso   1.000  O
  O109     1.0000 0.55980  0.78462  0.54634  Biso   1.000  O
  O110     1.0000 0.52079  0.53612  0.82286  Biso   1.000  O
  O111     1.0000 0.81083  0.49214  0.56743  Biso   1.000  O
  O112     1.0000 0.07084  0.79431  0.02355  Biso   1.000  O
  O113     1.0000 0.01652  0.53134  0.72816  Biso   1.000  O
  O114     1.0000 0.31446  0.50211  0.99015  Biso   1.000  O
  O115     1.0000 0.97854  0.28883  0.54102  Biso   1.000  O
  O116     1.0000 0.00368  0.03751  0.82127  Biso   1.000  O
  O117     1.0000 0.71753  0.98982  0.58359  Biso   1.000  O
  O118     1.0000 0.47125  0.28747  0.03628  Biso   1.000  O
  O119     1.0000 0.50744  0.03558  0.73061  Biso   1.000  O
  O120     1.0000 0.22230  0.00063  0.97809  Biso   1.000  O
  O121     1.0000 0.05767  0.48488  0.73282  Biso   1.000  O
  O122     1.0000 0.71792  0.03567  0.53851  Biso   1.000  O
  O123     1.0000 0.53190  0.69706  0.07158  Biso   1.000  O
  O124     1.0000 0.55626  0.48746  0.82648  Biso   1.000  O
  O125     1.0000 0.22748  0.04389  0.01867  Biso   1.000  O
  O126     1.0000 0.00773  0.69306  0.48385  Biso   1.000  O
  O127     1.0000 0.46048  0.99479  0.72928  Biso   1.000  O
  O128     1.0000 0.81240  0.53634  0.52634  Biso   1.000  O
  O129     1.0000 0.01867  0.20058  0.07332  Biso   1.000  O
  O130     1.0000 0.96492  0.99053  0.82079  Biso   1.000  O
  O131     1.0000 0.31908  0.54427  0.03809  Biso   1.000  O
  O132     1.0000 0.52475  0.19679  0.49120  Biso   1.000  O
  O133     1.0000 0.98621  0.49315  0.32110  Biso   1.000  O
  O134     1.0000 0.31106  0.94208  0.50886  Biso   1.000  O
  O135     1.0000 0.51119  0.28890  0.99486  Biso   1.000  O
  O136     1.0000 0.48739  0.48872  0.23627  Biso   1.000  O
  O137     1.0000 0.81272  0.94507  0.03805  Biso   1.000  O
  O138     1.0000 0.02641  0.28239  0.57473  Biso   1.000  O
  O139     1.0000 0.57311  0.98570  0.33313  Biso   1.000  O
  O140     1.0000 0.22741  0.44651  0.53926  Biso   1.000  O
  O141     1.0000 0.03640  0.79385  0.98164  Biso   1.000  O
  O142     1.0000 0.06796  0.99345  0.23199  Biso   1.000  O
  O143     1.0000 0.72156  0.44636  0.01636  Biso   1.000  O
  O144     1.0000 0.50705  0.78261  0.57522  Biso   1.000  O
  O145     1.0000 0.57118  0.50150  0.23065  Biso   1.000  O
  O146     1.0000 0.22316  0.52869  0.52731  Biso   1.000  O
  O147     1.0000 0.51031  0.20023  0.57394  Biso   1.000  O
  O148     1.0000 0.06638  0.48415  0.32039  Biso   1.000  O
  O149     1.0000 0.72785  0.52834  0.02987  Biso   1.000  O
  O150     1.0000 0.00880  0.19416  0.99164  Biso   1.000  O
  O151     1.0000 0.98202  0.99442  0.23535  Biso   1.000  O
  O152     1.0000 0.31750  0.02501  0.52685  Biso   1.000  O
  O153     1.0000 0.02037  0.69483  0.56248  Biso   1.000  O
  O154     1.0000 0.49103  0.00306  0.32272  Biso   1.000  O
  O155     1.0000 0.81211  0.03250  0.03266  Biso   1.000  O
  O156     1.0000 0.52616  0.69407  0.98867  Biso   1.000  O
  O157     1.0000 0.47355  0.49608  0.82492  Biso   1.000  O
  O158     1.0000 0.81336  0.45217  0.51955  Biso   1.000  O
  O159     1.0000 0.53060  0.78439  0.49310  Biso   1.000  O
  O160     1.0000 0.97444  0.48977  0.72798  Biso   1.000  O
  O161     1.0000 0.31519  0.45986  0.03045  Biso   1.000  O
  O162     1.0000 0.02755  0.78758  0.06138  Biso   1.000  O
  O163     1.0000 0.04913  0.99992  0.81403  Biso   1.000  O
  O164     1.0000 0.71776  0.95076  0.54187  Biso   1.000  O
  O165     1.0000 0.01192  0.28671  0.49302  Biso   1.000  O
  O166     1.0000 0.54314  0.98954  0.73481  Biso   1.000  O
  O167     1.0000 0.22889  0.96258  0.02507  Biso   1.000  O
  O168     1.0000 0.51988  0.28683  0.07855  Biso   1.000  O
  O169     1.0000 0.02695  0.03356  0.23078  Biso   1.000  O
  O170     1.0000 0.22368  0.00299  0.06100  Biso   1.000  O
  O171     1.0000 0.05286  0.19915  0.02389  Biso   1.000  O
  O172     1.0000 0.54030  0.03298  0.32842  Biso   1.000  O
  O173     1.0000 0.72157  0.99252  0.50038  Biso   1.000  O
  O174     1.0000 0.55646  0.20340  0.54389  Biso   1.000  O
  O175     1.0000 0.52043  0.53701  0.23738  Biso   1.000  O
  O176     1.0000 0.32155  0.49842  0.07562  Biso   1.000  O
  O177     1.0000 0.48785  0.69579  0.02983  Biso   1.000  O
  O178     1.0000 0.02888  0.53332  0.31961  Biso   1.000  O
  O179     1.0000 0.81321  0.49814  0.48115  Biso   1.000  O
  O180     1.0000 0.97526  0.69317  0.52983  Biso   1.000  O
  O181     1.0000 0.00981  0.95310  0.81645  Biso   1.000  O
  O182     1.0000 0.81080  0.98330  0.99466  Biso   1.000  O
  O183     1.0000 0.98973  0.78963  0.01595  Biso   1.000  O
  O184     1.0000 0.50288  0.95287  0.72975  Biso   1.000  O
  O185     1.0000 0.30841  0.97758  0.55805  Biso   1.000  O
  O186     1.0000 0.47888  0.78295  0.52153  Biso   1.000  O
  O187     1.0000 0.50827  0.45058  0.82652  Biso   1.000  O
  O188     1.0000 0.72814  0.49779  0.98210  Biso   1.000  O
  O189     1.0000 0.55424  0.28634  0.02786  Biso   1.000  O
  O190     1.0000 0.01399  0.44622  0.73526  Biso   1.000  O
  O191     1.0000 0.22471  0.49397  0.57415  Biso   1.000  O
  O192     1.0000 0.05998  0.28423  0.52353  Biso   1.000  O
