data_image0
_cell_length_a       46.5916
_cell_length_b       46.6424
_cell_length_c       46.4529
_cell_angle_alpha    90
_cell_angle_beta     90
_cell_angle_gamma    90

_symmetry_space_group_name_H-M    "P 1"
_symmetry_int_tables_number       1

loop_
  _symmetry_equiv_pos_as_xyz
  'x, y, z'

loop_
  _atom_site_label
  _atom_site_occupancy
  _atom_site_fract_x
  _atom_site_fract_y
  _atom_site_fract_z
  _atom_site_thermal_displace_type
  _atom_site_B_iso_or_equiv
  _atom_site_type_symbol
  C1       1.0000 0.57116  0.01041  0.34365  Biso   1.000  C
  C2       1.0000 0.32943  0.54847  0.02673  Biso   1.000  C
  C3       1.0000 0.01775  0.31677  0.58392  Biso   1.000  C
  C4       1.0000 0.07531  0.98347  0.20808  Biso   1.000  C
  C5       1.0000 0.83889  0.56143  0.52467  Biso   1.000  C
  C6       1.0000 0.52429  0.31224  0.98152  Biso   1.000  C
  C7       1.0000 0.96384  0.49859  0.34482  Biso   1.000  C
  C8       1.0000 0.19876  0.04370  0.01641  Biso   1.000  C
  C9       1.0000 0.51965  0.80724  0.57624  Biso   1.000  C
  C10      1.0000 0.46634  0.48802  0.20794  Biso   1.000  C
  C11      1.0000 0.69124  0.06136  0.53373  Biso   1.000  C
  C12      1.0000 0.01590  0.81767  0.97233  Biso   1.000  C
  C13      1.0000 0.45741  0.98622  0.71336  Biso   1.000  C
  C14      1.0000 0.69909  0.44659  0.02548  Biso   1.000  C
  C15      1.0000 0.02733  0.67820  0.47392  Biso   1.000  C
  C16      1.0000 0.95375  0.00029  0.84401  Biso   1.000  C
  C17      1.0000 0.19887  0.43319  0.53500  Biso   1.000  C
  C18      1.0000 0.50642  0.67452  0.07668  Biso   1.000  C
  C19      1.0000 0.07081  0.48641  0.71254  Biso   1.000  C
  C20      1.0000 0.83353  0.94271  0.02986  Biso   1.000  C
  C21      1.0000 0.51169  0.17525  0.48773  Biso   1.000  C
  C22      1.0000 0.56572  0.49097  0.84712  Biso   1.000  C
  C23      1.0000 0.33959  0.93446  0.52011  Biso   1.000  C
  C24      1.0000 0.02693  0.17179  0.08591  Biso   1.000  C
  C25      1.0000 0.32941  0.03987  0.53533  Biso   1.000  C
  C26      1.0000 0.52528  0.31811  0.09525  Biso   1.000  C
  C27      1.0000 0.07092  0.48662  0.35044  Biso   1.000  C
  C28      1.0000 0.83921  0.05196  0.02999  Biso   1.000  C
  C29      1.0000 0.01491  0.31228  0.47594  Biso   1.000  C
  C30      1.0000 0.57268  0.51792  0.20492  Biso   1.000  C
  C31      1.0000 0.20519  0.54087  0.52925  Biso   1.000  C
  C32      1.0000 0.00869  0.81645  0.08216  Biso   1.000  C
  C33      1.0000 0.46448  0.00826  0.34910  Biso   1.000  C
  C34      1.0000 0.68880  0.55492  0.02546  Biso   1.000  C
  C35      1.0000 0.53321  0.82061  0.46746  Biso   1.000  C
  C36      1.0000 0.96832  0.99938  0.21622  Biso   1.000  C
  C37      1.0000 0.69898  0.95257  0.53049  Biso   1.000  C
  C38      1.0000 0.50842  0.66694  0.96760  Biso   1.000  C
  C39      1.0000 0.96333  0.50064  0.71308  Biso   1.000  C
  C40      1.0000 0.19712  0.93703  0.02633  Biso   1.000  C
  C41      1.0000 0.02475  0.67555  0.58414  Biso   1.000  C
  C42      1.0000 0.45843  0.47276  0.84769  Biso   1.000  C
  C43      1.0000 0.83752  0.45274  0.52546  Biso   1.000  C
  C44      1.0000 0.02578  0.17504  0.97793  Biso   1.000  C
  C45      1.0000 0.56475  0.96860  0.71089  Biso   1.000  C
  C46      1.0000 0.33376  0.43903  0.03284  Biso   1.000  C
  C47      1.0000 0.51360  0.16894  0.59758  Biso   1.000  C
  C48      1.0000 0.06282  0.99728  0.84427  Biso   1.000  C
  C49      1.0000 0.00878  0.05288  0.84810  Biso   1.000  C
  C50      1.0000 0.83970  0.99769  0.08738  Biso   1.000  C
  C51      1.0000 0.06439  0.81505  0.03542  Biso   1.000  C
  C52      1.0000 0.52237  0.03393  0.71323  Biso   1.000  C
  C53      1.0000 0.33348  0.99338  0.47356  Biso   1.000  C
  C54      1.0000 0.58259  0.81712  0.52992  Biso   1.000  C
  C55      1.0000 0.50425  0.53355  0.84665  Biso   1.000  C
  C56      1.0000 0.69645  0.50568  0.07882  Biso   1.000  C
  C57      1.0000 0.46935  0.31626  0.04176  Biso   1.000  C
  C58      1.0000 0.02355  0.54854  0.70633  Biso   1.000  C
  C59      1.0000 0.20168  0.48426  0.47751  Biso   1.000  C
  C60      1.0000 0.96036  0.31743  0.53504  Biso   1.000  C
  C61      1.0000 0.01470  0.93782  0.21257  Biso   1.000  C
  C62      1.0000 0.19360  0.98645  0.96869  Biso   1.000  C
  C63      1.0000 0.96871  0.17528  0.03246  Biso   1.000  C
  C64      1.0000 0.51996  0.95388  0.34495  Biso   1.000  C
  C65      1.0000 0.69353  0.00575  0.58788  Biso   1.000  C
  C66      1.0000 0.45512  0.16928  0.54315  Biso   1.000  C
  C67      1.0000 0.53100  0.45127  0.21380  Biso   1.000  C
  C68      1.0000 0.33039  0.48568  0.97608  Biso   1.000  C
  C69      1.0000 0.56331  0.67307  0.02033  Biso   1.000  C
  C70      1.0000 0.01021  0.43594  0.34557  Biso   1.000  C
  C71      1.0000 0.83813  0.50727  0.58049  Biso   1.000  C
  C72      1.0000 0.08191  0.67062  0.52852  Biso   1.000  C
  C73      1.0000 0.02234  0.54691  0.34543  Biso   1.000  C
  C74      1.0000 0.33364  0.98306  0.58218  Biso   1.000  C
  C75      1.0000 0.57731  0.31830  0.04227  Biso   1.000  C
  C76      1.0000 0.50851  0.55544  0.20512  Biso   1.000  C
  C77      1.0000 0.83039  0.99648  0.97562  Biso   1.000  C
  C78      1.0000 0.06765  0.30850  0.53028  Biso   1.000  C
  C79      1.0000 0.51671  0.06529  0.34397  Biso   1.000  C
  C80      1.0000 0.20019  0.48693  0.58829  Biso   1.000  C
  C81      1.0000 0.95820  0.81624  0.01756  Biso   1.000  C
  C82      1.0000 0.02574  0.04298  0.21603  Biso   1.000  C
  C83      1.0000 0.69279  0.50094  0.96949  Biso   1.000  C
  C84      1.0000 0.47510  0.81190  0.51189  Biso   1.000  C
  C85      1.0000 0.01397  0.43972  0.71234  Biso   1.000  C
  C86      1.0000 0.69663  0.00627  0.47911  Biso   1.000  C
  C87      1.0000 0.45452  0.67644  0.01990  Biso   1.000  C
  C88      1.0000 0.52615  0.42840  0.84928  Biso   1.000  C
  C89      1.0000 0.19735  0.99255  0.07751  Biso   1.000  C
  C90      1.0000 0.97097  0.68467  0.53084  Biso   1.000  C
  C91      1.0000 0.49889  0.92612  0.70637  Biso   1.000  C
  C92      1.0000 0.84043  0.50153  0.47037  Biso   1.000  C
  C93      1.0000 0.08028  0.16957  0.03357  Biso   1.000  C
  C94      1.0000 0.00556  0.94438  0.84273  Biso   1.000  C
  C95      1.0000 0.33354  0.49587  0.08512  Biso   1.000  C
  C96      1.0000 0.56396  0.17969  0.54200  Biso   1.000  C
  C97      1.0000 0.69022  0.09395  0.53252  Biso   1.000  C
  C98      1.0000 0.50384  0.67698  0.10833  Biso   1.000  C
  C99      1.0000 0.10379  0.48291  0.71228  Biso   1.000  C
  C100     1.0000 0.20052  0.07573  0.01231  Biso   1.000  C
  C101     1.0000 0.03038  0.67717  0.44160  Biso   1.000  C
  C102     1.0000 0.59695  0.48652  0.84449  Biso   1.000  C
  C103     1.0000 0.84041  0.59415  0.52509  Biso   1.000  C
  C104     1.0000 0.02178  0.16871  0.11821  Biso   1.000  C
  C105     1.0000 0.42508  0.98962  0.71306  Biso   1.000  C
  C106     1.0000 0.32679  0.58077  0.02362  Biso   1.000  C
  C107     1.0000 0.51844  0.18004  0.45574  Biso   1.000  C
  C108     1.0000 0.92144  0.00114  0.84549  Biso   1.000  C
  C109     1.0000 0.34296  0.90351  0.51953  Biso   1.000  C
  C110     1.0000 0.52248  0.30907  0.94829  Biso   1.000  C
  C111     1.0000 0.93253  0.49949  0.34288  Biso   1.000  C
  C112     1.0000 0.83273  0.91145  0.02533  Biso   1.000  C
  C113     1.0000 0.01846  0.31478  0.61676  Biso   1.000  C
  C114     1.0000 0.43425  0.47828  0.20563  Biso   1.000  C
  C115     1.0000 0.19764  0.40238  0.53060  Biso   1.000  C
  C116     1.0000 0.01717  0.81609  0.93929  Biso   1.000  C
  C117     1.0000 0.60316  0.00798  0.34428  Biso   1.000  C
  C118     1.0000 0.70157  0.41504  0.02558  Biso   1.000  C
  C119     1.0000 0.51304  0.80354  0.60770  Biso   1.000  C
  C120     1.0000 0.10623  0.98540  0.20775  Biso   1.000  C
  C121     1.0000 0.84102  0.99888  0.12055  Biso   1.000  C
  C122     1.0000 0.09726  0.81492  0.03784  Biso   1.000  C
  C123     1.0000 0.00959  0.08420  0.84791  Biso   1.000  C
  C124     1.0000 0.33312  0.99935  0.44169  Biso   1.000  C
  C125     1.0000 0.61572  0.81826  0.52887  Biso   1.000  C
  C126     1.0000 0.53039  0.06530  0.71491  Biso   1.000  C
  C127     1.0000 0.69607  0.51500  0.10996  Biso   1.000  C
  C128     1.0000 0.43706  0.31591  0.03961  Biso   1.000  C
  C129     1.0000 0.49970  0.56531  0.84347  Biso   1.000  C
  C130     1.0000 0.19968  0.48162  0.44494  Biso   1.000  C
  C131     1.0000 0.92817  0.32024  0.53978  Biso   1.000  C
  C132     1.0000 0.02364  0.58069  0.70858  Biso   1.000  C
  C133     1.0000 0.19342  0.98705  0.93672  Biso   1.000  C
  C134     1.0000 0.93692  0.17752  0.03467  Biso   1.000  C
  C135     1.0000 0.01620  0.90514  0.21216  Biso   1.000  C
  C136     1.0000 0.69028  0.00162  0.62026  Biso   1.000  C
  C137     1.0000 0.42202  0.16917  0.54558  Biso   1.000  C
  C138     1.0000 0.52368  0.92105  0.34380  Biso   1.000  C
  C139     1.0000 0.33056  0.48261  0.94400  Biso   1.000  C
  C140     1.0000 0.59482  0.67719  0.01354  Biso   1.000  C
  C141     1.0000 0.53296  0.41948  0.21679  Biso   1.000  C
  C142     1.0000 0.83739  0.50594  0.61314  Biso   1.000  C
  C143     1.0000 0.11442  0.66899  0.52546  Biso   1.000  C
  C144     1.0000 0.00830  0.40429  0.34729  Biso   1.000  C
  C145     1.0000 0.33425  0.49412  0.11681  Biso   1.000  C
  C146     1.0000 0.09903  0.30744  0.53373  Biso   1.000  C
  C147     1.0000 0.52086  0.09692  0.34647  Biso   1.000  C
  C148     1.0000 0.84121  0.49781  0.43788  Biso   1.000  C
  C149     1.0000 0.60970  0.31890  0.04419  Biso   1.000  C
  C150     1.0000 0.02106  0.07368  0.21631  Biso   1.000  C
  C151     1.0000 0.19615  0.99238  0.10961  Biso   1.000  C
  C152     1.0000 0.44270  0.81337  0.51132  Biso   1.000  C
  C153     1.0000 0.02158  0.57850  0.34649  Biso   1.000  C
  C154     1.0000 0.69618  0.00295  0.44684  Biso   1.000  C
  C155     1.0000 0.92661  0.81499  0.01572  Biso   1.000  C
  C156     1.0000 0.50824  0.58738  0.20550  Biso   1.000  C
  C157     1.0000 0.69431  0.49528  0.93832  Biso   1.000  C
  C158     1.0000 0.93901  0.68631  0.53280  Biso   1.000  C
  C159     1.0000 0.49345  0.89440  0.70595  Biso   1.000  C
  C160     1.0000 0.20111  0.48900  0.62052  Biso   1.000  C
  C161     1.0000 0.42290  0.67677  0.01894  Biso   1.000  C
  C162     1.0000 0.00931  0.91243  0.84267  Biso   1.000  C
  C163     1.0000 0.82899  0.00130  0.94371  Biso   1.000  C
  C164     1.0000 0.59516  0.18254  0.53717  Biso   1.000  C
  C165     1.0000 0.02201  0.40830  0.71148  Biso   1.000  C
  C166     1.0000 0.33330  0.98622  0.61436  Biso   1.000  C
  C167     1.0000 0.11153  0.16904  0.03508  Biso   1.000  C
  C168     1.0000 0.52931  0.39755  0.84957  Biso   1.000  C
  C169     1.0000 0.00890  0.81480  0.11389  Biso   1.000  C
  C170     1.0000 0.09489  0.99958  0.84540  Biso   1.000  C
  C171     1.0000 0.84021  0.08460  0.02289  Biso   1.000  C
  C172     1.0000 0.53379  0.82321  0.43589  Biso   1.000  C
  C173     1.0000 0.59579  0.96684  0.71203  Biso   1.000  C
  C174     1.0000 0.32898  0.07080  0.54011  Biso   1.000  C
  C175     1.0000 0.52711  0.31891  0.12818  Biso   1.000  C
  C176     1.0000 0.42651  0.46864  0.84918  Biso   1.000  C
  C177     1.0000 0.68620  0.58731  0.02694  Biso   1.000  C
  C178     1.0000 0.01941  0.31045  0.44400  Biso   1.000  C
  C179     1.0000 0.93146  0.50005  0.71074  Biso   1.000  C
  C180     1.0000 0.20589  0.57295  0.52519  Biso   1.000  C
  C181     1.0000 0.02497  0.17614  0.94483  Biso   1.000  C
  C182     1.0000 0.93570  0.00214  0.21754  Biso   1.000  C
  C183     1.0000 0.19529  0.90485  0.02726  Biso   1.000  C
  C184     1.0000 0.52302  0.16579  0.62784  Biso   1.000  C
  C185     1.0000 0.43235  0.01012  0.34927  Biso   1.000  C
  C186     1.0000 0.70092  0.92298  0.52195  Biso   1.000  C
  C187     1.0000 0.50515  0.66468  0.93515  Biso   1.000  C
  C188     1.0000 0.60392  0.52512  0.20597  Biso   1.000  C
  C189     1.0000 0.33620  0.40636  0.03554  Biso   1.000  C
  C190     1.0000 0.03181  0.67434  0.61507  Biso   1.000  C
  C191     1.0000 0.10217  0.48156  0.35048  Biso   1.000  C
  C192     1.0000 0.83702  0.42044  0.52420  Biso   1.000  C
  C193     1.0000 0.85591  0.00033  0.92623  Biso   1.000  C
  C194     1.0000 0.91016  0.84216  0.02004  Biso   1.000  C
  C195     1.0000 0.00967  0.89551  0.87104  Biso   1.000  C
  C196     1.0000 0.35934  0.98819  0.63264  Biso   1.000  C
  C197     1.0000 0.42572  0.83908  0.51570  Biso   1.000  C
  C198     1.0000 0.49533  0.87917  0.67733  Biso   1.000  C
  C199     1.0000 0.66799  0.49565  0.91998  Biso   1.000  C
  C200     1.0000 0.62518  0.34520  0.03797  Biso   1.000  C
  C201     1.0000 0.52714  0.38281  0.87794  Biso   1.000  C
  C202     1.0000 0.17350  0.48581  0.63633  Biso   1.000  C
  C203     1.0000 0.11579  0.33475  0.53043  Biso   1.000  C
  C204     1.0000 0.01944  0.39241  0.68436  Biso   1.000  C
  C205     1.0000 0.17167  0.98677  0.12616  Biso   1.000  C
  C206     1.0000 0.12648  0.14273  0.03031  Biso   1.000  C
  C207     1.0000 0.01892  0.08918  0.18904  Biso   1.000  C
  C208     1.0000 0.66941  0.00099  0.42937  Biso   1.000  C
  C209     1.0000 0.61192  0.15769  0.53161  Biso   1.000  C
  C210     1.0000 0.51987  0.10980  0.37571  Biso   1.000  C
  C211     1.0000 0.36156  0.48803  0.13026  Biso   1.000  C
  C212     1.0000 0.40558  0.65027  0.01454  Biso   1.000  C
  C213     1.0000 0.50527  0.60298  0.17729  Biso   1.000  C
  C214     1.0000 0.86842  0.49639  0.42117  Biso   1.000  C
  C215     1.0000 0.92139  0.66086  0.53399  Biso   1.000  C
  C216     1.0000 0.02324  0.59479  0.37490  Biso   1.000  C
  C217     1.0000 0.11183  0.99608  0.87181  Biso   1.000  C
  C218     1.0000 0.86727  0.10068  0.02295  Biso   1.000  C
  C219     1.0000 0.01285  0.84112  0.13098  Biso   1.000  C
  C220     1.0000 0.61093  0.97169  0.68373  Biso   1.000  C
  C221     1.0000 0.35436  0.08879  0.54015  Biso   1.000  C
  C222     1.0000 0.53655  0.84981  0.41968  Biso   1.000  C
  C223     1.0000 0.41019  0.47366  0.87623  Biso   1.000  C
  C224     1.0000 0.65874  0.59962  0.02470  Biso   1.000  C
  C225     1.0000 0.52875  0.34567  0.14338  Biso   1.000  C
  C226     1.0000 0.91456  0.50100  0.68306  Biso   1.000  C
  C227     1.0000 0.17973  0.59011  0.52400  Biso   1.000  C
  C228     1.0000 0.01729  0.33682  0.42864  Biso   1.000  C
  C229     1.0000 0.91818  0.00374  0.19090  Biso   1.000  C
  C230     1.0000 0.16762  0.89010  0.02929  Biso   1.000  C
  C231     1.0000 0.02209  0.15008  0.92713  Biso   1.000  C
  C232     1.0000 0.41521  0.00771  0.37660  Biso   1.000  C
  C233     1.0000 0.67449  0.90475  0.52371  Biso   1.000  C
  C234     1.0000 0.52627  0.13778  0.64183  Biso   1.000  C
  C235     1.0000 0.62131  0.51964  0.18002  Biso   1.000  C
  C236     1.0000 0.36526  0.39377  0.03610  Biso   1.000  C
  C237     1.0000 0.50126  0.63752  0.92064  Biso   1.000  C
  C238     1.0000 0.11993  0.48241  0.37711  Biso   1.000  C
  C239     1.0000 0.86349  0.40349  0.53208  Biso   1.000  C
  C240     1.0000 0.02857  0.64701  0.63139  Biso   1.000  C
  C241     1.0000 0.61468  0.49157  0.86993  Biso   1.000  C
  C242     1.0000 0.86652  0.61003  0.53056  Biso   1.000  C
  C243     1.0000 0.50833  0.82993  0.62468  Biso   1.000  C
  C244     1.0000 0.12016  0.48558  0.68627  Biso   1.000  C
  C245     1.0000 0.35280  0.59872  0.02130  Biso   1.000  C
  C246     1.0000 0.01227  0.84198  0.92291  Biso   1.000  C
  C247     1.0000 0.90670  0.99881  0.87316  Biso   1.000  C
  C248     1.0000 0.66300  0.10833  0.53367  Biso   1.000  C
  C249     1.0000 0.01772  0.34113  0.63372  Biso   1.000  C
  C250     1.0000 0.40937  0.99029  0.68549  Biso   1.000  C
  C251     1.0000 0.17540  0.09127  0.01794  Biso   1.000  C
  C252     1.0000 0.52380  0.33500  0.93214  Biso   1.000  C
  C253     1.0000 0.41780  0.48095  0.17858  Biso   1.000  C
  C254     1.0000 0.17091  0.38647  0.52838  Biso   1.000  C
  C255     1.0000 0.51885  0.15564  0.43586  Biso   1.000  C
  C256     1.0000 0.91685  0.49868  0.37055  Biso   1.000  C
  C257     1.0000 0.67474  0.39773  0.02638  Biso   1.000  C
  C258     1.0000 0.02358  0.14234  0.13480  Biso   1.000  C
  C259     1.0000 0.12195  0.98745  0.18053  Biso   1.000  C
  C260     1.0000 0.37032  0.88923  0.52093  Biso   1.000  C
  C261     1.0000 0.02410  0.64927  0.42828  Biso   1.000  C
  C262     1.0000 0.61764  0.00438  0.37353  Biso   1.000  C
  C263     1.0000 0.85923  0.89520  0.02707  Biso   1.000  C
  C264     1.0000 0.50191  0.65165  0.12543  Biso   1.000  C
  C265     1.0000 0.01713  0.10003  0.87509  Biso   1.000  C
  C266     1.0000 0.86798  0.99950  0.13815  Biso   1.000  C
  C267     1.0000 0.11368  0.84248  0.04024  Biso   1.000  C
  C268     1.0000 0.52809  0.08274  0.68871  Biso   1.000  C
  C269     1.0000 0.35948  0.00279  0.42604  Biso   1.000  C
  C270     1.0000 0.62867  0.84706  0.52983  Biso   1.000  C
  C271     1.0000 0.50442  0.58386  0.86835  Biso   1.000  C
  C272     1.0000 0.66779  0.51809  0.12644  Biso   1.000  C
  C273     1.0000 0.42111  0.34190  0.03977  Biso   1.000  C
  C274     1.0000 0.02375  0.59694  0.68195  Biso   1.000  C
  C275     1.0000 0.17276  0.48569  0.42912  Biso   1.000  C
  C276     1.0000 0.91410  0.34755  0.53255  Biso   1.000  C
  C277     1.0000 0.01631  0.88975  0.18439  Biso   1.000  C
  C278     1.0000 0.16449  0.99004  0.92300  Biso   1.000  C
  C279     1.0000 0.91965  0.15048  0.02896  Biso   1.000  C
  C280     1.0000 0.53128  0.90386  0.36942  Biso   1.000  C
  C281     1.0000 0.66238  0.99158  0.63308  Biso   1.000  C
  C282     1.0000 0.40579  0.14181  0.54563  Biso   1.000  C
  C283     1.0000 0.52792  0.39975  0.19209  Biso   1.000  C
  C284     1.0000 0.35875  0.48448  0.92723  Biso   1.000  C
  C285     1.0000 0.60846  0.64988  0.01619  Biso   1.000  C
  C286     1.0000 0.00832  0.38998  0.37511  Biso   1.000  C
  C287     1.0000 0.86424  0.50750  0.62966  Biso   1.000  C
  C288     1.0000 0.12900  0.64038  0.52526  Biso   1.000  C
  C289     1.0000 0.37279  0.85768  0.51985  Biso   1.000  C
  C290     1.0000 0.52643  0.33234  0.90166  Biso   1.000  C
  C291     1.0000 0.88540  0.49734  0.36729  Biso   1.000  C
  C292     1.0000 0.85838  0.86344  0.02318  Biso   1.000  C
  C293     1.0000 0.01842  0.33910  0.66414  Biso   1.000  C
  C294     1.0000 0.38545  0.48067  0.18194  Biso   1.000  C
  C295     1.0000 0.17112  0.35548  0.53135  Biso   1.000  C
  C296     1.0000 0.01790  0.84272  0.89135  Biso   1.000  C
  C297     1.0000 0.64904  0.00316  0.37431  Biso   1.000  C
  C298     1.0000 0.67591  0.36668  0.02988  Biso   1.000  C
  C299     1.0000 0.50340  0.82737  0.65534  Biso   1.000  C
  C300     1.0000 0.15288  0.98735  0.18008  Biso   1.000  C
  C301     1.0000 0.66521  0.13913  0.53268  Biso   1.000  C
  C302     1.0000 0.50328  0.65527  0.15718  Biso   1.000  C
  C303     1.0000 0.15103  0.48014  0.68802  Biso   1.000  C
  C304     1.0000 0.17810  0.12245  0.01899  Biso   1.000  C
  C305     1.0000 0.02245  0.64862  0.39635  Biso   1.000  C
  C306     1.0000 0.64576  0.49092  0.86714  Biso   1.000  C
  C307     1.0000 0.86815  0.64201  0.52793  Biso   1.000  C
  C308     1.0000 0.02246  0.14290  0.16700  Biso   1.000  C
  C309     1.0000 0.37828  0.99231  0.68619  Biso   1.000  C
  C310     1.0000 0.35188  0.62931  0.02209  Biso   1.000  C
  C311     1.0000 0.52346  0.15906  0.40431  Biso   1.000  C
  C312     1.0000 0.87416  0.00176  0.87263  Biso   1.000  C
  C313     1.0000 0.17355  0.47949  0.39637  Biso   1.000  C
  C314     1.0000 0.37438  0.14167  0.54353  Biso   1.000  C
  C315     1.0000 0.52865  0.36963  0.19571  Biso   1.000  C
  C316     1.0000 0.67171  0.52429  0.15735  Biso   1.000  C
  C317     1.0000 0.88874  0.15258  0.02562  Biso   1.000  C
  C318     1.0000 0.01608  0.35888  0.37510  Biso   1.000  C
  C319     1.0000 0.35989  0.00435  0.39449  Biso   1.000  C
  C320     1.0000 0.16109  0.64311  0.52382  Biso   1.000  C
  C321     1.0000 0.01549  0.85864  0.18558  Biso   1.000  C
  C322     1.0000 0.86660  0.99970  0.17001  Biso   1.000  C
  C323     1.0000 0.64026  0.65158  0.01597  Biso   1.000  C
  C324     1.0000 0.52739  0.87238  0.36754  Biso   1.000  C
  C325     1.0000 0.86046  0.50132  0.66018  Biso   1.000  C
  C326     1.0000 0.65934  0.85020  0.52444  Biso   1.000  C
  C327     1.0000 0.50016  0.61480  0.86831  Biso   1.000  C
  C328     1.0000 0.35717  0.47572  0.89609  Biso   1.000  C
  C329     1.0000 0.14395  0.83985  0.04322  Biso   1.000  C
  C330     1.0000 0.02569  0.62810  0.68336  Biso   1.000  C
  C331     1.0000 0.66360  0.98580  0.66500  Biso   1.000  C
  C332     1.0000 0.88217  0.34864  0.53262  Biso   1.000  C
  C333     1.0000 0.01849  0.13071  0.87401  Biso   1.000  C
  C334     1.0000 0.16486  0.99172  0.89169  Biso   1.000  C
  C335     1.0000 0.38952  0.34174  0.03637  Biso   1.000  C
  C336     1.0000 0.52970  0.11309  0.69229  Biso   1.000  C
  C337     1.0000 0.66664  0.49241  0.88801  Biso   1.000  C
  C338     1.0000 0.89051  0.66224  0.52964  Biso   1.000  C
  C339     1.0000 0.49677  0.84866  0.67672  Biso   1.000  C
  C340     1.0000 0.17348  0.48236  0.66795  Biso   1.000  C
  C341     1.0000 0.37445  0.65128  0.01933  Biso   1.000  C
  C342     1.0000 0.01570  0.86446  0.87033  Biso   1.000  C
  C343     1.0000 0.85405  0.00296  0.89504  Biso   1.000  C
  C344     1.0000 0.64359  0.15908  0.53255  Biso   1.000  C
  C345     1.0000 0.02096  0.36139  0.68550  Biso   1.000  C
  C346     1.0000 0.35681  0.99182  0.66419  Biso   1.000  C
  C347     1.0000 0.15796  0.14348  0.02506  Biso   1.000  C
  C348     1.0000 0.52849  0.35190  0.87817  Biso   1.000  C
  C349     1.0000 0.36246  0.48435  0.16141  Biso   1.000  C
  C350     1.0000 0.14820  0.33450  0.53241  Biso   1.000  C
  C351     1.0000 0.52343  0.14004  0.37912  Biso   1.000  C
  C352     1.0000 0.86500  0.49726  0.38940  Biso   1.000  C
  C353     1.0000 0.65536  0.34464  0.03391  Biso   1.000  C
  C354     1.0000 0.02228  0.12043  0.18755  Biso   1.000  C
  C355     1.0000 0.17322  0.98831  0.15738  Biso   1.000  C
  C356     1.0000 0.39441  0.83737  0.51859  Biso   1.000  C
  C357     1.0000 0.02067  0.62495  0.37528  Biso   1.000  C
  C358     1.0000 0.67024  0.00293  0.39733  Biso   1.000  C
  C359     1.0000 0.87897  0.84177  0.01996  Biso   1.000  C
  C360     1.0000 0.50452  0.63381  0.17900  Biso   1.000  C
  C361     1.0000 0.02128  0.15181  0.89651  Biso   1.000  C
  C362     1.0000 0.88678  0.00173  0.19270  Biso   1.000  C
  C363     1.0000 0.16697  0.86009  0.03778  Biso   1.000  C
  C364     1.0000 0.52926  0.13581  0.67358  Biso   1.000  C
  C365     1.0000 0.38351  0.00635  0.37447  Biso   1.000  C
  C366     1.0000 0.67898  0.87342  0.52255  Biso   1.000  C
  C367     1.0000 0.49942  0.63749  0.88898  Biso   1.000  C
  C368     1.0000 0.65163  0.52507  0.18093  Biso   1.000  C
  C369     1.0000 0.36704  0.36231  0.03503  Biso   1.000  C
  C370     1.0000 0.02835  0.64943  0.66216  Biso   1.000  C
  C371     1.0000 0.15206  0.47909  0.37555  Biso   1.000  C
  C372     1.0000 0.86129  0.37179  0.53045  Biso   1.000  C
  C373     1.0000 0.01351  0.83749  0.16264  Biso   1.000  C
  C374     1.0000 0.14315  0.99446  0.87095  Biso   1.000  C
  C375     1.0000 0.86691  0.13178  0.02266  Biso   1.000  C
  C376     1.0000 0.52897  0.85099  0.38921  Biso   1.000  C
  C377     1.0000 0.64194  0.97733  0.68474  Biso   1.000  C
  C378     1.0000 0.35298  0.11921  0.54126  Biso   1.000  C
  C379     1.0000 0.52916  0.34747  0.17449  Biso   1.000  C
  C380     1.0000 0.37926  0.47155  0.87623  Biso   1.000  C
  C381     1.0000 0.66187  0.63012  0.01979  Biso   1.000  C
  C382     1.0000 0.01952  0.33842  0.39674  Biso   1.000  C
  C383     1.0000 0.88313  0.50029  0.68201  Biso   1.000  C
  C384     1.0000 0.18265  0.62207  0.52354  Biso   1.000  C
  C385     1.0000 0.20597  0.13669  0.01562  Biso   1.000  C
  C386     1.0000 0.02216  0.16928  0.18209  Biso   1.000  C
  C387     1.0000 0.17061  0.98853  0.20611  Biso   1.000  C
  C388     1.0000 0.69163  0.15609  0.53407  Biso   1.000  C
  C389     1.0000 0.52739  0.18814  0.39302  Biso   1.000  C
  C390     1.0000 0.66579  0.00221  0.34757  Biso   1.000  C
  C391     1.0000 0.32562  0.64495  0.02618  Biso   1.000  C
  C392     1.0000 0.50720  0.68196  0.17122  Biso   1.000  C
  C393     1.0000 0.36991  0.47507  0.20967  Biso   1.000  C
  C394     1.0000 0.84213  0.65612  0.52126  Biso   1.000  C
  C395     1.0000 0.02439  0.67495  0.38038  Biso   1.000  C
  C396     1.0000 0.86975  0.49953  0.34048  Biso   1.000  C
  C397     1.0000 0.83206  0.84761  0.01786  Biso   1.000  C
  C398     1.0000 0.02563  0.81764  0.87588  Biso   1.000  C
  C399     1.0000 0.85747  0.00439  0.84684  Biso   1.000  C
  C400     1.0000 0.34573  0.83969  0.51926  Biso   1.000  C
  C401     1.0000 0.50163  0.80003  0.67032  Biso   1.000  C
  C402     1.0000 0.36312  0.99277  0.71338  Biso   1.000  C
  C403     1.0000 0.70481  0.35282  0.03225  Biso   1.000  C
  C404     1.0000 0.52827  0.30520  0.88732  Biso   1.000  C
  C405     1.0000 0.66046  0.48530  0.84106  Biso   1.000  C
  C406     1.0000 0.19670  0.33951  0.53291  Biso   1.000  C
  C407     1.0000 0.02170  0.31243  0.67920  Biso   1.000  C
  C408     1.0000 0.16584  0.47341  0.71508  Biso   1.000  C
  C409     1.0000 0.15933  0.99557  0.84301  Biso   1.000  C
  C410     1.0000 0.84019  0.14876  0.02029  Biso   1.000  C
  C411     1.0000 0.01001  0.81063  0.17753  Biso   1.000  C
  C412     1.0000 0.65794  0.97604  0.71280  Biso   1.000  C
  C413     1.0000 0.32622  0.13445  0.54208  Biso   1.000  C
  C414     1.0000 0.52424  0.82413  0.37340  Biso   1.000  C
  C415     1.0000 0.36452  0.46218  0.84942  Biso   1.000  C
  C416     1.0000 0.68880  0.64596  0.01819  Biso   1.000  C
  C417     1.0000 0.52983  0.32203  0.19123  Biso   1.000  C
  C418     1.0000 0.86738  0.49948  0.70858  Biso   1.000  C
  C419     1.0000 0.20985  0.63643  0.52269  Biso   1.000  C
  C420     1.0000 0.02413  0.31175  0.38118  Biso   1.000  C
  C421     1.0000 0.87107  0.00289  0.21911  Biso   1.000  C
  C422     1.0000 0.19283  0.84330  0.04047  Biso   1.000  C
  C423     1.0000 0.02367  0.17842  0.88162  Biso   1.000  C
  C424     1.0000 0.36824  0.00750  0.34687  Biso   1.000  C
  C425     1.0000 0.70656  0.85997  0.52062  Biso   1.000  C
  C426     1.0000 0.53151  0.16173  0.69079  Biso   1.000  C
  C427     1.0000 0.66803  0.52930  0.20649  Biso   1.000  C
  C428     1.0000 0.34112  0.34572  0.03003  Biso   1.000  C
  C429     1.0000 0.49810  0.66229  0.87122  Biso   1.000  C
  C430     1.0000 0.16734  0.47500  0.34805  Biso   1.000  C
  C431     1.0000 0.83307  0.35694  0.52947  Biso   1.000  C
  C432     1.0000 0.03044  0.67586  0.67723  Biso   1.000  C
  C433     1.0000 0.01848  0.14644  0.84702  Biso   1.000  C
  C434     1.0000 0.83996  0.99760  0.18489  Biso   1.000  C
  C435     1.0000 0.15898  0.81235  0.04651  Biso   1.000  C
  C436     1.0000 0.53509  0.12780  0.72108  Biso   1.000  C
  C437     1.0000 0.33390  0.00378  0.37857  Biso   1.000  C
  C438     1.0000 0.67791  0.82497  0.52489  Biso   1.000  C
  C439     1.0000 0.49559  0.62808  0.83991  Biso   1.000  C
  C440     1.0000 0.69876  0.52769  0.17301  Biso   1.000  C
  C441     1.0000 0.37407  0.31457  0.03228  Biso   1.000  C
  C442     1.0000 0.02789  0.64536  0.71086  Biso   1.000  C
  C443     1.0000 0.20121  0.47409  0.37972  Biso   1.000  C
  C444     1.0000 0.86361  0.32258  0.53556  Biso   1.000  C
  C445     1.0000 0.01379  0.84319  0.21201  Biso   1.000  C
  C446     1.0000 0.19187  0.99101  0.87585  Biso   1.000  C
  C447     1.0000 0.87385  0.17979  0.02568  Biso   1.000  C
  C448     1.0000 0.52083  0.85714  0.34125  Biso   1.000  C
  C449     1.0000 0.68956  0.99047  0.68122  Biso   1.000  C
  C450     1.0000 0.35852  0.16833  0.54382  Biso   1.000  C
  C451     1.0000 0.53230  0.35672  0.22401  Biso   1.000  C
  C452     1.0000 0.33160  0.46428  0.88278  Biso   1.000  C
  C453     1.0000 0.65667  0.67746  0.01063  Biso   1.000  C
  C454     1.0000 0.01926  0.34169  0.34798  Biso   1.000  C
  C455     1.0000 0.83395  0.49865  0.67669  Biso   1.000  C
  C456     1.0000 0.17791  0.67088  0.52270  Biso   1.000  C
  C457     1.0000 0.01723  0.64033  0.34763  Biso   1.000  C
  C458     1.0000 0.32943  0.99252  0.67832  Biso   1.000  C
  C459     1.0000 0.67279  0.31920  0.03703  Biso   1.000  C
  C460     1.0000 0.50820  0.65070  0.20565  Biso   1.000  C
  C461     1.0000 0.82644  0.00707  0.88060  Biso   1.000  C
  C462     1.0000 0.16309  0.30688  0.53335  Biso   1.000  C
  C463     1.0000 0.52919  0.15891  0.35535  Biso   1.000  C
  C464     1.0000 0.20022  0.47932  0.68370  Biso   1.000  C
  C465     1.0000 0.86286  0.81550  0.01500  Biso   1.000  C
  C466     1.0000 0.02464  0.13739  0.21347  Biso   1.000  C
  C467     1.0000 0.69339  0.48602  0.87387  Biso   1.000  C
  C468     1.0000 0.37895  0.81026  0.51636  Biso   1.000  C
  C469     1.0000 0.02548  0.34673  0.71183  Biso   1.000  C
  C470     1.0000 0.69752  0.00233  0.38276  Biso   1.000  C
  C471     1.0000 0.35925  0.67782  0.02182  Biso   1.000  C
  C472     1.0000 0.53055  0.33493  0.85298  Biso   1.000  C
  C473     1.0000 0.20059  0.99188  0.17084  Biso   1.000  C
  C474     1.0000 0.87621  0.68962  0.52472  Biso   1.000  C
  C475     1.0000 0.49313  0.83213  0.70213  Biso   1.000  C
  C476     1.0000 0.83743  0.50032  0.37326  Biso   1.000  C
  C477     1.0000 0.17464  0.16948  0.02782  Biso   1.000  C
  C478     1.0000 0.02164  0.85038  0.84270  Biso   1.000  C
  C479     1.0000 0.33708  0.48559  0.17877  Biso   1.000  C
  C480     1.0000 0.65899  0.18665  0.53614  Biso   1.000  C
  C481     1.0000 0.39552  0.78370  0.51413  Biso   1.000  C
  C482     1.0000 0.53074  0.35035  0.82549  Biso   1.000  C
  C483     1.0000 0.81285  0.50098  0.39082  Biso   1.000  C
  C484     1.0000 0.87748  0.78854  0.00835  Biso   1.000  C
  C485     1.0000 0.02933  0.36177  0.73982  Biso   1.000  C
  C486     1.0000 0.30856  0.49335  0.16556  Biso   1.000  C
  C487     1.0000 0.14601  0.28029  0.53750  Biso   1.000  C
  C488     1.0000 0.01985  0.86702  0.81528  Biso   1.000  C
  C489     1.0000 0.72392  0.00580  0.40070  Biso   1.000  C
  C490     1.0000 0.65767  0.29150  0.04281  Biso   1.000  C
  C491     1.0000 0.49102  0.84621  0.72996  Biso   1.000  C
  C492     1.0000 0.22749  0.99515  0.15424  Biso   1.000  C
  C493     1.0000 0.64228  0.21285  0.53911  Biso   1.000  C
  C494     1.0000 0.51412  0.63536  0.23283  Biso   1.000  C
  C495     1.0000 0.22761  0.48028  0.66912  Biso   1.000  C
  C496     1.0000 0.15982  0.19658  0.03440  Biso   1.000  C
  C497     1.0000 0.01665  0.62624  0.31963  Biso   1.000  C
  C498     1.0000 0.71910  0.48229  0.89183  Biso   1.000  C
  C499     1.0000 0.89495  0.71554  0.52557  Biso   1.000  C
  C500     1.0000 0.02256  0.12180  0.24054  Biso   1.000  C
  C501     1.0000 0.30346  0.99050  0.66060  Biso   1.000  C
  C502     1.0000 0.37649  0.70498  0.02364  Biso   1.000  C
  C503     1.0000 0.53309  0.14526  0.32641  Biso   1.000  C
  C504     1.0000 0.79874  0.00788  0.89692  Biso   1.000  C
  C505     1.0000 0.64167  0.48202  0.81422  Biso   1.000  C
  C506     1.0000 0.81628  0.64008  0.51304  Biso   1.000  C
  C507     1.0000 0.50745  0.77351  0.65381  Biso   1.000  C
  C508     1.0000 0.14890  0.47024  0.74054  Biso   1.000  C
  C509     1.0000 0.29768  0.62775  0.02712  Biso   1.000  C
  C510     1.0000 0.02882  0.79051  0.89145  Biso   1.000  C
  C511     1.0000 0.87309  0.00389  0.81925  Biso   1.000  C
  C512     1.0000 0.71996  0.14237  0.53222  Biso   1.000  C
  C513     1.0000 0.02291  0.28518  0.66329  Biso   1.000  C
  C514     1.0000 0.37873  0.99217  0.74193  Biso   1.000  C
  C515     1.0000 0.23132  0.12155  0.00645  Biso   1.000  C
  C516     1.0000 0.52846  0.27812  0.90352  Biso   1.000  C
  C517     1.0000 0.38729  0.46906  0.23491  Biso   1.000  C
  C518     1.0000 0.22418  0.35604  0.53181  Biso   1.000  C
  C519     1.0000 0.52645  0.21290  0.41332  Biso   1.000  C
  C520     1.0000 0.88550  0.50096  0.31329  Biso   1.000  C
  C521     1.0000 0.73060  0.37019  0.03388  Biso   1.000  C
  C522     1.0000 0.02274  0.19661  0.16576  Biso   1.000  C
  C523     1.0000 0.15481  0.99186  0.23260  Biso   1.000  C
  C524     1.0000 0.31761  0.85331  0.51950  Biso   1.000  C
  C525     1.0000 0.02763  0.70320  0.39314  Biso   1.000  C
  C526     1.0000 0.65101  0.00187  0.31866  Biso   1.000  C
  C527     1.0000 0.80487  0.86434  0.01714  Biso   1.000  C
  C528     1.0000 0.50787  0.70793  0.15099  Biso   1.000  C
  C529     1.0000 0.81206  0.13149  0.01800  Biso   1.000  C
  C530     1.0000 0.00650  0.78414  0.15915  Biso   1.000  C
  C531     1.0000 0.14375  0.00008  0.81627  Biso   1.000  C
  C532     1.0000 0.30059  0.11691  0.54169  Biso   1.000  C
  C533     1.0000 0.52556  0.79636  0.38890  Biso   1.000  C
  C534     1.0000 0.64286  0.96952  0.74073  Biso   1.000  C
  C535     1.0000 0.71562  0.63138  0.01980  Biso   1.000  C
  C536     1.0000 0.52884  0.29348  0.17558  Biso   1.000  C
  C537     1.0000 0.38116  0.45862  0.82086  Biso   1.000  C
  C538     1.0000 0.23694  0.62006  0.52338  Biso   1.000  C
  C539     1.0000 0.02966  0.28623  0.39804  Biso   1.000  C
  C540     1.0000 0.88375  0.49901  0.73646  Biso   1.000  C
  C541     1.0000 0.22010  0.85801  0.04134  Biso   1.000  C
  C542     1.0000 0.02789  0.20509  0.89768  Biso   1.000  C
  C543     1.0000 0.88893  0.00355  0.24661  Biso   1.000  C
  C544     1.0000 0.73170  0.88005  0.51566  Biso   1.000  C
  C545     1.0000 0.52591  0.18949  0.67703  Biso   1.000  C
  C546     1.0000 0.38574  0.00815  0.31953  Biso   1.000  C
  C547     1.0000 0.31257  0.35823  0.02906  Biso   1.000  C
  C548     1.0000 0.50241  0.68983  0.88669  Biso   1.000  C
  C549     1.0000 0.65183  0.53614  0.23264  Biso   1.000  C
  C550     1.0000 0.80736  0.37278  0.52370  Biso   1.000  C
  C551     1.0000 0.03476  0.70262  0.66048  Biso   1.000  C
  C552     1.0000 0.14938  0.47175  0.32154  Biso   1.000  C
  C553     1.0000 0.01230  0.13012  0.81985  Biso   1.000  C
  C554     1.0000 0.81269  0.99663  0.16706  Biso   1.000  C
  C555     1.0000 0.14299  0.78587  0.04720  Biso   1.000  C
  C556     1.0000 0.53809  0.10958  0.74713  Biso   1.000  C
  C557     1.0000 0.30761  0.00557  0.39366  Biso   1.000  C
  C558     1.0000 0.66521  0.79578  0.52992  Biso   1.000  C
  C559     1.0000 0.49037  0.61080  0.81374  Biso   1.000  C
  C560     1.0000 0.72533  0.52421  0.15692  Biso   1.000  C
  C561     1.0000 0.38936  0.28722  0.03231  Biso   1.000  C
  C562     1.0000 0.02472  0.62888  0.73832  Biso   1.000  C
  C563     1.0000 0.22702  0.47238  0.39845  Biso   1.000  C
  C564     1.0000 0.87896  0.29635  0.54471  Biso   1.000  C
  C565     1.0000 0.01292  0.85778  0.24016  Biso   1.000  C
  C566     1.0000 0.21978  0.98629  0.89034  Biso   1.000  C
  C567     1.0000 0.89039  0.20758  0.03003  Biso   1.000  C
  C568     1.0000 0.51354  0.87392  0.31509  Biso   1.000  C
  C569     1.0000 0.71623  0.00226  0.66816  Biso   1.000  C
  C570     1.0000 0.37439  0.19536  0.54398  Biso   1.000  C
  C571     1.0000 0.53859  0.37707  0.24929  Biso   1.000  C
  C572     1.0000 0.30499  0.46381  0.90013  Biso   1.000  C
  C573     1.0000 0.64135  0.70612  0.00634  Biso   1.000  C
  C574     1.0000 0.01437  0.35706  0.31944  Biso   1.000  C
  C575     1.0000 0.80848  0.49687  0.65854  Biso   1.000  C
  C576     1.0000 0.16074  0.69712  0.52621  Biso   1.000  C
  C577     1.0000 0.30771  0.49732  0.13418  Biso   1.000  C
  C578     1.0000 0.11416  0.27996  0.53768  Biso   1.000  C
  C579     1.0000 0.52807  0.11497  0.32127  Biso   1.000  C
  C580     1.0000 0.81321  0.49963  0.42168  Biso   1.000  C
  C581     1.0000 0.62644  0.29109  0.04495  Biso   1.000  C
  C582     1.0000 0.02228  0.09148  0.24219  Biso   1.000  C
  C583     1.0000 0.22527  0.99612  0.12271  Biso   1.000  C
  C584     1.0000 0.42720  0.78582  0.51324  Biso   1.000  C
  C585     1.0000 0.01838  0.59427  0.31893  Biso   1.000  C
  C586     1.0000 0.72373  0.00394  0.43200  Biso   1.000  C
  C587     1.0000 0.91037  0.78930  0.00916  Biso   1.000  C
  C588     1.0000 0.51331  0.60407  0.23205  Biso   1.000  C
  C589     1.0000 0.72052  0.48823  0.92301  Biso   1.000  C
  C590     1.0000 0.92556  0.71382  0.52830  Biso   1.000  C
  C591     1.0000 0.49024  0.87806  0.73220  Biso   1.000  C
  C592     1.0000 0.22865  0.48762  0.63637  Biso   1.000  C
  C593     1.0000 0.40800  0.70339  0.02317  Biso   1.000  C
  C594     1.0000 0.01426  0.89753  0.81578  Biso   1.000  C
  C595     1.0000 0.80156  0.00624  0.92856  Biso   1.000  C
  C596     1.0000 0.61096  0.20999  0.54143  Biso   1.000  C
  C597     1.0000 0.02620  0.39330  0.73875  Biso   1.000  C
  C598     1.0000 0.30495  0.98848  0.62882  Biso   1.000  C
  C599     1.0000 0.12749  0.19537  0.03902  Biso   1.000  C
  C600     1.0000 0.53051  0.38106  0.82310  Biso   1.000  C
  C601     1.0000 0.22048  0.98346  0.92120  Biso   1.000  C
  C602     1.0000 0.92277  0.20557  0.03488  Biso   1.000  C
  C603     1.0000 0.01399  0.89039  0.24070  Biso   1.000  C
  C604     1.0000 0.71664  0.00614  0.63722  Biso   1.000  C
  C605     1.0000 0.40573  0.19663  0.54620  Biso   1.000  C
  C606     1.0000 0.51607  0.90551  0.31560  Biso   1.000  C
  C607     1.0000 0.30393  0.47424  0.93074  Biso   1.000  C
  C608     1.0000 0.61032  0.70451  0.00725  Biso   1.000  C
  C609     1.0000 0.53946  0.40698  0.24433  Biso   1.000  C
  C610     1.0000 0.80988  0.50157  0.62837  Biso   1.000  C
  C611     1.0000 0.12990  0.69666  0.52569  Biso   1.000  C
  C612     1.0000 0.01040  0.38689  0.31975  Biso   1.000  C
  C613     1.0000 0.81335  0.99711  0.13592  Biso   1.000  C
  C614     1.0000 0.11203  0.78748  0.04328  Biso   1.000  C
  C615     1.0000 0.00525  0.09910  0.82136  Biso   1.000  C
  C616     1.0000 0.30669  0.00180  0.42524  Biso   1.000  C
  C617     1.0000 0.63400  0.79300  0.53076  Biso   1.000  C
  C618     1.0000 0.53686  0.07885  0.74324  Biso   1.000  C
  C619     1.0000 0.72400  0.51843  0.12613  Biso   1.000  C
  C620     1.0000 0.42163  0.28814  0.03690  Biso   1.000  C
  C621     1.0000 0.49191  0.57823  0.81541  Biso   1.000  C
  C622     1.0000 0.22728  0.47425  0.42925  Biso   1.000  C
  C623     1.0000 0.91020  0.29499  0.54648  Biso   1.000  C
  C624     1.0000 0.02347  0.59666  0.73809  Biso   1.000  C
  C625     1.0000 0.02655  0.20480  0.92939  Biso   1.000  C
  C626     1.0000 0.92021  0.00221  0.24638  Biso   1.000  C
  C627     1.0000 0.22112  0.88914  0.03415  Biso   1.000  C
  C628     1.0000 0.52139  0.19067  0.64578  Biso   1.000  C
  C629     1.0000 0.41701  0.00697  0.32154  Biso   1.000  C
  C630     1.0000 0.72887  0.91102  0.51813  Biso   1.000  C
  C631     1.0000 0.50771  0.69166  0.91865  Biso   1.000  C
  C632     1.0000 0.62017  0.53245  0.23321  Biso   1.000  C
  C633     1.0000 0.31005  0.38841  0.03270  Biso   1.000  C
  C634     1.0000 0.03523  0.70180  0.62826  Biso   1.000  C
  C635     1.0000 0.11677  0.47641  0.32287  Biso   1.000  C
  C636     1.0000 0.80968  0.40457  0.51969  Biso   1.000  C
  C637     1.0000 0.00757  0.78566  0.12738  Biso   1.000  C
  C638     1.0000 0.11079  0.00358  0.81769  Biso   1.000  C
  C639     1.0000 0.81335  0.09974  0.01895  Biso   1.000  C
  C640     1.0000 0.52975  0.79544  0.41977  Biso   1.000  C
  C641     1.0000 0.61227  0.96455  0.73930  Biso   1.000  C
  C642     1.0000 0.30114  0.08462  0.54093  Biso   1.000  C
  C643     1.0000 0.52595  0.29194  0.14452  Biso   1.000  C
  C644     1.0000 0.41219  0.46016  0.82267  Biso   1.000  C
  C645     1.0000 0.71574  0.60126  0.02318  Biso   1.000  C
  C646     1.0000 0.02685  0.28372  0.42947  Biso   1.000  C
  C647     1.0000 0.91518  0.50039  0.73839  Biso   1.000  C
  C648     1.0000 0.23549  0.58755  0.52514  Biso   1.000  C
  C649     1.0000 0.03145  0.70404  0.42438  Biso   1.000  C
  C650     1.0000 0.41044  0.99038  0.74211  Biso   1.000  C
  C651     1.0000 0.72956  0.40045  0.02823  Biso   1.000  C
  C652     1.0000 0.50596  0.70549  0.11979  Biso   1.000  C
  C653     1.0000 0.90414  0.00243  0.81789  Biso   1.000  C
  C654     1.0000 0.22464  0.38688  0.53015  Biso   1.000  C
  C655     1.0000 0.52445  0.20772  0.44452  Biso   1.000  C
  C656     1.0000 0.11849  0.47515  0.74048  Biso   1.000  C
  C657     1.0000 0.80493  0.89601  0.02030  Biso   1.000  C
  C658     1.0000 0.02201  0.19608  0.13422  Biso   1.000  C
  C659     1.0000 0.61042  0.48052  0.81708  Biso   1.000  C
  C660     1.0000 0.31601  0.88495  0.52033  Biso   1.000  C
  C661     1.0000 0.02058  0.28634  0.63161  Biso   1.000  C
  C662     1.0000 0.62022  0.00559  0.31695  Biso   1.000  C
  C663     1.0000 0.29854  0.59564  0.02609  Biso   1.000  C
  C664     1.0000 0.52355  0.28014  0.93445  Biso   1.000  C
  C665     1.0000 0.12302  0.98963  0.23389  Biso   1.000  C
  C666     1.0000 0.81425  0.60982  0.51585  Biso   1.000  C
  C667     1.0000 0.51122  0.77577  0.62167  Biso   1.000  C
  C668     1.0000 0.91641  0.50122  0.31449  Biso   1.000  C
  C669     1.0000 0.22804  0.09057  0.00560  Biso   1.000  C
  C670     1.0000 0.02431  0.78990  0.92315  Biso   1.000  C
  C671     1.0000 0.41938  0.47113  0.23261  Biso   1.000  C
  C672     1.0000 0.71854  0.11062  0.53180  Biso   1.000  C
  C673     1.0000 0.20537  0.99288  0.82933  Biso   1.000  C
  C674     1.0000 0.82833  0.19622  0.02315  Biso   1.000  C
  C675     1.0000 0.01277  0.79675  0.22518  Biso   1.000  C
  C676     1.0000 0.70289  0.98474  0.72810  Biso   1.000  C
  C677     1.0000 0.31075  0.17963  0.54184  Biso   1.000  C
  C678     1.0000 0.51676  0.80900  0.32675  Biso   1.000  C
  C679     1.0000 0.31692  0.45184  0.83673  Biso   1.000  C
  C680     1.0000 0.70327  0.69233  0.00932  Biso   1.000  C
  C681     1.0000 0.53359  0.31301  0.24124  Biso   1.000  C
  C682     1.0000 0.81871  0.49321  0.72156  Biso   1.000  C
  C683     1.0000 0.22539  0.68374  0.52149  Biso   1.000  C
  C684     1.0000 0.02345  0.29437  0.33572  Biso   1.000  C
  C685     1.0000 0.82468  0.00142  0.23202  Biso   1.000  C
  C686     1.0000 0.20481  0.79779  0.04182  Biso   1.000  C
  C687     1.0000 0.02483  0.19301  0.83444  Biso   1.000  C
  C688     1.0000 0.32155  0.00529  0.33181  Biso   1.000  C
  C689     1.0000 0.72610  0.81511  0.52264  Biso   1.000  C
  C690     1.0000 0.53411  0.17284  0.73872  Biso   1.000  C
  C691     1.0000 0.71380  0.52941  0.22182  Biso   1.000  C
  C692     1.0000 0.32776  0.29734  0.03015  Biso   1.000  C
  C693     1.0000 0.49382  0.67336  0.82324  Biso   1.000  C
  C694     1.0000 0.21188  0.46631  0.33140  Biso   1.000  C
  C695     1.0000 0.81526  0.31016  0.53295  Biso   1.000  C
  C696     1.0000 0.03004  0.69009  0.72392  Biso   1.000  C
  C697     1.0000 0.71359  0.00024  0.33597  Biso   1.000  C
  C698     1.0000 0.31169  0.69076  0.02917  Biso   1.000  C
  C699     1.0000 0.02605  0.30001  0.72678  Biso   1.000  C
  C700     1.0000 0.21718  0.99627  0.21794  Biso   1.000  C
  C701     1.0000 0.83102  0.70469  0.52131  Biso   1.000  C
  C702     1.0000 0.52911  0.28806  0.84223  Biso   1.000  C
  C703     1.0000 0.82336  0.50465  0.32708  Biso   1.000  C
  C704     1.0000 0.22098  0.18193  0.02345  Biso   1.000  C
  C705     1.0000 0.49635  0.78601  0.71655  Biso   1.000  C
  C706     1.0000 0.32236  0.47628  0.22531  Biso   1.000  C
  C707     1.0000 0.70540  0.20303  0.53513  Biso   1.000  C
  C708     1.0000 0.03030  0.80571  0.82886  Biso   1.000  C
  C709     1.0000 0.31405  0.99382  0.72374  Biso   1.000  C
  C710     1.0000 0.72069  0.30752  0.03566  Biso   1.000  C
  C711     1.0000 0.01773  0.68577  0.33295  Biso   1.000  C
  C712     1.0000 0.81096  0.00655  0.83397  Biso   1.000  C
  C713     1.0000 0.20835  0.29279  0.52968  Biso   1.000  C
  C714     1.0000 0.51142  0.69725  0.21752  Biso   1.000  C
  C715     1.0000 0.21136  0.46714  0.72824  Biso   1.000  C
  C716     1.0000 0.81547  0.80102  0.01477  Biso   1.000  C
  C717     1.0000 0.53536  0.20611  0.34800  Biso   1.000  C
  C718     1.0000 0.70860  0.48283  0.82743  Biso   1.000  C
  C719     1.0000 0.33288  0.79276  0.51819  Biso   1.000  C
  C720     1.0000 0.02467  0.18239  0.23069  Biso   1.000  C
  C721     1.0000 0.53864  0.80835  0.30494  Biso   1.000  C
  C722     1.0000 0.31977  0.46624  0.80736  Biso   1.000  C
  C723     1.0000 0.78674  0.31637  0.54565  Biso   1.000  C
  C724     1.0000 0.99477  0.77022  0.22053  Biso   1.000  C
  C725     1.0000 0.78786  0.50280  0.71571  Biso   1.000  C
  C726     1.0000 0.30622  0.29724  0.00642  Biso   1.000  C
  C727     1.0000 0.01271  0.26499  0.34082  Biso   1.000  C
  C728     1.0000 0.23334  0.00620  0.83586  Biso   1.000  C
  C729     1.0000 0.75458  0.82102  0.53556  Biso   1.000  C
  C730     1.0000 0.52244  0.32074  0.27009  Biso   1.000  C
  C731     1.0000 0.73317  0.97887  0.72217  Biso   1.000  C
  C732     1.0000 0.22410  0.79613  0.01700  Biso   1.000  C
  C733     1.0000 0.52017  0.16903  0.76719  Biso   1.000  C
  C734     1.0000 0.70754  0.50948  0.24670  Biso   1.000  C
  C735     1.0000 0.22123  0.71199  0.50882  Biso   1.000  C
  C736     1.0000 0.01229  0.22009  0.83979  Biso   1.000  C
  C737     1.0000 0.23863  0.44980  0.33541  Biso   1.000  C
  C738     1.0000 0.72585  0.69289  0.03199  Biso   1.000  C
  C739     1.0000 0.04313  0.68883  0.75252  Biso   1.000  C
  C740     1.0000 0.79991  0.98141  0.22938  Biso   1.000  C
  C741     1.0000 0.28399  0.17553  0.52334  Biso   1.000  C
  C742     1.0000 0.50466  0.66856  0.79279  Biso   1.000  C
  C743     1.0000 0.29612  0.98732  0.33484  Biso   1.000  C
  C744     1.0000 0.83142  0.22001  0.04367  Biso   1.000  C
  C745     1.0000 0.03873  0.70958  0.33132  Biso   1.000  C
  C746     1.0000 0.29028  0.01159  0.71792  Biso   1.000  C
  C747     1.0000 0.74954  0.31166  0.04779  Biso   1.000  C
  C748     1.0000 0.52627  0.72510  0.21331  Biso   1.000  C
  C749     1.0000 0.81481  0.98381  0.81024  Biso   1.000  C
  C750     1.0000 0.23428  0.29497  0.54860  Biso   1.000  C
  C751     1.0000 0.55476  0.20589  0.32469  Biso   1.000  C
  C752     1.0000 0.23483  0.44695  0.72094  Biso   1.000  C
  C753     1.0000 0.78843  0.80562  0.99865  Biso   1.000  C
  C754     1.0000 0.04432  0.17912  0.25592  Biso   1.000  C
  C755     1.0000 0.70407  0.47112  0.79701  Biso   1.000  C
  C756     1.0000 0.31064  0.79493  0.54251  Biso   1.000  C
  C757     1.0000 0.00796  0.27411  0.72643  Biso   1.000  C
  C758     1.0000 0.71193  0.01615  0.30804  Biso   1.000  C
  C759     1.0000 0.28698  0.68621  0.04773  Biso   1.000  C
  C760     1.0000 0.54727  0.28913  0.81645  Biso   1.000  C
  C761     1.0000 0.24268  0.01487  0.21383  Biso   1.000  C
  C762     1.0000 0.83826  0.73308  0.50940  Biso   1.000  C
  C763     1.0000 0.47408  0.78532  0.73912  Biso   1.000  C
  C764     1.0000 0.79975  0.52424  0.33310  Biso   1.000  C
  C765     1.0000 0.25050  0.17660  0.03465  Biso   1.000  C
  C766     1.0000 0.00855  0.80279  0.80478  Biso   1.000  C
  C767     1.0000 0.32500  0.48446  0.25609  Biso   1.000  C
  C768     1.0000 0.70328  0.23049  0.52017  Biso   1.000  C
  C769     1.0000 0.48211  0.70223  0.82930  Biso   1.000  C
  C770     1.0000 0.82526  0.47804  0.74871  Biso   1.000  C
  C771     1.0000 0.72377  0.78724  0.50681  Biso   1.000  C
  C772     1.0000 0.01816  0.71894  0.71597  Biso   1.000  C
  C773     1.0000 0.29130  0.43508  0.84104  Biso   1.000  C
  C774     1.0000 0.20661  0.77446  0.06282  Biso   1.000  C
  C775     1.0000 0.03876  0.18689  0.80727  Biso   1.000  C
  C776     1.0000 0.69576  0.99629  0.75802  Biso   1.000  C
  C777     1.0000 0.81982  0.27894  0.52262  Biso   1.000  C
  C778     1.0000 0.54868  0.20017  0.73403  Biso   1.000  C
  C779     1.0000 0.20171  0.98081  0.80009  Biso   1.000  C
  C780     1.0000 0.32761  0.27344  0.05032  Biso   1.000  C
  C781     1.0000 0.54622  0.28441  0.23858  Biso   1.000  C
  C782     1.0000 0.20765  0.47770  0.30224  Biso   1.000  C
  C783     1.0000 0.31193  0.20452  0.56024  Biso   1.000  C
  C784     1.0000 0.03719  0.29916  0.30782  Biso   1.000  C
  C785     1.0000 0.74272  0.54267  0.22130  Biso   1.000  C
  C786     1.0000 0.80217  0.19787  0.00361  Biso   1.000  C
  C787     1.0000 0.02953  0.79690  0.25312  Biso   1.000  C
  C788     1.0000 0.32475  0.02179  0.30432  Biso   1.000  C
  C789     1.0000 0.25189  0.67918  0.53784  Biso   1.000  C
  C790     1.0000 0.49150  0.78781  0.32423  Biso   1.000  C
  C791     1.0000 0.82637  0.02041  0.25807  Biso   1.000  C
  C792     1.0000 0.70506  0.71348  0.98745  Biso   1.000  C
  C793     1.0000 0.51944  0.23246  0.35448  Biso   1.000  C
  C794     1.0000 0.29580  0.46199  0.21587  Biso   1.000  C
  C795     1.0000 0.20182  0.26514  0.51488  Biso   1.000  C
  C796     1.0000 0.00643  0.20806  0.22921  Biso   1.000  C
  C797     1.0000 0.82232  0.48947  0.29855  Biso   1.000  C
  C798     1.0000 0.71495  0.28064  0.02077  Biso   1.000  C
  C799     1.0000 0.99588  0.68268  0.30967  Biso   1.000  C
  C800     1.0000 0.21512  0.98070  0.24569  Biso   1.000  C
  C801     1.0000 0.33294  0.76646  0.49991  Biso   1.000  C
  C802     1.0000 0.49866  0.69292  0.24572  Biso   1.000  C
  C803     1.0000 0.73904  0.98169  0.33974  Biso   1.000  C
  C804     1.0000 0.81892  0.77280  0.02841  Biso   1.000  C
  C805     1.0000 0.51964  0.76485  0.71749  Biso   1.000  C
  C806     1.0000 0.73854  0.49297  0.83232  Biso   1.000  C
  C807     1.0000 0.80185  0.70087  0.53194  Biso   1.000  C
  C808     1.0000 0.05460  0.78376  0.82818  Biso   1.000  C
  C809     1.0000 0.21085  0.47668  0.75752  Biso   1.000  C
  C810     1.0000 0.31446  0.71891  0.01569  Biso   1.000  C
  C811     1.0000 0.04759  0.30095  0.75070  Biso   1.000  C
  C812     1.0000 0.78503  0.02564  0.83453  Biso   1.000  C
  C813     1.0000 0.73211  0.19925  0.55247  Biso   1.000  C
  C814     1.0000 0.51180  0.26260  0.84607  Biso   1.000  C
  C815     1.0000 0.31602  0.97793  0.75036  Biso   1.000  C
  C816     1.0000 0.21576  0.21089  0.01238  Biso   1.000  C
  C817     1.0000 0.01304  0.24098  0.81851  Biso   1.000  C
  C818     1.0000 0.77777  0.98081  0.24922  Biso   1.000  C
  C819     1.0000 0.24398  0.77467  0.01330  Biso   1.000  C
  C820     1.0000 0.52158  0.19059  0.78836  Biso   1.000  C
  C821     1.0000 0.27559  0.98685  0.31235  Biso   1.000  C
  C822     1.0000 0.77725  0.80212  0.53494  Biso   1.000  C
  C823     1.0000 0.50364  0.69092  0.77279  Biso   1.000  C
  C824     1.0000 0.72629  0.50700  0.27087  Biso   1.000  C
  C825     1.0000 0.28569  0.27304  0.00492  Biso   1.000  C
  C826     1.0000 0.04433  0.71113  0.77232  Biso   1.000  C
  C827     1.0000 0.25717  0.44640  0.31263  Biso   1.000  C
  C828     1.0000 0.76561  0.29523  0.54610  Biso   1.000  C
  C829     1.0000 0.99816  0.74661  0.23830  Biso   1.000  C
  C830     1.0000 0.25611  0.00766  0.81376  Biso   1.000  C
  C831     1.0000 0.81055  0.24108  0.04563  Biso   1.000  C
  C832     1.0000 0.53917  0.78545  0.28436  Biso   1.000  C
  C833     1.0000 0.75332  0.98471  0.74413  Biso   1.000  C
  C834     1.0000 0.26328  0.19598  0.52432  Biso   1.000  C
  C835     1.0000 0.52596  0.30210  0.29220  Biso   1.000  C
  C836     1.0000 0.29870  0.46086  0.78581  Biso   1.000  C
  C837     1.0000 0.74815  0.71321  0.03186  Biso   1.000  C
  C838     1.0000 0.01183  0.24360  0.31988  Biso   1.000  C
  C839     1.0000 0.76744  0.49775  0.73615  Biso   1.000  C
  C840     1.0000 0.24393  0.73275  0.51146  Biso   1.000  C
  C841     1.0000 0.22307  0.98367  0.77895  Biso   1.000  C
  C842     1.0000 0.78246  0.21970  0.00605  Biso   1.000  C
  C843     1.0000 0.03093  0.77400  0.27262  Biso   1.000  C
  C844     1.0000 0.71666  0.99873  0.77844  Biso   1.000  C
  C845     1.0000 0.29146  0.22487  0.55791  Biso   1.000  C
  C846     1.0000 0.49053  0.76819  0.30140  Biso   1.000  C
  C847     1.0000 0.27036  0.43113  0.81945  Biso   1.000  C
  C848     1.0000 0.72670  0.73543  0.98785  Biso   1.000  C
  C849     1.0000 0.54685  0.26539  0.26033  Biso   1.000  C
  C850     1.0000 0.80259  0.47529  0.76957  Biso   1.000  C
  C851     1.0000 0.27103  0.70189  0.54332  Biso   1.000  C
  C852     1.0000 0.03844  0.27605  0.28837  Biso   1.000  C
  C853     1.0000 0.80588  0.01720  0.28036  Biso   1.000  C
  C854     1.0000 0.22796  0.75407  0.05989  Biso   1.000  C
  C855     1.0000 0.04053  0.20828  0.78816  Biso   1.000  C
  C856     1.0000 0.30263  0.02261  0.28402  Biso   1.000  C
  C857     1.0000 0.74640  0.76795  0.50627  Biso   1.000  C
  C858     1.0000 0.54732  0.22098  0.75518  Biso   1.000  C
  C859     1.0000 0.76177  0.53576  0.24389  Biso   1.000  C
  C860     1.0000 0.30787  0.25000  0.04827  Biso   1.000  C
  C861     1.0000 0.48284  0.72424  0.80923  Biso   1.000  C
  C862     1.0000 0.22696  0.47247  0.27958  Biso   1.000  C
  C863     1.0000 0.79733  0.25915  0.52646  Biso   1.000  C
  C864     1.0000 0.01979  0.74082  0.73671  Biso   1.000  C
  C865     1.0000 0.72642  0.47226  0.77688  Biso   1.000  C
  C866     1.0000 0.81929  0.75601  0.51123  Biso   1.000  C
  C867     1.0000 0.47235  0.76114  0.75824  Biso   1.000  C
  C868     1.0000 0.25353  0.43697  0.74364  Biso   1.000  C
  C869     1.0000 0.26546  0.70574  0.04888  Biso   1.000  C
  C870     1.0000 0.01131  0.78092  0.78455  Biso   1.000  C
  C871     1.0000 0.79044  0.98001  0.79158  Biso   1.000  C
  C872     1.0000 0.72464  0.25163  0.52358  Biso   1.000  C
  C873     1.0000 0.00835  0.25370  0.74850  Biso   1.000  C
  C874     1.0000 0.26838  0.01216  0.73878  Biso   1.000  C
  C875     1.0000 0.27268  0.19882  0.03372  Biso   1.000  C
  C876     1.0000 0.54680  0.26808  0.79581  Biso   1.000  C
  C877     1.0000 0.30242  0.47773  0.27444  Biso   1.000  C
  C878     1.0000 0.25136  0.27148  0.55161  Biso   1.000  C
  C879     1.0000 0.55475  0.22910  0.30590  Biso   1.000  C
  C880     1.0000 0.77600  0.52530  0.31315  Biso   1.000  C
  C881     1.0000 0.77028  0.29121  0.04442  Biso   1.000  C
  C882     1.0000 0.04555  0.20081  0.27572  Biso   1.000  C
  C883     1.0000 0.26365  0.01905  0.23661  Biso   1.000  C
  C884     1.0000 0.28930  0.77327  0.54539  Biso   1.000  C
  C885     1.0000 0.03950  0.72473  0.30531  Biso   1.000  C
  C886     1.0000 0.73525  0.01261  0.28991  Biso   1.000  C
  C887     1.0000 0.76684  0.78361  0.99755  Biso   1.000  C
  C888     1.0000 0.52838  0.74780  0.23543  Biso   1.000  C
  C889     1.0000 0.76248  0.98043  0.32154  Biso   1.000  C
  C890     1.0000 0.29265  0.73905  0.01784  Biso   1.000  C
  C891     1.0000 0.04907  0.27956  0.77150  Biso   1.000  C
  C892     1.0000 0.23440  0.98514  0.26817  Biso   1.000  C
  C893     1.0000 0.78321  0.72419  0.53199  Biso   1.000  C
  C894     1.0000 0.51457  0.23864  0.82742  Biso   1.000  C
  C895     1.0000 0.79954  0.49332  0.27829  Biso   1.000  C
  C896     1.0000 0.23641  0.23241  0.01461  Biso   1.000  C
  C897     1.0000 0.51752  0.74366  0.74018  Biso   1.000  C
  C898     1.0000 0.27432  0.45410  0.23636  Biso   1.000  C
  C899     1.0000 0.75344  0.22076  0.55569  Biso   1.000  C
  C900     1.0000 0.05695  0.76403  0.80561  Biso   1.000  C
  C901     1.0000 0.29371  0.97996  0.77019  Biso   1.000  C
  C902     1.0000 0.73646  0.26029  0.01862  Biso   1.000  C
  C903     1.0000 0.99448  0.70282  0.28580  Biso   1.000  C
  C904     1.0000 0.76351  0.02026  0.81381  Biso   1.000  C
  C905     1.0000 0.22071  0.24297  0.51933  Biso   1.000  C
  C906     1.0000 0.50054  0.71472  0.26711  Biso   1.000  C
  C907     1.0000 0.22972  0.46763  0.77874  Biso   1.000  C
  C908     1.0000 0.79703  0.75165  0.02544  Biso   1.000  C
  C909     1.0000 0.51950  0.25434  0.33522  Biso   1.000  C
  C910     1.0000 0.76095  0.49190  0.81236  Biso   1.000  C
  C911     1.0000 0.31200  0.74523  0.50617  Biso   1.000  C
  C912     1.0000 0.00822  0.22893  0.25031  Biso   1.000  C
  C913     1.0000 0.77473  0.48309  0.76132  Biso   1.000  C
  C914     1.0000 0.77128  0.77417  0.52382  Biso   1.000  C
  C915     1.0000 0.49314  0.71811  0.78096  Biso   1.000  C
  C916     1.0000 0.27397  0.44340  0.79208  Biso   1.000  C
  C917     1.0000 0.24518  0.75403  0.03544  Biso   1.000  C
  C918     1.0000 0.03342  0.73726  0.76332  Biso   1.000  C
  C919     1.0000 0.74524  0.99412  0.77093  Biso   1.000  C
  C920     1.0000 0.77088  0.26738  0.53811  Biso   1.000  C
  C921     1.0000 0.02836  0.23488  0.79365  Biso   1.000  C
  C922     1.0000 0.24868  0.99755  0.78622  Biso   1.000  C
  C923     1.0000 0.28702  0.25092  0.02533  Biso   1.000  C
  C924     1.0000 0.53300  0.21665  0.78082  Biso   1.000  C
  C925     1.0000 0.25297  0.45946  0.28546  Biso   1.000  C
  C926     1.0000 0.26674  0.22216  0.53943  Biso   1.000  C
  C927     1.0000 0.53607  0.27342  0.28768  Biso   1.000  C
  C928     1.0000 0.75409  0.51747  0.26648  Biso   1.000  C
  C929     1.0000 0.78626  0.24163  0.02633  Biso   1.000  C
  C930     1.0000 0.02736  0.24824  0.29391  Biso   1.000  C
  C931     1.0000 0.27940  0.00335  0.28667  Biso   1.000  C
  C932     1.0000 0.26777  0.72706  0.52851  Biso   1.000  C
  C933     1.0000 0.01698  0.74778  0.26310  Biso   1.000  C
  C934     1.0000 0.78173  0.99667  0.27462  Biso   1.000  C
  C935     1.0000 0.74775  0.73328  0.00991  Biso   1.000  C
  C936     1.0000 0.51625  0.76419  0.28506  Biso   1.000  C
  C937     1.0000 0.76425  0.26534  0.02968  Biso   1.000  C
  C938     1.0000 0.01621  0.72520  0.28525  Biso   1.000  C
  C939     1.0000 0.27208  0.99757  0.76510  Biso   1.000  C
  C940     1.0000 0.24499  0.24552  0.53849  Biso   1.000  C
  C941     1.0000 0.51482  0.74258  0.26187  Biso   1.000  C
  C942     1.0000 0.76753  0.99819  0.79353  Biso   1.000  C
  C943     1.0000 0.77131  0.75667  0.01069  Biso   1.000  C
  C944     1.0000 0.53774  0.25291  0.31175  Biso   1.000  C
  C945     1.0000 0.24909  0.44571  0.77204  Biso   1.000  C
  C946     1.0000 0.29111  0.74809  0.52924  Biso   1.000  C
  C947     1.0000 0.02907  0.22577  0.27189  Biso   1.000  C
  C948     1.0000 0.75426  0.47899  0.78543  Biso   1.000  C
  C949     1.0000 0.26856  0.73310  0.03462  Biso   1.000  C
  C950     1.0000 0.02961  0.25633  0.77079  Biso   1.000  C
  C951     1.0000 0.75850  0.99527  0.29574  Biso   1.000  C
  C952     1.0000 0.79371  0.75199  0.52385  Biso   1.000  C
  C953     1.0000 0.53059  0.24177  0.80166  Biso   1.000  C
  C954     1.0000 0.25784  0.00397  0.26417  Biso   1.000  C
  C955     1.0000 0.26503  0.22729  0.02339  Biso   1.000  C
  C956     1.0000 0.49388  0.74248  0.75877  Biso   1.000  C
  C957     1.0000 0.77684  0.51097  0.28770  Biso   1.000  C
  C958     1.0000 0.74869  0.24736  0.54194  Biso   1.000  C
  C959     1.0000 0.03472  0.76178  0.78390  Biso   1.000  C
  C960     1.0000 0.27740  0.46357  0.26526  Biso   1.000  C
  Cu1      1.0000 0.01829  0.49485  0.68279  Biso   1.000  Cu
  Cu2      1.0000 0.66736  0.00474  0.53392  Biso   1.000  Cu
  Cu3      1.0000 0.50721  0.64255  0.02419  Biso   1.000  Cu
  Cu4      1.0000 0.51317  0.48180  0.87470  Biso   1.000  Cu
  Cu5      1.0000 0.17014  0.99136  0.02491  Biso   1.000  Cu
  Cu6      1.0000 0.02105  0.64938  0.52712  Biso   1.000  Cu
  Cu7      1.0000 0.51201  0.98155  0.68212  Biso   1.000  Cu
  Cu8      1.0000 0.86614  0.50809  0.52528  Biso   1.000  Cu
  Cu9      1.0000 0.02330  0.14714  0.03061  Biso   1.000  Cu
  Cu10     1.0000 0.00735  0.99855  0.87172  Biso   1.000  Cu
  Cu11     1.0000 0.35944  0.49661  0.03026  Biso   1.000  Cu
  Cu12     1.0000 0.50970  0.14523  0.54092  Biso   1.000  Cu
  Cu13     1.0000 0.01754  0.49255  0.37207  Biso   1.000  Cu
  Cu14     1.0000 0.36206  0.99184  0.52763  Biso   1.000  Cu
  Cu15     1.0000 0.52349  0.34359  0.03665  Biso   1.000  Cu
  Cu16     1.0000 0.52016  0.49989  0.18064  Biso   1.000  Cu
  Cu17     1.0000 0.86146  0.99572  0.03330  Biso   1.000  Cu
  Cu18     1.0000 0.01792  0.34130  0.53011  Biso   1.000  Cu
  Cu19     1.0000 0.51840  0.00964  0.37402  Biso   1.000  Cu
  Cu20     1.0000 0.17542  0.48847  0.53248  Biso   1.000  Cu
  Cu21     1.0000 0.01282  0.84268  0.02572  Biso   1.000  Cu
  Cu22     1.0000 0.02147  0.99070  0.18759  Biso   1.000  Cu
  Cu23     1.0000 0.66828  0.49919  0.02524  Biso   1.000  Cu
  Cu24     1.0000 0.52798  0.83975  0.52598  Biso   1.000  Cu
  Cu25     1.0000 0.22373  0.99048  0.02181  Biso   1.000  Cu
  Cu26     1.0000 0.02762  0.20041  0.03315  Biso   1.000  Cu
  Cu27     1.0000 0.02502  0.98937  0.24112  Biso   1.000  Cu
  Cu28     1.0000 0.72171  0.00871  0.53464  Biso   1.000  Cu
  Cu29     1.0000 0.50885  0.20041  0.54589  Biso   1.000  Cu
  Cu30     1.0000 0.51775  0.01067  0.31810  Biso   1.000  Cu
  Cu31     1.0000 0.30557  0.49204  0.03250  Biso   1.000  Cu
  Cu32     1.0000 0.51077  0.69632  0.02042  Biso   1.000  Cu
  Cu33     1.0000 0.52000  0.50539  0.23506  Biso   1.000  Cu
  Cu34     1.0000 0.81356  0.50628  0.52679  Biso   1.000  Cu
  Cu35     1.0000 0.02771  0.70468  0.53005  Biso   1.000  Cu
  Cu36     1.0000 0.01744  0.49257  0.31628  Biso   1.000  Cu
  Cu37     1.0000 0.80924  0.99804  0.03181  Biso   1.000  Cu
  Cu38     1.0000 0.01007  0.78859  0.02635  Biso   1.000  Cu
  Cu39     1.0000 0.00631  0.99821  0.81815  Biso   1.000  Cu
  Cu40     1.0000 0.30698  0.98560  0.52746  Biso   1.000  Cu
  Cu41     1.0000 0.52913  0.78747  0.52012  Biso   1.000  Cu
  Cu42     1.0000 0.51304  0.97878  0.73675  Biso   1.000  Cu
  Cu43     1.0000 0.72347  0.50207  0.02515  Biso   1.000  Cu
  Cu44     1.0000 0.52263  0.29001  0.03898  Biso   1.000  Cu
  Cu45     1.0000 0.51378  0.47993  0.82115  Biso   1.000  Cu
  Cu46     1.0000 0.22824  0.48717  0.53462  Biso   1.000  Cu
  Cu47     1.0000 0.01179  0.28573  0.53010  Biso   1.000  Cu
  Cu48     1.0000 0.01792  0.49433  0.73695  Biso   1.000  Cu
  H1       1.0000 0.27109  0.77546  0.56098  Biso   1.000  H
  H2       1.0000 0.55991  0.27305  0.77765  Biso   1.000  H
  H3       1.0000 0.75791  0.53841  0.31763  Biso   1.000  H
  H4       1.0000 0.74587  0.78833  0.98637  Biso   1.000  H
  H5       1.0000 0.99578  0.23513  0.75004  Biso   1.000  H
  H6       1.0000 0.30466  0.48485  0.29638  Biso   1.000  H
  H7       1.0000 0.27023  0.27523  0.56632  Biso   1.000  H
  H8       1.0000 0.99352  0.77853  0.76895  Biso   1.000  H
  H9       1.0000 0.73497  0.02455  0.26938  Biso   1.000  H
  H10      1.0000 0.79344  0.29521  0.05273  Biso   1.000  H
  H11      1.0000 0.45363  0.76172  0.77268  Biso   1.000  H
  H12      1.0000 0.28254  0.03467  0.23476  Biso   1.000  H
  H13      1.0000 0.72252  0.27157  0.51240  Biso   1.000  H
  H14      1.0000 0.53875  0.76782  0.22954  Biso   1.000  H
  H15      1.0000 0.26851  0.41979  0.74048  Biso   1.000  H
  H16      1.0000 0.29418  0.19682  0.04232  Biso   1.000  H
  H17      1.0000 0.05924  0.73701  0.30263  Biso   1.000  H
  H18      1.0000 0.72183  0.46340  0.75573  Biso   1.000  H
  H19      1.0000 0.82734  0.77774  0.50378  Biso   1.000  H
  H20      1.0000 0.05719  0.19658  0.29622  Biso   1.000  H
  H21      1.0000 0.24937  0.02517  0.73310  Biso   1.000  H
  H22      1.0000 0.24599  0.69929  0.06051  Biso   1.000  H
  H23      1.0000 0.57343  0.22991  0.29098  Biso   1.000  H
  H24      1.0000 0.79244  0.96225  0.77634  Biso   1.000  H
  H25      1.0000 0.27781  0.01501  0.81687  Biso   1.000  H
  H26      1.0000 0.81373  0.25901  0.05997  Biso   1.000  H
  H27      1.0000 0.98314  0.72715  0.23570  Biso   1.000  H
  H28      1.0000 0.77611  0.98413  0.74173  Biso   1.000  H
  H29      1.0000 0.24377  0.19166  0.50990  Biso   1.000  H
  H30      1.0000 0.55773  0.78508  0.27088  Biso   1.000  H
  H31      1.0000 0.30022  0.47436  0.76645  Biso   1.000  H
  H32      1.0000 0.76302  0.71343  0.05019  Biso   1.000  H
  H33      1.0000 0.51897  0.30524  0.31410  Biso   1.000  H
  H34      1.0000 0.74508  0.50633  0.73491  Biso   1.000  H
  H35      1.0000 0.24192  0.75307  0.50004  Biso   1.000  H
  H36      1.0000 0.00279  0.22326  0.32384  Biso   1.000  H
  H37      1.0000 0.75903  0.96747  0.24294  Biso   1.000  H
  H38      1.0000 0.25740  0.77457  0.99370  Biso   1.000  H
  H39      1.0000 0.00587  0.26259  0.82473  Biso   1.000  H
  H40      1.0000 0.25843  0.97267  0.31771  Biso   1.000  H
  H41      1.0000 0.79814  0.80877  0.54555  Biso   1.000  H
  H42      1.0000 0.50819  0.18519  0.80761  Biso   1.000  H
  H43      1.0000 0.72040  0.49282  0.28911  Biso   1.000  H
  H44      1.0000 0.26828  0.27379  0.98776  Biso   1.000  H
  H45      1.0000 0.51102  0.68754  0.74974  Biso   1.000  H
  H46      1.0000 0.27605  0.43316  0.31756  Biso   1.000  H
  H47      1.0000 0.74582  0.30062  0.55649  Biso   1.000  H
  H48      1.0000 0.05548  0.71082  0.79328  Biso   1.000  H
  H49      1.0000 0.22453  0.48284  0.25749  Biso   1.000  H
  H50      1.0000 0.29335  0.24434  0.57338  Biso   1.000  H
  H51      1.0000 0.55661  0.24440  0.25613  Biso   1.000  H
  H52      1.0000 0.78476  0.54311  0.24185  Biso   1.000  H
  H53      1.0000 0.76563  0.22367  0.99070  Biso   1.000  H
  H54      1.0000 0.05023  0.27975  0.26674  Biso   1.000  H
  H55      1.0000 0.30389  0.03798  0.26562  Biso   1.000  H
  H56      1.0000 0.29148  0.69791  0.55753  Biso   1.000  H
  H57      1.0000 0.04406  0.77608  0.29210  Biso   1.000  H
  H58      1.0000 0.80957  0.03135  0.30031  Biso   1.000  H
  H59      1.0000 0.72743  0.75098  0.97073  Biso   1.000  H
  H60      1.0000 0.47055  0.75440  0.29966  Biso   1.000  H
  H61      1.0000 0.80556  0.46583  0.79095  Biso   1.000  H
  H62      1.0000 0.74599  0.74836  0.49444  Biso   1.000  H
  H63      1.0000 0.47681  0.74526  0.81575  Biso   1.000  H
  H64      1.0000 0.24985  0.41925  0.82494  Biso   1.000  H
  H65      1.0000 0.23090  0.73831  0.07734  Biso   1.000  H
  H66      1.0000 0.00839  0.76129  0.73261  Biso   1.000  H
  H67      1.0000 0.70839  0.00841  0.79884  Biso   1.000  H
  H68      1.0000 0.79974  0.23656  0.51675  Biso   1.000  H
  H69      1.0000 0.05481  0.20327  0.76923  Biso   1.000  H
  H70      1.0000 0.21977  0.97403  0.75669  Biso   1.000  H
  H71      1.0000 0.30669  0.23322  0.06469  Biso   1.000  H
  H72      1.0000 0.55959  0.24059  0.74892  Biso   1.000  H
  H73      1.0000 0.78092  0.50320  0.81817  Biso   1.000  H
  H74      1.0000 0.76144  0.72478  0.53999  Biso   1.000  H
  H75      1.0000 0.53427  0.72747  0.74382  Biso   1.000  H
  H76      1.0000 0.23001  0.47786  0.80140  Biso   1.000  H
  H77      1.0000 0.29207  0.76038  0.00702  Biso   1.000  H
  H78      1.0000 0.07665  0.75110  0.80595  Biso   1.000  H
  H79      1.0000 0.74219  0.03301  0.81838  Biso   1.000  H
  H80      1.0000 0.77441  0.21856  0.56749  Biso   1.000  H
  H81      1.0000 0.06612  0.28214  0.78763  Biso   1.000  H
  H82      1.0000 0.29131  0.96657  0.79047  Biso   1.000  H
  H83      1.0000 0.23086  0.25242  0.00335  Biso   1.000  H
  H84      1.0000 0.50211  0.21980  0.83208  Biso   1.000  H
  H85      1.0000 0.25522  0.44274  0.22796  Biso   1.000  H
  H86      1.0000 0.21804  0.22228  0.50987  Biso   1.000  H
  H87      1.0000 0.50534  0.27232  0.33902  Biso   1.000  H
  H88      1.0000 0.79753  0.48177  0.25675  Biso   1.000  H
  H89      1.0000 0.73097  0.23839  0.00794  Biso   1.000  H
  H90      1.0000 0.99531  0.24896  0.24768  Biso   1.000  H
  H91      1.0000 0.22898  0.97144  0.28679  Biso   1.000  H
  H92      1.0000 0.31191  0.72476  0.49397  Biso   1.000  H
  H93      1.0000 0.97581  0.70223  0.27088  Biso   1.000  H
  H94      1.0000 0.78259  0.96863  0.32344  Biso   1.000  H
  H95      1.0000 0.80294  0.73058  0.03337  Biso   1.000  H
  H96      1.0000 0.48994  0.71071  0.28626  Biso   1.000  H
  H97      1.0000 0.87759  0.99721  0.93588  Biso   1.000  H
  H98      1.0000 0.92122  0.86340  0.02339  Biso   1.000  H
  H99      1.0000 0.00553  0.90429  0.89211  Biso   1.000  H
  H100     1.0000 0.37955  0.98602  0.62083  Biso   1.000  H
  H101     1.0000 0.43874  0.85922  0.51321  Biso   1.000  H
  H102     1.0000 0.49842  0.89009  0.65715  Biso   1.000  H
  H103     1.0000 0.64650  0.49465  0.93059  Biso   1.000  H
  H104     1.0000 0.61506  0.36640  0.03649  Biso   1.000  H
  H105     1.0000 0.52424  0.39259  0.89869  Biso   1.000  H
  H106     1.0000 0.15250  0.48382  0.62568  Biso   1.000  H
  H107     1.0000 0.10367  0.35378  0.52317  Biso   1.000  H
  H108     1.0000 0.01570  0.40417  0.66237  Biso   1.000  H
  H109     1.0000 0.15023  0.98305  0.11750  Biso   1.000  H
  H110     1.0000 0.11504  0.12133  0.02667  Biso   1.000  H
  H111     1.0000 0.01270  0.07832  0.16856  Biso   1.000  H
  H112     1.0000 0.64942  0.99947  0.44132  Biso   1.000  H
  H113     1.0000 0.60274  0.13636  0.52733  Biso   1.000  H
  H114     1.0000 0.51661  0.09598  0.39622  Biso   1.000  H
  H115     1.0000 0.38284  0.48521  0.12040  Biso   1.000  H
  H116     1.0000 0.41260  0.62887  0.00809  Biso   1.000  H
  H117     1.0000 0.50194  0.59130  0.15574  Biso   1.000  H
  H118     1.0000 0.89032  0.49549  0.43153  Biso   1.000  H
  H119     1.0000 0.93076  0.63879  0.53750  Biso   1.000  H
  H120     1.0000 0.02578  0.58242  0.39460  Biso   1.000  H
  H121     1.0000 0.10026  0.99405  0.89240  Biso   1.000  H
  H122     1.0000 0.88780  0.09143  0.02462  Biso   1.000  H
  H123     1.0000 0.01477  0.86094  0.12003  Biso   1.000  H
  H124     1.0000 0.59882  0.97245  0.66387  Biso   1.000  H
  H125     1.0000 0.37512  0.07872  0.54049  Biso   1.000  H
  H126     1.0000 0.53730  0.87096  0.43041  Biso   1.000  H
  H127     1.0000 0.42207  0.47577  0.89691  Biso   1.000  H
  H128     1.0000 0.63809  0.59002  0.02769  Biso   1.000  H
  H129     1.0000 0.53167  0.36699  0.13170  Biso   1.000  H
  H130     1.0000 0.92622  0.49898  0.66344  Biso   1.000  H
  H131     1.0000 0.15807  0.57931  0.52456  Biso   1.000  H
  H132     1.0000 0.01013  0.35654  0.43917  Biso   1.000  H
  H133     1.0000 0.92863  0.00653  0.16942  Biso   1.000  H
  H134     1.0000 0.14816  0.90233  0.02658  Biso   1.000  H
  H135     1.0000 0.01882  0.13045  0.93874  Biso   1.000  H
  H136     1.0000 0.42544  0.01027  0.39870  Biso   1.000  H
  H137     1.0000 0.65282  0.91341  0.52572  Biso   1.000  H
  H138     1.0000 0.52974  0.11887  0.62779  Biso   1.000  H
  H139     1.0000 0.61188  0.51176  0.15926  Biso   1.000  H
  H140     1.0000 0.38494  0.40692  0.03628  Biso   1.000  H
  H141     1.0000 0.50172  0.61868  0.93321  Biso   1.000  H
  H142     1.0000 0.11325  0.48733  0.39943  Biso   1.000  H
  H143     1.0000 0.88300  0.41647  0.53382  Biso   1.000  H
  H144     1.0000 0.02632  0.62607  0.62069  Biso   1.000  H
  H145     1.0000 0.60526  0.49459  0.89031  Biso   1.000  H
  H146     1.0000 0.88697  0.60043  0.53597  Biso   1.000  H
  H147     1.0000 0.50734  0.85102  0.61514  Biso   1.000  H
  H148     1.0000 0.11191  0.48841  0.66434  Biso   1.000  H
  H149     1.0000 0.37275  0.58520  0.01902  Biso   1.000  H
  H150     1.0000 0.00575  0.86312  0.93294  Biso   1.000  H
  H151     1.0000 0.91848  0.99492  0.89366  Biso   1.000  H
  H152     1.0000 0.64209  0.09735  0.53310  Biso   1.000  H
  H153     1.0000 0.01517  0.36166  0.62280  Biso   1.000  H
  H154     1.0000 0.42174  0.98905  0.66541  Biso   1.000  H
  H155     1.0000 0.15551  0.08111  0.02357  Biso   1.000  H
  H156     1.0000 0.52131  0.35826  0.94156  Biso   1.000  H
  H157     1.0000 0.42997  0.48452  0.15887  Biso   1.000  H
  H158     1.0000 0.14895  0.39607  0.52567  Biso   1.000  H
  H159     1.0000 0.51576  0.13353  0.44469  Biso   1.000  H
  H160     1.0000 0.92877  0.50046  0.39280  Biso   1.000  H
  H161     1.0000 0.65380  0.40693  0.02122  Biso   1.000  H
  H162     1.0000 0.02466  0.12042  0.12492  Biso   1.000  H
  H163     1.0000 0.10930  0.98632  0.16075  Biso   1.000  H
  H164     1.0000 0.39247  0.89938  0.52375  Biso   1.000  H
  H165     1.0000 0.02270  0.62866  0.43987  Biso   1.000  H
  H166     1.0000 0.60592  0.00167  0.39451  Biso   1.000  H
  H167     1.0000 0.87886  0.90966  0.03213  Biso   1.000  H
  H168     1.0000 0.49648  0.62993  0.11850  Biso   1.000  H
  H169     1.0000 0.02281  0.08947  0.89555  Biso   1.000  H
  H170     1.0000 0.88887  0.00140  0.12760  Biso   1.000  H
  H171     1.0000 0.10576  0.86333  0.03765  Biso   1.000  H
  H172     1.0000 0.52614  0.07506  0.66645  Biso   1.000  H
  H173     1.0000 0.38072  0.00514  0.43625  Biso   1.000  H
  H174     1.0000 0.61452  0.86563  0.53066  Biso   1.000  H
  H175     1.0000 0.50770  0.57482  0.89037  Biso   1.000  H
  H176     1.0000 0.64724  0.51697  0.11466  Biso   1.000  H
  H177     1.0000 0.43369  0.36321  0.04194  Biso   1.000  H
  H178     1.0000 0.02060  0.58634  0.66040  Biso   1.000  H
  H179     1.0000 0.15228  0.49518  0.43567  Biso   1.000  H
  H180     1.0000 0.92560  0.36809  0.52899  Biso   1.000  H
  H181     1.0000 0.01673  0.90239  0.16425  Biso   1.000  H
  H182     1.0000 0.14611  0.99411  0.93687  Biso   1.000  H
  H183     1.0000 0.92944  0.12964  0.03049  Biso   1.000  H
  H184     1.0000 0.53630  0.91600  0.38963  Biso   1.000  H
  H185     1.0000 0.64266  0.98873  0.62051  Biso   1.000  H
  H186     1.0000 0.41534  0.12088  0.54521  Biso   1.000  H
  H187     1.0000 0.52579  0.41164  0.17138  Biso   1.000  H
  H188     1.0000 0.38019  0.49137  0.93862  Biso   1.000  H
  H189     1.0000 0.59838  0.62962  0.02245  Biso   1.000  H
  H190     1.0000 0.00754  0.40127  0.39501  Biso   1.000  H
  H191     1.0000 0.88701  0.50804  0.62069  Biso   1.000  H
  H192     1.0000 0.11783  0.62037  0.52775  Biso   1.000  H
  H193     1.0000 0.29689  0.84145  0.51910  Biso   1.000  H
  H194     1.0000 0.52858  0.25709  0.89187  Biso   1.000  H
  H195     1.0000 0.87457  0.50395  0.29222  Biso   1.000  H
  H196     1.0000 0.78355  0.85423  0.01757  Biso   1.000  H
  H197     1.0000 0.02557  0.26314  0.67324  Biso   1.000  H
  H198     1.0000 0.37881  0.46319  0.25517  Biso   1.000  H
  H199     1.0000 0.24393  0.34383  0.52959  Biso   1.000  H
  H200     1.0000 0.03772  0.77026  0.88264  Biso   1.000  H
  H201     1.0000 0.66125  0.99623  0.29697  Biso   1.000  H
  H202     1.0000 0.75249  0.36198  0.03618  Biso   1.000  H
  H203     1.0000 0.51002  0.75269  0.66552  Biso   1.000  H
  H204     1.0000 0.16630  0.99490  0.25238  Biso   1.000  H
  H205     1.0000 0.73936  0.15505  0.53158  Biso   1.000  H
  H206     1.0000 0.50505  0.72767  0.16292  Biso   1.000  H
  H207     1.0000 0.15804  0.46177  0.76131  Biso   1.000  H
  H208     1.0000 0.25049  0.13380  0.00290  Biso   1.000  H
  H209     1.0000 0.02483  0.72258  0.38173  Biso   1.000  H
  H210     1.0000 0.65000  0.48085  0.79138  Biso   1.000  H
  H211     1.0000 0.79591  0.65089  0.50771  Biso   1.000  H
  H212     1.0000 0.02646  0.21760  0.17646  Biso   1.000  H
  H213     1.0000 0.36789  0.99240  0.76216  Biso   1.000  H
  H214     1.0000 0.27480  0.63749  0.02952  Biso   1.000  H
  H215     1.0000 0.52895  0.23397  0.40444  Biso   1.000  H
  H216     1.0000 0.86035  0.00648  0.79918  Biso   1.000  H
  H217     1.0000 0.24812  0.46710  0.39040  Biso   1.000  H
  H218     1.0000 0.36306  0.21566  0.54584  Biso   1.000  H
  H219     1.0000 0.54493  0.36967  0.27162  Biso   1.000  H
  H220     1.0000 0.74645  0.52200  0.16860  Biso   1.000  H
  H221     1.0000 0.87985  0.22759  0.03137  Biso   1.000  H
  H222     1.0000 0.01531  0.34426  0.29865  Biso   1.000  H
  H223     1.0000 0.28737  0.00881  0.38182  Biso   1.000  H
  H224     1.0000 0.17192  0.71709  0.52590  Biso   1.000  H
  H225     1.0000 0.01089  0.84693  0.26100  Biso   1.000  H
  H226     1.0000 0.79147  0.99299  0.17842  Biso   1.000  H
  H227     1.0000 0.65484  0.72576  0.00386  Biso   1.000  H
  H228     1.0000 0.50767  0.86312  0.29532  Biso   1.000  H
  H229     1.0000 0.78840  0.49094  0.66904  Biso   1.000  H
  H230     1.0000 0.67982  0.77780  0.53486  Biso   1.000  H
  H231     1.0000 0.48437  0.61966  0.79176  Biso   1.000  H
  H232     1.0000 0.28485  0.45582  0.88991  Biso   1.000  H
  H233     1.0000 0.15414  0.76538  0.04882  Biso   1.000  H
  H234     1.0000 0.02142  0.63959  0.75798  Biso   1.000  H
  H235     1.0000 0.73594  0.00900  0.67867  Biso   1.000  H
  H236     1.0000 0.86701  0.27677  0.55173  Biso   1.000  H
  H237     1.0000 0.00807  0.14187  0.79965  Biso   1.000  H
  H238     1.0000 0.23847  0.98259  0.87874  Biso   1.000  H
  H239     1.0000 0.37705  0.26578  0.03079  Biso   1.000  H
  H240     1.0000 0.54123  0.11898  0.76829  Biso   1.000  H
  H241     1.0000 0.73889  0.47532  0.88049  Biso   1.000  H
  H242     1.0000 0.88853  0.73826  0.52425  Biso   1.000  H
  H243     1.0000 0.49165  0.83536  0.75108  Biso   1.000  H
  H244     1.0000 0.24787  0.47861  0.68003  Biso   1.000  H
  H245     1.0000 0.36694  0.72714  0.02705  Biso   1.000  H
  H246     1.0000 0.02173  0.85681  0.79422  Biso   1.000  H
  H247     1.0000 0.77736  0.01251  0.88681  Biso   1.000  H
  H248     1.0000 0.65381  0.23350  0.54573  Biso   1.000  H
  H249     1.0000 0.03290  0.35152  0.76124  Biso   1.000  H
  H250     1.0000 0.28298  0.99059  0.67088  Biso   1.000  H
  H251     1.0000 0.17475  0.21548  0.03772  Biso   1.000  H
  H252     1.0000 0.52946  0.34080  0.80392  Biso   1.000  H
  H253     1.0000 0.28851  0.49868  0.17646  Biso   1.000  H
  H254     1.0000 0.15864  0.26079  0.54196  Biso   1.000  H
  H255     1.0000 0.53623  0.15900  0.30636  Biso   1.000  H
  H256     1.0000 0.79184  0.50183  0.38120  Biso   1.000  H
  H257     1.0000 0.66997  0.27287  0.04669  Biso   1.000  H
  H258     1.0000 0.02077  0.13366  0.26101  Biso   1.000  H
  H259     1.0000 0.24841  0.99621  0.16532  Biso   1.000  H
  H260     1.0000 0.38466  0.76104  0.51267  Biso   1.000  H
  H261     1.0000 0.01670  0.63703  0.29872  Biso   1.000  H
  H262     1.0000 0.74405  0.01178  0.39328  Biso   1.000  H
  H263     1.0000 0.86700  0.76759  0.00304  Biso   1.000  H
  H264     1.0000 0.52053  0.64616  0.25395  Biso   1.000  H
  H265     1.0000 0.03367  0.22626  0.88691  Biso   1.000  H
  H266     1.0000 0.87874  0.00278  0.26881  Biso   1.000  H
  H267     1.0000 0.23941  0.84606  0.04643  Biso   1.000  H
  H268     1.0000 0.52004  0.20928  0.68887  Biso   1.000  H
  H269     1.0000 0.37567  0.00862  0.29825  Biso   1.000  H
  H270     1.0000 0.75325  0.87215  0.51215  Biso   1.000  H
  H271     1.0000 0.50315  0.71099  0.87711  Biso   1.000  H
  H272     1.0000 0.66096  0.54012  0.25407  Biso   1.000  H
  H273     1.0000 0.29386  0.34515  0.02373  Biso   1.000  H
  H274     1.0000 0.04110  0.72286  0.67064  Biso   1.000  H
  H275     1.0000 0.15561  0.46792  0.29919  Biso   1.000  H
  H276     1.0000 0.78713  0.36266  0.51752  Biso   1.000  H
  H277     1.0000 0.00441  0.76234  0.16922  Biso   1.000  H
  H278     1.0000 0.15238  0.00443  0.79503  Biso   1.000  H
  H279     1.0000 0.79169  0.14221  0.01641  Biso   1.000  H
  H280     1.0000 0.52570  0.77712  0.37337  Biso   1.000  H
  H281     1.0000 0.65425  0.96636  0.76204  Biso   1.000  H
  H282     1.0000 0.27882  0.12856  0.54535  Biso   1.000  H
  H283     1.0000 0.53051  0.27471  0.18750  Biso   1.000  H
  H284     1.0000 0.37080  0.45062  0.80027  Biso   1.000  H
  H285     1.0000 0.73584  0.64358  0.01653  Biso   1.000  H
  H286     1.0000 0.03589  0.26571  0.38752  Biso   1.000  H
  H287     1.0000 0.87267  0.49835  0.75794  Biso   1.000  H
  H288     1.0000 0.25874  0.62999  0.52404  Biso   1.000  H
  H289     1.0000 0.11862  0.21671  0.03959  Biso   1.000  H
  H290     1.0000 0.01988  0.08234  0.26290  Biso   1.000  H
  H291     1.0000 0.24422  0.00073  0.10802  Biso   1.000  H
  H292     1.0000 0.59591  0.22771  0.54572  Biso   1.000  H
  H293     1.0000 0.53360  0.10491  0.29969  Biso   1.000  H
  H294     1.0000 0.74293  0.00748  0.44501  Biso   1.000  H
  H295     1.0000 0.41821  0.72447  0.02436  Biso   1.000  H
  H296     1.0000 0.51852  0.59552  0.25430  Biso   1.000  H
  H297     1.0000 0.28783  0.50360  0.12253  Biso   1.000  H
  H298     1.0000 0.93929  0.73398  0.52673  Biso   1.000  H
  H299     1.0000 0.01809  0.58211  0.29762  Biso   1.000  H
  H300     1.0000 0.79335  0.50076  0.43431  Biso   1.000  H
  H301     1.0000 0.92272  0.76906  0.00802  Biso   1.000  H
  H302     1.0000 0.01249  0.90789  0.79581  Biso   1.000  H
  H303     1.0000 0.78248  0.00910  0.94219  Biso   1.000  H
  H304     1.0000 0.44023  0.76639  0.51271  Biso   1.000  H
  H305     1.0000 0.48823  0.88903  0.75219  Biso   1.000  H
  H306     1.0000 0.28362  0.98527  0.61707  Biso   1.000  H
  H307     1.0000 0.61582  0.27117  0.05002  Biso   1.000  H
  H308     1.0000 0.52913  0.39157  0.80308  Biso   1.000  H
  H309     1.0000 0.74162  0.48401  0.93142  Biso   1.000  H
  H310     1.0000 0.10321  0.25970  0.53703  Biso   1.000  H
  H311     1.0000 0.02898  0.40419  0.75947  Biso   1.000  H
  H312     1.0000 0.24931  0.48884  0.62749  Biso   1.000  H
  H313     1.0000 0.24047  0.98060  0.93433  Biso   1.000  H
  H314     1.0000 0.93430  0.22412  0.04211  Biso   1.000  H
  H315     1.0000 0.01391  0.90050  0.26105  Biso   1.000  H
  H316     1.0000 0.73749  0.01314  0.62721  Biso   1.000  H
  H317     1.0000 0.41600  0.21728  0.54974  Biso   1.000  H
  H318     1.0000 0.51123  0.91818  0.29690  Biso   1.000  H
  H319     1.0000 0.28395  0.47359  0.94395  Biso   1.000  H
  H320     1.0000 0.59919  0.72497  0.00381  Biso   1.000  H
  H321     1.0000 0.54603  0.41949  0.26491  Biso   1.000  H
  H322     1.0000 0.78910  0.49998  0.61482  Biso   1.000  H
  H323     1.0000 0.11593  0.71600  0.52722  Biso   1.000  H
  H324     1.0000 0.00671  0.39873  0.29927  Biso   1.000  H
  H325     1.0000 0.79291  0.99824  0.12346  Biso   1.000  H
  H326     1.0000 0.09777  0.76894  0.04429  Biso   1.000  H
  H327     1.0000 0.99869  0.08665  0.80239  Biso   1.000  H
  H328     1.0000 0.28642  0.99979  0.43799  Biso   1.000  H
  H329     1.0000 0.62497  0.77111  0.53116  Biso   1.000  H
  H330     1.0000 0.54009  0.06731  0.76295  Biso   1.000  H
  H331     1.0000 0.74419  0.51097  0.11704  Biso   1.000  H
  H332     1.0000 0.43413  0.26691  0.04064  Biso   1.000  H
  H333     1.0000 0.48565  0.56643  0.79544  Biso   1.000  H
  H334     1.0000 0.24689  0.47273  0.44043  Biso   1.000  H
  H335     1.0000 0.91932  0.27416  0.55168  Biso   1.000  H
  H336     1.0000 0.02224  0.58536  0.75889  Biso   1.000  H
  H337     1.0000 0.02730  0.22432  0.94325  Biso   1.000  H
  H338     1.0000 0.93187  0.00510  0.26788  Biso   1.000  H
  H339     1.0000 0.24105  0.90098  0.03408  Biso   1.000  H
  H340     1.0000 0.51752  0.21128  0.63627  Biso   1.000  H
  H341     1.0000 0.43200  0.00741  0.30359  Biso   1.000  H
  H342     1.0000 0.74929  0.92355  0.52043  Biso   1.000  H
  H343     1.0000 0.51336  0.71282  0.92762  Biso   1.000  H
  H344     1.0000 0.60916  0.53675  0.25276  Biso   1.000  H
  H345     1.0000 0.28881  0.39701  0.02938  Biso   1.000  H
  H346     1.0000 0.03883  0.72113  0.61694  Biso   1.000  H
  H347     1.0000 0.10617  0.47676  0.30162  Biso   1.000  H
  H348     1.0000 0.79019  0.41559  0.51312  Biso   1.000  H
  H349     1.0000 0.00480  0.76593  0.11487  Biso   1.000  H
  H350     1.0000 0.09811  0.01171  0.79969  Biso   1.000  H
  H351     1.0000 0.79261  0.08594  0.01763  Biso   1.000  H
  H352     1.0000 0.53047  0.77399  0.42721  Biso   1.000  H
  H353     1.0000 0.60261  0.96279  0.76071  Biso   1.000  H
  H354     1.0000 0.28123  0.07276  0.54350  Biso   1.000  H
  H355     1.0000 0.52182  0.27054  0.13409  Biso   1.000  H
  H356     1.0000 0.42477  0.45446  0.80349  Biso   1.000  H
  H357     1.0000 0.73663  0.59165  0.02615  Biso   1.000  H
  H358     1.0000 0.03116  0.26322  0.44044  Biso   1.000  H
  H359     1.0000 0.92403  0.50011  0.75988  Biso   1.000  H
  H360     1.0000 0.25365  0.57456  0.52316  Biso   1.000  H
  H361     1.0000 0.03594  0.72446  0.43429  Biso   1.000  H
  H362     1.0000 0.42177  0.99383  0.76257  Biso   1.000  H
  H363     1.0000 0.74936  0.41346  0.02873  Biso   1.000  H
  H364     1.0000 0.50407  0.72606  0.10632  Biso   1.000  H
  H365     1.0000 0.91625  0.00275  0.79724  Biso   1.000  H
  H366     1.0000 0.24553  0.39761  0.52807  Biso   1.000  H
  H367     1.0000 0.52481  0.22646  0.45929  Biso   1.000  H
  H368     1.0000 0.10552  0.46969  0.76022  Biso   1.000  H
  H369     1.0000 0.78433  0.90696  0.01627  Biso   1.000  H
  H370     1.0000 0.02201  0.21669  0.12274  Biso   1.000  H
  H371     1.0000 0.59759  0.47339  0.79769  Biso   1.000  H
  H372     1.0000 0.29426  0.89422  0.52084  Biso   1.000  H
  H373     1.0000 0.02018  0.26576  0.61861  Biso   1.000  H
  H374     1.0000 0.61104  0.00735  0.29518  Biso   1.000  H
  H375     1.0000 0.27828  0.58294  0.02821  Biso   1.000  H
  H376     1.0000 0.52225  0.26081  0.94824  Biso   1.000  H
  H377     1.0000 0.11195  0.98961  0.25377  Biso   1.000  H
  H378     1.0000 0.79201  0.59996  0.51232  Biso   1.000  H
  H379     1.0000 0.51330  0.75640  0.60923  Biso   1.000  H
  H380     1.0000 0.92915  0.50234  0.29447  Biso   1.000  H
  H381     1.0000 0.24615  0.07748  0.99769  Biso   1.000  H
  H382     1.0000 0.02557  0.76914  0.93477  Biso   1.000  H
  H383     1.0000 0.43257  0.46873  0.25338  Biso   1.000  H
  H384     1.0000 0.73925  0.09991  0.53169  Biso   1.000  H
  H385     1.0000 0.24366  0.44024  0.35690  Biso   1.000  H
  H386     1.0000 0.27834  0.15522  0.51182  Biso   1.000  H
  H387     1.0000 0.51031  0.34152  0.27277  Biso   1.000  H
  H388     1.0000 0.69043  0.49336  0.24354  Biso   1.000  H
  H389     1.0000 0.84819  0.22266  0.06185  Biso   1.000  H
  H390     1.0000 0.00436  0.25759  0.36092  Biso   1.000  H
  H391     1.0000 0.29318  0.97313  0.35407  Biso   1.000  H
  H392     1.0000 0.20371  0.71638  0.49400  Biso   1.000  H
  H393     1.0000 0.97932  0.76657  0.20408  Biso   1.000  H
  H394     1.0000 0.79444  0.96758  0.20939  Biso   1.000  H
  H395     1.0000 0.72327  0.67793  0.05113  Biso   1.000  H
  H396     1.0000 0.55722  0.82380  0.30724  Biso   1.000  H
  H397     1.0000 0.78162  0.51642  0.69719  Biso   1.000  H
  H398     1.0000 0.75892  0.84065  0.54796  Biso   1.000  H
  H399     1.0000 0.51466  0.64848  0.78698  Biso   1.000  H
  H400     1.0000 0.33709  0.48128  0.80461  Biso   1.000  H
  H401     1.0000 0.22481  0.81454  0.00323  Biso   1.000  H
  H402     1.0000 0.05233  0.66928  0.75805  Biso   1.000  H
  H403     1.0000 0.74208  0.97119  0.70118  Biso   1.000  H
  H404     1.0000 0.78055  0.33809  0.55225  Biso   1.000  H
  H405     1.0000 0.00032  0.22281  0.86033  Biso   1.000  H
  H406     1.0000 0.23752  0.01832  0.85554  Biso   1.000  H
  H407     1.0000 0.30949  0.31453  0.99072  Biso   1.000  H
  H408     1.0000 0.50866  0.14943  0.77034  Biso   1.000  H
  H409     1.0000 0.29528  0.45385  0.19404  Biso   1.000  H
  H410     1.0000 0.18263  0.25882  0.50267  Biso   1.000  H
  H411     1.0000 0.50229  0.23366  0.37083  Biso   1.000  H
  H412     1.0000 0.83934  0.47317  0.29414  Biso   1.000  H
  H413     1.0000 0.69463  0.27642  0.00929  Biso   1.000  H
  H414     1.0000 0.99206  0.21018  0.21105  Biso   1.000  H
  H415     1.0000 0.19879  0.96405  0.24840  Biso   1.000  H
  H416     1.0000 0.34468  0.76234  0.47896  Biso   1.000  H
  H417     1.0000 0.98011  0.66551  0.31145  Biso   1.000  H
  H418     1.0000 0.74226  0.97088  0.36060  Biso   1.000  H
  H419     1.0000 0.83942  0.76850  0.03821  Biso   1.000  H
  H420     1.0000 0.48529  0.67355  0.24897  Biso   1.000  H
  H421     1.0000 0.74429  0.50344  0.85318  Biso   1.000  H
  H422     1.0000 0.79361  0.68068  0.53978  Biso   1.000  H
  H423     1.0000 0.53907  0.76461  0.70412  Biso   1.000  H
  H424     1.0000 0.19389  0.49173  0.76342  Biso   1.000  H
  H425     1.0000 0.33314  0.72675  0.00317  Biso   1.000  H
  H426     1.0000 0.07044  0.78180  0.84645  Biso   1.000  H
  H427     1.0000 0.77913  0.04184  0.85080  Biso   1.000  H
  H428     1.0000 0.73330  0.18005  0.56713  Biso   1.000  H
  H429     1.0000 0.06223  0.31830  0.75250  Biso   1.000  H
  H430     1.0000 0.33448  0.96246  0.75609  Biso   1.000  H
  H431     1.0000 0.19404  0.21518  0.00338  Biso   1.000  H
  H432     1.0000 0.49594  0.26056  0.86397  Biso   1.000  H
  H433     1.0000 0.28980  0.02860  0.70056  Biso   1.000  H
  H434     1.0000 0.75650  0.33144  0.06040  Biso   1.000  H
  H435     1.0000 0.05638  0.71312  0.34714  Biso   1.000  H
  H436     1.0000 0.83201  0.96881  0.80656  Biso   1.000  H
  H437     1.0000 0.23902  0.31201  0.56347  Biso   1.000  H
  H438     1.0000 0.53676  0.73031  0.19173  Biso   1.000  H
  H439     1.0000 0.23871  0.43960  0.69820  Biso   1.000  H
  H440     1.0000 0.78264  0.82535  0.98636  Biso   1.000  H
  H441     1.0000 0.56992  0.18859  0.32251  Biso   1.000  H
  H442     1.0000 0.68311  0.46243  0.78929  Biso   1.000  H
  H443     1.0000 0.31161  0.81376  0.55674  Biso   1.000  H
  H444     1.0000 0.05966  0.16257  0.25893  Biso   1.000  H
  H445     1.0000 0.69669  0.03119  0.30125  Biso   1.000  H
  H446     1.0000 0.28516  0.66667  0.06167  Biso   1.000  H
  H447     1.0000 0.99332  0.26826  0.70810  Biso   1.000  H
  H448     1.0000 0.24655  0.02673  0.19337  Biso   1.000  H
  H449     1.0000 0.85881  0.73610  0.49679  Biso   1.000  H
  H450     1.0000 0.56177  0.30844  0.81349  Biso   1.000  H
  H451     1.0000 0.79920  0.53698  0.35166  Biso   1.000  H
  H452     1.0000 0.25837  0.15630  0.04402  Biso   1.000  H
  H453     1.0000 0.45865  0.80194  0.74336  Biso   1.000  H
  H454     1.0000 0.34315  0.49556  0.26503  Biso   1.000  H
  H455     1.0000 0.68608  0.23391  0.50463  Biso   1.000  H
  H456     1.0000 0.99065  0.81898  0.80018  Biso   1.000  H
  H457     1.0000 0.70489  0.78217  0.49184  Biso   1.000  H
  H458     1.0000 0.47310  0.70585  0.85007  Biso   1.000  H
  H459     1.0000 0.84496  0.46693  0.75339  Biso   1.000  H
  H460     1.0000 0.19150  0.77381  0.08045  Biso   1.000  H
  H461     1.0000 0.00609  0.72257  0.69717  Biso   1.000  H
  H462     1.0000 0.28629  0.42501  0.86114  Biso   1.000  H
  H463     1.0000 0.83984  0.27359  0.51202  Biso   1.000  H
  H464     1.0000 0.05159  0.16726  0.80334  Biso   1.000  H
  H465     1.0000 0.67534  0.00421  0.76350  Biso   1.000  H
  H466     1.0000 0.34330  0.27313  0.06820  Biso   1.000  H
  H467     1.0000 0.56184  0.20340  0.71449  Biso   1.000  H
  H468     1.0000 0.18067  0.97241  0.79439  Biso   1.000  H
  H469     1.0000 0.32878  0.20796  0.57619  Biso   1.000  H
  H470     1.0000 0.55497  0.27865  0.21752  Biso   1.000  H
  H471     1.0000 0.18971  0.49096  0.30015  Biso   1.000  H
  H472     1.0000 0.79730  0.18010  0.98855  Biso   1.000  H
  H473     1.0000 0.04718  0.32091  0.30472  Biso   1.000  H
  H474     1.0000 0.75019  0.55487  0.20351  Biso   1.000  H
  H475     1.0000 0.25730  0.65683  0.54515  Biso   1.000  H
  H476     1.0000 0.03909  0.81813  0.26201  Biso   1.000  H
  H477     1.0000 0.34232  0.03827  0.30262  Biso   1.000  H
  H478     1.0000 0.68929  0.71206  0.97092  Biso   1.000  H
  H479     1.0000 0.47307  0.78776  0.34027  Biso   1.000  H
  H480     1.0000 0.84333  0.03670  0.25935  Biso   1.000  H
  N1       1.0000 0.68599  0.18290  0.53578  Biso   1.000  N
  N2       1.0000 0.50849  0.67791  0.19827  Biso   1.000  N
  N3       1.0000 0.19260  0.47287  0.70916  Biso   1.000  N
  N4       1.0000 0.20102  0.16367  0.02115  Biso   1.000  N
  N5       1.0000 0.01884  0.66788  0.35333  Biso   1.000  N
  N6       1.0000 0.68849  0.48363  0.84585  Biso   1.000  N
  N7       1.0000 0.84925  0.68369  0.52142  Biso   1.000  N
  N8       1.0000 0.02323  0.16413  0.20957  Biso   1.000  N
  N9       1.0000 0.33529  0.99384  0.70591  Biso   1.000  N
  N10      1.0000 0.33159  0.67231  0.02513  Biso   1.000  N
  N11      1.0000 0.52973  0.18547  0.36481  Biso   1.000  N
  N12      1.0000 0.83020  0.00668  0.85401  Biso   1.000  N
  N13      1.0000 0.35133  0.81335  0.51738  Biso   1.000  N
  N14      1.0000 0.52976  0.30886  0.85999  Biso   1.000  N
  N15      1.0000 0.84276  0.50195  0.34632  Biso   1.000  N
  N16      1.0000 0.83570  0.82008  0.01638  Biso   1.000  N
  N17      1.0000 0.02363  0.31922  0.70663  Biso   1.000  N
  N18      1.0000 0.34186  0.47835  0.20533  Biso   1.000  N
  N19      1.0000 0.19015  0.31242  0.53224  Biso   1.000  N
  N20      1.0000 0.02614  0.82325  0.84882  Biso   1.000  N
  N21      1.0000 0.69289  0.00088  0.35502  Biso   1.000  N
  N22      1.0000 0.69887  0.32576  0.03375  Biso   1.000  N
  N23      1.0000 0.49707  0.80502  0.69694  Biso   1.000  N
  N24      1.0000 0.19740  0.99138  0.19829  Biso   1.000  N
  N25      1.0000 0.83958  0.49802  0.70348  Biso   1.000  N
  N26      1.0000 0.70470  0.83280  0.52313  Biso   1.000  N
  N27      1.0000 0.49534  0.65524  0.84368  Biso   1.000  N
  N28      1.0000 0.33692  0.45728  0.85628  Biso   1.000  N
  N29      1.0000 0.18604  0.81679  0.04382  Biso   1.000  N
  N30      1.0000 0.02863  0.67090  0.70472  Biso   1.000  N
  N31      1.0000 0.68483  0.98356  0.70741  Biso   1.000  N
  N32      1.0000 0.83679  0.32913  0.53238  Biso   1.000  N
  N33      1.0000 0.02286  0.17379  0.85315  Biso   1.000  N
  N34      1.0000 0.18601  0.99340  0.84835  Biso   1.000  N
  N35      1.0000 0.34643  0.31854  0.02991  Biso   1.000  N
  N36      1.0000 0.53361  0.15532  0.71760  Biso   1.000  N
  N37      1.0000 0.19423  0.47172  0.35259  Biso   1.000  N
  N38      1.0000 0.33148  0.16155  0.54286  Biso   1.000  N
  N39      1.0000 0.53152  0.32937  0.21902  Biso   1.000  N
  N40      1.0000 0.69577  0.53024  0.20059  Biso   1.000  N
  N41      1.0000 0.84635  0.17579  0.02196  Biso   1.000  N
  N42      1.0000 0.02244  0.31524  0.35390  Biso   1.000  N
  N43      1.0000 0.34042  0.00626  0.35148  Biso   1.000  N
  N44      1.0000 0.20542  0.66414  0.52204  Biso   1.000  N
  N45      1.0000 0.01109  0.81601  0.20614  Biso   1.000  N
  N46      1.0000 0.84424  0.00008  0.21281  Biso   1.000  N
  N47      1.0000 0.68410  0.67275  0.01278  Biso   1.000  N
  N48      1.0000 0.51982  0.82945  0.34627  Biso   1.000  N
  O1       1.0000 0.35462  0.53814  0.02809  Biso   1.000  O
  O2       1.0000 0.02238  0.34176  0.57273  Biso   1.000  O
  O3       1.0000 0.55775  0.01233  0.36798  Biso   1.000  O
  O4       1.0000 0.86267  0.54897  0.52484  Biso   1.000  O
  O5       1.0000 0.52415  0.33715  0.99376  Biso   1.000  O
  O6       1.0000 0.05931  0.98271  0.18467  Biso   1.000  O
  O7       1.0000 0.17310  0.03389  0.02094  Biso   1.000  O
  O8       1.0000 0.52437  0.83227  0.56623  Biso   1.000  O
  O9       1.0000 0.97664  0.50016  0.36880  Biso   1.000  O
  O10      1.0000 0.66693  0.04800  0.53402  Biso   1.000  O
  O11      1.0000 0.01452  0.84227  0.98273  Biso   1.000  O
  O12      1.0000 0.47802  0.49123  0.18349  Biso   1.000  O
  O13      1.0000 0.67441  0.45714  0.02764  Biso   1.000  O
  O14      1.0000 0.02610  0.65369  0.48539  Biso   1.000  O
  O15      1.0000 0.46876  0.98613  0.68858  Biso   1.000  O
  O16      1.0000 0.17577  0.44681  0.53538  Biso   1.000  O
  O17      1.0000 0.50933  0.64893  0.06599  Biso   1.000  O
  O18      1.0000 0.96600  0.00055  0.86833  Biso   1.000  O
  O19      1.0000 0.85760  0.95562  0.03442  Biso   1.000  O
  O20      1.0000 0.50825  0.14968  0.49755  Biso   1.000  O
  O21      1.0000 0.05938  0.48844  0.68770  Biso   1.000  O
  O22      1.0000 0.36257  0.94925  0.52132  Biso   1.000  O
  O23      1.0000 0.02662  0.14795  0.07289  Biso   1.000  O
  O24      1.0000 0.55375  0.49156  0.87202  Biso   1.000  O
  O25      1.0000 0.97811  0.99746  0.19119  Biso   1.000  O
  O26      1.0000 0.17255  0.94886  0.02558  Biso   1.000  O
  O27      1.0000 0.02238  0.15084  0.98935  Biso   1.000  O
  O28      1.0000 0.47696  0.00610  0.37397  Biso   1.000  O
  O29      1.0000 0.67422  0.96268  0.53365  Biso   1.000  O
  O30      1.0000 0.51441  0.14620  0.58246  Biso   1.000  O
  O31      1.0000 0.56165  0.51129  0.17923  Biso   1.000  O
  O32      1.0000 0.35740  0.45463  0.03262  Biso   1.000  O
  O33      1.0000 0.50697  0.64399  0.98144  Biso   1.000  O
  O34      1.0000 0.05646  0.48656  0.37450  Biso   1.000  O
  O35      1.0000 0.86100  0.46577  0.52450  Biso   1.000  O
  O36      1.0000 0.01869  0.65152  0.57071  Biso   1.000  O
  O37      1.0000 0.04993  0.99582  0.86850  Biso   1.000  O
  O38      1.0000 0.86251  0.04044  0.03257  Biso   1.000  O
  O39      1.0000 0.01245  0.84003  0.06935  Biso   1.000  O
  O40      1.0000 0.55361  0.97072  0.68620  Biso   1.000  O
  O41      1.0000 0.35511  0.03086  0.53313  Biso   1.000  O
  O42      1.0000 0.53058  0.84240  0.48294  Biso   1.000  O
  O43      1.0000 0.47119  0.47457  0.87223  Biso   1.000  O
  O44      1.0000 0.66611  0.53910  0.02561  Biso   1.000  O
  O45      1.0000 0.52433  0.34253  0.08206  Biso   1.000  O
  O46      1.0000 0.97621  0.49914  0.68914  Biso   1.000  O
  O47      1.0000 0.18002  0.52903  0.52871  Biso   1.000  O
  O48      1.0000 0.01600  0.33698  0.48940  Biso   1.000  O
  O49      1.0000 0.01466  0.94888  0.18765  Biso   1.000  O
  O50      1.0000 0.17059  0.98821  0.98165  Biso   1.000  O
  O51      1.0000 0.98078  0.15118  0.03014  Biso   1.000  O
  O52      1.0000 0.51962  0.96622  0.36923  Biso   1.000  O
  O53      1.0000 0.67043  0.00284  0.57350  Biso   1.000  O
  O54      1.0000 0.46748  0.14432  0.54236  Biso   1.000  O
  O55      1.0000 0.52644  0.46222  0.18970  Biso   1.000  O
  O56      1.0000 0.35508  0.49191  0.98683  Biso   1.000  O
  O57      1.0000 0.54895  0.64854  0.01992  Biso   1.000  O
  O58      1.0000 0.00860  0.45029  0.36878  Biso   1.000  O
  O59      1.0000 0.86177  0.50496  0.56827  Biso   1.000  O
  O60      1.0000 0.06589  0.64756  0.53221  Biso   1.000  O
  O61      1.0000 0.01270  0.04116  0.87264  Biso   1.000  O
  O62      1.0000 0.86248  0.99447  0.07384  Biso   1.000  O
  O63      1.0000 0.05509  0.83979  0.03015  Biso   1.000  O
  O64      1.0000 0.51736  0.02249  0.68880  Biso   1.000  O
  O65      1.0000 0.35718  0.99376  0.48657  Biso   1.000  O
  O66      1.0000 0.56959  0.84066  0.53472  Biso   1.000  O
  O67      1.0000 0.50344  0.52475  0.87298  Biso   1.000  O
  O68      1.0000 0.67204  0.49888  0.06712  Biso   1.000  O
  O69      1.0000 0.48194  0.34078  0.03979  Biso   1.000  O
  O70      1.0000 0.02243  0.53689  0.68124  Biso   1.000  O
  O71      1.0000 0.17704  0.48349  0.48982  Biso   1.000  O
  O72      1.0000 0.97456  0.34097  0.53536  Biso   1.000  O
  O73      1.0000 0.01289  0.45269  0.68734  Biso   1.000  O
  O74      1.0000 0.67249  0.00523  0.49034  Biso   1.000  O
  O75      1.0000 0.46582  0.65269  0.02417  Biso   1.000  O
  O76      1.0000 0.52417  0.44022  0.87540  Biso   1.000  O
  O77      1.0000 0.17288  0.99380  0.06618  Biso   1.000  O
  O78      1.0000 0.98018  0.65749  0.52692  Biso   1.000  O
  O79      1.0000 0.50121  0.93842  0.68235  Biso   1.000  O
  O80      1.0000 0.86513  0.50567  0.48421  Biso   1.000  O
  O81      1.0000 0.06598  0.14606  0.03039  Biso   1.000  O
  O82      1.0000 0.00384  0.95681  0.86722  Biso   1.000  O
  O83      1.0000 0.35837  0.49385  0.07217  Biso   1.000  O
  O84      1.0000 0.55339  0.15361  0.53896  Biso   1.000  O
  O85      1.0000 0.02370  0.53497  0.36980  Biso   1.000  O
  O86      1.0000 0.35882  0.98484  0.57085  Biso   1.000  O
  O87      1.0000 0.56530  0.34262  0.04104  Biso   1.000  O
  O88      1.0000 0.50894  0.54212  0.18153  Biso   1.000  O
  O89      1.0000 0.85600  0.99729  0.98780  Biso   1.000  O
  O90      1.0000 0.05841  0.33478  0.52768  Biso   1.000  O
  O91      1.0000 0.51477  0.05174  0.36698  Biso   1.000  O
  O92      1.0000 0.17619  0.49032  0.57571  Biso   1.000  O
  O93      1.0000 0.97042  0.84045  0.02000  Biso   1.000  O
  O94      1.0000 0.02882  0.02957  0.19170  Biso   1.000  O
  O95      1.0000 0.66789  0.49882  0.98232  Biso   1.000  O
  O96      1.0000 0.48626  0.83718  0.51269  Biso   1.000  O
  O97      1.0000 0.46699  0.19359  0.54262  Biso   1.000  O
  O98      1.0000 0.53238  0.46713  0.23714  Biso   1.000  O
  O99      1.0000 0.22527  0.48790  0.49197  Biso   1.000  O
  O100     1.0000 0.98376  0.19833  0.03366  Biso   1.000  O
  O101     1.0000 0.01168  0.44682  0.32059  Biso   1.000  O
  O102     1.0000 0.72139  0.50461  0.06677  Biso   1.000  O
  O103     1.0000 0.07024  0.69614  0.52734  Biso   1.000  O
  O104     1.0000 0.01810  0.94942  0.23664  Biso   1.000  O
  O105     1.0000 0.30916  0.98841  0.48466  Biso   1.000  O
  O106     1.0000 0.55196  0.69606  0.02780  Biso   1.000  O
  O107     1.0000 0.51837  0.96664  0.32041  Biso   1.000  O
  O108     1.0000 0.81532  0.00067  0.07445  Biso   1.000  O
  O109     1.0000 0.57132  0.79185  0.52586  Biso   1.000  O
  O110     1.0000 0.50468  0.52006  0.82313  Biso   1.000  O
  O111     1.0000 0.81514  0.51116  0.56786  Biso   1.000  O
  O112     1.0000 0.04957  0.79146  0.03393  Biso   1.000  O
  O113     1.0000 0.02609  0.53471  0.72935  Biso   1.000  O
  O114     1.0000 0.30547  0.48724  0.98851  Biso   1.000  O
  O115     1.0000 0.97092  0.29271  0.53065  Biso   1.000  O
  O116     1.0000 0.00536  0.04075  0.82348  Biso   1.000  O
  O117     1.0000 0.71949  0.00960  0.57745  Biso   1.000  O
  O118     1.0000 0.48076  0.29187  0.04239  Biso   1.000  O
  O119     1.0000 0.52281  0.01935  0.73715  Biso   1.000  O
  O120     1.0000 0.21799  0.98573  0.97982  Biso   1.000  O
  O121     1.0000 0.05787  0.48804  0.73621  Biso   1.000  O
  O122     1.0000 0.71450  0.04882  0.53253  Biso   1.000  O
  O123     1.0000 0.50688  0.69781  0.06200  Biso   1.000  O
  O124     1.0000 0.55267  0.48986  0.82350  Biso   1.000  O
  O125     1.0000 0.22346  0.02953  0.01517  Biso   1.000  O
  O126     1.0000 0.02743  0.70244  0.48881  Biso   1.000  O
  O127     1.0000 0.47080  0.98542  0.73799  Biso   1.000  O
  O128     1.0000 0.81435  0.54834  0.52650  Biso   1.000  O
  O129     1.0000 0.02879  0.19679  0.07471  Biso   1.000  O
  O130     1.0000 0.96487  0.99852  0.82020  Biso   1.000  O
  O131     1.0000 0.30540  0.53394  0.02775  Biso   1.000  O
  O132     1.0000 0.50959  0.19817  0.50226  Biso   1.000  O
  O133     1.0000 0.97737  0.49687  0.32017  Biso   1.000  O
  O134     1.0000 0.31416  0.94543  0.52351  Biso   1.000  O
  O135     1.0000 0.52267  0.28855  0.99518  Biso   1.000  O
  O136     1.0000 0.47808  0.49340  0.23310  Biso   1.000  O
  O137     1.0000 0.80964  0.95546  0.02864  Biso   1.000  O
  O138     1.0000 0.01509  0.29262  0.57140  Biso   1.000  O
  O139     1.0000 0.55862  0.01331  0.31861  Biso   1.000  O
  O140     1.0000 0.22353  0.44553  0.53590  Biso   1.000  O
  O141     1.0000 0.01698  0.79368  0.98516  Biso   1.000  O
  O142     1.0000 0.06533  0.98453  0.23329  Biso   1.000  O
  O143     1.0000 0.72259  0.46023  0.02316  Biso   1.000  O
  O144     1.0000 0.51804  0.78472  0.55991  Biso   1.000  O
  O145     1.0000 0.56022  0.51669  0.22934  Biso   1.000  O
  O146     1.0000 0.22874  0.52902  0.53414  Biso   1.000  O
  O147     1.0000 0.50920  0.19346  0.58779  Biso   1.000  O
  O148     1.0000 0.05977  0.48784  0.32461  Biso   1.000  O
  O149     1.0000 0.71477  0.54404  0.02538  Biso   1.000  O
  O150     1.0000 0.02678  0.19983  0.98947  Biso   1.000  O
  O151     1.0000 0.98208  0.99570  0.23976  Biso   1.000  O
  O152     1.0000 0.30570  0.02626  0.53494  Biso   1.000  O
  O153     1.0000 0.02705  0.69920  0.57225  Biso   1.000  O
  O154     1.0000 0.47692  0.01066  0.32540  Biso   1.000  O
  O155     1.0000 0.81549  0.03971  0.03134  Biso   1.000  O
  O156     1.0000 0.51323  0.69048  0.97896  Biso   1.000  O
  O157     1.0000 0.47049  0.47285  0.82340  Biso   1.000  O
  O158     1.0000 0.81377  0.46474  0.52699  Biso   1.000  O
  O159     1.0000 0.53593  0.79618  0.47882  Biso   1.000  O
  O160     1.0000 0.97619  0.49934  0.73768  Biso   1.000  O
  O161     1.0000 0.30897  0.45083  0.03391  Biso   1.000  O
  O162     1.0000 0.00492  0.79184  0.06967  Biso   1.000  O
  O163     1.0000 0.04988  0.99931  0.81946  Biso   1.000  O
  O164     1.0000 0.72140  0.96692  0.53389  Biso   1.000  O
  O165     1.0000 0.01293  0.28850  0.48859  Biso   1.000  O
  O166     1.0000 0.55169  0.96843  0.73407  Biso   1.000  O
  O167     1.0000 0.22140  0.94872  0.02554  Biso   1.000  O
  O168     1.0000 0.52409  0.29411  0.08167  Biso   1.000  O
  O169     1.0000 0.02550  0.03075  0.24067  Biso   1.000  O
  O170     1.0000 0.22199  0.99405  0.06446  Biso   1.000  O
  O171     1.0000 0.06874  0.19417  0.03496  Biso   1.000  O
  O172     1.0000 0.51913  0.05393  0.32038  Biso   1.000  O
  O173     1.0000 0.72148  0.00734  0.49132  Biso   1.000  O
  O174     1.0000 0.54943  0.20157  0.54614  Biso   1.000  O
  O175     1.0000 0.51013  0.54329  0.22859  Biso   1.000  O
  O176     1.0000 0.30902  0.49921  0.07317  Biso   1.000  O
  O177     1.0000 0.46738  0.69982  0.01587  Biso   1.000  O
  O178     1.0000 0.02014  0.53373  0.32094  Biso   1.000  O
  O179     1.0000 0.81565  0.50349  0.48248  Biso   1.000  O
  O180     1.0000 0.98711  0.70720  0.53072  Biso   1.000  O
  O181     1.0000 0.00732  0.95609  0.81827  Biso   1.000  O
  O182     1.0000 0.80661  0.99675  0.98855  Biso   1.000  O
  O183     1.0000 0.97115  0.79260  0.01715  Biso   1.000  O
  O184     1.0000 0.50107  0.93801  0.73073  Biso   1.000  O
  O185     1.0000 0.30895  0.98066  0.56898  Biso   1.000  O
  O186     1.0000 0.48824  0.78836  0.51110  Biso   1.000  O
  O187     1.0000 0.52376  0.43905  0.82436  Biso   1.000  O
  O188     1.0000 0.71725  0.50433  0.98388  Biso   1.000  O
  O189     1.0000 0.56454  0.29382  0.04048  Biso   1.000  O
  O190     1.0000 0.01320  0.45114  0.73740  Biso   1.000  O
  O191     1.0000 0.22402  0.48576  0.57616  Biso   1.000  O
  O192     1.0000 0.05300  0.28576  0.53153  Biso   1.000  O
