data_image0
_cell_length_a       46.5753
_cell_length_b       46.4791
_cell_length_c       46.5509
_cell_angle_alpha    90
_cell_angle_beta     90
_cell_angle_gamma    90

_symmetry_space_group_name_H-M    "P 1"
_symmetry_int_tables_number       1

loop_
  _symmetry_equiv_pos_as_xyz
  'x, y, z'

loop_
  _atom_site_label
  _atom_site_occupancy
  _atom_site_fract_x
  _atom_site_fract_y
  _atom_site_fract_z
  _atom_site_thermal_displace_type
  _atom_site_B_iso_or_equiv
  _atom_site_type_symbol
  C1       1.0000 0.56524  0.96625  0.37127  Biso   1.000  C
  C2       1.0000 0.33034  0.50897  0.05631  Biso   1.000  C
  C3       1.0000 0.02455  0.26756  0.60046  Biso   1.000  C
  C4       1.0000 0.06159  0.96555  0.23531  Biso   1.000  C
  C5       1.0000 0.82681  0.49604  0.54205  Biso   1.000  C
  C6       1.0000 0.52362  0.27344  0.00633  Biso   1.000  C
  C7       1.0000 0.96550  0.46657  0.37130  Biso   1.000  C
  C8       1.0000 0.19124  0.00557  0.05482  Biso   1.000  C
  C9       1.0000 0.50076  0.77250  0.60018  Biso   1.000  C
  C10      1.0000 0.46429  0.47299  0.23566  Biso   1.000  C
  C11      1.0000 0.69413  0.00157  0.55224  Biso   1.000  C
  C12      1.0000 0.99192  0.77237  0.00280  Biso   1.000  C
  C13      1.0000 0.44976  0.95105  0.73569  Biso   1.000  C
  C14      1.0000 0.69770  0.41358  0.05500  Biso   1.000  C
  C15      1.0000 0.00262  0.63423  0.49585  Biso   1.000  C
  C16      1.0000 0.95156  0.95261  0.86699  Biso   1.000  C
  C17      1.0000 0.19567  0.40799  0.55376  Biso   1.000  C
  C18      1.0000 0.50049  0.64414  0.10040  Biso   1.000  C
  C19      1.0000 0.06304  0.44785  0.72762  Biso   1.000  C
  C20      1.0000 0.82624  0.90957  0.04837  Biso   1.000  C
  C21      1.0000 0.52716  0.13959  0.50478  Biso   1.000  C
  C22      1.0000 0.56356  0.45822  0.86716  Biso   1.000  C
  C23      1.0000 0.32458  0.91054  0.54685  Biso   1.000  C
  C24      1.0000 0.02070  0.13596  0.09876  Biso   1.000  C
  C25      1.0000 0.33698  0.02075  0.55299  Biso   1.000  C
  C26      1.0000 0.52913  0.28146  0.11866  Biso   1.000  C
  C27      1.0000 0.07085  0.44517  0.37056  Biso   1.000  C
  C28      1.0000 0.83098  0.01762  0.04616  Biso   1.000  C
  C29      1.0000 0.03161  0.26892  0.49207  Biso   1.000  C
  C30      1.0000 0.57184  0.47712  0.23333  Biso   1.000  C
  C31      1.0000 0.18496  0.51570  0.54952  Biso   1.000  C
  C32      1.0000 0.00233  0.77797  0.11025  Biso   1.000  C
  C33      1.0000 0.45590  0.97381  0.36894  Biso   1.000  C
  C34      1.0000 0.68914  0.52329  0.04037  Biso   1.000  C
  C35      1.0000 0.49769  0.77664  0.49212  Biso   1.000  C
  C36      1.0000 0.95275  0.95712  0.23264  Biso   1.000  C
  C37      1.0000 0.68961  0.89196  0.54335  Biso   1.000  C
  C38      1.0000 0.49917  0.63428  0.99356  Biso   1.000  C
  C39      1.0000 0.95566  0.45869  0.72594  Biso   1.000  C
  C40      1.0000 0.18131  0.89614  0.05523  Biso   1.000  C
  C41      1.0000 0.99771  0.63531  0.60744  Biso   1.000  C
  C42      1.0000 0.45634  0.43892  0.87135  Biso   1.000  C
  C43      1.0000 0.83955  0.38888  0.54874  Biso   1.000  C
  C44      1.0000 0.02024  0.13307  0.99077  Biso   1.000  C
  C45      1.0000 0.55807  0.94757  0.72779  Biso   1.000  C
  C46      1.0000 0.33963  0.39565  0.05120  Biso   1.000  C
  C47      1.0000 0.52740  0.13483  0.61281  Biso   1.000  C
  C48      1.0000 0.06159  0.95452  0.87018  Biso   1.000  C
  C49      1.0000 0.00606  0.00599  0.86423  Biso   1.000  C
  C50      1.0000 0.82608  0.96438  0.10099  Biso   1.000  C
  C51      1.0000 0.04664  0.77455  0.05543  Biso   1.000  C
  C52      1.0000 0.50791  0.00457  0.73411  Biso   1.000  C
  C53      1.0000 0.33200  0.96549  0.49614  Biso   1.000  C
  C54      1.0000 0.55474  0.77222  0.54479  Biso   1.000  C
  C55      1.0000 0.50158  0.50260  0.86789  Biso   1.000  C
  C56      1.0000 0.69474  0.47908  0.10284  Biso   1.000  C
  C57      1.0000 0.46983  0.27634  0.06597  Biso   1.000  C
  C58      1.0000 0.01680  0.50636  0.72976  Biso   1.000  C
  C59      1.0000 0.19321  0.46100  0.49637  Biso   1.000  C
  C60      1.0000 0.97325  0.26432  0.54444  Biso   1.000  C
  C61      1.0000 0.01518  0.90754  0.23700  Biso   1.000  C
  C62      1.0000 0.18881  0.94955  0.99641  Biso   1.000  C
  C63      1.0000 0.96831  0.14189  0.04594  Biso   1.000  C
  C64      1.0000 0.50567  0.91544  0.37092  Biso   1.000  C
  C65      1.0000 0.68427  0.93901  0.60074  Biso   1.000  C
  C66      1.0000 0.47496  0.13939  0.55322  Biso   1.000  C
  C67      1.0000 0.51684  0.41868  0.23760  Biso   1.000  C
  C68      1.0000 0.33327  0.45229  0.99969  Biso   1.000  C
  C69      1.0000 0.55323  0.63844  0.04178  Biso   1.000  C
  C70      1.0000 0.00955  0.40212  0.37299  Biso   1.000  C
  C71      1.0000 0.82790  0.44846  0.59895  Biso   1.000  C
  C72      1.0000 0.05165  0.63592  0.55258  Biso   1.000  C
  C73      1.0000 0.02787  0.50691  0.37252  Biso   1.000  C
  C74      1.0000 0.33216  0.96119  0.60306  Biso   1.000  C
  C75      1.0000 0.57784  0.27817  0.06134  Biso   1.000  C
  C76      1.0000 0.51418  0.52831  0.23230  Biso   1.000  C
  C77      1.0000 0.83222  0.96265  0.99607  Biso   1.000  C
  C78      1.0000 0.08096  0.27446  0.54904  Biso   1.000  C
  C79      1.0000 0.51352  0.02256  0.37058  Biso   1.000  C
  C80      1.0000 0.18738  0.46449  0.60535  Biso   1.000  C
  C81      1.0000 0.93879  0.77907  0.05885  Biso   1.000  C
  C82      1.0000 0.00092  0.01324  0.23408  Biso   1.000  C
  C83      1.0000 0.69371  0.46596  0.99286  Biso   1.000  C
  C84      1.0000 0.44650  0.78102  0.54365  Biso   1.000  C
  C85      1.0000 0.00410  0.39477  0.72057  Biso   1.000  C
  C86      1.0000 0.69214  0.95263  0.49345  Biso   1.000  C
  C87      1.0000 0.44711  0.64097  0.05021  Biso   1.000  C
  C88      1.0000 0.51966  0.39785  0.87666  Biso   1.000  C
  C89      1.0000 0.18636  0.95453  0.10530  Biso   1.000  C
  C90      1.0000 0.94416  0.63213  0.54539  Biso   1.000  C
  C91      1.0000 0.50391  0.89580  0.73312  Biso   1.000  C
  C92      1.0000 0.83615  0.43720  0.48930  Biso   1.000  C
  C93      1.0000 0.07504  0.13869  0.04898  Biso   1.000  C
  C94      1.0000 0.00691  0.89709  0.87209  Biso   1.000  C
  C95      1.0000 0.33341  0.44937  0.10887  Biso   1.000  C
  C96      1.0000 0.58217  0.13507  0.56595  Biso   1.000  C
  C97      1.0000 0.69769  0.03251  0.55468  Biso   1.000  C
  C98      1.0000 0.49380  0.64765  0.13275  Biso   1.000  C
  C99      1.0000 0.09453  0.44691  0.72899  Biso   1.000  C
  C100     1.0000 0.19384  0.03702  0.05546  Biso   1.000  C
  C101     1.0000 0.00380  0.63587  0.46427  Biso   1.000  C
  C102     1.0000 0.59462  0.46575  0.86766  Biso   1.000  C
  C103     1.0000 0.82324  0.52956  0.53937  Biso   1.000  C
  C104     1.0000 0.02459  0.13487  0.13099  Biso   1.000  C
  C105     1.0000 0.41919  0.95377  0.73476  Biso   1.000  C
  C106     1.0000 0.32851  0.54071  0.06112  Biso   1.000  C
  C107     1.0000 0.51800  0.14211  0.47473  Biso   1.000  C
  C108     1.0000 0.92036  0.95907  0.86547  Biso   1.000  C
  C109     1.0000 0.32323  0.87830  0.54716  Biso   1.000  C
  C110     1.0000 0.52967  0.27151  0.97605  Biso   1.000  C
  C111     1.0000 0.93370  0.46509  0.37023  Biso   1.000  C
  C112     1.0000 0.82378  0.87753  0.04995  Biso   1.000  C
  C113     1.0000 0.01739  0.26792  0.63129  Biso   1.000  C
  C114     1.0000 0.43180  0.46626  0.23617  Biso   1.000  C
  C115     1.0000 0.19821  0.37654  0.55891  Biso   1.000  C
  C116     1.0000 0.99724  0.77107  0.97087  Biso   1.000  C
  C117     1.0000 0.59733  0.96513  0.37104  Biso   1.000  C
  C118     1.0000 0.69963  0.38159  0.05658  Biso   1.000  C
  C119     1.0000 0.50351  0.76970  0.63291  Biso   1.000  C
  C120     1.0000 0.09396  0.96912  0.23438  Biso   1.000  C
  C121     1.0000 0.82675  0.96398  0.13269  Biso   1.000  C
  C122     1.0000 0.08049  0.77443  0.05583  Biso   1.000  C
  C123     1.0000 0.00764  0.03842  0.86308  Biso   1.000  C
  C124     1.0000 0.33012  0.96767  0.46398  Biso   1.000  C
  C125     1.0000 0.58611  0.77119  0.54040  Biso   1.000  C
  C126     1.0000 0.50755  0.03637  0.73575  Biso   1.000  C
  C127     1.0000 0.69554  0.48333  0.13534  Biso   1.000  C
  C128     1.0000 0.43847  0.27629  0.07045  Biso   1.000  C
  C129     1.0000 0.49599  0.53346  0.86671  Biso   1.000  C
  C130     1.0000 0.19352  0.45987  0.46460  Biso   1.000  C
  C131     1.0000 0.94043  0.26302  0.55016  Biso   1.000  C
  C132     1.0000 0.02015  0.53754  0.72970  Biso   1.000  C
  C133     1.0000 0.18939  0.95295  0.96462  Biso   1.000  C
  C134     1.0000 0.93591  0.14164  0.05213  Biso   1.000  C
  C135     1.0000 0.01726  0.87449  0.23706  Biso   1.000  C
  C136     1.0000 0.68424  0.93805  0.63243  Biso   1.000  C
  C137     1.0000 0.44286  0.14180  0.54776  Biso   1.000  C
  C138     1.0000 0.50065  0.88337  0.36967  Biso   1.000  C
  C139     1.0000 0.33227  0.45401  0.96663  Biso   1.000  C
  C140     1.0000 0.58554  0.63940  0.03942  Biso   1.000  C
  C141     1.0000 0.52136  0.38689  0.24038  Biso   1.000  C
  C142     1.0000 0.82829  0.45150  0.63167  Biso   1.000  C
  C143     1.0000 0.08416  0.63618  0.54920  Biso   1.000  C
  C144     1.0000 0.01411  0.37061  0.37016  Biso   1.000  C
  C145     1.0000 0.33379  0.44886  0.14218  Biso   1.000  C
  C146     1.0000 0.11223  0.27511  0.54965  Biso   1.000  C
  C147     1.0000 0.50896  0.05392  0.37262  Biso   1.000  C
  C148     1.0000 0.83701  0.43374  0.45859  Biso   1.000  C
  C149     1.0000 0.61101  0.28030  0.06168  Biso   1.000  C
  C150     1.0000 0.00359  0.04638  0.23220  Biso   1.000  C
  C151     1.0000 0.18619  0.95712  0.13706  Biso   1.000  C
  C152     1.0000 0.41393  0.78128  0.53801  Biso   1.000  C
  C153     1.0000 0.02377  0.53871  0.37363  Biso   1.000  C
  C154     1.0000 0.69332  0.95834  0.46274  Biso   1.000  C
  C155     1.0000 0.90737  0.77761  0.05795  Biso   1.000  C
  C156     1.0000 0.51093  0.55974  0.23162  Biso   1.000  C
  C157     1.0000 0.69345  0.46888  0.96107  Biso   1.000  C
  C158     1.0000 0.91215  0.63106  0.54109  Biso   1.000  C
  C159     1.0000 0.50409  0.86363  0.73388  Biso   1.000  C
  C160     1.0000 0.18748  0.46215  0.63796  Biso   1.000  C
  C161     1.0000 0.41530  0.64136  0.05470  Biso   1.000  C
  C162     1.0000 0.01140  0.86408  0.87542  Biso   1.000  C
  C163     1.0000 0.82883  0.96585  0.96403  Biso   1.000  C
  C164     1.0000 0.61357  0.13369  0.57352  Biso   1.000  C
  C165     1.0000 0.99783  0.36234  0.72270  Biso   1.000  C
  C166     1.0000 0.32871  0.96402  0.63508  Biso   1.000  C
  C167     1.0000 0.10732  0.13719  0.05434  Biso   1.000  C
  C168     1.0000 0.52467  0.36516  0.87748  Biso   1.000  C
  C169     1.0000 0.00714  0.77883  0.14184  Biso   1.000  C
  C170     1.0000 0.09277  0.96232  0.87026  Biso   1.000  C
  C171     1.0000 0.83474  0.04956  0.04599  Biso   1.000  C
  C172     1.0000 0.49157  0.78067  0.46104  Biso   1.000  C
  C173     1.0000 0.59027  0.94723  0.72720  Biso   1.000  C
  C174     1.0000 0.33992  0.05314  0.56207  Biso   1.000  C
  C175     1.0000 0.53056  0.28587  0.15007  Biso   1.000  C
  C176     1.0000 0.42418  0.43661  0.87057  Biso   1.000  C
  C177     1.0000 0.68734  0.55334  0.03156  Biso   1.000  C
  C178     1.0000 0.03469  0.26981  0.45890  Biso   1.000  C
  C179     1.0000 0.92435  0.46181  0.72643  Biso   1.000  C
  C180     1.0000 0.18173  0.54762  0.55397  Biso   1.000  C
  C181     1.0000 0.01715  0.13308  0.95904  Biso   1.000  C
  C182     1.0000 0.92090  0.96022  0.23345  Biso   1.000  C
  C183     1.0000 0.18158  0.86342  0.05603  Biso   1.000  C
  C184     1.0000 0.52560  0.13412  0.64457  Biso   1.000  C
  C185     1.0000 0.42411  0.97620  0.37088  Biso   1.000  C
  C186     1.0000 0.68908  0.85922  0.54855  Biso   1.000  C
  C187     1.0000 0.49523  0.63017  0.96141  Biso   1.000  C
  C188     1.0000 0.60353  0.47953  0.23176  Biso   1.000  C
  C189     1.0000 0.34061  0.36423  0.04902  Biso   1.000  C
  C190     1.0000 0.99937  0.63479  0.63982  Biso   1.000  C
  C191     1.0000 0.10288  0.44455  0.36906  Biso   1.000  C
  C192     1.0000 0.84286  0.35754  0.55280  Biso   1.000  C
  C193     1.0000 0.85479  0.96694  0.94670  Biso   1.000  C
  C194     1.0000 0.89265  0.80545  0.05840  Biso   1.000  C
  C195     1.0000 0.01008  0.85186  0.90387  Biso   1.000  C
  C196     1.0000 0.35417  0.95745  0.65265  Biso   1.000  C
  C197     1.0000 0.39988  0.80839  0.53783  Biso   1.000  C
  C198     1.0000 0.50281  0.84654  0.70598  Biso   1.000  C
  C199     1.0000 0.66563  0.46668  0.94616  Biso   1.000  C
  C200     1.0000 0.62518  0.30787  0.05981  Biso   1.000  C
  C201     1.0000 0.52537  0.35045  0.90610  Biso   1.000  C
  C202     1.0000 0.16032  0.45724  0.65222  Biso   1.000  C
  C203     1.0000 0.12575  0.30380  0.55182  Biso   1.000  C
  C204     1.0000 0.00058  0.34659  0.69573  Biso   1.000  C
  C205     1.0000 0.15939  0.96077  0.15307  Biso   1.000  C
  C206     1.0000 0.12222  0.10899  0.05507  Biso   1.000  C
  C207     1.0000 0.00837  0.06134  0.20492  Biso   1.000  C
  C208     1.0000 0.66611  0.96372  0.44766  Biso   1.000  C
  C209     1.0000 0.62668  0.10501  0.57062  Biso   1.000  C
  C210     1.0000 0.50584  0.06812  0.40094  Biso   1.000  C
  C211     1.0000 0.36174  0.45068  0.15769  Biso   1.000  C
  C212     1.0000 0.40166  0.61330  0.05878  Biso   1.000  C
  C213     1.0000 0.50569  0.57372  0.20290  Biso   1.000  C
  C214     1.0000 0.86538  0.43777  0.44421  Biso   1.000  C
  C215     1.0000 0.89739  0.60320  0.53966  Biso   1.000  C
  C216     1.0000 0.02223  0.55719  0.40037  Biso   1.000  C
  C217     1.0000 0.11059  0.95686  0.89600  Biso   1.000  C
  C218     1.0000 0.86241  0.06453  0.04812  Biso   1.000  C
  C219     1.0000 0.00924  0.80614  0.15818  Biso   1.000  C
  C220     1.0000 0.60666  0.94678  0.70136  Biso   1.000  C
  C221     1.0000 0.36937  0.06713  0.56053  Biso   1.000  C
  C222     1.0000 0.49172  0.81058  0.44703  Biso   1.000  C
  C223     1.0000 0.40820  0.43771  0.89797  Biso   1.000  C
  C224     1.0000 0.65756  0.56603  0.03489  Biso   1.000  C
  C225     1.0000 0.52666  0.31390  0.16314  Biso   1.000  C
  C226     1.0000 0.90682  0.45344  0.70150  Biso   1.000  C
  C227     1.0000 0.15359  0.56142  0.55255  Biso   1.000  C
  C228     1.0000 0.03018  0.29817  0.44524  Biso   1.000  C
  C229     1.0000 0.90567  0.96178  0.20556  Biso   1.000  C
  C230     1.0000 0.15282  0.84883  0.05500  Biso   1.000  C
  C231     1.0000 0.01166  0.10494  0.94283  Biso   1.000  C
  C232     1.0000 0.40826  0.97812  0.39789  Biso   1.000  C
  C233     1.0000 0.66144  0.84325  0.54769  Biso   1.000  C
  C234     1.0000 0.51961  0.10693  0.65965  Biso   1.000  C
  C235     1.0000 0.61888  0.47777  0.20377  Biso   1.000  C
  C236     1.0000 0.36867  0.35018  0.05386  Biso   1.000  C
  C237     1.0000 0.49306  0.60283  0.94602  Biso   1.000  C
  C238     1.0000 0.11772  0.44531  0.39586  Biso   1.000  C
  C239     1.0000 0.87068  0.34325  0.55353  Biso   1.000  C
  C240     1.0000 0.00332  0.60580  0.65360  Biso   1.000  C
  C241     1.0000 0.61153  0.46526  0.89448  Biso   1.000  C
  C242     1.0000 0.84869  0.54798  0.54097  Biso   1.000  C
  C243     1.0000 0.50625  0.79569  0.65094  Biso   1.000  C
  C244     1.0000 0.11083  0.45014  0.70332  Biso   1.000  C
  C245     1.0000 0.35377  0.55828  0.05959  Biso   1.000  C
  C246     1.0000 0.00040  0.79919  0.95504  Biso   1.000  C
  C247     1.0000 0.90533  0.96292  0.89168  Biso   1.000  C
  C248     1.0000 0.67242  0.05037  0.55979  Biso   1.000  C
  C249     1.0000 0.01005  0.29546  0.64612  Biso   1.000  C
  C250     1.0000 0.40410  0.95276  0.70703  Biso   1.000  C
  C251     1.0000 0.16836  0.05593  0.05488  Biso   1.000  C
  C252     1.0000 0.53047  0.29894  0.95773  Biso   1.000  C
  C253     1.0000 0.41599  0.46032  0.20936  Biso   1.000  C
  C254     1.0000 0.17281  0.35893  0.56001  Biso   1.000  C
  C255     1.0000 0.51453  0.11521  0.45656  Biso   1.000  C
  C256     1.0000 0.91962  0.45613  0.39645  Biso   1.000  C
  C257     1.0000 0.67268  0.36352  0.05688  Biso   1.000  C
  C258     1.0000 0.01796  0.10972  0.14883  Biso   1.000  C
  C259     1.0000 0.10955  0.96909  0.20576  Biso   1.000  C
  C260     1.0000 0.34872  0.86157  0.54519  Biso   1.000  C
  C261     1.0000 0.00914  0.60888  0.44797  Biso   1.000  C
  C262     1.0000 0.61209  0.96460  0.39781  Biso   1.000  C
  C263     1.0000 0.84855  0.86037  0.05150  Biso   1.000  C
  C264     1.0000 0.49483  0.62214  0.15101  Biso   1.000  C
  C265     1.0000 0.01069  0.05502  0.88993  Biso   1.000  C
  C266     1.0000 0.85415  0.96077  0.15186  Biso   1.000  C
  C267     1.0000 0.09777  0.79980  0.05191  Biso   1.000  C
  C268     1.0000 0.51092  0.05242  0.70873  Biso   1.000  C
  C269     1.0000 0.35562  0.97071  0.44748  Biso   1.000  C
  C270     1.0000 0.60539  0.79650  0.54547  Biso   1.000  C
  C271     1.0000 0.49414  0.54790  0.89419  Biso   1.000  C
  C272     1.0000 0.66934  0.48272  0.15165  Biso   1.000  C
  C273     1.0000 0.42115  0.30127  0.06333  Biso   1.000  C
  C274     1.0000 0.01459  0.55480  0.70386  Biso   1.000  C
  C275     1.0000 0.16673  0.45559  0.44883  Biso   1.000  C
  C276     1.0000 0.92468  0.29013  0.55238  Biso   1.000  C
  C277     1.0000 0.01171  0.85814  0.21030  Biso   1.000  C
  C278     1.0000 0.16255  0.95331  0.94720  Biso   1.000  C
  C279     1.0000 0.91919  0.11395  0.04975  Biso   1.000  C
  C280     1.0000 0.49915  0.86752  0.39768  Biso   1.000  C
  C281     1.0000 0.65779  0.93877  0.64934  Biso   1.000  C
  C282     1.0000 0.42517  0.11691  0.55583  Biso   1.000  C
  C283     1.0000 0.52384  0.36948  0.21370  Biso   1.000  C
  C284     1.0000 0.35906  0.44892  0.94896  Biso   1.000  C
  C285     1.0000 0.60126  0.61293  0.04058  Biso   1.000  C
  C286     1.0000 0.01556  0.35198  0.39531  Biso   1.000  C
  C287     1.0000 0.85528  0.45331  0.64866  Biso   1.000  C
  C288     1.0000 0.10066  0.60919  0.55220  Biso   1.000  C
  C289     1.0000 0.34707  0.82945  0.54273  Biso   1.000  C
  C290     1.0000 0.53300  0.29706  0.92600  Biso   1.000  C
  C291     1.0000 0.88759  0.45234  0.39395  Biso   1.000  C
  C292     1.0000 0.84399  0.82983  0.04739  Biso   1.000  C
  C293     1.0000 0.00638  0.29272  0.67661  Biso   1.000  C
  C294     1.0000 0.38477  0.45370  0.21039  Biso   1.000  C
  C295     1.0000 0.17684  0.32792  0.55872  Biso   1.000  C
  C296     1.0000 0.00547  0.79824  0.92319  Biso   1.000  C
  C297     1.0000 0.64421  0.96452  0.39558  Biso   1.000  C
  C298     1.0000 0.67694  0.33180  0.06125  Biso   1.000  C
  C299     1.0000 0.50591  0.79453  0.68310  Biso   1.000  C
  C300     1.0000 0.14065  0.96638  0.20559  Biso   1.000  C
  C301     1.0000 0.67723  0.08133  0.56420  Biso   1.000  C
  C302     1.0000 0.49577  0.62353  0.18158  Biso   1.000  C
  C303     1.0000 0.14169  0.45091  0.70527  Biso   1.000  C
  C304     1.0000 0.17259  0.08665  0.05731  Biso   1.000  C
  C305     1.0000 0.01388  0.61076  0.41823  Biso   1.000  C
  C306     1.0000 0.64262  0.46814  0.89257  Biso   1.000  C
  C307     1.0000 0.84551  0.57876  0.53865  Biso   1.000  C
  C308     1.0000 0.02081  0.11142  0.18137  Biso   1.000  C
  C309     1.0000 0.37335  0.95785  0.70681  Biso   1.000  C
  C310     1.0000 0.35013  0.58912  0.06160  Biso   1.000  C
  C311     1.0000 0.51022  0.11889  0.42544  Biso   1.000  C
  C312     1.0000 0.87423  0.96467  0.89195  Biso   1.000  C
  C313     1.0000 0.16953  0.44801  0.41846  Biso   1.000  C
  C314     1.0000 0.39343  0.11943  0.55503  Biso   1.000  C
  C315     1.0000 0.52489  0.33834  0.21575  Biso   1.000  C
  C316     1.0000 0.67038  0.48278  0.18395  Biso   1.000  C
  C317     1.0000 0.88811  0.11525  0.05349  Biso   1.000  C
  C318     1.0000 0.02532  0.32181  0.39351  Biso   1.000  C
  C319     1.0000 0.35299  0.96932  0.41656  Biso   1.000  C
  C320     1.0000 0.13102  0.61301  0.55111  Biso   1.000  C
  C321     1.0000 0.01689  0.82725  0.21004  Biso   1.000  C
  C322     1.0000 0.85312  0.95862  0.18320  Biso   1.000  C
  C323     1.0000 0.63219  0.61644  0.03504  Biso   1.000  C
  C324     1.0000 0.49449  0.83644  0.39575  Biso   1.000  C
  C325     1.0000 0.85318  0.45680  0.68043  Biso   1.000  C
  C326     1.0000 0.63727  0.79429  0.54354  Biso   1.000  C
  C327     1.0000 0.49515  0.58026  0.89345  Biso   1.000  C
  C328     1.0000 0.35569  0.44594  0.91760  Biso   1.000  C
  C329     1.0000 0.12982  0.79702  0.05218  Biso   1.000  C
  C330     1.0000 0.01395  0.58611  0.70638  Biso   1.000  C
  C331     1.0000 0.65832  0.93919  0.68076  Biso   1.000  C
  C332     1.0000 0.89416  0.28887  0.55383  Biso   1.000  C
  C333     1.0000 0.01180  0.08641  0.88911  Biso   1.000  C
  C334     1.0000 0.16328  0.95682  0.91617  Biso   1.000  C
  C335     1.0000 0.39008  0.29691  0.06153  Biso   1.000  C
  C336     1.0000 0.51780  0.08373  0.71053  Biso   1.000  C
  C337     1.0000 0.66595  0.46911  0.91420  Biso   1.000  C
  C338     1.0000 0.86636  0.60201  0.53908  Biso   1.000  C
  C339     1.0000 0.50527  0.81566  0.70608  Biso   1.000  C
  C340     1.0000 0.16167  0.45528  0.68453  Biso   1.000  C
  C341     1.0000 0.37075  0.61278  0.06192  Biso   1.000  C
  C342     1.0000 0.01005  0.82004  0.90266  Biso   1.000  C
  C343     1.0000 0.85298  0.96763  0.91334  Biso   1.000  C
  C344     1.0000 0.65838  0.10399  0.56913  Biso   1.000  C
  C345     1.0000 0.00239  0.31444  0.69708  Biso   1.000  C
  C346     1.0000 0.35311  0.96076  0.68350  Biso   1.000  C
  C347     1.0000 0.15329  0.10941  0.05809  Biso   1.000  C
  C348     1.0000 0.52844  0.31757  0.90368  Biso   1.000  C
  C349     1.0000 0.36271  0.45105  0.18850  Biso   1.000  C
  C350     1.0000 0.15659  0.30557  0.55576  Biso   1.000  C
  C351     1.0000 0.50594  0.09972  0.40170  Biso   1.000  C
  C352     1.0000 0.86497  0.44562  0.41324  Biso   1.000  C
  C353     1.0000 0.65684  0.30927  0.06347  Biso   1.000  C
  C354     1.0000 0.01695  0.09223  0.20556  Biso   1.000  C
  C355     1.0000 0.16206  0.96454  0.18447  Biso   1.000  C
  C356     1.0000 0.36784  0.80817  0.54036  Biso   1.000  C
  C357     1.0000 0.02033  0.58890  0.39718  Biso   1.000  C
  C358     1.0000 0.66540  0.96315  0.41735  Biso   1.000  C
  C359     1.0000 0.86298  0.80602  0.05045  Biso   1.000  C
  C360     1.0000 0.50085  0.60395  0.20412  Biso   1.000  C
  C361     1.0000 0.01260  0.10739  0.91158  Biso   1.000  C
  C362     1.0000 0.87431  0.96053  0.20552  Biso   1.000  C
  C363     1.0000 0.15181  0.81722  0.05375  Biso   1.000  C
  C364     1.0000 0.52185  0.10591  0.69039  Biso   1.000  C
  C365     1.0000 0.37552  0.97254  0.39677  Biso   1.000  C
  C366     1.0000 0.66126  0.81264  0.54402  Biso   1.000  C
  C367     1.0000 0.49265  0.60298  0.91502  Biso   1.000  C
  C368     1.0000 0.65011  0.47976  0.20534  Biso   1.000  C
  C369     1.0000 0.36898  0.31803  0.05770  Biso   1.000  C
  C370     1.0000 0.01024  0.60751  0.68482  Biso   1.000  C
  C371     1.0000 0.14894  0.44426  0.39619  Biso   1.000  C
  C372     1.0000 0.87106  0.30987  0.55434  Biso   1.000  C
  C373     1.0000 0.01523  0.80553  0.18910  Biso   1.000  C
  C374     1.0000 0.14117  0.96125  0.89641  Biso   1.000  C
  C375     1.0000 0.86518  0.09506  0.05242  Biso   1.000  C
  C376     1.0000 0.49305  0.81279  0.41564  Biso   1.000  C
  C377     1.0000 0.63837  0.94204  0.70300  Biso   1.000  C
  C378     1.0000 0.37066  0.09841  0.55888  Biso   1.000  C
  C379     1.0000 0.52597  0.31466  0.19525  Biso   1.000  C
  C380     1.0000 0.37741  0.44266  0.89624  Biso   1.000  C
  C381     1.0000 0.65562  0.59626  0.03257  Biso   1.000  C
  C382     1.0000 0.03033  0.29998  0.41334  Biso   1.000  C
  C383     1.0000 0.87497  0.45688  0.70157  Biso   1.000  C
  C384     1.0000 0.15293  0.59194  0.55110  Biso   1.000  C
  C385     1.0000 0.20051  0.09968  0.06000  Biso   1.000  C
  C386     1.0000 0.02840  0.13765  0.19548  Biso   1.000  C
  C387     1.0000 0.15688  0.96615  0.23223  Biso   1.000  C
  C388     1.0000 0.70510  0.09462  0.56342  Biso   1.000  C
  C389     1.0000 0.51030  0.14773  0.41223  Biso   1.000  C
  C390     1.0000 0.65980  0.96313  0.36874  Biso   1.000  C
  C391     1.0000 0.32373  0.60414  0.06538  Biso   1.000  C
  C392     1.0000 0.49299  0.65146  0.19585  Biso   1.000  C
  C393     1.0000 0.36910  0.45352  0.23794  Biso   1.000  C
  C394     1.0000 0.81866  0.59259  0.53563  Biso   1.000  C
  C395     1.0000 0.01294  0.63732  0.40163  Biso   1.000  C
  C396     1.0000 0.87252  0.45812  0.36688  Biso   1.000  C
  C397     1.0000 0.81616  0.81604  0.04161  Biso   1.000  C
  C398     1.0000 0.00872  0.77099  0.90897  Biso   1.000  C
  C399     1.0000 0.85800  0.96240  0.86578  Biso   1.000  C
  C400     1.0000 0.31942  0.81440  0.54127  Biso   1.000  C
  C401     1.0000 0.50492  0.76740  0.69762  Biso   1.000  C
  C402     1.0000 0.35721  0.96297  0.73237  Biso   1.000  C
  C403     1.0000 0.70466  0.31856  0.06132  Biso   1.000  C
  C404     1.0000 0.53468  0.26956  0.91058  Biso   1.000  C
  C405     1.0000 0.65723  0.47142  0.86548  Biso   1.000  C
  C406     1.0000 0.20544  0.31433  0.56090  Biso   1.000  C
  C407     1.0000 0.00892  0.26519  0.69266  Biso   1.000  C
  C408     1.0000 0.15639  0.44929  0.73179  Biso   1.000  C
  C409     1.0000 0.15654  0.96704  0.86995  Biso   1.000  C
  C410     1.0000 0.83936  0.11412  0.05185  Biso   1.000  C
  C411     1.0000 0.02062  0.77788  0.20480  Biso   1.000  C
  C412     1.0000 0.65444  0.94269  0.72916  Biso   1.000  C
  C413     1.0000 0.34319  0.11600  0.55736  Biso   1.000  C
  C414     1.0000 0.48994  0.78728  0.39799  Biso   1.000  C
  C415     1.0000 0.36122  0.44278  0.86991  Biso   1.000  C
  C416     1.0000 0.68046  0.61426  0.02780  Biso   1.000  C
  C417     1.0000 0.52353  0.28929  0.21399  Biso   1.000  C
  C418     1.0000 0.86150  0.46423  0.72785  Biso   1.000  C
  C419     1.0000 0.17947  0.60870  0.55009  Biso   1.000  C
  C420     1.0000 0.03839  0.27524  0.39563  Biso   1.000  C
  C421     1.0000 0.85776  0.95799  0.23115  Biso   1.000  C
  C422     1.0000 0.17891  0.79989  0.05510  Biso   1.000  C
  C423     1.0000 0.01375  0.13453  0.89614  Biso   1.000  C
  C424     1.0000 0.36104  0.96735  0.36984  Biso   1.000  C
  C425     1.0000 0.68693  0.79645  0.54262  Biso   1.000  C
  C426     1.0000 0.52879  0.13173  0.70787  Biso   1.000  C
  C427     1.0000 0.66534  0.48315  0.23149  Biso   1.000  C
  C428     1.0000 0.34183  0.30050  0.05624  Biso   1.000  C
  C429     1.0000 0.49371  0.62956  0.89852  Biso   1.000  C
  C430     1.0000 0.16527  0.44125  0.36929  Biso   1.000  C
  C431     1.0000 0.84531  0.29304  0.55495  Biso   1.000  C
  C432     1.0000 0.01342  0.63482  0.70139  Biso   1.000  C
  C433     1.0000 0.01069  0.10255  0.86210  Biso   1.000  C
  C434     1.0000 0.82596  0.95727  0.19824  Biso   1.000  C
  C435     1.0000 0.14448  0.77028  0.05360  Biso   1.000  C
  C436     1.0000 0.51985  0.09798  0.73900  Biso   1.000  C
  C437     1.0000 0.32703  0.96581  0.40194  Biso   1.000  C
  C438     1.0000 0.65075  0.76744  0.53912  Biso   1.000  C
  C439     1.0000 0.49737  0.59672  0.86594  Biso   1.000  C
  C440     1.0000 0.69827  0.48636  0.19923  Biso   1.000  C
  C441     1.0000 0.37494  0.27020  0.06618  Biso   1.000  C
  C442     1.0000 0.01948  0.60198  0.73374  Biso   1.000  C
  C443     1.0000 0.19665  0.44718  0.40274  Biso   1.000  C
  C444     1.0000 0.87899  0.26168  0.55622  Biso   1.000  C
  C445     1.0000 0.02305  0.81202  0.23650  Biso   1.000  C
  C446     1.0000 0.18943  0.96175  0.90180  Biso   1.000  C
  C447     1.0000 0.87426  0.14430  0.05526  Biso   1.000  C
  C448     1.0000 0.49289  0.82314  0.36710  Biso   1.000  C
  C449     1.0000 0.68683  0.93802  0.69556  Biso   1.000  C
  C450     1.0000 0.37928  0.14623  0.54889  Biso   1.000  C
  C451     1.0000 0.52301  0.32399  0.24320  Biso   1.000  C
  C452     1.0000 0.32779  0.44846  0.90232  Biso   1.000  C
  C453     1.0000 0.64480  0.64398  0.02968  Biso   1.000  C
  C454     1.0000 0.03151  0.30825  0.36613  Biso   1.000  C
  C455     1.0000 0.82746  0.46214  0.69483  Biso   1.000  C
  C456     1.0000 0.14573  0.64016  0.54775  Biso   1.000  C
  C457     1.0000 0.02153  0.60389  0.36927  Biso   1.000  C
  C458     1.0000 0.32733  0.96862  0.69744  Biso   1.000  C
  C459     1.0000 0.67315  0.28444  0.06567  Biso   1.000  C
  C460     1.0000 0.50144  0.62070  0.23023  Biso   1.000  C
  C461     1.0000 0.82553  0.96564  0.89899  Biso   1.000  C
  C462     1.0000 0.17466  0.28041  0.55424  Biso   1.000  C
  C463     1.0000 0.50632  0.11819  0.37693  Biso   1.000  C
  C464     1.0000 0.18762  0.45777  0.70148  Biso   1.000  C
  C465     1.0000 0.84592  0.78020  0.04423  Biso   1.000  C
  C466     1.0000 0.02292  0.10879  0.23180  Biso   1.000  C
  C467     1.0000 0.69177  0.47326  0.89669  Biso   1.000  C
  C468     1.0000 0.35149  0.78196  0.53832  Biso   1.000  C
  C469     1.0000 0.99982  0.29968  0.72383  Biso   1.000  C
  C470     1.0000 0.69232  0.96080  0.40092  Biso   1.000  C
  C471     1.0000 0.35422  0.64019  0.06204  Biso   1.000  C
  C472     1.0000 0.53263  0.30128  0.87714  Biso   1.000  C
  C473     1.0000 0.18896  0.96399  0.20033  Biso   1.000  C
  C474     1.0000 0.84952  0.62850  0.53605  Biso   1.000  C
  C475     1.0000 0.50371  0.79802  0.73196  Biso   1.000  C
  C476     1.0000 0.83964  0.44590  0.39581  Biso   1.000  C
  C477     1.0000 0.17021  0.13504  0.06297  Biso   1.000  C
  C478     1.0000 0.01262  0.80204  0.87579  Biso   1.000  C
  C479     1.0000 0.33583  0.45041  0.20362  Biso   1.000  C
  C480     1.0000 0.67647  0.13024  0.57163  Biso   1.000  C
  C481     1.0000 0.36509  0.75333  0.53958  Biso   1.000  C
  C482     1.0000 0.53314  0.31830  0.84958  Biso   1.000  C
  C483     1.0000 0.81203  0.43895  0.41018  Biso   1.000  C
  C484     1.0000 0.85993  0.75117  0.04758  Biso   1.000  C
  C485     1.0000 0.99328  0.31472  0.75010  Biso   1.000  C
  C486     1.0000 0.30785  0.44703  0.18938  Biso   1.000  C
  C487     1.0000 0.16270  0.25106  0.54972  Biso   1.000  C
  C488     1.0000 0.01470  0.81573  0.84777  Biso   1.000  C
  C489     1.0000 0.72054  0.96080  0.41520  Biso   1.000  C
  C490     1.0000 0.65855  0.25567  0.06674  Biso   1.000  C
  C491     1.0000 0.50401  0.81467  0.75928  Biso   1.000  C
  C492     1.0000 0.21519  0.95846  0.18481  Biso   1.000  C
  C493     1.0000 0.66292  0.15848  0.57756  Biso   1.000  C
  C494     1.0000 0.50583  0.60769  0.25947  Biso   1.000  C
  C495     1.0000 0.21397  0.46683  0.68598  Biso   1.000  C
  C496     1.0000 0.15598  0.16247  0.06235  Biso   1.000  C
  C497     1.0000 0.02504  0.58719  0.34198  Biso   1.000  C
  C498     1.0000 0.71872  0.47557  0.91322  Biso   1.000  C
  C499     1.0000 0.86459  0.65553  0.53535  Biso   1.000  C
  C500     1.0000 0.01670  0.09314  0.26013  Biso   1.000  C
  C501     1.0000 0.30168  0.97619  0.67960  Biso   1.000  C
  C502     1.0000 0.36791  0.66837  0.05612  Biso   1.000  C
  C503     1.0000 0.50720  0.10416  0.34873  Biso   1.000  C
  C504     1.0000 0.79962  0.96634  0.91652  Biso   1.000  C
  C505     1.0000 0.64046  0.47442  0.83895  Biso   1.000  C
  C506     1.0000 0.79206  0.57346  0.53410  Biso   1.000  C
  C507     1.0000 0.50237  0.74172  0.68038  Biso   1.000  C
  C508     1.0000 0.13966  0.44155  0.75807  Biso   1.000  C
  C509     1.0000 0.29947  0.58489  0.07198  Biso   1.000  C
  C510     1.0000 0.00772  0.74237  0.92414  Biso   1.000  C
  C511     1.0000 0.87441  0.96144  0.83880  Biso   1.000  C
  C512     1.0000 0.73134  0.07726  0.55610  Biso   1.000  C
  C513     1.0000 0.01883  0.23950  0.67724  Biso   1.000  C
  C514     1.0000 0.37161  0.95780  0.76081  Biso   1.000  C
  C515     1.0000 0.22615  0.08194  0.06070  Biso   1.000  C
  C516     1.0000 0.53652  0.24386  0.92768  Biso   1.000  C
  C517     1.0000 0.38430  0.45812  0.26459  Biso   1.000  C
  C518     1.0000 0.23135  0.33305  0.56357  Biso   1.000  C
  C519     1.0000 0.51089  0.17294  0.43135  Biso   1.000  C
  C520     1.0000 0.88739  0.46891  0.34149  Biso   1.000  C
  C521     1.0000 0.73072  0.33621  0.06216  Biso   1.000  C
  C522     1.0000 0.03433  0.16211  0.17708  Biso   1.000  C
  C523     1.0000 0.14222  0.96960  0.25932  Biso   1.000  C
  C524     1.0000 0.29379  0.83301  0.54129  Biso   1.000  C
  C525     1.0000 0.00632  0.66399  0.41654  Biso   1.000  C
  C526     1.0000 0.64168  0.96236  0.34211  Biso   1.000  C
  C527     1.0000 0.79160  0.83489  0.03762  Biso   1.000  C
  C528     1.0000 0.48760  0.67738  0.17829  Biso   1.000  C
  C529     1.0000 0.81115  0.10069  0.04945  Biso   1.000  C
  C530     1.0000 0.01563  0.75025  0.19042  Biso   1.000  C
  C531     1.0000 0.13972  0.97354  0.84327  Biso   1.000  C
  C532     1.0000 0.31537  0.10102  0.56515  Biso   1.000  C
  C533     1.0000 0.48395  0.75875  0.41192  Biso   1.000  C
  C534     1.0000 0.63783  0.94241  0.75579  Biso   1.000  C
  C535     1.0000 0.70983  0.60255  0.02509  Biso   1.000  C
  C536     1.0000 0.52660  0.26107  0.20018  Biso   1.000  C
  C537     1.0000 0.37770  0.44213  0.84244  Biso   1.000  C
  C538     1.0000 0.20810  0.59508  0.55306  Biso   1.000  C
  C539     1.0000 0.04238  0.24775  0.41031  Biso   1.000  C
  C540     1.0000 0.87853  0.47086  0.75454  Biso   1.000  C
  C541     1.0000 0.20640  0.81482  0.05546  Biso   1.000  C
  C542     1.0000 0.01753  0.16129  0.91228  Biso   1.000  C
  C543     1.0000 0.87297  0.95661  0.25863  Biso   1.000  C
  C544     1.0000 0.71452  0.81108  0.54595  Biso   1.000  C
  C545     1.0000 0.53521  0.15828  0.69276  Biso   1.000  C
  C546     1.0000 0.37785  0.96692  0.34276  Biso   1.000  C
  C547     1.0000 0.31461  0.31487  0.05011  Biso   1.000  C
  C548     1.0000 0.49352  0.65755  0.91249  Biso   1.000  C
  C549     1.0000 0.65177  0.48474  0.25917  Biso   1.000  C
  C550     1.0000 0.81771  0.30739  0.55380  Biso   1.000  C
  C551     1.0000 0.00830  0.66154  0.68675  Biso   1.000  C
  C552     1.0000 0.14981  0.43791  0.34035  Biso   1.000  C
  C553     1.0000 0.01065  0.08542  0.83463  Biso   1.000  C
  C554     1.0000 0.79889  0.95769  0.18028  Biso   1.000  C
  C555     1.0000 0.12650  0.74460  0.05627  Biso   1.000  C
  C556     1.0000 0.51544  0.08264  0.76593  Biso   1.000  C
  C557     1.0000 0.29984  0.96456  0.41728  Biso   1.000  C
  C558     1.0000 0.63193  0.74184  0.53488  Biso   1.000  C
  C559     1.0000 0.49705  0.58072  0.83879  Biso   1.000  C
  C560     1.0000 0.72482  0.48520  0.18369  Biso   1.000  C
  C561     1.0000 0.39429  0.24490  0.07577  Biso   1.000  C
  C562     1.0000 0.02524  0.58348  0.75931  Biso   1.000  C
  C563     1.0000 0.22332  0.45457  0.41822  Biso   1.000  C
  C564     1.0000 0.89629  0.23384  0.55735  Biso   1.000  C
  C565     1.0000 0.02731  0.82853  0.26318  Biso   1.000  C
  C566     1.0000 0.21673  0.95831  0.91851  Biso   1.000  C
  C567     1.0000 0.89120  0.17098  0.05763  Biso   1.000  C
  C568     1.0000 0.49073  0.83938  0.34012  Biso   1.000  C
  C569     1.0000 0.71451  0.93749  0.67848  Biso   1.000  C
  C570     1.0000 0.39698  0.17187  0.54129  Biso   1.000  C
  C571     1.0000 0.52125  0.34017  0.27086  Biso   1.000  C
  C572     1.0000 0.30223  0.45378  0.91972  Biso   1.000  C
  C573     1.0000 0.62903  0.67162  0.03077  Biso   1.000  C
  C574     1.0000 0.02835  0.32512  0.33980  Biso   1.000  C
  C575     1.0000 0.79918  0.45869  0.67768  Biso   1.000  C
  C576     1.0000 0.12889  0.66705  0.54483  Biso   1.000  C
  C577     1.0000 0.30642  0.44770  0.15751  Biso   1.000  C
  C578     1.0000 0.12985  0.24934  0.54721  Biso   1.000  C
  C579     1.0000 0.50774  0.07318  0.34720  Biso   1.000  C
  C580     1.0000 0.81015  0.43158  0.44075  Biso   1.000  C
  C581     1.0000 0.62738  0.25437  0.06554  Biso   1.000  C
  C582     1.0000 0.00713  0.06289  0.25943  Biso   1.000  C
  C583     1.0000 0.21358  0.95642  0.15271  Biso   1.000  C
  C584     1.0000 0.39728  0.75508  0.53902  Biso   1.000  C
  C585     1.0000 0.02428  0.55477  0.34532  Biso   1.000  C
  C586     1.0000 0.72109  0.95956  0.44751  Biso   1.000  C
  C587     1.0000 0.89141  0.75055  0.05102  Biso   1.000  C
  C588     1.0000 0.51290  0.57620  0.25950  Biso   1.000  C
  C589     1.0000 0.71999  0.47549  0.94610  Biso   1.000  C
  C590     1.0000 0.89512  0.65774  0.54062  Biso   1.000  C
  C591     1.0000 0.50493  0.84579  0.76036  Biso   1.000  C
  C592     1.0000 0.21345  0.46823  0.65456  Biso   1.000  C
  C593     1.0000 0.39937  0.66869  0.05162  Biso   1.000  C
  C594     1.0000 0.01332  0.84759  0.84780  Biso   1.000  C
  C595     1.0000 0.80011  0.96664  0.94958  Biso   1.000  C
  C596     1.0000 0.63132  0.15945  0.57725  Biso   1.000  C
  C597     1.0000 0.99240  0.34656  0.74990  Biso   1.000  C
  C598     1.0000 0.30183  0.97417  0.64767  Biso   1.000  C
  C599     1.0000 0.12536  0.16264  0.05987  Biso   1.000  C
  C600     1.0000 0.52850  0.34889  0.85029  Biso   1.000  C
  C601     1.0000 0.21684  0.95496  0.94965  Biso   1.000  C
  C602     1.0000 0.92321  0.17011  0.05704  Biso   1.000  C
  C603     1.0000 0.02504  0.85876  0.26362  Biso   1.000  C
  C604     1.0000 0.71205  0.93790  0.64752  Biso   1.000  C
  C605     1.0000 0.42954  0.16981  0.54136  Biso   1.000  C
  C606     1.0000 0.49577  0.87181  0.34210  Biso   1.000  C
  C607     1.0000 0.30547  0.45725  0.95078  Biso   1.000  C
  C608     1.0000 0.59794  0.66961  0.03451  Biso   1.000  C
  C609     1.0000 0.52156  0.37153  0.26922  Biso   1.000  C
  C610     1.0000 0.80059  0.45420  0.64645  Biso   1.000  C
  C611     1.0000 0.09735  0.66406  0.54565  Biso   1.000  C
  C612     1.0000 0.01876  0.35624  0.34152  Biso   1.000  C
  C613     1.0000 0.79978  0.96277  0.14845  Biso   1.000  C
  C614     1.0000 0.09446  0.74673  0.05713  Biso   1.000  C
  C615     1.0000 0.00966  0.05399  0.83554  Biso   1.000  C
  C616     1.0000 0.30104  0.96618  0.44904  Biso   1.000  C
  C617     1.0000 0.60058  0.74322  0.53784  Biso   1.000  C
  C618     1.0000 0.51107  0.05160  0.76395  Biso   1.000  C
  C619     1.0000 0.72247  0.48474  0.15112  Biso   1.000  C
  C620     1.0000 0.42495  0.25030  0.07972  Biso   1.000  C
  C621     1.0000 0.49735  0.54847  0.83953  Biso   1.000  C
  C622     1.0000 0.22125  0.46122  0.44888  Biso   1.000  C
  C623     1.0000 0.92832  0.23469  0.55475  Biso   1.000  C
  C624     1.0000 0.02659  0.55251  0.75687  Biso   1.000  C
  C625     1.0000 0.01747  0.16083  0.94337  Biso   1.000  C
  C626     1.0000 0.90454  0.95856  0.25983  Biso   1.000  C
  C627     1.0000 0.20820  0.84603  0.05752  Biso   1.000  C
  C628     1.0000 0.53251  0.16037  0.66183  Biso   1.000  C
  C629     1.0000 0.40784  0.97218  0.34379  Biso   1.000  C
  C630     1.0000 0.71557  0.84254  0.54996  Biso   1.000  C
  C631     1.0000 0.49387  0.65796  0.94444  Biso   1.000  C
  C632     1.0000 0.61991  0.48246  0.25914  Biso   1.000  C
  C633     1.0000 0.31416  0.34608  0.04643  Biso   1.000  C
  C634     1.0000 0.00272  0.66272  0.65526  Biso   1.000  C
  C635     1.0000 0.11844  0.44172  0.34140  Biso   1.000  C
  C636     1.0000 0.81607  0.33898  0.55441  Biso   1.000  C
  C637     1.0000 0.00973  0.75099  0.15888  Biso   1.000  C
  C638     1.0000 0.10809  0.97096  0.84358  Biso   1.000  C
  C639     1.0000 0.80928  0.06886  0.04723  Biso   1.000  C
  C640     1.0000 0.48778  0.75533  0.44237  Biso   1.000  C
  C641     1.0000 0.60641  0.94338  0.75476  Biso   1.000  C
  C642     1.0000 0.31377  0.06981  0.56630  Biso   1.000  C
  C643     1.0000 0.53120  0.26088  0.16979  Biso   1.000  C
  C644     1.0000 0.40895  0.43776  0.84225  Biso   1.000  C
  C645     1.0000 0.71357  0.57085  0.02549  Biso   1.000  C
  C646     1.0000 0.03981  0.24332  0.44112  Biso   1.000  C
  C647     1.0000 0.90977  0.46965  0.75454  Biso   1.000  C
  C648     1.0000 0.20923  0.56422  0.55609  Biso   1.000  C
  C649     1.0000 0.00281  0.66323  0.44855  Biso   1.000  C
  C650     1.0000 0.40257  0.95474  0.76324  Biso   1.000  C
  C651     1.0000 0.72778  0.36728  0.05862  Biso   1.000  C
  C652     1.0000 0.48861  0.67486  0.14716  Biso   1.000  C
  C653     1.0000 0.90660  0.96084  0.83863  Biso   1.000  C
  C654     1.0000 0.22759  0.36394  0.55933  Biso   1.000  C
  C655     1.0000 0.51445  0.16993  0.46122  Biso   1.000  C
  C656     1.0000 0.10821  0.44056  0.75629  Biso   1.000  C
  C657     1.0000 0.79499  0.86525  0.04345  Biso   1.000  C
  C658     1.0000 0.03008  0.16203  0.14535  Biso   1.000  C
  C659     1.0000 0.60863  0.47315  0.84016  Biso   1.000  C
  C660     1.0000 0.29593  0.86390  0.54616  Biso   1.000  C
  C661     1.0000 0.02128  0.23945  0.64627  Biso   1.000  C
  C662     1.0000 0.61096  0.96471  0.34388  Biso   1.000  C
  C663     1.0000 0.30121  0.55332  0.06710  Biso   1.000  C
  C664     1.0000 0.53304  0.24354  0.95896  Biso   1.000  C
  C665     1.0000 0.11132  0.97132  0.26152  Biso   1.000  C
  C666     1.0000 0.79456  0.54238  0.53599  Biso   1.000  C
  C667     1.0000 0.50312  0.74033  0.64806  Biso   1.000  C
  C668     1.0000 0.91830  0.47235  0.34382  Biso   1.000  C
  C669     1.0000 0.22202  0.04977  0.05880  Biso   1.000  C
  C670     1.0000 0.00012  0.74408  0.95478  Biso   1.000  C
  C671     1.0000 0.41585  0.46370  0.26287  Biso   1.000  C
  C672     1.0000 0.72655  0.04615  0.55249  Biso   1.000  C
  C673     1.0000 0.20344  0.96785  0.85459  Biso   1.000  C
  C674     1.0000 0.82890  0.16249  0.05395  Biso   1.000  C
  C675     1.0000 0.02646  0.76386  0.25072  Biso   1.000  C
  C676     1.0000 0.70100  0.93993  0.74202  Biso   1.000  C
  C677     1.0000 0.33250  0.16232  0.55374  Biso   1.000  C
  C678     1.0000 0.48663  0.77644  0.35255  Biso   1.000  C
  C679     1.0000 0.31462  0.44877  0.85617  Biso   1.000  C
  C680     1.0000 0.68993  0.66243  0.02707  Biso   1.000  C
  C681     1.0000 0.52063  0.27920  0.26220  Biso   1.000  C
  C682     1.0000 0.81343  0.46652  0.74036  Biso   1.000  C
  C683     1.0000 0.19270  0.65660  0.54640  Biso   1.000  C
  C684     1.0000 0.03830  0.26292  0.34752  Biso   1.000  C
  C685     1.0000 0.81182  0.95268  0.24562  Biso   1.000  C
  C686     1.0000 0.19012  0.75267  0.05772  Biso   1.000  C
  C687     1.0000 0.01147  0.14884  0.84826  Biso   1.000  C
  C688     1.0000 0.31588  0.95938  0.35339  Biso   1.000  C
  C689     1.0000 0.69583  0.74771  0.53455  Biso   1.000  C
  C690     1.0000 0.53015  0.14343  0.75599  Biso   1.000  C
  C691     1.0000 0.71200  0.48254  0.24661  Biso   1.000  C
  C692     1.0000 0.33045  0.25220  0.06372  Biso   1.000  C
  C693     1.0000 0.49715  0.64291  0.85256  Biso   1.000  C
  C694     1.0000 0.21236  0.44118  0.35657  Biso   1.000  C
  C695     1.0000 0.83348  0.24555  0.55757  Biso   1.000  C
  C696     1.0000 0.01770  0.64881  0.74949  Biso   1.000  C
  C697     1.0000 0.70491  0.95527  0.35368  Biso   1.000  C
  C698     1.0000 0.30657  0.65020  0.06623  Biso   1.000  C
  C699     1.0000 0.00447  0.25307  0.73720  Biso   1.000  C
  C700     1.0000 0.20318  0.96230  0.24583  Biso   1.000  C
  C701     1.0000 0.80439  0.63942  0.53190  Biso   1.000  C
  C702     1.0000 0.53702  0.25472  0.86389  Biso   1.000  C
  C703     1.0000 0.82572  0.46025  0.35057  Biso   1.000  C
  C704     1.0000 0.21809  0.14577  0.06430  Biso   1.000  C
  C705     1.0000 0.50129  0.75028  0.74407  Biso   1.000  C
  C706     1.0000 0.32214  0.44685  0.24910  Biso   1.000  C
  C707     1.0000 0.72584  0.13890  0.56773  Biso   1.000  C
  C708     1.0000 0.01428  0.75437  0.86418  Biso   1.000  C
  C709     1.0000 0.31082  0.97148  0.74481  Biso   1.000  C
  C710     1.0000 0.71939  0.27140  0.06481  Biso   1.000  C
  C711     1.0000 0.02006  0.65156  0.35602  Biso   1.000  C
  C712     1.0000 0.81247  0.95798  0.85161  Biso   1.000  C
  C713     1.0000 0.22341  0.26945  0.55561  Biso   1.000  C
  C714     1.0000 0.49133  0.66838  0.24077  Biso   1.000  C
  C715     1.0000 0.20140  0.45247  0.74826  Biso   1.000  C
  C716     1.0000 0.80075  0.76954  0.03612  Biso   1.000  C
  C717     1.0000 0.50914  0.16728  0.36749  Biso   1.000  C
  C718     1.0000 0.70512  0.47431  0.84957  Biso   1.000  C
  C719     1.0000 0.30623  0.76660  0.53746  Biso   1.000  C
  C720     1.0000 0.03316  0.15371  0.24114  Biso   1.000  C
  C721     1.0000 0.50584  0.74924  0.35279  Biso   1.000  C
  C722     1.0000 0.29119  0.46882  0.85749  Biso   1.000  C
  C723     1.0000 0.81005  0.24937  0.57823  Biso   1.000  C
  C724     1.0000 0.01208  0.76821  0.27775  Biso   1.000  C
  C725     1.0000 0.78851  0.48502  0.73556  Biso   1.000  C
  C726     1.0000 0.30179  0.25593  0.07429  Biso   1.000  C
  C727     1.0000 0.02451  0.23354  0.35046  Biso   1.000  C
  C728     1.0000 0.23163  0.98269  0.85949  Biso   1.000  C
  C729     1.0000 0.69149  0.71768  0.54564  Biso   1.000  C
  C730     1.0000 0.50334  0.25334  0.25932  Biso   1.000  C
  C731     1.0000 0.72778  0.92370  0.74132  Biso   1.000  C
  C732     1.0000 0.21541  0.75819  0.07503  Biso   1.000  C
  C733     1.0000 0.51144  0.14459  0.77980  Biso   1.000  C
  C734     1.0000 0.70932  0.46067  0.26914  Biso   1.000  C
  C735     1.0000 0.22162  0.65144  0.53207  Biso   1.000  C
  C736     1.0000 0.99736  0.17768  0.85296  Biso   1.000  C
  C737     1.0000 0.24139  0.42951  0.36175  Biso   1.000  C
  C738     1.0000 0.71459  0.66148  0.04592  Biso   1.000  C
  C739     1.0000 0.03239  0.67645  0.74833  Biso   1.000  C
  C740     1.0000 0.78558  0.93596  0.24047  Biso   1.000  C
  C741     1.0000 0.30222  0.15693  0.54220  Biso   1.000  C
  C742     1.0000 0.51835  0.64320  0.82987  Biso   1.000  C
  C743     1.0000 0.29126  0.93946  0.35677  Biso   1.000  C
  C744     1.0000 0.80268  0.15692  0.06914  Biso   1.000  C
  C745     1.0000 0.04019  0.64918  0.33064  Biso   1.000  C
  C746     1.0000 0.28097  0.96054  0.73853  Biso   1.000  C
  C747     1.0000 0.74401  0.27525  0.04552  Biso   1.000  C
  C748     1.0000 0.50213  0.69699  0.23547  Biso   1.000  C
  C749     1.0000 0.81577  0.93812  0.82646  Biso   1.000  C
  C750     1.0000 0.22373  0.24661  0.53303  Biso   1.000  C
  C751     1.0000 0.53012  0.19111  0.37322  Biso   1.000  C
  C752     1.0000 0.22827  0.43899  0.74184  Biso   1.000  C
  C753     1.0000 0.77273  0.77481  0.04827  Biso   1.000  C
  C754     1.0000 0.01915  0.18275  0.23689  Biso   1.000  C
  C755     1.0000 0.73269  0.48953  0.85319  Biso   1.000  C
  C756     1.0000 0.30587  0.74226  0.51763  Biso   1.000  C
  C757     1.0000 0.98960  0.22438  0.73328  Biso   1.000  C
  C758     1.0000 0.73035  0.93757  0.36162  Biso   1.000  C
  C759     1.0000 0.31008  0.68007  0.07660  Biso   1.000  C
  C760     1.0000 0.55172  0.25770  0.83659  Biso   1.000  C
  C761     1.0000 0.23158  0.97699  0.24142  Biso   1.000  C
  C762     1.0000 0.80737  0.66744  0.54804  Biso   1.000  C
  C763     1.0000 0.51927  0.72381  0.74379  Biso   1.000  C
  C764     1.0000 0.83114  0.45172  0.31981  Biso   1.000  C
  C765     1.0000 0.21843  0.17047  0.08494  Biso   1.000  C
  C766     1.0000 0.99487  0.72912  0.86512  Biso   1.000  C
  C767     1.0000 0.29754  0.46729  0.24890  Biso   1.000  C
  C768     1.0000 0.72309  0.16520  0.55126  Biso   1.000  C
  C769     1.0000 0.47593  0.66666  0.85294  Biso   1.000  C
  C770     1.0000 0.81667  0.45074  0.76866  Biso   1.000  C
  C771     1.0000 0.72347  0.75266  0.52046  Biso   1.000  C
  C772     1.0000 0.00600  0.64170  0.77778  Biso   1.000  C
  C773     1.0000 0.31540  0.43093  0.82946  Biso   1.000  C
  C774     1.0000 0.18797  0.72410  0.04378  Biso   1.000  C
  C775     1.0000 0.02453  0.14409  0.81984  Biso   1.000  C
  C776     1.0000 0.69693  0.95943  0.76782  Biso   1.000  C
  C777     1.0000 0.83487  0.21932  0.53830  Biso   1.000  C
  C778     1.0000 0.55578  0.16439  0.75788  Biso   1.000  C
  C779     1.0000 0.19968  0.95362  0.82593  Biso   1.000  C
  C780     1.0000 0.33909  0.22147  0.05812  Biso   1.000  C
  C781     1.0000 0.53698  0.28490  0.28934  Biso   1.000  C
  C782     1.0000 0.20906  0.45498  0.32771  Biso   1.000  C
  C783     1.0000 0.34030  0.19202  0.56370  Biso   1.000  C
  C784     1.0000 0.05190  0.26848  0.31979  Biso   1.000  C
  C785     1.0000 0.73886  0.49920  0.24663  Biso   1.000  C
  C786     1.0000 0.83286  0.18984  0.03912  Biso   1.000  C
  C787     1.0000 0.04145  0.73606  0.24449  Biso   1.000  C
  C788     1.0000 0.31568  0.97989  0.32850  Biso   1.000  C
  C789     1.0000 0.18957  0.68500  0.55965  Biso   1.000  C
  C790     1.0000 0.46695  0.77992  0.32740  Biso   1.000  C
  C791     1.0000 0.81560  0.96857  0.27302  Biso   1.000  C
  C792     1.0000 0.68555  0.68825  0.00785  Biso   1.000  C
  C793     1.0000 0.48973  0.16971  0.34259  Biso   1.000  C
  C794     1.0000 0.32470  0.42671  0.27399  Biso   1.000  C
  C795     1.0000 0.24882  0.27268  0.57454  Biso   1.000  C
  C796     1.0000 0.04748  0.14955  0.26863  Biso   1.000  C
  C797     1.0000 0.79544  0.47238  0.35823  Biso   1.000  C
  C798     1.0000 0.72087  0.24731  0.08421  Biso   1.000  C
  C799     1.0000 0.00148  0.67671  0.35652  Biso   1.000  C
  C800     1.0000 0.19861  0.94688  0.27299  Biso   1.000  C
  C801     1.0000 0.28164  0.76835  0.55680  Biso   1.000  C
  C802     1.0000 0.47416  0.66304  0.26772  Biso   1.000  C
  C803     1.0000 0.70176  0.96756  0.32436  Biso   1.000  C
  C804     1.0000 0.80460  0.74211  0.01869  Biso   1.000  C
  C805     1.0000 0.48387  0.75511  0.76934  Biso   1.000  C
  C806     1.0000 0.69940  0.46129  0.82058  Biso   1.000  C
  C807     1.0000 0.77646  0.63476  0.51632  Biso   1.000  C
  C808     1.0000 0.03693  0.75637  0.84122  Biso   1.000  C
  C809     1.0000 0.19757  0.46694  0.77579  Biso   1.000  C
  C810     1.0000 0.27609  0.64190  0.05700  Biso   1.000  C
  C811     1.0000 0.01573  0.25859  0.76677  Biso   1.000  C
  C812     1.0000 0.78538  0.97490  0.85220  Biso   1.000  C
  C813     1.0000 0.75461  0.13286  0.58021  Biso   1.000  C
  C814     1.0000 0.52394  0.22605  0.86920  Biso   1.000  C
  C815     1.0000 0.31726  0.98292  0.77229  Biso   1.000  C
  C816     1.0000 0.24268  0.14431  0.04656  Biso   1.000  C
  C817     1.0000 0.99199  0.19775  0.83051  Biso   1.000  C
  C818     1.0000 0.76625  0.93145  0.26391  Biso   1.000  C
  C819     1.0000 0.23790  0.73887  0.07709  Biso   1.000  C
  C820     1.0000 0.51371  0.16526  0.80089  Biso   1.000  C
  C821     1.0000 0.26795  0.94020  0.33705  Biso   1.000  C
  C822     1.0000 0.71198  0.69720  0.54304  Biso   1.000  C
  C823     1.0000 0.52009  0.66567  0.81089  Biso   1.000  C
  C824     1.0000 0.73252  0.45502  0.28859  Biso   1.000  C
  C825     1.0000 0.28134  0.23413  0.07669  Biso   1.000  C
  C826     1.0000 0.03429  0.69549  0.77275  Biso   1.000  C
  C827     1.0000 0.26215  0.43223  0.34028  Biso   1.000  C
  C828     1.0000 0.79138  0.22472  0.57923  Biso   1.000  C
  C829     1.0000 0.01422  0.74626  0.29778  Biso   1.000  C
  C830     1.0000 0.25268  0.98250  0.83909  Biso   1.000  C
  C831     1.0000 0.78230  0.17913  0.07142  Biso   1.000  C
  C832     1.0000 0.50105  0.72823  0.33044  Biso   1.000  C
  C833     1.0000 0.74802  0.92718  0.76295  Biso   1.000  C
  C834     1.0000 0.28272  0.17964  0.54292  Biso   1.000  C
  C835     1.0000 0.50142  0.23456  0.28203  Biso   1.000  C
  C836     1.0000 0.26934  0.47169  0.83685  Biso   1.000  C
  C837     1.0000 0.73308  0.68436  0.04552  Biso   1.000  C
  C838     1.0000 0.02521  0.21399  0.32688  Biso   1.000  C
  C839     1.0000 0.76761  0.48554  0.75730  Biso   1.000  C
  C840     1.0000 0.24299  0.67316  0.52982  Biso   1.000  C
  C841     1.0000 0.22015  0.95335  0.80529  Biso   1.000  C
  C842     1.0000 0.81115  0.21090  0.04251  Biso   1.000  C
  C843     1.0000 0.04179  0.71486  0.26581  Biso   1.000  C
  C844     1.0000 0.71706  0.96198  0.79054  Biso   1.000  C
  C845     1.0000 0.31936  0.21383  0.56191  Biso   1.000  C
  C846     1.0000 0.46612  0.76034  0.30382  Biso   1.000  C
  C847     1.0000 0.29190  0.43242  0.81036  Biso   1.000  C
  C848     1.0000 0.70778  0.70967  0.00623  Biso   1.000  C
  C849     1.0000 0.53537  0.26474  0.31179  Biso   1.000  C
  C850     1.0000 0.79583  0.45547  0.79004  Biso   1.000  C
  C851     1.0000 0.21117  0.70628  0.55559  Biso   1.000  C
  C852     1.0000 0.05193  0.24848  0.29762  Biso   1.000  C
  C853     1.0000 0.79418  0.96501  0.29476  Biso   1.000  C
  C854     1.0000 0.21189  0.70372  0.04624  Biso   1.000  C
  C855     1.0000 0.01763  0.16486  0.79726  Biso   1.000  C
  C856     1.0000 0.29229  0.98002  0.30923  Biso   1.000  C
  C857     1.0000 0.74438  0.73162  0.51627  Biso   1.000  C
  C858     1.0000 0.55779  0.18448  0.78032  Biso   1.000  C
  C859     1.0000 0.76134  0.49203  0.26553  Biso   1.000  C
  C860     1.0000 0.31870  0.20001  0.06128  Biso   1.000  C
  C861     1.0000 0.47648  0.68665  0.83105  Biso   1.000  C
  C862     1.0000 0.23046  0.45628  0.30731  Biso   1.000  C
  C863     1.0000 0.81512  0.19713  0.54212  Biso   1.000  C
  C864     1.0000 0.00669  0.66189  0.80150  Biso   1.000  C
  C865     1.0000 0.75376  0.48974  0.83176  Biso   1.000  C
  C866     1.0000 0.78579  0.68919  0.54458  Biso   1.000  C
  C867     1.0000 0.51678  0.70296  0.76510  Biso   1.000  C
  C868     1.0000 0.25179  0.44131  0.76279  Biso   1.000  C
  C869     1.0000 0.28629  0.69883  0.07617  Biso   1.000  C
  C870     1.0000 0.99789  0.70786  0.84401  Biso   1.000  C
  C871     1.0000 0.79531  0.93718  0.80355  Biso   1.000  C
  C872     1.0000 0.74656  0.18384  0.54890  Biso   1.000  C
  C873     1.0000 0.98676  0.20461  0.75547  Biso   1.000  C
  C874     1.0000 0.26106  0.96119  0.76051  Biso   1.000  C
  C875     1.0000 0.24359  0.18849  0.08793  Biso   1.000  C
  C876     1.0000 0.55115  0.23487  0.81638  Biso   1.000  C
  C877     1.0000 0.27497  0.46521  0.26814  Biso   1.000  C
  C878     1.0000 0.24768  0.22755  0.53043  Biso   1.000  C
  C879     1.0000 0.53374  0.21468  0.35368  Biso   1.000  C
  C880     1.0000 0.80864  0.45635  0.29883  Biso   1.000  C
  C881     1.0000 0.76572  0.25494  0.04429  Biso   1.000  C
  C882     1.0000 0.02330  0.20599  0.25640  Biso   1.000  C
  C883     1.0000 0.25162  0.97442  0.26329  Biso   1.000  C
  C884     1.0000 0.28227  0.72230  0.51804  Biso   1.000  C
  C885     1.0000 0.04118  0.67215  0.31045  Biso   1.000  C
  C886     1.0000 0.75193  0.93497  0.34213  Biso   1.000  C
  C887     1.0000 0.74946  0.75368  0.04663  Biso   1.000  C
  C888     1.0000 0.49890  0.71768  0.25674  Biso   1.000  C
  C889     1.0000 0.72367  0.96169  0.30407  Biso   1.000  C
  C890     1.0000 0.25288  0.66210  0.05984  Biso   1.000  C
  C891     1.0000 0.01460  0.23674  0.78740  Biso   1.000  C
  C892     1.0000 0.21995  0.94618  0.29445  Biso   1.000  C
  C893     1.0000 0.75632  0.65601  0.51485  Biso   1.000  C
  C894     1.0000 0.52349  0.20529  0.84867  Biso   1.000  C
  C895     1.0000 0.77491  0.47312  0.33679  Biso   1.000  C
  C896     1.0000 0.26772  0.16265  0.05061  Biso   1.000  C
  C897     1.0000 0.48529  0.73533  0.79118  Biso   1.000  C
  C898     1.0000 0.30204  0.42692  0.29428  Biso   1.000  C
  C899     1.0000 0.77714  0.15368  0.57854  Biso   1.000  C
  C900     1.0000 0.03961  0.73293  0.82183  Biso   1.000  C
  C901     1.0000 0.29609  0.98249  0.79345  Biso   1.000  C
  C902     1.0000 0.74337  0.22739  0.08235  Biso   1.000  C
  C903     1.0000 0.00394  0.69725  0.33610  Biso   1.000  C
  C904     1.0000 0.76357  0.97058  0.83106  Biso   1.000  C
  C905     1.0000 0.27183  0.25232  0.57269  Biso   1.000  C
  C906     1.0000 0.47115  0.68505  0.28732  Biso   1.000  C
  C907     1.0000 0.21953  0.46620  0.79711  Biso   1.000  C
  C908     1.0000 0.78008  0.72307  0.01679  Biso   1.000  C
  C909     1.0000 0.49100  0.19640  0.32680  Biso   1.000  C
  C910     1.0000 0.72197  0.46250  0.80124  Biso   1.000  C
  C911     1.0000 0.26213  0.74528  0.55862  Biso   1.000  C
  C912     1.0000 0.05368  0.17362  0.28615  Biso   1.000  C
  C913     1.0000 0.77256  0.47289  0.78400  Biso   1.000  C
  C914     1.0000 0.73873  0.70451  0.53080  Biso   1.000  C
  C915     1.0000 0.49972  0.68710  0.81130  Biso   1.000  C
  C916     1.0000 0.26910  0.45185  0.81355  Biso   1.000  C
  C917     1.0000 0.23685  0.71123  0.06111  Biso   1.000  C
  C918     1.0000 0.02166  0.68769  0.79864  Biso   1.000  C
  C919     1.0000 0.74262  0.94439  0.78689  Biso   1.000  C
  C920     1.0000 0.79350  0.20176  0.56066  Biso   1.000  C
  C921     1.0000 0.00053  0.18860  0.80297  Biso   1.000  C
  C922     1.0000 0.24831  0.96618  0.81337  Biso   1.000  C
  C923     1.0000 0.29043  0.20610  0.07037  Biso   1.000  C
  C924     1.0000 0.53508  0.18581  0.80075  Biso   1.000  C
  C925     1.0000 0.25643  0.44536  0.31363  Biso   1.000  C
  C926     1.0000 0.29230  0.20734  0.55051  Biso   1.000  C
  C927     1.0000 0.51777  0.23936  0.30789  Biso   1.000  C
  C928     1.0000 0.75744  0.46987  0.28618  Biso   1.000  C
  C929     1.0000 0.78651  0.20554  0.05816  Biso   1.000  C
  C930     1.0000 0.04159  0.22150  0.30241  Biso   1.000  C
  C931     1.0000 0.26981  0.95971  0.31277  Biso   1.000  C
  C932     1.0000 0.23750  0.70048  0.54192  Biso   1.000  C
  C933     1.0000 0.02605  0.71908  0.29101  Biso   1.000  C
  C934     1.0000 0.77104  0.94673  0.28989  Biso   1.000  C
  C935     1.0000 0.73176  0.70601  0.02547  Biso   1.000  C
  C936     1.0000 0.48204  0.73446  0.30666  Biso   1.000  C
  C937     1.0000 0.76566  0.22962  0.06144  Biso   1.000  C
  C938     1.0000 0.02387  0.69644  0.31426  Biso   1.000  C
  C939     1.0000 0.26906  0.96941  0.78864  Biso   1.000  C
  C940     1.0000 0.27012  0.22974  0.55035  Biso   1.000  C
  C941     1.0000 0.48343  0.71217  0.28154  Biso   1.000  C
  C942     1.0000 0.76841  0.95208  0.80625  Biso   1.000  C
  C943     1.0000 0.75388  0.72942  0.02907  Biso   1.000  C
  C944     1.0000 0.51268  0.21811  0.33194  Biso   1.000  C
  C945     1.0000 0.24653  0.45245  0.79014  Biso   1.000  C
  C946     1.0000 0.26133  0.72204  0.53954  Biso   1.000  C
  C947     1.0000 0.04163  0.20069  0.27985  Biso   1.000  C
  C948     1.0000 0.74886  0.47555  0.80517  Biso   1.000  C
  C949     1.0000 0.25868  0.68957  0.06822  Biso   1.000  C
  C950     1.0000 0.99902  0.21142  0.78238  Biso   1.000  C
  C951     1.0000 0.74880  0.94556  0.31231  Biso   1.000  C
  C952     1.0000 0.76064  0.68205  0.52980  Biso   1.000  C
  C953     1.0000 0.53711  0.20920  0.82211  Biso   1.000  C
  C954     1.0000 0.24540  0.96076  0.29032  Biso   1.000  C
  C955     1.0000 0.26835  0.18462  0.07077  Biso   1.000  C
  C956     1.0000 0.49975  0.70890  0.78862  Biso   1.000  C
  C957     1.0000 0.78014  0.46626  0.30794  Biso   1.000  C
  C958     1.0000 0.77238  0.17869  0.56276  Biso   1.000  C
  C959     1.0000 0.02021  0.70913  0.82306  Biso   1.000  C
  C960     1.0000 0.27848  0.44622  0.29097  Biso   1.000  C
  Cu1      1.0000 0.01030  0.45030  0.69786  Biso   1.000  Cu
  Cu2      1.0000 0.66213  0.94817  0.54477  Biso   1.000  Cu
  Cu3      1.0000 0.50059  0.61202  0.04975  Biso   1.000  Cu
  Cu4      1.0000 0.51153  0.45012  0.89870  Biso   1.000  Cu
  Cu5      1.0000 0.16146  0.95401  0.05015  Biso   1.000  Cu
  Cu6      1.0000 0.99917  0.60871  0.55087  Biso   1.000  Cu
  Cu7      1.0000 0.50265  0.94968  0.70435  Biso   1.000  Cu
  Cu8      1.0000 0.85972  0.44572  0.54582  Biso   1.000  Cu
  Cu9      1.0000 0.02139  0.10857  0.04617  Biso   1.000  Cu
  Cu10     1.0000 0.00552  0.95451  0.89486  Biso   1.000  Cu
  Cu11     1.0000 0.36185  0.45470  0.05378  Biso   1.000  Cu
  Cu12     1.0000 0.52902  0.10958  0.55811  Biso   1.000  Cu
  Cu13     1.0000 0.01870  0.45583  0.39871  Biso   1.000  Cu
  Cu14     1.0000 0.35854  0.96422  0.55048  Biso   1.000  Cu
  Cu15     1.0000 0.52344  0.30470  0.06086  Biso   1.000  Cu
  Cu16     1.0000 0.51715  0.47302  0.20472  Biso   1.000  Cu
  Cu17     1.0000 0.85547  0.96179  0.04745  Biso   1.000  Cu
  Cu18     1.0000 0.02601  0.29673  0.54669  Biso   1.000  Cu
  Cu19     1.0000 0.51085  0.96896  0.39756  Biso   1.000  Cu
  Cu20     1.0000 0.16302  0.45832  0.54935  Biso   1.000  Cu
  Cu21     1.0000 0.99431  0.80363  0.05701  Biso   1.000  Cu
  Cu22     1.0000 0.00649  0.95907  0.20658  Biso   1.000  Cu
  Cu23     1.0000 0.66776  0.46586  0.04809  Biso   1.000  Cu
  Cu24     1.0000 0.50333  0.80026  0.54631  Biso   1.000  Cu
  Cu25     1.0000 0.21417  0.94916  0.05286  Biso   1.000  Cu
  Cu26     1.0000 0.02260  0.16168  0.04585  Biso   1.000  Cu
  Cu27     1.0000 0.00715  0.96088  0.26192  Biso   1.000  Cu
  Cu28     1.0000 0.71569  0.94498  0.54810  Biso   1.000  Cu
  Cu29     1.0000 0.53145  0.16475  0.55981  Biso   1.000  Cu
  Cu30     1.0000 0.50962  0.97009  0.34335  Biso   1.000  Cu
  Cu31     1.0000 0.30812  0.44669  0.05383  Biso   1.000  Cu
  Cu32     1.0000 0.49934  0.66700  0.04178  Biso   1.000  Cu
  Cu33     1.0000 0.51816  0.47632  0.26144  Biso   1.000  Cu
  Cu34     1.0000 0.80634  0.43822  0.54381  Biso   1.000  Cu
  Cu35     1.0000 0.99601  0.66155  0.55106  Biso   1.000  Cu
  Cu36     1.0000 0.01867  0.45304  0.34463  Biso   1.000  Cu
  Cu37     1.0000 0.80209  0.96412  0.04695  Biso   1.000  Cu
  Cu38     1.0000 0.99365  0.75031  0.05731  Biso   1.000  Cu
  Cu39     1.0000 0.00722  0.94942  0.84024  Biso   1.000  Cu
  Cu40     1.0000 0.30543  0.96600  0.54873  Biso   1.000  Cu
  Cu41     1.0000 0.49766  0.74684  0.54579  Biso   1.000  Cu
  Cu42     1.0000 0.50572  0.94900  0.75969  Biso   1.000  Cu
  Cu43     1.0000 0.72184  0.47170  0.04868  Biso   1.000  Cu
  Cu44     1.0000 0.52606  0.25066  0.06302  Biso   1.000  Cu
  Cu45     1.0000 0.50934  0.44770  0.84474  Biso   1.000  Cu
  Cu46     1.0000 0.21677  0.46561  0.55180  Biso   1.000  Cu
  Cu47     1.0000 0.02916  0.24254  0.54490  Biso   1.000  Cu
  Cu48     1.0000 0.00981  0.45156  0.75382  Biso   1.000  Cu
  H1       1.0000 0.27831  0.70686  0.50022  Biso   1.000  H
  H2       1.0000 0.56269  0.23787  0.79649  Biso   1.000  H
  H3       1.0000 0.81159  0.45087  0.27663  Biso   1.000  H
  H4       1.0000 0.73076  0.75584  0.06053  Biso   1.000  H
  H5       1.0000 0.97473  0.18527  0.75508  Biso   1.000  H
  H6       1.0000 0.25506  0.47857  0.26455  Biso   1.000  H
  H7       1.0000 0.24805  0.21136  0.51358  Biso   1.000  H
  H8       1.0000 0.98164  0.69057  0.84571  Biso   1.000  H
  H9       1.0000 0.77130  0.92389  0.34754  Biso   1.000  H
  H10      1.0000 0.78291  0.25734  0.02847  Biso   1.000  H
  H11      1.0000 0.53039  0.68373  0.76397  Biso   1.000  H
  H12      1.0000 0.27220  0.98381  0.25643  Biso   1.000  H
  H13      1.0000 0.74665  0.20363  0.53738  Biso   1.000  H
  H14      1.0000 0.50819  0.73955  0.25565  Biso   1.000  H
  H15      1.0000 0.27130  0.42888  0.75935  Biso   1.000  H
  H16      1.0000 0.24388  0.20420  0.10614  Biso   1.000  H
  H17      1.0000 0.05457  0.66806  0.29159  Biso   1.000  H
  H18      1.0000 0.77150  0.50481  0.83493  Biso   1.000  H
  H19      1.0000 0.79024  0.70972  0.55445  Biso   1.000  H
  H20      1.0000 0.01289  0.22766  0.25505  Biso   1.000  H
  H21      1.0000 0.23894  0.95737  0.75468  Biso   1.000  H
  H22      1.0000 0.29297  0.72169  0.07804  Biso   1.000  H
  H23      1.0000 0.55222  0.22941  0.36006  Biso   1.000  H
  H24      1.0000 0.80107  0.92604  0.78440  Biso   1.000  H
  H25      1.0000 0.27440  0.98914  0.84664  Biso   1.000  H
  H26      1.0000 0.76072  0.17366  0.08034  Biso   1.000  H
  H27      1.0000 0.00649  0.75027  0.31969  Biso   1.000  H
  H28      1.0000 0.76799  0.91483  0.76151  Biso   1.000  H
  H29      1.0000 0.26057  0.17212  0.53529  Biso   1.000  H
  H30      1.0000 0.51307  0.70751  0.32907  Biso   1.000  H
  H31      1.0000 0.25412  0.49091  0.83861  Biso   1.000  H
  H32      1.0000 0.75129  0.68428  0.06121  Biso   1.000  H
  H33      1.0000 0.48738  0.21626  0.27911  Biso   1.000  H
  H34      1.0000 0.74732  0.49750  0.75497  Biso   1.000  H
  H35      1.0000 0.26433  0.66944  0.51929  Biso   1.000  H
  H36      1.0000 0.01419  0.19339  0.32543  Biso   1.000  H
  H37      1.0000 0.74796  0.91545  0.26166  Biso   1.000  H
  H38      1.0000 0.25809  0.74625  0.08938  Biso   1.000  H
  H39      1.0000 0.98082  0.21793  0.83607  Biso   1.000  H
  H40      1.0000 0.24979  0.92709  0.34162  Biso   1.000  H
  H41      1.0000 0.70808  0.67572  0.55065  Biso   1.000  H
  H42      1.0000 0.49479  0.16604  0.81479  Biso   1.000  H
  H43      1.0000 0.72893  0.43757  0.30313  Biso   1.000  H
  H44      1.0000 0.26009  0.23791  0.08341  Biso   1.000  H
  H45      1.0000 0.54041  0.66444  0.79721  Biso   1.000  H
  H46      1.0000 0.28264  0.42338  0.34601  Biso   1.000  H
  H47      1.0000 0.77313  0.22583  0.59484  Biso   1.000  H
  H48      1.0000 0.04852  0.71409  0.77104  Biso   1.000  H
  H49      1.0000 0.22578  0.46629  0.28755  Biso   1.000  H
  H50      1.0000 0.32386  0.23553  0.57098  Biso   1.000  H
  H51      1.0000 0.54803  0.26911  0.33162  Biso   1.000  H
  H52      1.0000 0.78140  0.50394  0.26263  Biso   1.000  H
  H53      1.0000 0.81572  0.23254  0.03347  Biso   1.000  H
  H54      1.0000 0.06033  0.25204  0.27675  Biso   1.000  H
  H55      1.0000 0.29364  0.99767  0.29415  Biso   1.000  H
  H56      1.0000 0.20904  0.72772  0.56402  Biso   1.000  H
  H57      1.0000 0.05452  0.69636  0.25935  Biso   1.000  H
  H58      1.0000 0.79262  0.97870  0.31306  Biso   1.000  H
  H59      1.0000 0.70897  0.72816  0.99281  Biso   1.000  H
  H60      1.0000 0.45453  0.76332  0.28426  Biso   1.000  H
  H61      1.0000 0.79654  0.44535  0.81041  Biso   1.000  H
  H62      1.0000 0.76334  0.73824  0.50314  Biso   1.000  H
  H63      1.0000 0.45836  0.70010  0.82947  Biso   1.000  H
  H64      1.0000 0.29306  0.41654  0.79136  Biso   1.000  H
  H65      1.0000 0.21030  0.68396  0.03497  Biso   1.000  H
  H66      1.0000 0.99683  0.65604  0.82187  Biso   1.000  H
  H67      1.0000 0.71378  0.97751  0.80747  Biso   1.000  H
  H68      1.0000 0.81889  0.17784  0.52952  Biso   1.000  H
  H69      1.0000 0.02669  0.16213  0.77465  Biso   1.000  H
  H70      1.0000 0.21284  0.94113  0.78502  Biso   1.000  H
  H71      1.0000 0.32424  0.17760  0.05858  Biso   1.000  H
  H72      1.0000 0.57594  0.20001  0.78108  Biso   1.000  H
  H73      1.0000 0.71603  0.45512  0.77972  Biso   1.000  H
  H74      1.0000 0.73593  0.65339  0.50243  Biso   1.000  H
  H75      1.0000 0.47548  0.73898  0.81306  Biso   1.000  H
  H76      1.0000 0.21610  0.47795  0.81694  Biso   1.000  H
  H77      1.0000 0.23110  0.65503  0.05414  Biso   1.000  H
  H78      1.0000 0.05765  0.73327  0.80776  Biso   1.000  H
  H79      1.0000 0.74257  0.98341  0.83113  Biso   1.000  H
  H80      1.0000 0.79929  0.15103  0.58727  Biso   1.000  H
  H81      1.0000 0.02509  0.24080  0.80744  Biso   1.000  H
  H82      1.0000 0.30404  0.99141  0.81572  Biso   1.000  H
  H83      1.0000 0.28543  0.16146  0.03701  Biso   1.000  H
  H84      1.0000 0.51228  0.18463  0.85377  Biso   1.000  H
  H85      1.0000 0.29868  0.40898  0.31003  Biso   1.000  H
  H86      1.0000 0.28596  0.25277  0.59239  Biso   1.000  H
  H87      1.0000 0.47431  0.20204  0.31191  Biso   1.000  H
  H88      1.0000 0.75575  0.48408  0.34361  Biso   1.000  H
  H89      1.0000 0.74500  0.20993  0.09895  Biso   1.000  H
  H90      1.0000 0.07102  0.17111  0.30257  Biso   1.000  H
  H91      1.0000 0.21432  0.93601  0.31496  Biso   1.000  H
  H92      1.0000 0.24666  0.74482  0.57687  Biso   1.000  H
  H93      1.0000 0.99086  0.71729  0.33710  Biso   1.000  H
  H94      1.0000 0.72230  0.97047  0.28178  Biso   1.000  H
  H95      1.0000 0.78312  0.70375  0.00464  Biso   1.000  H
  H96      1.0000 0.45660  0.68191  0.30652  Biso   1.000  H
  H97      1.0000 0.87527  0.96784  0.95811  Biso   1.000  H
  H98      1.0000 0.90491  0.82416  0.06668  Biso   1.000  H
  H99      1.0000 0.00425  0.86227  0.92314  Biso   1.000  H
  H100     1.0000 0.37567  0.94891  0.64248  Biso   1.000  H
  H101     1.0000 0.41010  0.82867  0.53724  Biso   1.000  H
  H102     1.0000 0.50113  0.85684  0.68514  Biso   1.000  H
  H103     1.0000 0.64559  0.46197  0.95781  Biso   1.000  H
  H104     1.0000 0.61520  0.32809  0.05492  Biso   1.000  H
  H105     1.0000 0.52162  0.36050  0.92671  Biso   1.000  H
  H106     1.0000 0.13975  0.45575  0.63965  Biso   1.000  H
  H107     1.0000 0.11308  0.32319  0.55169  Biso   1.000  H
  H108     1.0000 0.00311  0.35718  0.67419  Biso   1.000  H
  H109     1.0000 0.13864  0.95997  0.14184  Biso   1.000  H
  H110     1.0000 0.10896  0.08935  0.05534  Biso   1.000  H
  H111     1.0000 0.00516  0.04869  0.18522  Biso   1.000  H
  H112     1.0000 0.64563  0.96430  0.45962  Biso   1.000  H
  H113     1.0000 0.61300  0.08659  0.56294  Biso   1.000  H
  H114     1.0000 0.50362  0.05611  0.42144  Biso   1.000  H
  H115     1.0000 0.38130  0.45062  0.14377  Biso   1.000  H
  H116     1.0000 0.41428  0.59422  0.05941  Biso   1.000  H
  H117     1.0000 0.50614  0.56252  0.18151  Biso   1.000  H
  H118     1.0000 0.88548  0.43904  0.45731  Biso   1.000  H
  H119     1.0000 0.90876  0.58285  0.53679  Biso   1.000  H
  H120     1.0000 0.02137  0.54681  0.42183  Biso   1.000  H
  H121     1.0000 0.09867  0.94869  0.91510  Biso   1.000  H
  H122     1.0000 0.88160  0.05221  0.04768  Biso   1.000  H
  H123     1.0000 0.00798  0.82684  0.14611  Biso   1.000  H
  H124     1.0000 0.59514  0.94914  0.68062  Biso   1.000  H
  H125     1.0000 0.38987  0.05441  0.55990  Biso   1.000  H
  H126     1.0000 0.49543  0.83010  0.46167  Biso   1.000  H
  H127     1.0000 0.42058  0.43641  0.91786  Biso   1.000  H
  H128     1.0000 0.63730  0.55317  0.03899  Biso   1.000  H
  H129     1.0000 0.53006  0.33421  0.15252  Biso   1.000  H
  H130     1.0000 0.91738  0.44973  0.67981  Biso   1.000  H
  H131     1.0000 0.13411  0.54723  0.55288  Biso   1.000  H
  H132     1.0000 0.02456  0.31752  0.45855  Biso   1.000  H
  H133     1.0000 0.91717  0.96345  0.18538  Biso   1.000  H
  H134     1.0000 0.13259  0.85955  0.05075  Biso   1.000  H
  H135     1.0000 0.00950  0.08628  0.95650  Biso   1.000  H
  H136     1.0000 0.41973  0.98313  0.42039  Biso   1.000  H
  H137     1.0000 0.64121  0.85408  0.54931  Biso   1.000  H
  H138     1.0000 0.51040  0.08890  0.64775  Biso   1.000  H
  H139     1.0000 0.60748  0.47482  0.18310  Biso   1.000  H
  H140     1.0000 0.38870  0.36207  0.05832  Biso   1.000  H
  H141     1.0000 0.49140  0.58168  0.95504  Biso   1.000  H
  H142     1.0000 0.10634  0.44894  0.41639  Biso   1.000  H
  H143     1.0000 0.89124  0.35499  0.55224  Biso   1.000  H
  H144     1.0000 0.99836  0.58517  0.64366  Biso   1.000  H
  H145     1.0000 0.60079  0.46445  0.91508  Biso   1.000  H
  H146     1.0000 0.86893  0.53727  0.54342  Biso   1.000  H
  H147     1.0000 0.50584  0.81593  0.63872  Biso   1.000  H
  H148     1.0000 0.10123  0.45472  0.68267  Biso   1.000  H
  H149     1.0000 0.37569  0.54921  0.05551  Biso   1.000  H
  H150     1.0000 0.99964  0.81850  0.96818  Biso   1.000  H
  H151     1.0000 0.91794  0.96415  0.91182  Biso   1.000  H
  H152     1.0000 0.65175  0.04063  0.56249  Biso   1.000  H
  H153     1.0000 0.01328  0.31643  0.63370  Biso   1.000  H
  H154     1.0000 0.41685  0.94887  0.68666  Biso   1.000  H
  H155     1.0000 0.14480  0.04822  0.05425  Biso   1.000  H
  H156     1.0000 0.52758  0.32235  0.96753  Biso   1.000  H
  H157     1.0000 0.42500  0.46326  0.18844  Biso   1.000  H
  H158     1.0000 0.15140  0.36738  0.55846  Biso   1.000  H
  H159     1.0000 0.51504  0.09290  0.46765  Biso   1.000  H
  H160     1.0000 0.93131  0.45079  0.41585  Biso   1.000  H
  H161     1.0000 0.65135  0.37103  0.05666  Biso   1.000  H
  H162     1.0000 0.01197  0.08730  0.14153  Biso   1.000  H
  H163     1.0000 0.09529  0.97248  0.18554  Biso   1.000  H
  H164     1.0000 0.36839  0.87349  0.54296  Biso   1.000  H
  H165     1.0000 0.01116  0.58798  0.46070  Biso   1.000  H
  H166     1.0000 0.60009  0.96514  0.41740  Biso   1.000  H
  H167     1.0000 0.87085  0.87011  0.05237  Biso   1.000  H
  H168     1.0000 0.49122  0.60043  0.14118  Biso   1.000  H
  H169     1.0000 0.01245  0.04606  0.91086  Biso   1.000  H
  H170     1.0000 0.87606  0.96063  0.14095  Biso   1.000  H
  H171     1.0000 0.08987  0.82171  0.05025  Biso   1.000  H
  H172     1.0000 0.50938  0.03997  0.68804  Biso   1.000  H
  H173     1.0000 0.37639  0.97421  0.45873  Biso   1.000  H
  H174     1.0000 0.59523  0.81724  0.55151  Biso   1.000  H
  H175     1.0000 0.49088  0.53702  0.91421  Biso   1.000  H
  H176     1.0000 0.65035  0.47909  0.13784  Biso   1.000  H
  H177     1.0000 0.43168  0.32129  0.05883  Biso   1.000  H
  H178     1.0000 0.00679  0.54438  0.68329  Biso   1.000  H
  H179     1.0000 0.14622  0.45875  0.46037  Biso   1.000  H
  H180     1.0000 0.93462  0.31152  0.54894  Biso   1.000  H
  H181     1.0000 0.00844  0.86759  0.18864  Biso   1.000  H
  H182     1.0000 0.14057  0.95143  0.95896  Biso   1.000  H
  H183     1.0000 0.92784  0.09313  0.04564  Biso   1.000  H
  H184     1.0000 0.50241  0.87981  0.41849  Biso   1.000  H
  H185     1.0000 0.63632  0.93809  0.63855  Biso   1.000  H
  H186     1.0000 0.43720  0.09826  0.56243  Biso   1.000  H
  H187     1.0000 0.52367  0.37917  0.19148  Biso   1.000  H
  H188     1.0000 0.37903  0.44385  0.95968  Biso   1.000  H
  H189     1.0000 0.59378  0.59147  0.04836  Biso   1.000  H
  H190     1.0000 0.01257  0.36473  0.41560  Biso   1.000  H
  H191     1.0000 0.87527  0.45086  0.63540  Biso   1.000  H
  H192     1.0000 0.09478  0.58534  0.55291  Biso   1.000  H
  H193     1.0000 0.27107  0.82508  0.53762  Biso   1.000  H
  H194     1.0000 0.54212  0.22307  0.91687  Biso   1.000  H
  H195     1.0000 0.87703  0.47648  0.32186  Biso   1.000  H
  H196     1.0000 0.77046  0.82640  0.03282  Biso   1.000  H
  H197     1.0000 0.02292  0.21920  0.68738  Biso   1.000  H
  H198     1.0000 0.37418  0.45931  0.28629  Biso   1.000  H
  H199     1.0000 0.25258  0.32584  0.56541  Biso   1.000  H
  H200     1.0000 0.00694  0.72209  0.91414  Biso   1.000  H
  H201     1.0000 0.64976  0.95564  0.32084  Biso   1.000  H
  H202     1.0000 0.75184  0.32700  0.06529  Biso   1.000  H
  H203     1.0000 0.50021  0.72095  0.69154  Biso   1.000  H
  H204     1.0000 0.15354  0.96868  0.28024  Biso   1.000  H
  H205     1.0000 0.75105  0.08836  0.55141  Biso   1.000  H
  H206     1.0000 0.48466  0.69910  0.18709  Biso   1.000  H
  H207     1.0000 0.15048  0.43411  0.77754  Biso   1.000  H
  H208     1.0000 0.24682  0.09065  0.06546  Biso   1.000  H
  H209     1.0000 0.00556  0.68628  0.40670  Biso   1.000  H
  H210     1.0000 0.65383  0.47707  0.81949  Biso   1.000  H
  H211     1.0000 0.77013  0.58278  0.53264  Biso   1.000  H
  H212     1.0000 0.04475  0.18248  0.18674  Biso   1.000  H
  H213     1.0000 0.35885  0.95615  0.78049  Biso   1.000  H
  H214     1.0000 0.27932  0.59214  0.07773  Biso   1.000  H
  H215     1.0000 0.50999  0.19560  0.42236  Biso   1.000  H
  H216     1.0000 0.86242  0.96348  0.81903  Biso   1.000  H
  H217     1.0000 0.24331  0.45915  0.40847  Biso   1.000  H
  H218     1.0000 0.38770  0.19253  0.53553  Biso   1.000  H
  H219     1.0000 0.52038  0.33208  0.29362  Biso   1.000  H
  H220     1.0000 0.74549  0.48706  0.19363  Biso   1.000  H
  H221     1.0000 0.88127  0.19023  0.06067  Biso   1.000  H
  H222     1.0000 0.03161  0.31445  0.31901  Biso   1.000  H
  H223     1.0000 0.27873  0.96291  0.40798  Biso   1.000  H
  H224     1.0000 0.13966  0.68918  0.54126  Biso   1.000  H
  H225     1.0000 0.03108  0.81895  0.28457  Biso   1.000  H
  H226     1.0000 0.77756  0.95703  0.18987  Biso   1.000  H
  H227     1.0000 0.63960  0.69269  0.02825  Biso   1.000  H
  H228     1.0000 0.48723  0.82863  0.31987  Biso   1.000  H
  H229     1.0000 0.77906  0.45927  0.68909  Biso   1.000  H
  H230     1.0000 0.64022  0.72022  0.52999  Biso   1.000  H
  H231     1.0000 0.49558  0.59253  0.81794  Biso   1.000  H
  H232     1.0000 0.28141  0.45356  0.91059  Biso   1.000  H
  H233     1.0000 0.13671  0.72306  0.05937  Biso   1.000  H
  H234     1.0000 0.03368  0.59393  0.77772  Biso   1.000  H
  H235     1.0000 0.73553  0.93929  0.69095  Biso   1.000  H
  H236     1.0000 0.88776  0.21257  0.55850  Biso   1.000  H
  H237     1.0000 0.00821  0.09736  0.81406  Biso   1.000  H
  H238     1.0000 0.23925  0.96057  0.90859  Biso   1.000  H
  H239     1.0000 0.38641  0.22407  0.08543  Biso   1.000  H
  H240     1.0000 0.51546  0.09342  0.78633  Biso   1.000  H
  H241     1.0000 0.73903  0.47993  0.90172  Biso   1.000  H
  H242     1.0000 0.85375  0.67553  0.53450  Biso   1.000  H
  H243     1.0000 0.50615  0.80534  0.78110  Biso   1.000  H
  H244     1.0000 0.23301  0.47194  0.69783  Biso   1.000  H
  H245     1.0000 0.35631  0.68780  0.05434  Biso   1.000  H
  H246     1.0000 0.02026  0.80688  0.82689  Biso   1.000  H
  H247     1.0000 0.77774  0.96771  0.90767  Biso   1.000  H
  H248     1.0000 0.67755  0.17736  0.57910  Biso   1.000  H
  H249     1.0000 0.98917  0.30598  0.77085  Biso   1.000  H
  H250     1.0000 0.28180  0.98217  0.68888  Biso   1.000  H
  H251     1.0000 0.17134  0.18093  0.06267  Biso   1.000  H
  H252     1.0000 0.53668  0.31173  0.82765  Biso   1.000  H
  H253     1.0000 0.28809  0.44645  0.20135  Biso   1.000  H
  H254     1.0000 0.17335  0.23071  0.54781  Biso   1.000  H
  H255     1.0000 0.51008  0.11883  0.32909  Biso   1.000  H
  H256     1.0000 0.79234  0.43906  0.39794  Biso   1.000  H
  H257     1.0000 0.67038  0.23394  0.06730  Biso   1.000  H
  H258     1.0000 0.01661  0.10623  0.27920  Biso   1.000  H
  H259     1.0000 0.23687  0.95413  0.19436  Biso   1.000  H
  H260     1.0000 0.35236  0.73343  0.53855  Biso   1.000  H
  H261     1.0000 0.02414  0.60000  0.32144  Biso   1.000  H
  H262     1.0000 0.74128  0.96265  0.40356  Biso   1.000  H
  H263     1.0000 0.84823  0.73104  0.04676  Biso   1.000  H
  H264     1.0000 0.50285  0.61915  0.27971  Biso   1.000  H
  H265     1.0000 0.01803  0.18119  0.90127  Biso   1.000  H
  H266     1.0000 0.86026  0.95061  0.27690  Biso   1.000  H
  H267     1.0000 0.22650  0.80396  0.05418  Biso   1.000  H
  H268     1.0000 0.54146  0.17899  0.70224  Biso   1.000  H
  H269     1.0000 0.36479  0.96115  0.32383  Biso   1.000  H
  H270     1.0000 0.73391  0.79801  0.54596  Biso   1.000  H
  H271     1.0000 0.49049  0.67713  0.90078  Biso   1.000  H
  H272     1.0000 0.66421  0.49064  0.27851  Biso   1.000  H
  H273     1.0000 0.29435  0.30257  0.04676  Biso   1.000  H
  H274     1.0000 0.00796  0.68268  0.70021  Biso   1.000  H
  H275     1.0000 0.16190  0.43174  0.32100  Biso   1.000  H
  H276     1.0000 0.79822  0.29306  0.54978  Biso   1.000  H
  H277     1.0000 0.01611  0.72835  0.19900  Biso   1.000  H
  H278     1.0000 0.14885  0.98023  0.82325  Biso   1.000  H
  H279     1.0000 0.79135  0.11351  0.04768  Biso   1.000  H
  H280     1.0000 0.47963  0.74004  0.39913  Biso   1.000  H
  H281     1.0000 0.64932  0.94049  0.77617  Biso   1.000  H
  H282     1.0000 0.29515  0.11383  0.56885  Biso   1.000  H
  H283     1.0000 0.52469  0.24083  0.21392  Biso   1.000  H
  H284     1.0000 0.36787  0.44663  0.82131  Biso   1.000  H
  H285     1.0000 0.72865  0.61605  0.01993  Biso   1.000  H
  H286     1.0000 0.04839  0.22842  0.39733  Biso   1.000  H
  H287     1.0000 0.86734  0.47723  0.77423  Biso   1.000  H
  H288     1.0000 0.22824  0.60811  0.55298  Biso   1.000  H
  H289     1.0000 0.11431  0.18377  0.05899  Biso   1.000  H
  H290     1.0000 0.00051  0.05451  0.28139  Biso   1.000  H
  H291     1.0000 0.23391  0.95171  0.14161  Biso   1.000  H
  H292     1.0000 0.62033  0.18028  0.58122  Biso   1.000  H
  H293     1.0000 0.50830  0.06386  0.32518  Biso   1.000  H
  H294     1.0000 0.74283  0.95836  0.45764  Biso   1.000  H
  H295     1.0000 0.41108  0.68886  0.04732  Biso   1.000  H
  H296     1.0000 0.51862  0.56524  0.27963  Biso   1.000  H
  H297     1.0000 0.28616  0.44746  0.14531  Biso   1.000  H
  H298     1.0000 0.90549  0.67780  0.54370  Biso   1.000  H
  H299     1.0000 0.02711  0.54104  0.32613  Biso   1.000  H
  H300     1.0000 0.78925  0.42517  0.44792  Biso   1.000  H
  H301     1.0000 0.90210  0.72967  0.05207  Biso   1.000  H
  H302     1.0000 0.01441  0.85946  0.82756  Biso   1.000  H
  H303     1.0000 0.78002  0.96748  0.96223  Biso   1.000  H
  H304     1.0000 0.40955  0.73567  0.53895  Biso   1.000  H
  H305     1.0000 0.50739  0.85727  0.78052  Biso   1.000  H
  H306     1.0000 0.28197  0.97697  0.63475  Biso   1.000  H
  H307     1.0000 0.61836  0.23369  0.06612  Biso   1.000  H
  H308     1.0000 0.53455  0.36207  0.83118  Biso   1.000  H
  H309     1.0000 0.74024  0.48123  0.95573  Biso   1.000  H
  H310     1.0000 0.12171  0.22765  0.54897  Biso   1.000  H
  H311     1.0000 0.98720  0.35885  0.76855  Biso   1.000  H
  H312     1.0000 0.23230  0.47431  0.64303  Biso   1.000  H
  H313     1.0000 0.23816  0.95072  0.95918  Biso   1.000  H
  H314     1.0000 0.93856  0.18874  0.05909  Biso   1.000  H
  H315     1.0000 0.02603  0.87041  0.28280  Biso   1.000  H
  H316     1.0000 0.73069  0.93139  0.63488  Biso   1.000  H
  H317     1.0000 0.44323  0.18730  0.53241  Biso   1.000  H
  H318     1.0000 0.49701  0.88527  0.32276  Biso   1.000  H
  H319     1.0000 0.28737  0.46109  0.96318  Biso   1.000  H
  H320     1.0000 0.58448  0.68811  0.03192  Biso   1.000  H
  H321     1.0000 0.52109  0.38256  0.29068  Biso   1.000  H
  H322     1.0000 0.77979  0.45291  0.63513  Biso   1.000  H
  H323     1.0000 0.08453  0.68425  0.54246  Biso   1.000  H
  H324     1.0000 0.01481  0.36915  0.32305  Biso   1.000  H
  H325     1.0000 0.77850  0.96154  0.13738  Biso   1.000  H
  H326     1.0000 0.08163  0.72682  0.05789  Biso   1.000  H
  H327     1.0000 0.00751  0.04141  0.81515  Biso   1.000  H
  H328     1.0000 0.28026  0.96644  0.46085  Biso   1.000  H
  H329     1.0000 0.58626  0.72465  0.53491  Biso   1.000  H
  H330     1.0000 0.50848  0.03933  0.78303  Biso   1.000  H
  H331     1.0000 0.74291  0.48438  0.13810  Biso   1.000  H
  H332     1.0000 0.43627  0.23396  0.09235  Biso   1.000  H
  H333     1.0000 0.49898  0.53678  0.81835  Biso   1.000  H
  H334     1.0000 0.24159  0.46385  0.46028  Biso   1.000  H
  H335     1.0000 0.94032  0.21543  0.55562  Biso   1.000  H
  H336     1.0000 0.03637  0.54092  0.77472  Biso   1.000  H
  H337     1.0000 0.01993  0.18235  0.95417  Biso   1.000  H
  H338     1.0000 0.91506  0.95800  0.28049  Biso   1.000  H
  H339     1.0000 0.22834  0.85690  0.05973  Biso   1.000  H
  H340     1.0000 0.53622  0.18302  0.65086  Biso   1.000  H
  H341     1.0000 0.41895  0.97381  0.32217  Biso   1.000  H
  H342     1.0000 0.73661  0.85020  0.55609  Biso   1.000  H
  H343     1.0000 0.49078  0.67857  0.95749  Biso   1.000  H
  H344     1.0000 0.60858  0.47968  0.27928  Biso   1.000  H
  H345     1.0000 0.29233  0.35634  0.04158  Biso   1.000  H
  H346     1.0000 0.00245  0.68547  0.64763  Biso   1.000  H
  H347     1.0000 0.10581  0.44380  0.32173  Biso   1.000  H
  H348     1.0000 0.79492  0.35069  0.55546  Biso   1.000  H
  H349     1.0000 0.00699  0.73055  0.14533  Biso   1.000  H
  H350     1.0000 0.09588  0.97515  0.82533  Biso   1.000  H
  H351     1.0000 0.78697  0.06015  0.04736  Biso   1.000  H
  H352     1.0000 0.48562  0.73378  0.45122  Biso   1.000  H
  H353     1.0000 0.59398  0.94451  0.77465  Biso   1.000  H
  H354     1.0000 0.29396  0.05938  0.57161  Biso   1.000  H
  H355     1.0000 0.53501  0.23877  0.16225  Biso   1.000  H
  H356     1.0000 0.42112  0.43585  0.82320  Biso   1.000  H
  H357     1.0000 0.73435  0.55948  0.02071  Biso   1.000  H
  H358     1.0000 0.04313  0.22086  0.45124  Biso   1.000  H
  H359     1.0000 0.92138  0.47732  0.77372  Biso   1.000  H
  H360     1.0000 0.22980  0.55329  0.55893  Biso   1.000  H
  H361     1.0000 0.99613  0.68290  0.46052  Biso   1.000  H
  H362     1.0000 0.41234  0.95309  0.78511  Biso   1.000  H
  H363     1.0000 0.74885  0.37812  0.05516  Biso   1.000  H
  H364     1.0000 0.48336  0.69169  0.13208  Biso   1.000  H
  H365     1.0000 0.91718  0.95600  0.81808  Biso   1.000  H
  H366     1.0000 0.24697  0.37722  0.55604  Biso   1.000  H
  H367     1.0000 0.51591  0.18777  0.47521  Biso   1.000  H
  H368     1.0000 0.09429  0.43026  0.77510  Biso   1.000  H
  H369     1.0000 0.77336  0.87624  0.04580  Biso   1.000  H
  H370     1.0000 0.03161  0.18166  0.13123  Biso   1.000  H
  H371     1.0000 0.59473  0.47675  0.82246  Biso   1.000  H
  H372     1.0000 0.27728  0.87899  0.54807  Biso   1.000  H
  H373     1.0000 0.02444  0.21879  0.63538  Biso   1.000  H
  H374     1.0000 0.59853  0.96558  0.32361  Biso   1.000  H
  H375     1.0000 0.28186  0.53985  0.07130  Biso   1.000  H
  H376     1.0000 0.53513  0.22281  0.97042  Biso   1.000  H
  H377     1.0000 0.10158  0.97311  0.28184  Biso   1.000  H
  H378     1.0000 0.77578  0.52834  0.53829  Biso   1.000  H
  H379     1.0000 0.50213  0.71982  0.63476  Biso   1.000  H
  H380     1.0000 0.92805  0.48289  0.32464  Biso   1.000  H
  H381     1.0000 0.24231  0.03677  0.05698  Biso   1.000  H
  H382     1.0000 0.99920  0.72378  0.96707  Biso   1.000  H
  H383     1.0000 0.42708  0.46575  0.28278  Biso   1.000  H
  H384     1.0000 0.74250  0.03228  0.54375  Biso   1.000  H
  H385     1.0000 0.24643  0.42337  0.38423  Biso   1.000  H
  H386     1.0000 0.29572  0.13594  0.53542  Biso   1.000  H
  H387     1.0000 0.49056  0.24885  0.23955  Biso   1.000  H
  H388     1.0000 0.69012  0.44849  0.27320  Biso   1.000  H
  H389     1.0000 0.80012  0.13818  0.08239  Biso   1.000  H
  H390     1.0000 0.01094  0.22817  0.36972  Biso   1.000  H
  H391     1.0000 0.29011  0.92615  0.37702  Biso   1.000  H
  H392     1.0000 0.22573  0.63106  0.52016  Biso   1.000  H
  H393     1.0000 0.99898  0.78692  0.28219  Biso   1.000  H
  H394     1.0000 0.78077  0.92194  0.22150  Biso   1.000  H
  H395     1.0000 0.71889  0.64371  0.06043  Biso   1.000  H
  H396     1.0000 0.52060  0.74538  0.37085  Biso   1.000  H
  H397     1.0000 0.78199  0.49791  0.71644  Biso   1.000  H
  H398     1.0000 0.67173  0.71142  0.55777  Biso   1.000  H
  H399     1.0000 0.53693  0.62722  0.82980  Biso   1.000  H
  H400     1.0000 0.29149  0.48388  0.87442  Biso   1.000  H
  H401     1.0000 0.22124  0.77790  0.08943  Biso   1.000  H
  H402     1.0000 0.04317  0.68251  0.72830  Biso   1.000  H
  H403     1.0000 0.73209  0.90916  0.72306  Biso   1.000  H
  H404     1.0000 0.80878  0.26917  0.59203  Biso   1.000  H
  H405     1.0000 0.98713  0.18182  0.87389  Biso   1.000  H
  H406     1.0000 0.23227  0.99802  0.87733  Biso   1.000  H
  H407     1.0000 0.29427  0.27723  0.08270  Biso   1.000  H
  H408     1.0000 0.49201  0.13029  0.78149  Biso   1.000  H
  H409     1.0000 0.34035  0.41013  0.27525  Biso   1.000  H
  H410     1.0000 0.25385  0.28757  0.59235  Biso   1.000  H
  H411     1.0000 0.47301  0.15418  0.33339  Biso   1.000  H
  H412     1.0000 0.78934  0.47603  0.38017  Biso   1.000  H
  H413     1.0000 0.70265  0.24471  0.09860  Biso   1.000  H
  H414     1.0000 0.05569  0.12946  0.27484  Biso   1.000  H
  H415     1.0000 0.17946  0.93372  0.27468  Biso   1.000  H
  H416     1.0000 0.27906  0.78713  0.57078  Biso   1.000  H
  H417     1.0000 0.98399  0.67697  0.37120  Biso   1.000  H
  H418     1.0000 0.68379  0.98186  0.31760  Biso   1.000  H
  H419     1.0000 0.82396  0.73737  0.00720  Biso   1.000  H
  H420     1.0000 0.46302  0.64288  0.27073  Biso   1.000  H
  H421     1.0000 0.67841  0.44958  0.81528  Biso   1.000  H
  H422     1.0000 0.77167  0.61549  0.50333  Biso   1.000  H
  H423     1.0000 0.47039  0.77391  0.77105  Biso   1.000  H
  H424     1.0000 0.17789  0.48060  0.78132  Biso   1.000  H
  H425     1.0000 0.27100  0.62019  0.04854  Biso   1.000  H
  H426     1.0000 0.05246  0.77480  0.84146  Biso   1.000  H
  H427     1.0000 0.78260  0.99030  0.86908  Biso   1.000  H
  H428     1.0000 0.75775  0.11288  0.59300  Biso   1.000  H
  H429     1.0000 0.02608  0.27865  0.77235  Biso   1.000  H
  H430     1.0000 0.33834  0.99284  0.77773  Biso   1.000  H
  H431     1.0000 0.24363  0.12737  0.02910  Biso   1.000  H
  H432     1.0000 0.51001  0.22164  0.88734  Biso   1.000  H
  H433     1.0000 0.27483  0.94831  0.71898  Biso   1.000  H
  H434     1.0000 0.74659  0.29455  0.03210  Biso   1.000  H
  H435     1.0000 0.05321  0.63127  0.32730  Biso   1.000  H
  H436     1.0000 0.83420  0.92391  0.82726  Biso   1.000  H
  H437     1.0000 0.20580  0.24648  0.51820  Biso   1.000  H
  H438     1.0000 0.51468  0.70324  0.21565  Biso   1.000  H
  H439     1.0000 0.23246  0.42753  0.72145  Biso   1.000  H
  H440     1.0000 0.76950  0.79380  0.06284  Biso   1.000  H
  H441     1.0000 0.54628  0.18962  0.39161  Biso   1.000  H
  H442     1.0000 0.73482  0.50391  0.87164  Biso   1.000  H
  H443     1.0000 0.31947  0.73962  0.49821  Biso   1.000  H
  H444     1.0000 0.00578  0.18865  0.21882  Biso   1.000  H
  H445     1.0000 0.73161  0.92788  0.38234  Biso   1.000  H
  H446     1.0000 0.33009  0.68888  0.08658  Biso   1.000  H
  H447     1.0000 0.97932  0.21979  0.71133  Biso   1.000  H
  H448     1.0000 0.23933  0.98799  0.22282  Biso   1.000  H
  H449     1.0000 0.82472  0.67074  0.56274  Biso   1.000  H
  H450     1.0000 0.56482  0.27582  0.83522  Biso   1.000  H
  H451     1.0000 0.85212  0.44030  0.31521  Biso   1.000  H
  H452     1.0000 0.20122  0.17604  0.10042  Biso   1.000  H
  H453     1.0000 0.53412  0.71979  0.72589  Biso   1.000  H
  H454     1.0000 0.29370  0.48455  0.23368  Biso   1.000  H
  H455     1.0000 0.70292  0.17088  0.54215  Biso   1.000  H
  H456     1.0000 0.97571  0.72847  0.87925  Biso   1.000  H
  H457     1.0000 0.73126  0.77472  0.51095  Biso   1.000  H
  H458     1.0000 0.45728  0.66745  0.86797  Biso   1.000  H
  H459     1.0000 0.83536  0.43743  0.77380  Biso   1.000  H
  H460     1.0000 0.16815  0.71959  0.03200  Biso   1.000  H
  H461     1.0000 0.99600  0.62149  0.77980  Biso   1.000  H
  H462     1.0000 0.33396  0.41890  0.82497  Biso   1.000  H
  H463     1.0000 0.85137  0.21736  0.52131  Biso   1.000  H
  H464     1.0000 0.03858  0.12542  0.81563  Biso   1.000  H
  H465     1.0000 0.67883  0.97510  0.76825  Biso   1.000  H
  H466     1.0000 0.36072  0.21663  0.05107  Biso   1.000  H
  H467     1.0000 0.57253  0.16436  0.74054  Biso   1.000  H
  H468     1.0000 0.18000  0.94201  0.82039  Biso   1.000  H
  H469     1.0000 0.36151  0.19682  0.57372  Biso   1.000  H
  H470     1.0000 0.55151  0.30325  0.29091  Biso   1.000  H
  H471     1.0000 0.18929  0.46723  0.32255  Biso   1.000  H
  H472     1.0000 0.84942  0.19526  0.02236  Biso   1.000  H
  H473     1.0000 0.06313  0.28802  0.31522  Biso   1.000  H
  H474     1.0000 0.74457  0.51430  0.22854  Biso   1.000  H
  H475     1.0000 0.17109  0.68969  0.57430  Biso   1.000  H
  H476     1.0000 0.05513  0.73494  0.22456  Biso   1.000  H
  H477     1.0000 0.33406  0.99369  0.32082  Biso   1.000  H
  H478     1.0000 0.66551  0.68951  0.99401  Biso   1.000  H
  H479     1.0000 0.45325  0.79954  0.32405  Biso   1.000  H
  H480     1.0000 0.83144  0.98498  0.27492  Biso   1.000  H
  N1       1.0000 0.70327  0.12242  0.56942  Biso   1.000  N
  N2       1.0000 0.49588  0.64734  0.22381  Biso   1.000  N
  N3       1.0000 0.18284  0.45398  0.72811  Biso   1.000  N
  N4       1.0000 0.19760  0.12716  0.06254  Biso   1.000  N
  N5       1.0000 0.01831  0.63159  0.37499  Biso   1.000  N
  N6       1.0000 0.68518  0.47319  0.86893  Biso   1.000  N
  N7       1.0000 0.82283  0.62018  0.53366  Biso   1.000  N
  N8       1.0000 0.02841  0.13423  0.22343  Biso   1.000  N
  N9       1.0000 0.33006  0.96906  0.72612  Biso   1.000  N
  N10      1.0000 0.32777  0.63287  0.06469  Biso   1.000  N
  N11      1.0000 0.50911  0.14476  0.38470  Biso   1.000  N
  N12      1.0000 0.83120  0.96227  0.87170  Biso   1.000  N
  N13      1.0000 0.32474  0.78678  0.53985  Biso   1.000  N
  N14      1.0000 0.53503  0.27429  0.88267  Biso   1.000  N
  N15      1.0000 0.84546  0.45516  0.37032  Biso   1.000  N
  N16      1.0000 0.81971  0.78843  0.03985  Biso   1.000  N
  N17      1.0000 0.00474  0.27256  0.71900  Biso   1.000  N
  N18      1.0000 0.34245  0.44983  0.23102  Biso   1.000  N
  N19      1.0000 0.20132  0.28737  0.55628  Biso   1.000  N
  N20      1.0000 0.01263  0.77555  0.88251  Biso   1.000  N
  N21      1.0000 0.68622  0.96002  0.37349  Biso   1.000  N
  N22      1.0000 0.70041  0.29081  0.06362  Biso   1.000  N
  N23      1.0000 0.50351  0.77033  0.72532  Biso   1.000  N
  N24      1.0000 0.18329  0.96411  0.22786  Biso   1.000  N
  N25      1.0000 0.83350  0.46575  0.72281  Biso   1.000  N
  N26      1.0000 0.67898  0.76939  0.53894  Biso   1.000  N
  N27      1.0000 0.49543  0.62338  0.87169  Biso   1.000  N
  N28      1.0000 0.33385  0.44578  0.87526  Biso   1.000  N
  N29      1.0000 0.17188  0.77301  0.05568  Biso   1.000  N
  N30      1.0000 0.01801  0.62949  0.72890  Biso   1.000  N
  N31      1.0000 0.68212  0.94007  0.72302  Biso   1.000  N
  N32      1.0000 0.85194  0.26594  0.55516  Biso   1.000  N
  N33      1.0000 0.01269  0.13016  0.86835  Biso   1.000  N
  N34      1.0000 0.18350  0.96526  0.87405  Biso   1.000  N
  N35      1.0000 0.34748  0.27335  0.06192  Biso   1.000  N
  N36      1.0000 0.52617  0.12519  0.73478  Biso   1.000  N
  N37      1.0000 0.19253  0.44074  0.37550  Biso   1.000  N
  N38      1.0000 0.35179  0.14256  0.55332  Biso   1.000  N
  N39      1.0000 0.52304  0.29610  0.24044  Biso   1.000  N
  N40      1.0000 0.69294  0.48507  0.22647  Biso   1.000  N
  N41      1.0000 0.84616  0.14137  0.05414  Biso   1.000  N
  N42      1.0000 0.03725  0.28115  0.36849  Biso   1.000  N
  N43      1.0000 0.33366  0.96274  0.37454  Biso   1.000  N
  N44      1.0000 0.17419  0.63609  0.54691  Biso   1.000  N
  N45      1.0000 0.02522  0.78444  0.23201  Biso   1.000  N
  N46      1.0000 0.83103  0.95576  0.22512  Biso   1.000  N
  N47      1.0000 0.67226  0.64145  0.02705  Biso   1.000  N
  N48      1.0000 0.49076  0.79583  0.37127  Biso   1.000  N
  O1       1.0000 0.35458  0.49744  0.05206  Biso   1.000  O
  O2       1.0000 0.02589  0.29179  0.58890  Biso   1.000  O
  O3       1.0000 0.55408  0.96731  0.39625  Biso   1.000  O
  O4       1.0000 0.85276  0.48685  0.54299  Biso   1.000  O
  O5       1.0000 0.52303  0.29770  0.01960  Biso   1.000  O
  O6       1.0000 0.04797  0.96036  0.21146  Biso   1.000  O
  O7       1.0000 0.16574  0.99559  0.05455  Biso   1.000  O
  O8       1.0000 0.50146  0.79718  0.58778  Biso   1.000  O
  O9       1.0000 0.97763  0.46647  0.39533  Biso   1.000  O
  O10      1.0000 0.66927  0.98991  0.55067  Biso   1.000  O
  O11      1.0000 0.99005  0.79857  0.01540  Biso   1.000  O
  O12      1.0000 0.47709  0.47209  0.21219  Biso   1.000  O
  O13      1.0000 0.67219  0.42438  0.05197  Biso   1.000  O
  O14      1.0000 0.00285  0.60897  0.50802  Biso   1.000  O
  O15      1.0000 0.46025  0.94531  0.71146  Biso   1.000  O
  O16      1.0000 0.17014  0.41806  0.55041  Biso   1.000  O
  O17      1.0000 0.50040  0.61818  0.09186  Biso   1.000  O
  O18      1.0000 0.96444  0.94950  0.89071  Biso   1.000  O
  O19      1.0000 0.85177  0.92040  0.05109  Biso   1.000  O
  O20      1.0000 0.52928  0.11432  0.51733  Biso   1.000  O
  O21      1.0000 0.05214  0.44706  0.70204  Biso   1.000  O
  O22      1.0000 0.35019  0.92214  0.54927  Biso   1.000  O
  O23      1.0000 0.02179  0.11223  0.08621  Biso   1.000  O
  O24      1.0000 0.55239  0.45465  0.89207  Biso   1.000  O
  O25      1.0000 0.96444  0.95606  0.20809  Biso   1.000  O
  O26      1.0000 0.15734  0.90923  0.05170  Biso   1.000  O
  O27      1.0000 0.02157  0.10924  0.00379  Biso   1.000  O
  O28      1.0000 0.46897  0.97160  0.39294  Biso   1.000  O
  O29      1.0000 0.66459  0.90342  0.54318  Biso   1.000  O
  O30      1.0000 0.52785  0.11016  0.59997  Biso   1.000  O
  O31      1.0000 0.55873  0.47499  0.20939  Biso   1.000  O
  O32      1.0000 0.36287  0.41117  0.05350  Biso   1.000  O
  O33      1.0000 0.50149  0.61297  0.01004  Biso   1.000  O
  O34      1.0000 0.06034  0.44720  0.39494  Biso   1.000  O
  O35      1.0000 0.86265  0.40301  0.54746  Biso   1.000  O
  O36      1.0000 0.99682  0.61118  0.59359  Biso   1.000  O
  O37      1.0000 0.05027  0.95581  0.89406  Biso   1.000  O
  O38      1.0000 0.85466  0.00430  0.04282  Biso   1.000  O
  O39      1.0000 0.00239  0.80203  0.09754  Biso   1.000  O
  O40      1.0000 0.54555  0.94947  0.70421  Biso   1.000  O
  O41      1.0000 0.36009  0.00627  0.54925  Biso   1.000  O
  O42      1.0000 0.50141  0.80078  0.50563  Biso   1.000  O
  O43      1.0000 0.47031  0.44139  0.89553  Biso   1.000  O
  O44      1.0000 0.66609  0.50831  0.04204  Biso   1.000  O
  O45      1.0000 0.52771  0.30411  0.10218  Biso   1.000  O
  O46      1.0000 0.96592  0.45573  0.70035  Biso   1.000  O
  O47      1.0000 0.16139  0.50219  0.54680  Biso   1.000  O
  O48      1.0000 0.02717  0.29306  0.50513  Biso   1.000  O
  O49      1.0000 0.01178  0.91899  0.21323  Biso   1.000  O
  O50      1.0000 0.16445  0.95150  0.00890  Biso   1.000  O
  O51      1.0000 0.97976  0.11738  0.04404  Biso   1.000  O
  O52      1.0000 0.50958  0.92689  0.39572  Biso   1.000  O
  O53      1.0000 0.66021  0.94035  0.58701  Biso   1.000  O
  O54      1.0000 0.48541  0.11402  0.55445  Biso   1.000  O
  O55      1.0000 0.51864  0.43010  0.21299  Biso   1.000  O
  O56      1.0000 0.35996  0.45146  0.00998  Biso   1.000  O
  O57      1.0000 0.54223  0.61535  0.04858  Biso   1.000  O
  O58      1.0000 0.00875  0.41511  0.39742  Biso   1.000  O
  O59      1.0000 0.85221  0.45188  0.58753  Biso   1.000  O
  O60      1.0000 0.04047  0.61052  0.55629  Biso   1.000  O
  O61      1.0000 0.00734  0.99558  0.88884  Biso   1.000  O
  O62      1.0000 0.85088  0.96405  0.08948  Biso   1.000  O
  O63      1.0000 0.03532  0.80010  0.05248  Biso   1.000  O
  O64      1.0000 0.50403  0.99287  0.70912  Biso   1.000  O
  O65      1.0000 0.35558  0.96447  0.50968  Biso   1.000  O
  O66      1.0000 0.54525  0.79782  0.54907  Biso   1.000  O
  O67      1.0000 0.50243  0.49031  0.89149  Biso   1.000  O
  O68      1.0000 0.66995  0.47377  0.09001  Biso   1.000  O
  O69      1.0000 0.48134  0.30084  0.06059  Biso   1.000  O
  O70      1.0000 0.01614  0.49354  0.70559  Biso   1.000  O
  O71      1.0000 0.16908  0.45984  0.50787  Biso   1.000  O
  O72      1.0000 0.98365  0.28924  0.54252  Biso   1.000  O
  O73      1.0000 0.00770  0.40743  0.69646  Biso   1.000  O
  O74      1.0000 0.66758  0.95404  0.50524  Biso   1.000  O
  O75      1.0000 0.45846  0.61576  0.04911  Biso   1.000  O
  O76      1.0000 0.51971  0.41002  0.90126  Biso   1.000  O
  O77      1.0000 0.16263  0.95644  0.09172  Biso   1.000  O
  O78      1.0000 0.95817  0.60826  0.54780  Biso   1.000  O
  O79      1.0000 0.50611  0.90810  0.70809  Biso   1.000  O
  O80      1.0000 0.85810  0.43929  0.50438  Biso   1.000  O
  O81      1.0000 0.06246  0.11415  0.04970  Biso   1.000  O
  O82      1.0000 0.00562  0.91185  0.89583  Biso   1.000  O
  O83      1.0000 0.35740  0.45360  0.09596  Biso   1.000  O
  O84      1.0000 0.56938  0.11231  0.55963  Biso   1.000  O
  O85      1.0000 0.02894  0.49513  0.39779  Biso   1.000  O
  O86      1.0000 0.35666  0.96198  0.59248  Biso   1.000  O
  O87      1.0000 0.56550  0.30253  0.06040  Biso   1.000  O
  O88      1.0000 0.51572  0.51610  0.20721  Biso   1.000  O
  O89      1.0000 0.85634  0.95914  0.00720  Biso   1.000  O
  O90      1.0000 0.06801  0.29816  0.54478  Biso   1.000  O
  O91      1.0000 0.51399  0.00957  0.39417  Biso   1.000  O
  O92      1.0000 0.16430  0.46341  0.59165  Biso   1.000  O
  O93      1.0000 0.95257  0.80269  0.06113  Biso   1.000  O
  O94      1.0000 0.00063  0.00059  0.21019  Biso   1.000  O
  O95      1.0000 0.66949  0.46112  0.00522  Biso   1.000  O
  O96      1.0000 0.46092  0.80305  0.54712  Biso   1.000  O
  O97      1.0000 0.49007  0.16215  0.55291  Biso   1.000  O
  O98      1.0000 0.51715  0.43298  0.26105  Biso   1.000  O
  O99      1.0000 0.21717  0.46293  0.50986  Biso   1.000  O
  O100     1.0000 0.98155  0.16532  0.04735  Biso   1.000  O
  O101     1.0000 0.00773  0.41538  0.34877  Biso   1.000  O
  O102     1.0000 0.71902  0.48053  0.08905  Biso   1.000  O
  O103     1.0000 0.03864  0.66038  0.55283  Biso   1.000  O
  O104     1.0000 0.01651  0.91985  0.26113  Biso   1.000  O
  O105     1.0000 0.30751  0.96730  0.50802  Biso   1.000  O
  O106     1.0000 0.54028  0.66197  0.03895  Biso   1.000  O
  O107     1.0000 0.50407  0.92830  0.34747  Biso   1.000  O
  O108     1.0000 0.80131  0.96644  0.08806  Biso   1.000  O
  O109     1.0000 0.53891  0.74960  0.54424  Biso   1.000  O
  O110     1.0000 0.50255  0.49060  0.84330  Biso   1.000  O
  O111     1.0000 0.80487  0.44343  0.58552  Biso   1.000  O
  O112     1.0000 0.03394  0.75082  0.05503  Biso   1.000  O
  O113     1.0000 0.01475  0.49390  0.75420  Biso   1.000  O
  O114     1.0000 0.30970  0.45203  0.01294  Biso   1.000  O
  O115     1.0000 0.98697  0.24070  0.54185  Biso   1.000  O
  O116     1.0000 0.00358  0.99220  0.84061  Biso   1.000  O
  O117     1.0000 0.70936  0.93939  0.58930  Biso   1.000  O
  O118     1.0000 0.48220  0.25219  0.06847  Biso   1.000  O
  O119     1.0000 0.51074  0.99128  0.75699  Biso   1.000  O
  O120     1.0000 0.21167  0.94591  0.01062  Biso   1.000  O
  O121     1.0000 0.05052  0.44821  0.75103  Biso   1.000  O
  O122     1.0000 0.71757  0.98847  0.55284  Biso   1.000  O
  O123     1.0000 0.50276  0.66705  0.08536  Biso   1.000  O
  O124     1.0000 0.54995  0.45765  0.84337  Biso   1.000  O
  O125     1.0000 0.21430  0.99113  0.05323  Biso   1.000  O
  O126     1.0000 0.00029  0.65884  0.50846  Biso   1.000  O
  O127     1.0000 0.46436  0.95549  0.75899  Biso   1.000  O
  O128     1.0000 0.80467  0.48005  0.54066  Biso   1.000  O
  O129     1.0000 0.01959  0.15982  0.08546  Biso   1.000  O
  O130     1.0000 0.96345  0.95092  0.84368  Biso   1.000  O
  O131     1.0000 0.30856  0.49206  0.05500  Biso   1.000  O
  O132     1.0000 0.53347  0.16397  0.51806  Biso   1.000  O
  O133     1.0000 0.97979  0.46599  0.34699  Biso   1.000  O
  O134     1.0000 0.30035  0.92317  0.54619  Biso   1.000  O
  O135     1.0000 0.52173  0.24935  0.01979  Biso   1.000  O
  O136     1.0000 0.47607  0.47693  0.25982  Biso   1.000  O
  O137     1.0000 0.80241  0.92223  0.04556  Biso   1.000  O
  O138     1.0000 0.02483  0.24346  0.58813  Biso   1.000  O
  O139     1.0000 0.55083  0.96787  0.34760  Biso   1.000  O
  O140     1.0000 0.21829  0.42189  0.55566  Biso   1.000  O
  O141     1.0000 0.99455  0.74888  0.01602  Biso   1.000  O
  O142     1.0000 0.05025  0.96638  0.25971  Biso   1.000  O
  O143     1.0000 0.72049  0.42922  0.05640  Biso   1.000  O
  O144     1.0000 0.49692  0.74898  0.58642  Biso   1.000  O
  O145     1.0000 0.56022  0.47963  0.25808  Biso   1.000  O
  O146     1.0000 0.21005  0.50696  0.55170  Biso   1.000  O
  O147     1.0000 0.52962  0.16079  0.60261  Biso   1.000  O
  O148     1.0000 0.05840  0.44152  0.34630  Biso   1.000  O
  O149     1.0000 0.71402  0.51260  0.04280  Biso   1.000  O
  O150     1.0000 0.02276  0.15771  0.00334  Biso   1.000  O
  O151     1.0000 0.96570  0.95230  0.25616  Biso   1.000  O
  O152     1.0000 0.31097  0.00950  0.55189  Biso   1.000  O
  O153     1.0000 0.99607  0.65918  0.59472  Biso   1.000  O
  O154     1.0000 0.46753  0.97359  0.34534  Biso   1.000  O
  O155     1.0000 0.80432  0.00581  0.04702  Biso   1.000  O
  O156     1.0000 0.49778  0.65967  0.00231  Biso   1.000  O
  O157     1.0000 0.46904  0.43805  0.84779  Biso   1.000  O
  O158     1.0000 0.81316  0.39865  0.54665  Biso   1.000  O
  O159     1.0000 0.49374  0.75091  0.50274  Biso   1.000  O
  O160     1.0000 0.96991  0.45953  0.74888  Biso   1.000  O
  O161     1.0000 0.31345  0.40504  0.05058  Biso   1.000  O
  O162     1.0000 0.99562  0.75420  0.09795  Biso   1.000  O
  O163     1.0000 0.04972  0.94800  0.84586  Biso   1.000  O
  O164     1.0000 0.71429  0.90432  0.54357  Biso   1.000  O
  O165     1.0000 0.03241  0.24461  0.50296  Biso   1.000  O
  O166     1.0000 0.54688  0.94568  0.75347  Biso   1.000  O
  O167     1.0000 0.20516  0.90741  0.05709  Biso   1.000  O
  O168     1.0000 0.53003  0.25573  0.10729  Biso   1.000  O
  O169     1.0000 0.00145  0.00134  0.25912  Biso   1.000  O
  O170     1.0000 0.21140  0.94984  0.09548  Biso   1.000  O
  O171     1.0000 0.06289  0.16244  0.04673  Biso   1.000  O
  O172     1.0000 0.51376  0.01076  0.34583  Biso   1.000  O
  O173     1.0000 0.71566  0.94986  0.50678  Biso   1.000  O
  O174     1.0000 0.57197  0.15998  0.56343  Biso   1.000  O
  O175     1.0000 0.51348  0.51673  0.25702  Biso   1.000  O
  O176     1.0000 0.30995  0.44544  0.09542  Biso   1.000  O
  O177     1.0000 0.45841  0.66592  0.04821  Biso   1.000  O
  O178     1.0000 0.03123  0.49560  0.34696  Biso   1.000  O
  O179     1.0000 0.81107  0.43851  0.50035  Biso   1.000  O
  O180     1.0000 0.95558  0.65686  0.54756  Biso   1.000  O
  O181     1.0000 0.00451  0.90910  0.84815  Biso   1.000  O
  O182     1.0000 0.80769  0.96313  0.00771  Biso   1.000  O
  O183     1.0000 0.95025  0.75383  0.05625  Biso   1.000  O
  O184     1.0000 0.50066  0.90698  0.75710  Biso   1.000  O
  O185     1.0000 0.30800  0.95787  0.58878  Biso   1.000  O
  O186     1.0000 0.45572  0.75625  0.54471  Biso   1.000  O
  O187     1.0000 0.51498  0.40822  0.85202  Biso   1.000  O
  O188     1.0000 0.71744  0.46893  0.00621  Biso   1.000  O
  O189     1.0000 0.56643  0.25371  0.05862  Biso   1.000  O
  O190     1.0000 0.00441  0.40689  0.74564  Biso   1.000  O
  O191     1.0000 0.21218  0.46655  0.59493  Biso   1.000  O
  O192     1.0000 0.06902  0.25043  0.55280  Biso   1.000  O
