data_image0
_cell_length_a       46.8591
_cell_length_b       46.5841
_cell_length_c       46.5441
_cell_angle_alpha    90
_cell_angle_beta     90
_cell_angle_gamma    90

_symmetry_space_group_name_H-M    "P 1"
_symmetry_int_tables_number       1

loop_
  _symmetry_equiv_pos_as_xyz
  'x, y, z'

loop_
  _atom_site_label
  _atom_site_occupancy
  _atom_site_fract_x
  _atom_site_fract_y
  _atom_site_fract_z
  _atom_site_thermal_displace_type
  _atom_site_B_iso_or_equiv
  _atom_site_type_symbol
  C1       1.0000 0.56267  0.96588  0.33917  Biso   1.000  C
  C2       1.0000 0.33273  0.52393  0.01560  Biso   1.000  C
  C3       1.0000 0.00365  0.29197  0.58858  Biso   1.000  C
  C4       1.0000 0.06783  0.96253  0.19640  Biso   1.000  C
  C5       1.0000 0.82905  0.52925  0.52159  Biso   1.000  C
  C6       1.0000 0.50871  0.29302  0.94990  Biso   1.000  C
  C7       1.0000 0.95489  0.46034  0.34378  Biso   1.000  C
  C8       1.0000 0.19804  0.02392  0.00516  Biso   1.000  C
  C9       1.0000 0.50681  0.79251  0.58645  Biso   1.000  C
  C10      1.0000 0.45424  0.46377  0.20663  Biso   1.000  C
  C11      1.0000 0.69111  0.03050  0.51730  Biso   1.000  C
  C12      1.0000 0.00028  0.79503  0.95977  Biso   1.000  C
  C13      1.0000 0.45197  0.97571  0.70043  Biso   1.000  C
  C14      1.0000 0.68820  0.41509  0.01506  Biso   1.000  C
  C15      1.0000 0.01040  0.65084  0.45744  Biso   1.000  C
  C16      1.0000 0.95044  0.98764  0.84332  Biso   1.000  C
  C17      1.0000 0.18696  0.41549  0.51816  Biso   1.000  C
  C18      1.0000 0.50151  0.64446  0.08388  Biso   1.000  C
  C19      1.0000 0.06255  0.47426  0.70427  Biso   1.000  C
  C20      1.0000 0.82880  0.91711  0.01861  Biso   1.000  C
  C21      1.0000 0.50730  0.14934  0.44650  Biso   1.000  C
  C22      1.0000 0.56251  0.48004  0.83092  Biso   1.000  C
  C23      1.0000 0.33478  0.91700  0.52063  Biso   1.000  C
  C24      1.0000 0.02197  0.14498  0.08380  Biso   1.000  C
  C25      1.0000 0.33066  0.02421  0.50886  Biso   1.000  C
  C26      1.0000 0.52147  0.28947  0.05913  Biso   1.000  C
  C27      1.0000 0.06497  0.45288  0.34452  Biso   1.000  C
  C28      1.0000 0.82778  0.02538  0.03389  Biso   1.000  C
  C29      1.0000 0.00917  0.28538  0.48022  Biso   1.000  C
  C30      1.0000 0.56239  0.46113  0.20346  Biso   1.000  C
  C31      1.0000 0.19325  0.52280  0.52700  Biso   1.000  C
  C32      1.0000 0.02039  0.78281  0.06508  Biso   1.000  C
  C33      1.0000 0.45641  0.95410  0.33826  Biso   1.000  C
  C34      1.0000 0.69472  0.52207  0.02465  Biso   1.000  C
  C35      1.0000 0.51803  0.79055  0.47901  Biso   1.000  C
  C36      1.0000 0.95993  0.95327  0.20343  Biso   1.000  C
  C37      1.0000 0.69245  0.92055  0.52405  Biso   1.000  C
  C38      1.0000 0.51860  0.64596  0.97585  Biso   1.000  C
  C39      1.0000 0.95565  0.48106  0.70567  Biso   1.000  C
  C40      1.0000 0.19245  0.91182  0.01603  Biso   1.000  C
  C41      1.0000 0.01428  0.65652  0.56625  Biso   1.000  C
  C42      1.0000 0.45391  0.47210  0.83826  Biso   1.000  C
  C43      1.0000 0.82753  0.42111  0.51457  Biso   1.000  C
  C44      1.0000 0.00621  0.15288  0.97720  Biso   1.000  C
  C45      1.0000 0.56119  0.98569  0.69613  Biso   1.000  C
  C46      1.0000 0.33030  0.41453  0.02773  Biso   1.000  C
  C47      1.0000 0.50356  0.15344  0.55488  Biso   1.000  C
  C48      1.0000 0.05732  0.98469  0.83648  Biso   1.000  C
  C49      1.0000 0.00681  0.03810  0.84470  Biso   1.000  C
  C50      1.0000 0.82981  0.96496  0.07979  Biso   1.000  C
  C51      1.0000 0.06393  0.78675  0.00362  Biso   1.000  C
  C52      1.0000 0.50638  0.03264  0.69132  Biso   1.000  C
  C53      1.0000 0.33128  0.96627  0.45944  Biso   1.000  C
  C54      1.0000 0.56833  0.79412  0.54012  Biso   1.000  C
  C55      1.0000 0.50690  0.53073  0.83986  Biso   1.000  C
  C56      1.0000 0.68944  0.46818  0.07350  Biso   1.000  C
  C57      1.0000 0.45664  0.29497  0.00677  Biso   1.000  C
  C58      1.0000 0.00968  0.53560  0.70488  Biso   1.000  C
  C59      1.0000 0.19093  0.47519  0.46956  Biso   1.000  C
  C60      1.0000 0.95194  0.29425  0.53021  Biso   1.000  C
  C61      1.0000 0.02242  0.90187  0.19693  Biso   1.000  C
  C62      1.0000 0.18953  0.96392  0.95707  Biso   1.000  C
  C63      1.0000 0.95755  0.14799  0.03188  Biso   1.000  C
  C64      1.0000 0.51463  0.90585  0.34598  Biso   1.000  C
  C65      1.0000 0.69516  0.97863  0.57444  Biso   1.000  C
  C66      1.0000 0.45149  0.15253  0.50253  Biso   1.000  C
  C67      1.0000 0.50850  0.40667  0.19893  Biso   1.000  C
  C68      1.0000 0.32945  0.46303  0.97014  Biso   1.000  C
  C69      1.0000 0.56613  0.64766  0.03740  Biso   1.000  C
  C70      1.0000 0.00327  0.40319  0.34652  Biso   1.000  C
  C71      1.0000 0.83074  0.47126  0.57329  Biso   1.000  C
  C72      1.0000 0.06880  0.65219  0.50853  Biso   1.000  C
  C73      1.0000 0.01357  0.51190  0.34278  Biso   1.000  C
  C74      1.0000 0.32894  0.97745  0.56812  Biso   1.000  C
  C75      1.0000 0.56591  0.28620  0.99901  Biso   1.000  C
  C76      1.0000 0.50742  0.51648  0.20743  Biso   1.000  C
  C77      1.0000 0.83223  0.98154  0.97294  Biso   1.000  C
  C78      1.0000 0.06045  0.29081  0.53766  Biso   1.000  C
  C79      1.0000 0.50205  0.01229  0.33290  Biso   1.000  C
  C80      1.0000 0.18825  0.46891  0.57836  Biso   1.000  C
  C81      1.0000 0.95606  0.79113  0.02202  Biso   1.000  C
  C82      1.0000 0.01186  0.01325  0.20501  Biso   1.000  C
  C83      1.0000 0.68933  0.47670  0.96420  Biso   1.000  C
  C84      1.0000 0.45893  0.78987  0.52465  Biso   1.000  C
  C85      1.0000 0.00666  0.42699  0.70674  Biso   1.000  C
  C86      1.0000 0.68740  0.97094  0.46521  Biso   1.000  C
  C87      1.0000 0.45763  0.65013  0.02485  Biso   1.000  C
  C88      1.0000 0.51079  0.42213  0.82625  Biso   1.000  C
  C89      1.0000 0.19474  0.97241  0.06533  Biso   1.000  C
  C90      1.0000 0.95815  0.65113  0.51210  Biso   1.000  C
  C91      1.0000 0.51208  0.92577  0.70438  Biso   1.000  C
  C92      1.0000 0.82459  0.48490  0.46387  Biso   1.000  C
  C93      1.0000 0.06706  0.14486  0.02551  Biso   1.000  C
  C94      1.0000 0.00074  0.92993  0.83761  Biso   1.000  C
  C95      1.0000 0.33174  0.47447  0.07737  Biso   1.000  C
  C96      1.0000 0.56183  0.14759  0.50698  Biso   1.000  C
  C97      1.0000 0.69178  0.06197  0.51278  Biso   1.000  C
  C98      1.0000 0.50622  0.64548  0.11652  Biso   1.000  C
  C99      1.0000 0.09391  0.47476  0.70524  Biso   1.000  C
  C100     1.0000 0.19850  0.05557  0.00387  Biso   1.000  C
  C101     1.0000 0.01645  0.64883  0.42593  Biso   1.000  C
  C102     1.0000 0.59463  0.48253  0.83230  Biso   1.000  C
  C103     1.0000 0.83087  0.56161  0.52491  Biso   1.000  C
  C104     1.0000 0.02765  0.14355  0.11565  Biso   1.000  C
  C105     1.0000 0.42090  0.98261  0.69968  Biso   1.000  C
  C106     1.0000 0.33245  0.55587  0.01176  Biso   1.000  C
  C107     1.0000 0.50484  0.14695  0.41401  Biso   1.000  C
  C108     1.0000 0.91907  0.98858  0.84306  Biso   1.000  C
  C109     1.0000 0.33516  0.88550  0.52609  Biso   1.000  C
  C110     1.0000 0.50743  0.29318  0.91690  Biso   1.000  C
  C111     1.0000 0.92276  0.46492  0.34338  Biso   1.000  C
  C112     1.0000 0.82786  0.88527  0.01512  Biso   1.000  C
  C113     1.0000 0.00338  0.29203  0.62037  Biso   1.000  C
  C114     1.0000 0.42332  0.46169  0.20534  Biso   1.000  C
  C115     1.0000 0.18630  0.38411  0.51436  Biso   1.000  C
  C116     1.0000 0.99586  0.79794  0.92806  Biso   1.000  C
  C117     1.0000 0.59207  0.97273  0.33754  Biso   1.000  C
  C118     1.0000 0.68679  0.38325  0.00771  Biso   1.000  C
  C119     1.0000 0.50240  0.79465  0.61710  Biso   1.000  C
  C120     1.0000 0.09920  0.96529  0.19398  Biso   1.000  C
  C121     1.0000 0.82934  0.96109  0.11149  Biso   1.000  C
  C122     1.0000 0.09600  0.78809  0.00200  Biso   1.000  C
  C123     1.0000 0.01108  0.06991  0.84469  Biso   1.000  C
  C124     1.0000 0.33079  0.96344  0.42756  Biso   1.000  C
  C125     1.0000 0.59930  0.79721  0.54378  Biso   1.000  C
  C126     1.0000 0.50313  0.06499  0.68832  Biso   1.000  C
  C127     1.0000 0.68793  0.46967  0.10504  Biso   1.000  C
  C128     1.0000 0.42469  0.29290  0.00619  Biso   1.000  C
  C129     1.0000 0.50936  0.56300  0.84151  Biso   1.000  C
  C130     1.0000 0.19016  0.47551  0.43692  Biso   1.000  C
  C131     1.0000 0.92108  0.29297  0.52238  Biso   1.000  C
  C132     1.0000 0.00729  0.56732  0.70029  Biso   1.000  C
  C133     1.0000 0.18737  0.96608  0.92516  Biso   1.000  C
  C134     1.0000 0.92498  0.14776  0.02740  Biso   1.000  C
  C135     1.0000 0.02409  0.86834  0.19705  Biso   1.000  C
  C136     1.0000 0.69344  0.98232  0.60659  Biso   1.000  C
  C137     1.0000 0.41981  0.15574  0.50496  Biso   1.000  C
  C138     1.0000 0.51668  0.87265  0.34728  Biso   1.000  C
  C139     1.0000 0.33007  0.46740  0.93885  Biso   1.000  C
  C140     1.0000 0.59866  0.64862  0.03988  Biso   1.000  C
  C141     1.0000 0.51355  0.37537  0.19734  Biso   1.000  C
  C142     1.0000 0.83144  0.47151  0.60503  Biso   1.000  C
  C143     1.0000 0.10137  0.65126  0.50930  Biso   1.000  C
  C144     1.0000 0.00075  0.37122  0.34672  Biso   1.000  C
  C145     1.0000 0.33197  0.47672  0.11046  Biso   1.000  C
  C146     1.0000 0.09426  0.29083  0.53999  Biso   1.000  C
  C147     1.0000 0.49612  0.04299  0.32817  Biso   1.000  C
  C148     1.0000 0.82633  0.48715  0.43216  Biso   1.000  C
  C149     1.0000 0.59727  0.28461  0.99528  Biso   1.000  C
  C150     1.0000 0.01567  0.04512  0.20744  Biso   1.000  C
  C151     1.0000 0.19474  0.97384  0.09814  Biso   1.000  C
  C152     1.0000 0.42752  0.78844  0.51926  Biso   1.000  C
  C153     1.0000 0.01535  0.54504  0.33732  Biso   1.000  C
  C154     1.0000 0.68583  0.96596  0.43391  Biso   1.000  C
  C155     1.0000 0.92350  0.79030  0.02484  Biso   1.000  C
  C156     1.0000 0.50244  0.54794  0.21050  Biso   1.000  C
  C157     1.0000 0.68879  0.47568  0.93252  Biso   1.000  C
  C158     1.0000 0.92645  0.65166  0.51592  Biso   1.000  C
  C159     1.0000 0.50879  0.89435  0.70773  Biso   1.000  C
  C160     1.0000 0.18924  0.47062  0.61194  Biso   1.000  C
  C161     1.0000 0.42561  0.64992  0.02980  Biso   1.000  C
  C162     1.0000 0.00004  0.89759  0.83648  Biso   1.000  C
  C163     1.0000 0.82949  0.98947  0.94189  Biso   1.000  C
  C164     1.0000 0.59403  0.14977  0.51284  Biso   1.000  C
  C165     1.0000 0.00515  0.39535  0.70716  Biso   1.000  C
  C166     1.0000 0.32729  0.98125  0.60090  Biso   1.000  C
  C167     1.0000 0.09928  0.14528  0.02535  Biso   1.000  C
  C168     1.0000 0.51377  0.38955  0.82361  Biso   1.000  C
  C169     1.0000 0.02548  0.78103  0.09651  Biso   1.000  C
  C170     1.0000 0.08995  0.98522  0.83208  Biso   1.000  C
  C171     1.0000 0.82886  0.05656  0.03438  Biso   1.000  C
  C172     1.0000 0.52532  0.78735  0.44737  Biso   1.000  C
  C173     1.0000 0.59386  0.98802  0.69585  Biso   1.000  C
  C174     1.0000 0.33168  0.05646  0.50806  Biso   1.000  C
  C175     1.0000 0.52520  0.28911  0.09108  Biso   1.000  C
  C176     1.0000 0.42211  0.47119  0.83917  Biso   1.000  C
  C177     1.0000 0.69573  0.55481  0.02503  Biso   1.000  C
  C178     1.0000 0.00973  0.28284  0.44782  Biso   1.000  C
  C179     1.0000 0.92395  0.47972  0.70584  Biso   1.000  C
  C180     1.0000 0.19447  0.55374  0.52870  Biso   1.000  C
  C181     1.0000 0.00245  0.15662  0.94547  Biso   1.000  C
  C182     1.0000 0.92750  0.95032  0.20284  Biso   1.000  C
  C183     1.0000 0.19012  0.88025  0.01351  Biso   1.000  C
  C184     1.0000 0.49930  0.15458  0.58691  Biso   1.000  C
  C185     1.0000 0.42433  0.95083  0.33697  Biso   1.000  C
  C186     1.0000 0.69332  0.88855  0.52532  Biso   1.000  C
  C187     1.0000 0.51911  0.64734  0.94341  Biso   1.000  C
  C188     1.0000 0.59460  0.46700  0.20409  Biso   1.000  C
  C189     1.0000 0.33019  0.38325  0.02653  Biso   1.000  C
  C190     1.0000 0.01394  0.65824  0.59927  Biso   1.000  C
  C191     1.0000 0.09711  0.45026  0.34245  Biso   1.000  C
  C192     1.0000 0.82696  0.38946  0.51048  Biso   1.000  C
  C193     1.0000 0.85418  0.99106  0.92341  Biso   1.000  C
  C194     1.0000 0.90829  0.81791  0.02346  Biso   1.000  C
  C195     1.0000 0.00226  0.88001  0.86149  Biso   1.000  C
  C196     1.0000 0.35456  0.98310  0.61775  Biso   1.000  C
  C197     1.0000 0.41240  0.81599  0.51755  Biso   1.000  C
  C198     1.0000 0.50664  0.87752  0.68062  Biso   1.000  C
  C199     1.0000 0.66180  0.48016  0.91737  Biso   1.000  C
  C200     1.0000 0.61248  0.31281  0.99457  Biso   1.000  C
  C201     1.0000 0.51275  0.37311  0.85047  Biso   1.000  C
  C202     1.0000 0.16201  0.46807  0.62756  Biso   1.000  C
  C203     1.0000 0.11028  0.31817  0.53718  Biso   1.000  C
  C204     1.0000 0.00784  0.37736  0.68189  Biso   1.000  C
  C205     1.0000 0.16734  0.97431  0.11319  Biso   1.000  C
  C206     1.0000 0.11554  0.11836  0.02156  Biso   1.000  C
  C207     1.0000 0.01831  0.06090  0.17989  Biso   1.000  C
  C208     1.0000 0.65841  0.96783  0.41916  Biso   1.000  C
  C209     1.0000 0.61120  0.12393  0.50752  Biso   1.000  C
  C210     1.0000 0.49945  0.06129  0.35282  Biso   1.000  C
  C211     1.0000 0.35829  0.47455  0.12893  Biso   1.000  C
  C212     1.0000 0.40822  0.62336  0.03053  Biso   1.000  C
  C213     1.0000 0.50406  0.56472  0.18349  Biso   1.000  C
  C214     1.0000 0.85356  0.48147  0.41701  Biso   1.000  C
  C215     1.0000 0.91024  0.62452  0.51938  Biso   1.000  C
  C216     1.0000 0.01451  0.56302  0.36317  Biso   1.000  C
  C217     1.0000 0.10756  0.98111  0.85708  Biso   1.000  C
  C218     1.0000 0.85667  0.07227  0.03129  Biso   1.000  C
  C219     1.0000 0.02318  0.80846  0.11445  Biso   1.000  C
  C220     1.0000 0.61211  0.98663  0.66956  Biso   1.000  C
  C221     1.0000 0.35677  0.07313  0.50576  Biso   1.000  C
  C222     1.0000 0.52119  0.81343  0.42991  Biso   1.000  C
  C223     1.0000 0.40714  0.46864  0.86689  Biso   1.000  C
  C224     1.0000 0.66863  0.57155  0.02786  Biso   1.000  C
  C225     1.0000 0.52624  0.31454  0.11036  Biso   1.000  C
  C226     1.0000 0.91115  0.47594  0.67656  Biso   1.000  C
  C227     1.0000 0.16821  0.57054  0.52621  Biso   1.000  C
  C228     1.0000 0.00249  0.30892  0.43013  Biso   1.000  C
  C229     1.0000 0.91138  0.95374  0.17680  Biso   1.000  C
  C230     1.0000 0.16155  0.86553  0.01195  Biso   1.000  C
  C231     1.0000 0.00415  0.13148  0.92705  Biso   1.000  C
  C232     1.0000 0.40807  0.95364  0.36310  Biso   1.000  C
  C233     1.0000 0.66667  0.87351  0.52915  Biso   1.000  C
  C234     1.0000 0.49902  0.12769  0.60307  Biso   1.000  C
  C235     1.0000 0.60976  0.46873  0.17720  Biso   1.000  C
  C236     1.0000 0.35707  0.36730  0.02348  Biso   1.000  C
  C237     1.0000 0.51309  0.62289  0.92540  Biso   1.000  C
  C238     1.0000 0.11291  0.45710  0.36955  Biso   1.000  C
  C239     1.0000 0.85567  0.37442  0.51228  Biso   1.000  C
  C240     1.0000 0.01212  0.63126  0.61502  Biso   1.000  C
  C241     1.0000 0.60820  0.48145  0.86022  Biso   1.000  C
  C242     1.0000 0.85832  0.57737  0.52436  Biso   1.000  C
  C243     1.0000 0.50256  0.82240  0.63063  Biso   1.000  C
  C244     1.0000 0.10934  0.47238  0.67750  Biso   1.000  C
  C245     1.0000 0.35862  0.57282  0.01948  Biso   1.000  C
  C246     1.0000 0.99829  0.82671  0.91260  Biso   1.000  C
  C247     1.0000 0.90383  0.98823  0.87122  Biso   1.000  C
  C248     1.0000 0.66405  0.07612  0.50605  Biso   1.000  C
  C249     1.0000 0.00671  0.31979  0.63432  Biso   1.000  C
  C250     1.0000 0.40543  0.98425  0.67129  Biso   1.000  C
  C251     1.0000 0.17074  0.06896  0.00986  Biso   1.000  C
  C252     1.0000 0.50836  0.32149  0.90189  Biso   1.000  C
  C253     1.0000 0.40794  0.46563  0.17781  Biso   1.000  C
  C254     1.0000 0.15945  0.36819  0.51955  Biso   1.000  C
  C255     1.0000 0.49904  0.11768  0.40125  Biso   1.000  C
  C256     1.0000 0.90544  0.46987  0.36961  Biso   1.000  C
  C257     1.0000 0.66045  0.36678  0.00329  Biso   1.000  C
  C258     1.0000 0.02534  0.11592  0.12982  Biso   1.000  C
  C259     1.0000 0.11388  0.96547  0.16653  Biso   1.000  C
  C260     1.0000 0.36217  0.86788  0.52308  Biso   1.000  C
  C261     1.0000 0.01731  0.61947  0.41111  Biso   1.000  C
  C262     1.0000 0.60791  0.97361  0.36545  Biso   1.000  C
  C263     1.0000 0.85512  0.86843  0.01598  Biso   1.000  C
  C264     1.0000 0.50475  0.61764  0.13262  Biso   1.000  C
  C265     1.0000 0.01013  0.08447  0.87272  Biso   1.000  C
  C266     1.0000 0.85651  0.95718  0.12655  Biso   1.000  C
  C267     1.0000 0.11055  0.81416  0.00691  Biso   1.000  C
  C268     1.0000 0.50218  0.07812  0.65920  Biso   1.000  C
  C269     1.0000 0.35664  0.95792  0.41307  Biso   1.000  C
  C270     1.0000 0.61443  0.82369  0.53588  Biso   1.000  C
  C271     1.0000 0.51175  0.57745  0.87070  Biso   1.000  C
  C272     1.0000 0.66020  0.46739  0.12249  Biso   1.000  C
  C273     1.0000 0.40707  0.31851  0.01114  Biso   1.000  C
  C274     1.0000 0.01072  0.58178  0.67353  Biso   1.000  C
  C275     1.0000 0.16340  0.47128  0.42115  Biso   1.000  C
  C276     1.0000 0.90619  0.32017  0.51732  Biso   1.000  C
  C277     1.0000 0.02364  0.85496  0.16873  Biso   1.000  C
  C278     1.0000 0.15927  0.96983  0.91023  Biso   1.000  C
  C279     1.0000 0.90808  0.12139  0.02866  Biso   1.000  C
  C280     1.0000 0.51974  0.85853  0.37451  Biso   1.000  C
  C281     1.0000 0.66533  0.98358  0.62099  Biso   1.000  C
  C282     1.0000 0.40571  0.12775  0.50557  Biso   1.000  C
  C283     1.0000 0.52022  0.36200  0.16819  Biso   1.000  C
  C284     1.0000 0.35757  0.46876  0.92267  Biso   1.000  C
  C285     1.0000 0.61550  0.62182  0.03730  Biso   1.000  C
  C286     1.0000 0.99842  0.35712  0.37477  Biso   1.000  C
  C287     1.0000 0.85896  0.47645  0.62223  Biso   1.000  C
  C288     1.0000 0.11875  0.62234  0.51470  Biso   1.000  C
  C289     1.0000 0.35941  0.83583  0.52448  Biso   1.000  C
  C290     1.0000 0.51198  0.32026  0.87103  Biso   1.000  C
  C291     1.0000 0.87513  0.47562  0.36523  Biso   1.000  C
  C292     1.0000 0.85518  0.83808  0.02253  Biso   1.000  C
  C293     1.0000 0.00773  0.32205  0.66617  Biso   1.000  C
  C294     1.0000 0.37755  0.46986  0.18123  Biso   1.000  C
  C295     1.0000 0.16063  0.33815  0.52481  Biso   1.000  C
  C296     1.0000 0.99895  0.82757  0.88104  Biso   1.000  C
  C297     1.0000 0.63935  0.97255  0.36403  Biso   1.000  C
  C298     1.0000 0.66382  0.33522  0.99930  Biso   1.000  C
  C299     1.0000 0.50162  0.82376  0.66269  Biso   1.000  C
  C300     1.0000 0.14522  0.96549  0.16601  Biso   1.000  C
  C301     1.0000 0.66482  0.10786  0.50862  Biso   1.000  C
  C302     1.0000 0.50694  0.61781  0.16371  Biso   1.000  C
  C303     1.0000 0.14071  0.47074  0.67967  Biso   1.000  C
  C304     1.0000 0.16928  0.10026  0.01195  Biso   1.000  C
  C305     1.0000 0.01653  0.61835  0.38031  Biso   1.000  C
  C306     1.0000 0.64027  0.47975  0.86261  Biso   1.000  C
  C307     1.0000 0.85617  0.60919  0.52425  Biso   1.000  C
  C308     1.0000 0.02563  0.11441  0.16120  Biso   1.000  C
  C309     1.0000 0.37436  0.98676  0.67135  Biso   1.000  C
  C310     1.0000 0.35741  0.60416  0.01904  Biso   1.000  C
  C311     1.0000 0.49790  0.11514  0.36959  Biso   1.000  C
  C312     1.0000 0.87329  0.98872  0.87031  Biso   1.000  C
  C313     1.0000 0.16539  0.46327  0.38966  Biso   1.000  C
  C314     1.0000 0.37534  0.12752  0.51104  Biso   1.000  C
  C315     1.0000 0.52243  0.33140  0.16629  Biso   1.000  C
  C316     1.0000 0.66188  0.46988  0.15448  Biso   1.000  C
  C317     1.0000 0.87732  0.12452  0.02896  Biso   1.000  C
  C318     1.0000 0.00365  0.32560  0.37463  Biso   1.000  C
  C319     1.0000 0.35461  0.95829  0.38124  Biso   1.000  C
  C320     1.0000 0.14919  0.62326  0.52087  Biso   1.000  C
  C321     1.0000 0.02533  0.82561  0.16788  Biso   1.000  C
  C322     1.0000 0.85720  0.95614  0.15711  Biso   1.000  C
  C323     1.0000 0.64579  0.62409  0.03500  Biso   1.000  C
  C324     1.0000 0.52193  0.82838  0.37520  Biso   1.000  C
  C325     1.0000 0.85845  0.47272  0.65304  Biso   1.000  C
  C326     1.0000 0.64596  0.81997  0.53214  Biso   1.000  C
  C327     1.0000 0.50744  0.60828  0.87110  Biso   1.000  C
  C328     1.0000 0.35725  0.47184  0.89036  Biso   1.000  C
  C329     1.0000 0.14142  0.81365  0.00888  Biso   1.000  C
  C330     1.0000 0.00949  0.61340  0.67005  Biso   1.000  C
  C331     1.0000 0.66654  0.98215  0.65202  Biso   1.000  C
  C332     1.0000 0.87443  0.32039  0.51433  Biso   1.000  C
  C333     1.0000 0.00917  0.11621  0.87300  Biso   1.000  C
  C334     1.0000 0.15971  0.97503  0.87944  Biso   1.000  C
  C335     1.0000 0.37554  0.31680  0.01064  Biso   1.000  C
  C336     1.0000 0.50267  0.10946  0.65739  Biso   1.000  C
  C337     1.0000 0.66192  0.47768  0.88596  Biso   1.000  C
  C338     1.0000 0.87875  0.62828  0.52213  Biso   1.000  C
  C339     1.0000 0.50280  0.84662  0.68410  Biso   1.000  C
  C340     1.0000 0.16238  0.46969  0.65839  Biso   1.000  C
  C341     1.0000 0.37805  0.62592  0.02266  Biso   1.000  C
  C342     1.0000 0.00036  0.84914  0.85960  Biso   1.000  C
  C343     1.0000 0.85236  0.99051  0.89218  Biso   1.000  C
  C344     1.0000 0.64197  0.12823  0.50735  Biso   1.000  C
  C345     1.0000 0.00686  0.34564  0.68508  Biso   1.000  C
  C346     1.0000 0.35327  0.98530  0.64843  Biso   1.000  C
  C347     1.0000 0.14676  0.11986  0.01533  Biso   1.000  C
  C348     1.0000 0.51360  0.34156  0.84871  Biso   1.000  C
  C349     1.0000 0.35606  0.47288  0.16007  Biso   1.000  C
  C350     1.0000 0.14078  0.31626  0.53160  Biso   1.000  C
  C351     1.0000 0.49587  0.09215  0.34978  Biso   1.000  C
  C352     1.0000 0.85366  0.48178  0.38489  Biso   1.000  C
  C353     1.0000 0.64430  0.31226  0.99503  Biso   1.000  C
  C354     1.0000 0.02445  0.09311  0.18311  Biso   1.000  C
  C355     1.0000 0.16700  0.97072  0.14406  Biso   1.000  C
  C356     1.0000 0.38048  0.81382  0.52165  Biso   1.000  C
  C357     1.0000 0.01578  0.59481  0.35988  Biso   1.000  C
  C358     1.0000 0.65968  0.96963  0.38750  Biso   1.000  C
  C359     1.0000 0.87615  0.81663  0.02472  Biso   1.000  C
  C360     1.0000 0.50645  0.59597  0.18432  Biso   1.000  C
  C361     1.0000 0.00711  0.13474  0.89581  Biso   1.000  C
  C362     1.0000 0.87938  0.95420  0.17848  Biso   1.000  C
  C363     1.0000 0.16284  0.83453  0.01047  Biso   1.000  C
  C364     1.0000 0.50010  0.12949  0.63513  Biso   1.000  C
  C365     1.0000 0.37712  0.95554  0.36083  Biso   1.000  C
  C366     1.0000 0.66800  0.84139  0.52837  Biso   1.000  C
  C367     1.0000 0.50834  0.62762  0.89432  Biso   1.000  C
  C368     1.0000 0.64026  0.46907  0.17734  Biso   1.000  C
  C369     1.0000 0.35452  0.33733  0.01618  Biso   1.000  C
  C370     1.0000 0.01019  0.63336  0.64762  Biso   1.000  C
  C371     1.0000 0.14438  0.45963  0.36839  Biso   1.000  C
  C372     1.0000 0.85452  0.34349  0.51335  Biso   1.000  C
  C373     1.0000 0.02560  0.80487  0.14580  Biso   1.000  C
  C374     1.0000 0.13786  0.97758  0.85711  Biso   1.000  C
  C375     1.0000 0.85613  0.10370  0.02985  Biso   1.000  C
  C376     1.0000 0.52336  0.80980  0.39853  Biso   1.000  C
  C377     1.0000 0.64382  0.98385  0.67199  Biso   1.000  C
  C378     1.0000 0.35459  0.10474  0.50982  Biso   1.000  C
  C379     1.0000 0.52497  0.31202  0.14276  Biso   1.000  C
  C380     1.0000 0.37735  0.47379  0.86721  Biso   1.000  C
  C381     1.0000 0.66795  0.60293  0.03100  Biso   1.000  C
  C382     1.0000 0.00584  0.30617  0.39863  Biso   1.000  C
  C383     1.0000 0.88022  0.47310  0.67487  Biso   1.000  C
  C384     1.0000 0.17049  0.60208  0.52499  Biso   1.000  C
  C385     1.0000 0.19455  0.11803  0.00724  Biso   1.000  C
  C386     1.0000 0.03121  0.14059  0.17851  Biso   1.000  C
  C387     1.0000 0.16104  0.96534  0.19333  Biso   1.000  C
  C388     1.0000 0.69177  0.12435  0.51169  Biso   1.000  C
  C389     1.0000 0.49657  0.14099  0.35203  Biso   1.000  C
  C390     1.0000 0.65506  0.97222  0.33747  Biso   1.000  C
  C391     1.0000 0.33105  0.61917  0.01428  Biso   1.000  C
  C392     1.0000 0.51439  0.64358  0.17887  Biso   1.000  C
  C393     1.0000 0.36187  0.46613  0.20755  Biso   1.000  C
  C394     1.0000 0.82875  0.62529  0.52846  Biso   1.000  C
  C395     1.0000 0.01757  0.64479  0.36321  Biso   1.000  C
  C396     1.0000 0.86237  0.47615  0.33733  Biso   1.000  C
  C397     1.0000 0.82815  0.82169  0.02277  Biso   1.000  C
  C398     1.0000 0.99372  0.80155  0.86518  Biso   1.000  C
  C399     1.0000 0.85555  0.98915  0.84442  Biso   1.000  C
  C400     1.0000 0.33166  0.82086  0.52894  Biso   1.000  C
  C401     1.0000 0.50061  0.79744  0.67910  Biso   1.000  C
  C402     1.0000 0.35772  0.98768  0.69784  Biso   1.000  C
  C403     1.0000 0.69115  0.31951  0.00072  Biso   1.000  C
  C404     1.0000 0.51226  0.29249  0.85425  Biso   1.000  C
  C405     1.0000 0.65704  0.47673  0.83535  Biso   1.000  C
  C406     1.0000 0.18743  0.32203  0.52108  Biso   1.000  C
  C407     1.0000 0.00421  0.29664  0.68326  Biso   1.000  C
  C408     1.0000 0.15676  0.47360  0.70633  Biso   1.000  C
  C409     1.0000 0.15357  0.97770  0.83024  Biso   1.000  C
  C410     1.0000 0.82888  0.11864  0.02585  Biso   1.000  C
  C411     1.0000 0.02468  0.77691  0.15901  Biso   1.000  C
  C412     1.0000 0.65806  0.98326  0.70006  Biso   1.000  C
  C413     1.0000 0.32697  0.12035  0.51178  Biso   1.000  C
  C414     1.0000 0.52603  0.78152  0.38609  Biso   1.000  C
  C415     1.0000 0.35955  0.47547  0.84070  Biso   1.000  C
  C416     1.0000 0.69451  0.61792  0.03053  Biso   1.000  C
  C417     1.0000 0.52206  0.28391  0.15501  Biso   1.000  C
  C418     1.0000 0.86447  0.47068  0.70154  Biso   1.000  C
  C419     1.0000 0.19697  0.61749  0.52770  Biso   1.000  C
  C420     1.0000 0.01149  0.27869  0.38401  Biso   1.000  C
  C421     1.0000 0.86337  0.95023  0.20581  Biso   1.000  C
  C422     1.0000 0.18936  0.81872  0.00770  Biso   1.000  C
  C423     1.0000 0.00655  0.16361  0.88423  Biso   1.000  C
  C424     1.0000 0.36129  0.95428  0.33388  Biso   1.000  C
  C425     1.0000 0.69468  0.82485  0.52788  Biso   1.000  C
  C426     1.0000 0.50273  0.15722  0.64943  Biso   1.000  C
  C427     1.0000 0.65706  0.47030  0.20376  Biso   1.000  C
  C428     1.0000 0.32829  0.32140  0.01222  Biso   1.000  C
  C429     1.0000 0.50438  0.65589  0.88151  Biso   1.000  C
  C430     1.0000 0.15937  0.45838  0.34027  Biso   1.000  C
  C431     1.0000 0.82732  0.32790  0.50959  Biso   1.000  C
  C432     1.0000 0.00778  0.66144  0.66119  Biso   1.000  C
  C433     1.0000 0.01031  0.13308  0.84709  Biso   1.000  C
  C434     1.0000 0.83016  0.95558  0.17349  Biso   1.000  C
  C435     1.0000 0.15731  0.78618  0.00430  Biso   1.000  C
  C436     1.0000 0.50527  0.12642  0.68346  Biso   1.000  C
  C437     1.0000 0.32816  0.96172  0.36557  Biso   1.000  C
  C438     1.0000 0.66171  0.79362  0.53730  Biso   1.000  C
  C439     1.0000 0.50310  0.62607  0.84568  Biso   1.000  C
  C440     1.0000 0.68866  0.47265  0.16934  Biso   1.000  C
  C441     1.0000 0.36212  0.28984  0.00499  Biso   1.000  C
  C442     1.0000 0.00683  0.63097  0.69575  Biso   1.000  C
  C443     1.0000 0.19273  0.46389  0.37444  Biso   1.000  C
  C444     1.0000 0.85825  0.29334  0.51413  Biso   1.000  C
  C445     1.0000 0.02594  0.80783  0.19404  Biso   1.000  C
  C446     1.0000 0.18599  0.97337  0.86330  Biso   1.000  C
  C447     1.0000 0.86301  0.15143  0.02570  Biso   1.000  C
  C448     1.0000 0.52296  0.81051  0.34999  Biso   1.000  C
  C449     1.0000 0.69295  0.98203  0.66937  Biso   1.000  C
  C450     1.0000 0.35830  0.15370  0.51254  Biso   1.000  C
  C451     1.0000 0.51957  0.31372  0.19153  Biso   1.000  C
  C452     1.0000 0.32929  0.47558  0.87572  Biso   1.000  C
  C453     1.0000 0.66123  0.65126  0.03560  Biso   1.000  C
  C454     1.0000 0.00660  0.30825  0.34927  Biso   1.000  C
  C455     1.0000 0.83241  0.46838  0.66868  Biso   1.000  C
  C456     1.0000 0.16453  0.65046  0.51977  Biso   1.000  C
  C457     1.0000 0.01602  0.60823  0.33218  Biso   1.000  C
  C458     1.0000 0.32583  0.98607  0.66338  Biso   1.000  C
  C459     1.0000 0.66021  0.28634  0.99523  Biso   1.000  C
  C460     1.0000 0.50941  0.61075  0.21169  Biso   1.000  C
  C461     1.0000 0.82510  0.99212  0.87807  Biso   1.000  C
  C462     1.0000 0.15727  0.28912  0.53197  Biso   1.000  C
  C463     1.0000 0.49260  0.10695  0.32165  Biso   1.000  C
  C464     1.0000 0.18953  0.47283  0.67431  Biso   1.000  C
  C465     1.0000 0.86038  0.78929  0.02788  Biso   1.000  C
  C466     1.0000 0.02800  0.10748  0.21072  Biso   1.000  C
  C467     1.0000 0.68861  0.47261  0.86995  Biso   1.000  C
  C468     1.0000 0.36539  0.78736  0.52444  Biso   1.000  C
  C469     1.0000 0.00554  0.33185  0.71334  Biso   1.000  C
  C470     1.0000 0.68682  0.96882  0.37141  Biso   1.000  C
  C471     1.0000 0.36242  0.65297  0.01913  Biso   1.000  C
  C472     1.0000 0.51510  0.32775  0.82183  Biso   1.000  C
  C473     1.0000 0.19403  0.97136  0.16055  Biso   1.000  C
  C474     1.0000 0.86407  0.65578  0.52228  Biso   1.000  C
  C475     1.0000 0.50322  0.83283  0.71240  Biso   1.000  C
  C476     1.0000 0.82777  0.48546  0.36818  Biso   1.000  C
  C477     1.0000 0.15970  0.14736  0.01276  Biso   1.000  C
  C478     1.0000 0.99771  0.83435  0.83190  Biso   1.000  C
  C479     1.0000 0.32869  0.47383  0.17510  Biso   1.000  C
  C480     1.0000 0.65643  0.15509  0.51253  Biso   1.000  C
  C481     1.0000 0.38098  0.76077  0.52241  Biso   1.000  C
  C482     1.0000 0.51657  0.34478  0.79448  Biso   1.000  C
  C483     1.0000 0.80023  0.49150  0.38352  Biso   1.000  C
  C484     1.0000 0.87638  0.76159  0.02559  Biso   1.000  C
  C485     1.0000 0.00359  0.34981  0.73926  Biso   1.000  C
  C486     1.0000 0.30288  0.47786  0.15721  Biso   1.000  C
  C487     1.0000 0.14119  0.26186  0.53902  Biso   1.000  C
  C488     1.0000 0.99805  0.85094  0.80501  Biso   1.000  C
  C489     1.0000 0.71415  0.96659  0.38721  Biso   1.000  C
  C490     1.0000 0.64564  0.25867  0.99693  Biso   1.000  C
  C491     1.0000 0.50669  0.85055  0.73982  Biso   1.000  C
  C492     1.0000 0.22086  0.97394  0.14700  Biso   1.000  C
  C493     1.0000 0.63890  0.18006  0.51943  Biso   1.000  C
  C494     1.0000 0.51144  0.59474  0.23914  Biso   1.000  C
  C495     1.0000 0.21588  0.47599  0.65953  Biso   1.000  C
  C496     1.0000 0.14367  0.17433  0.01636  Biso   1.000  C
  C497     1.0000 0.01739  0.59006  0.30600  Biso   1.000  C
  C498     1.0000 0.71575  0.46978  0.88593  Biso   1.000  C
  C499     1.0000 0.88152  0.68181  0.51753  Biso   1.000  C
  C500     1.0000 0.02401  0.09089  0.23613  Biso   1.000  C
  C501     1.0000 0.29862  0.98323  0.64741  Biso   1.000  C
  C502     1.0000 0.37958  0.67853  0.02233  Biso   1.000  C
  C503     1.0000 0.48698  0.08775  0.29720  Biso   1.000  C
  C504     1.0000 0.79847  0.99456  0.89639  Biso   1.000  C
  C505     1.0000 0.64265  0.47640  0.80714  Biso   1.000  C
  C506     1.0000 0.80126  0.60972  0.53051  Biso   1.000  C
  C507     1.0000 0.49957  0.76868  0.66526  Biso   1.000  C
  C508     1.0000 0.14083  0.47465  0.73287  Biso   1.000  C
  C509     1.0000 0.30418  0.60255  0.00560  Biso   1.000  C
  C510     1.0000 0.99021  0.77453  0.87990  Biso   1.000  C
  C511     1.0000 0.87001  0.98616  0.81599  Biso   1.000  C
  C512     1.0000 0.71878  0.10819  0.51334  Biso   1.000  C
  C513     1.0000 0.00468  0.26794  0.66951  Biso   1.000  C
  C514     1.0000 0.37313  0.98827  0.72586  Biso   1.000  C
  C515     1.0000 0.22258  0.10310  0.00077  Biso   1.000  C
  C516     1.0000 0.50718  0.26545  0.87009  Biso   1.000  C
  C517     1.0000 0.37857  0.45585  0.23401  Biso   1.000  C
  C518     1.0000 0.21316  0.33832  0.51062  Biso   1.000  C
  C519     1.0000 0.50214  0.16790  0.36552  Biso   1.000  C
  C520     1.0000 0.87994  0.47227  0.31149  Biso   1.000  C
  C521     1.0000 0.71750  0.33655  0.00651  Biso   1.000  C
  C522     1.0000 0.03568  0.16821  0.16298  Biso   1.000  C
  C523     1.0000 0.14716  0.96715  0.22124  Biso   1.000  C
  C524     1.0000 0.30557  0.83898  0.53229  Biso   1.000  C
  C525     1.0000 0.01751  0.67296  0.37690  Biso   1.000  C
  C526     1.0000 0.63942  0.97160  0.31033  Biso   1.000  C
  C527     1.0000 0.80149  0.83855  0.01616  Biso   1.000  C
  C528     1.0000 0.51731  0.67027  0.16395  Biso   1.000  C
  C529     1.0000 0.80122  0.10398  0.02952  Biso   1.000  C
  C530     1.0000 0.02580  0.75121  0.14113  Biso   1.000  C
  C531     1.0000 0.13608  0.98250  0.80337  Biso   1.000  C
  C532     1.0000 0.30156  0.10318  0.51135  Biso   1.000  C
  C533     1.0000 0.53054  0.75533  0.40337  Biso   1.000  C
  C534     1.0000 0.64182  0.98382  0.72736  Biso   1.000  C
  C535     1.0000 0.72279  0.60166  0.02568  Biso   1.000  C
  C536     1.0000 0.52124  0.25815  0.13724  Biso   1.000  C
  C537     1.0000 0.37287  0.47217  0.81283  Biso   1.000  C
  C538     1.0000 0.22347  0.60126  0.53220  Biso   1.000  C
  C539     1.0000 0.01484  0.25343  0.40231  Biso   1.000  C
  C540     1.0000 0.87654  0.47439  0.73064  Biso   1.000  C
  C541     1.0000 0.21683  0.83400  0.00939  Biso   1.000  C
  C542     1.0000 0.00519  0.18934  0.90306  Biso   1.000  C
  C543     1.0000 0.88057  0.94528  0.23197  Biso   1.000  C
  C544     1.0000 0.72203  0.84168  0.52437  Biso   1.000  C
  C545     1.0000 0.50076  0.18565  0.63319  Biso   1.000  C
  C546     1.0000 0.37764  0.95023  0.30843  Biso   1.000  C
  C547     1.0000 0.30108  0.33596  0.01901  Biso   1.000  C
  C548     1.0000 0.50883  0.68127  0.89973  Biso   1.000  C
  C549     1.0000 0.64195  0.46875  0.23207  Biso   1.000  C
  C550     1.0000 0.80155  0.34474  0.50448  Biso   1.000  C
  C551     1.0000 0.01195  0.68827  0.64617  Biso   1.000  C
  C552     1.0000 0.14396  0.45354  0.31285  Biso   1.000  C
  C553     1.0000 0.01073  0.11872  0.81799  Biso   1.000  C
  C554     1.0000 0.80324  0.96125  0.15739  Biso   1.000  C
  C555     1.0000 0.14085  0.75994  0.99556  Biso   1.000  C
  C556     1.0000 0.50778  0.11317  0.71242  Biso   1.000  C
  C557     1.0000 0.30162  0.96813  0.38134  Biso   1.000  C
  C558     1.0000 0.64527  0.76849  0.54916  Biso   1.000  C
  C559     1.0000 0.49848  0.61148  0.81759  Biso   1.000  C
  C560     1.0000 0.71671  0.47301  0.15265  Biso   1.000  C
  C561     1.0000 0.37951  0.26490  0.99772  Biso   1.000  C
  C562     1.0000 0.00011  0.61814  0.72441  Biso   1.000  C
  C563     1.0000 0.21957  0.47041  0.39024  Biso   1.000  C
  C564     1.0000 0.87275  0.26572  0.52131  Biso   1.000  C
  C565     1.0000 0.02689  0.82045  0.22265  Biso   1.000  C
  C566     1.0000 0.21274  0.97064  0.87858  Biso   1.000  C
  C567     1.0000 0.87911  0.17828  0.02381  Biso   1.000  C
  C568     1.0000 0.52111  0.82590  0.32189  Biso   1.000  C
  C569     1.0000 0.72081  0.98403  0.65478  Biso   1.000  C
  C570     1.0000 0.37336  0.18234  0.51105  Biso   1.000  C
  C571     1.0000 0.51708  0.32661  0.21967  Biso   1.000  C
  C572     1.0000 0.30240  0.47615  0.89214  Biso   1.000  C
  C573     1.0000 0.64528  0.67844  0.04133  Biso   1.000  C
  C574     1.0000 0.00482  0.32105  0.32056  Biso   1.000  C
  C575     1.0000 0.80534  0.46573  0.65286  Biso   1.000  C
  C576     1.0000 0.14959  0.67748  0.51252  Biso   1.000  C
  C577     1.0000 0.30463  0.47820  0.12522  Biso   1.000  C
  C578     1.0000 0.11071  0.26434  0.54315  Biso   1.000  C
  C579     1.0000 0.48957  0.05617  0.30072  Biso   1.000  C
  C580     1.0000 0.80074  0.49312  0.41539  Biso   1.000  C
  C581     1.0000 0.61482  0.25707  0.99533  Biso   1.000  C
  C582     1.0000 0.01851  0.05961  0.23483  Biso   1.000  C
  C583     1.0000 0.22202  0.97407  0.11529  Biso   1.000  C
  C584     1.0000 0.41231  0.76094  0.52005  Biso   1.000  C
  C585     1.0000 0.01615  0.55771  0.30837  Biso   1.000  C
  C586     1.0000 0.71344  0.96399  0.41876  Biso   1.000  C
  C587     1.0000 0.90716  0.76200  0.02481  Biso   1.000  C
  C588     1.0000 0.50647  0.56426  0.23884  Biso   1.000  C
  C589     1.0000 0.71543  0.47043  0.91629  Biso   1.000  C
  C590     1.0000 0.91311  0.68012  0.51517  Biso   1.000  C
  C591     1.0000 0.50879  0.88131  0.73647  Biso   1.000  C
  C592     1.0000 0.21657  0.47633  0.62797  Biso   1.000  C
  C593     1.0000 0.41094  0.67766  0.02679  Biso   1.000  C
  C594     1.0000 0.99809  0.88275  0.80650  Biso   1.000  C
  C595     1.0000 0.80061  0.99311  0.92856  Biso   1.000  C
  C596     1.0000 0.60713  0.17841  0.51895  Biso   1.000  C
  C597     1.0000 0.00334  0.38095  0.73560  Biso   1.000  C
  C598     1.0000 0.29971  0.98031  0.61547  Biso   1.000  C
  C599     1.0000 0.11291  0.17377  0.02423  Biso   1.000  C
  C600     1.0000 0.51508  0.37703  0.79640  Biso   1.000  C
  C601     1.0000 0.21363  0.96532  0.90940  Biso   1.000  C
  C602     1.0000 0.91009  0.17590  0.02403  Biso   1.000  C
  C603     1.0000 0.02633  0.85137  0.22422  Biso   1.000  C
  C604     1.0000 0.72151  0.98389  0.62273  Biso   1.000  C
  C605     1.0000 0.40397  0.18300  0.50615  Biso   1.000  C
  C606     1.0000 0.51720  0.85749  0.32066  Biso   1.000  C
  C607     1.0000 0.30251  0.47112  0.92261  Biso   1.000  C
  C608     1.0000 0.61398  0.67661  0.04389  Biso   1.000  C
  C609     1.0000 0.51408  0.35675  0.22262  Biso   1.000  C
  C610     1.0000 0.80523  0.46633  0.62135  Biso   1.000  C
  C611     1.0000 0.11866  0.67813  0.50669  Biso   1.000  C
  C612     1.0000 0.00150  0.35369  0.31942  Biso   1.000  C
  C613     1.0000 0.80206  0.96364  0.12726  Biso   1.000  C
  C614     1.0000 0.10949  0.76156  0.99525  Biso   1.000  C
  C615     1.0000 0.01124  0.08697  0.81754  Biso   1.000  C
  C616     1.0000 0.30322  0.96741  0.41321  Biso   1.000  C
  C617     1.0000 0.61456  0.77162  0.55126  Biso   1.000  C
  C618     1.0000 0.50519  0.08156  0.71540  Biso   1.000  C
  C619     1.0000 0.71647  0.47227  0.12085  Biso   1.000  C
  C620     1.0000 0.41008  0.26618  0.99838  Biso   1.000  C
  C621     1.0000 0.50400  0.58122  0.81606  Biso   1.000  C
  C622     1.0000 0.21870  0.47451  0.42143  Biso   1.000  C
  C623     1.0000 0.90469  0.26668  0.52442  Biso   1.000  C
  C624     1.0000 0.00317  0.58573  0.72668  Biso   1.000  C
  C625     1.0000 0.00309  0.18509  0.93373  Biso   1.000  C
  C626     1.0000 0.91346  0.94557  0.23001  Biso   1.000  C
  C627     1.0000 0.21782  0.86467  0.01250  Biso   1.000  C
  C628     1.0000 0.49777  0.18345  0.60215  Biso   1.000  C
  C629     1.0000 0.40902  0.94950  0.30927  Biso   1.000  C
  C630     1.0000 0.72058  0.87360  0.52327  Biso   1.000  C
  C631     1.0000 0.51799  0.67719  0.93007  Biso   1.000  C
  C632     1.0000 0.60972  0.46706  0.23285  Biso   1.000  C
  C633     1.0000 0.30261  0.36694  0.02504  Biso   1.000  C
  C634     1.0000 0.01686  0.68699  0.61422  Biso   1.000  C
  C635     1.0000 0.11304  0.44868  0.31381  Biso   1.000  C
  C636     1.0000 0.80058  0.37571  0.50609  Biso   1.000  C
  C637     1.0000 0.02658  0.75317  0.10991  Biso   1.000  C
  C638     1.0000 0.10374  0.98577  0.80452  Biso   1.000  C
  C639     1.0000 0.80183  0.07315  0.03374  Biso   1.000  C
  C640     1.0000 0.53004  0.75927  0.43388  Biso   1.000  C
  C641     1.0000 0.61005  0.98629  0.72364  Biso   1.000  C
  C642     1.0000 0.30290  0.07123  0.51062  Biso   1.000  C
  C643     1.0000 0.52246  0.26136  0.10554  Biso   1.000  C
  C644     1.0000 0.40580  0.47129  0.81142  Biso   1.000  C
  C645     1.0000 0.72371  0.56984  0.02446  Biso   1.000  C
  C646     1.0000 0.01555  0.25548  0.43418  Biso   1.000  C
  C647     1.0000 0.90718  0.47931  0.73269  Biso   1.000  C
  C648     1.0000 0.22134  0.56880  0.53342  Biso   1.000  C
  C649     1.0000 0.01745  0.67490  0.40867  Biso   1.000  C
  C650     1.0000 0.40338  0.98605  0.72586  Biso   1.000  C
  C651     1.0000 0.71493  0.36803  0.00998  Biso   1.000  C
  C652     1.0000 0.51374  0.67131  0.13251  Biso   1.000  C
  C653     1.0000 0.90138  0.98769  0.81412  Biso   1.000  C
  C654     1.0000 0.21356  0.36979  0.50536  Biso   1.000  C
  C655     1.0000 0.50596  0.17239  0.39579  Biso   1.000  C
  C656     1.0000 0.10950  0.47620  0.73258  Biso   1.000  C
  C657     1.0000 0.80124  0.86951  0.01266  Biso   1.000  C
  C658     1.0000 0.03268  0.17009  0.13195  Biso   1.000  C
  C659     1.0000 0.61136  0.48048  0.80567  Biso   1.000  C
  C660     1.0000 0.30865  0.87014  0.53355  Biso   1.000  C
  C661     1.0000 0.00455  0.26611  0.63745  Biso   1.000  C
  C662     1.0000 0.60767  0.97506  0.31062  Biso   1.000  C
  C663     1.0000 0.30557  0.57104  0.00540  Biso   1.000  C
  C664     1.0000 0.50599  0.26531  0.90115  Biso   1.000  C
  C665     1.0000 0.11625  0.96661  0.22032  Biso   1.000  C
  C666     1.0000 0.80339  0.57727  0.52807  Biso   1.000  C
  C667     1.0000 0.49945  0.76929  0.63441  Biso   1.000  C
  C668     1.0000 0.91073  0.46875  0.31449  Biso   1.000  C
  C669     1.0000 0.22579  0.07195  0.99925  Biso   1.000  C
  C670     1.0000 0.99204  0.77100  0.91100  Biso   1.000  C
  C671     1.0000 0.40975  0.45627  0.23362  Biso   1.000  C
  C672     1.0000 0.71871  0.07742  0.51590  Biso   1.000  C
  C673     1.0000 0.19906  0.97866  0.81502  Biso   1.000  C
  C674     1.0000 0.81673  0.16561  0.02056  Biso   1.000  C
  C675     1.0000 0.02701  0.76060  0.20586  Biso   1.000  C
  C676     1.0000 0.70647  0.98194  0.71571  Biso   1.000  C
  C677     1.0000 0.31243  0.16732  0.51472  Biso   1.000  C
  C678     1.0000 0.52710  0.76342  0.33851  Biso   1.000  C
  C679     1.0000 0.31350  0.47715  0.82808  Biso   1.000  C
  C680     1.0000 0.70733  0.66299  0.03250  Biso   1.000  C
  C681     1.0000 0.51427  0.26693  0.20140  Biso   1.000  C
  C682     1.0000 0.81640  0.46773  0.71651  Biso   1.000  C
  C683     1.0000 0.21033  0.66526  0.52757  Biso   1.000  C
  C684     1.0000 0.01313  0.26140  0.33844  Biso   1.000  C
  C685     1.0000 0.81443  0.95516  0.21932  Biso   1.000  C
  C686     1.0000 0.20419  0.77214  0.00317  Biso   1.000  C
  C687     1.0000 0.00897  0.17999  0.83818  Biso   1.000  C
  C688     1.0000 0.31468  0.95979  0.31997  Biso   1.000  C
  C689     1.0000 0.70787  0.77877  0.53112  Biso   1.000  C
  C690     1.0000 0.50628  0.17469  0.69526  Biso   1.000  C
  C691     1.0000 0.70646  0.47438  0.21426  Biso   1.000  C
  C692     1.0000 0.31478  0.27425  0.00342  Biso   1.000  C
  C693     1.0000 0.50179  0.67366  0.83659  Biso   1.000  C
  C694     1.0000 0.20677  0.46047  0.32600  Biso   1.000  C
  C695     1.0000 0.81181  0.28022  0.51102  Biso   1.000  C
  C696     1.0000 0.00410  0.67821  0.70844  Biso   1.000  C
  C697     1.0000 0.70248  0.96824  0.32592  Biso   1.000  C
  C698     1.0000 0.31603  0.66654  0.01127  Biso   1.000  C
  C699     1.0000 0.00283  0.28657  0.73119  Biso   1.000  C
  C700     1.0000 0.20702  0.96883  0.20831  Biso   1.000  C
  C701     1.0000 0.81769  0.67232  0.52860  Biso   1.000  C
  C702     1.0000 0.51526  0.28223  0.80613  Biso   1.000  C
  C703     1.0000 0.81569  0.48084  0.31969  Biso   1.000  C
  C704     1.0000 0.20495  0.16544  0.00700  Biso   1.000  C
  C705     1.0000 0.50038  0.78645  0.72752  Biso   1.000  C
  C706     1.0000 0.31571  0.46748  0.22148  Biso   1.000  C
  C707     1.0000 0.70361  0.17156  0.51263  Biso   1.000  C
  C708     1.0000 0.99680  0.78890  0.81811  Biso   1.000  C
  C709     1.0000 0.31102  0.98716  0.71045  Biso   1.000  C
  C710     1.0000 0.70680  0.27330  0.00000  Biso   1.000  C
  C711     1.0000 0.02133  0.65541  0.31609  Biso   1.000  C
  C712     1.0000 0.80936  0.99156  0.82890  Biso   1.000  C
  C713     1.0000 0.20478  0.27610  0.52502  Biso   1.000  C
  C714     1.0000 0.51521  0.65712  0.22633  Biso   1.000  C
  C715     1.0000 0.20404  0.47515  0.72089  Biso   1.000  C
  C716     1.0000 0.81647  0.77366  0.02914  Biso   1.000  C
  C717     1.0000 0.48960  0.15510  0.30665  Biso   1.000  C
  C718     1.0000 0.70405  0.47237  0.82449  Biso   1.000  C
  C719     1.0000 0.31818  0.77220  0.53398  Biso   1.000  C
  C720     1.0000 0.02982  0.15632  0.22464  Biso   1.000  C
  C721     1.0000 0.54046  0.76969  0.31011  Biso   1.000  C
  C722     1.0000 0.31627  0.49249  0.80145  Biso   1.000  C
  C723     1.0000 0.78451  0.28474  0.52521  Biso   1.000  C
  C724     1.0000 0.01149  0.73379  0.19949  Biso   1.000  C
  C725     1.0000 0.79045  0.48413  0.71151  Biso   1.000  C
  C726     1.0000 0.28601  0.28028  0.99252  Biso   1.000  C
  C727     1.0000 0.99447  0.26073  0.31156  Biso   1.000  C
  C728     1.0000 0.22669  0.99160  0.82102  Biso   1.000  C
  C729     1.0000 0.73498  0.78467  0.54612  Biso   1.000  C
  C730     1.0000 0.49174  0.27170  0.22247  Biso   1.000  C
  C731     1.0000 0.73276  0.96325  0.71464  Biso   1.000  C
  C732     1.0000 0.23198  0.77688  0.98936  Biso   1.000  C
  C733     1.0000 0.48849  0.17459  0.72088  Biso   1.000  C
  C734     1.0000 0.70722  0.45432  0.23856  Biso   1.000  C
  C735     1.0000 0.20366  0.69014  0.54589  Biso   1.000  C
  C736     1.0000 0.99106  0.20641  0.84049  Biso   1.000  C
  C737     1.0000 0.23520  0.44334  0.32929  Biso   1.000  C
  C738     1.0000 0.73499  0.65838  0.04927  Biso   1.000  C
  C739     1.0000 0.01893  0.67538  0.73603  Biso   1.000  C
  C740     1.0000 0.78378  0.94401  0.21504  Biso   1.000  C
  C741     1.0000 0.28646  0.16483  0.49784  Biso   1.000  C
  C742     1.0000 0.52138  0.67176  0.81075  Biso   1.000  C
  C743     1.0000 0.28656  0.94452  0.32334  Biso   1.000  C
  C744     1.0000 0.81823  0.19173  0.03713  Biso   1.000  C
  C745     1.0000 0.03818  0.68241  0.31974  Biso   1.000  C
  C746     1.0000 0.28264  0.00073  0.70561  Biso   1.000  C
  C747     1.0000 0.72807  0.27727  0.02348  Biso   1.000  C
  C748     1.0000 0.53467  0.68175  0.22625  Biso   1.000  C
  C749     1.0000 0.78295  0.97368  0.83355  Biso   1.000  C
  C750     1.0000 0.23292  0.28178  0.53724  Biso   1.000  C
  C751     1.0000 0.49930  0.14996  0.27689  Biso   1.000  C
  C752     1.0000 0.23121  0.45876  0.71814  Biso   1.000  C
  C753     1.0000 0.79086  0.77187  0.00996  Biso   1.000  C
  C754     1.0000 0.04266  0.15171  0.25271  Biso   1.000  C
  C755     1.0000 0.70483  0.49341  0.79845  Biso   1.000  C
  C756     1.0000 0.28927  0.77747  0.52394  Biso   1.000  C
  C757     1.0000 0.98748  0.25960  0.72968  Biso   1.000  C
  C758     1.0000 0.70057  0.98512  0.29849  Biso   1.000  C
  C759     1.0000 0.28850  0.66133  0.02263  Biso   1.000  C
  C760     1.0000 0.53340  0.25535  0.80720  Biso   1.000  C
  C761     1.0000 0.23112  0.98887  0.21022  Biso   1.000  C
  C762     1.0000 0.82054  0.69996  0.51450  Biso   1.000  C
  C763     1.0000 0.48379  0.79076  0.75460  Biso   1.000  C
  C764     1.0000 0.78759  0.46780  0.32441  Biso   1.000  C
  C765     1.0000 0.23355  0.16131  0.01896  Biso   1.000  C
  C766     1.0000 0.97810  0.79022  0.79253  Biso   1.000  C
  C767     1.0000 0.32228  0.47603  0.25212  Biso   1.000  C
  C768     1.0000 0.69763  0.19915  0.49854  Biso   1.000  C
  C769     1.0000 0.48551  0.69998  0.84251  Biso   1.000  C
  C770     1.0000 0.81837  0.44942  0.74188  Biso   1.000  C
  C771     1.0000 0.70312  0.75058  0.51821  Biso   1.000  C
  C772     1.0000 0.98629  0.70302  0.70381  Biso   1.000  C
  C773     1.0000 0.28598  0.46156  0.83238  Biso   1.000  C
  C774     1.0000 0.19982  0.74418  0.01710  Biso   1.000  C
  C775     1.0000 0.02898  0.17791  0.81410  Biso   1.000  C
  C776     1.0000 0.70275  0.00165  0.74088  Biso   1.000  C
  C777     1.0000 0.81576  0.25145  0.49606  Biso   1.000  C
  C778     1.0000 0.52335  0.19983  0.69077  Biso   1.000  C
  C779     1.0000 0.19502  0.96573  0.78647  Biso   1.000  C
  C780     1.0000 0.32274  0.24488  0.01154  Biso   1.000  C
  C781     1.0000 0.52795  0.23870  0.20034  Biso   1.000  C
  C782     1.0000 0.20439  0.47665  0.29989  Biso   1.000  C
  C783     1.0000 0.31344  0.19113  0.53422  Biso   1.000  C
  C784     1.0000 0.03334  0.23750  0.34202  Biso   1.000  C
  C785     1.0000 0.73045  0.49315  0.20952  Biso   1.000  C
  C786     1.0000 0.79222  0.16106  0.00070  Biso   1.000  C
  C787     1.0000 0.04383  0.76549  0.23261  Biso   1.000  C
  C788     1.0000 0.31944  0.97517  0.29211  Biso   1.000  C
  C789     1.0000 0.23772  0.66333  0.51286  Biso   1.000  C
  C790     1.0000 0.51505  0.73618  0.34554  Biso   1.000  C
  C791     1.0000 0.81915  0.97011  0.24649  Biso   1.000  C
  C792     1.0000 0.70578  0.68843  0.01474  Biso   1.000  C
  C793     1.0000 0.47955  0.18615  0.31119  Biso   1.000  C
  C794     1.0000 0.28749  0.45579  0.21381  Biso   1.000  C
  C795     1.0000 0.19710  0.24966  0.50981  Biso   1.000  C
  C796     1.0000 0.01182  0.18296  0.22082  Biso   1.000  C
  C797     1.0000 0.82201  0.49276  0.29141  Biso   1.000  C
  C798     1.0000 0.70894  0.24702  0.98249  Biso   1.000  C
  C799     1.0000 0.00742  0.65108  0.28871  Biso   1.000  C
  C800     1.0000 0.20563  0.94766  0.23215  Biso   1.000  C
  C801     1.0000 0.32457  0.74435  0.54726  Biso   1.000  C
  C802     1.0000 0.49662  0.65517  0.25246  Biso   1.000  C
  C803     1.0000 0.72720  0.94854  0.32943  Biso   1.000  C
  C804     1.0000 0.82158  0.74824  0.04824  Biso   1.000  C
  C805     1.0000 0.51582  0.75945  0.72369  Biso   1.000  C
  C806     1.0000 0.72554  0.44952  0.82454  Biso   1.000  C
  C807     1.0000 0.79158  0.66869  0.54700  Biso   1.000  C
  C808     1.0000 0.01499  0.76283  0.82041  Biso   1.000  C
  C809     1.0000 0.20114  0.49414  0.74706  Biso   1.000  C
  C810     1.0000 0.32066  0.69368  0.99483  Biso   1.000  C
  C811     1.0000 0.02301  0.29202  0.75489  Biso   1.000  C
  C812     1.0000 0.81231  0.00406  0.80057  Biso   1.000  C
  C813     1.0000 0.73261  0.16870  0.52816  Biso   1.000  C
  C814     1.0000 0.50009  0.28603  0.77864  Biso   1.000  C
  C815     1.0000 0.31614  0.97197  0.73759  Biso   1.000  C
  C816     1.0000 0.20065  0.19256  0.99207  Biso   1.000  C
  C817     1.0000 0.99282  0.22828  0.81894  Biso   1.000  C
  C818     1.0000 0.76215  0.94883  0.23569  Biso   1.000  C
  C819     1.0000 0.25342  0.75632  0.98900  Biso   1.000  C
  C820     1.0000 0.49241  0.19640  0.74297  Biso   1.000  C
  C821     1.0000 0.26523  0.94652  0.30155  Biso   1.000  C
  C822     1.0000 0.75705  0.76366  0.54485  Biso   1.000  C
  C823     1.0000 0.52220  0.69530  0.79301  Biso   1.000  C
  C824     1.0000 0.73085  0.45429  0.25824  Biso   1.000  C
  C825     1.0000 0.26565  0.25731  0.98999  Biso   1.000  C
  C826     1.0000 0.01437  0.69589  0.75673  Biso   1.000  C
  C827     1.0000 0.25626  0.44482  0.30788  Biso   1.000  C
  C828     1.0000 0.76264  0.26443  0.52360  Biso   1.000  C
  C829     1.0000 0.01286  0.71417  0.22134  Biso   1.000  C
  C830     1.0000 0.24741  0.99319  0.80074  Biso   1.000  C
  C831     1.0000 0.79561  0.21305  0.03481  Biso   1.000  C
  C832     1.0000 0.53699  0.74797  0.28981  Biso   1.000  C
  C833     1.0000 0.75183  0.96418  0.73749  Biso   1.000  C
  C834     1.0000 0.26449  0.18682  0.50032  Biso   1.000  C
  C835     1.0000 0.48425  0.25033  0.24196  Biso   1.000  C
  C836     1.0000 0.29502  0.49430  0.78003  Biso   1.000  C
  C837     1.0000 0.75610  0.68013  0.04906  Biso   1.000  C
  C838     1.0000 0.99735  0.23938  0.29080  Biso   1.000  C
  C839     1.0000 0.76903  0.48379  0.73213  Biso   1.000  C
  C840     1.0000 0.22504  0.71159  0.54875  Biso   1.000  C
  C841     1.0000 0.21735  0.96912  0.76660  Biso   1.000  C
  C842     1.0000 0.77056  0.18230  0.00086  Biso   1.000  C
  C843     1.0000 0.04284  0.74375  0.25364  Biso   1.000  C
  C844     1.0000 0.72222  0.99833  0.76484  Biso   1.000  C
  C845     1.0000 0.29228  0.21024  0.53790  Biso   1.000  C
  C846     1.0000 0.51331  0.71581  0.32355  Biso   1.000  C
  C847     1.0000 0.26457  0.46303  0.81268  Biso   1.000  C
  C848     1.0000 0.72739  0.70951  0.01599  Biso   1.000  C
  C849     1.0000 0.52088  0.21663  0.21970  Biso   1.000  C
  C850     1.0000 0.79506  0.44783  0.76076  Biso   1.000  C
  C851     1.0000 0.25892  0.68370  0.51893  Biso   1.000  C
  C852     1.0000 0.03619  0.21859  0.31754  Biso   1.000  C
  C853     1.0000 0.79785  0.97170  0.26740  Biso   1.000  C
  C854     1.0000 0.22201  0.72418  0.01730  Biso   1.000  C
  C855     1.0000 0.03051  0.19982  0.79505  Biso   1.000  C
  C856     1.0000 0.29804  0.97593  0.27148  Biso   1.000  C
  C857     1.0000 0.72646  0.73071  0.51715  Biso   1.000  C
  C858     1.0000 0.52533  0.22169  0.71165  Biso   1.000  C
  C859     1.0000 0.75477  0.49105  0.22775  Biso   1.000  C
  C860     1.0000 0.30043  0.22344  0.00969  Biso   1.000  C
  C861     1.0000 0.48691  0.72180  0.82250  Biso   1.000  C
  C862     1.0000 0.22660  0.47845  0.28032  Biso   1.000  C
  C863     1.0000 0.79252  0.23234  0.49601  Biso   1.000  C
  C864     1.0000 0.98557  0.72494  0.72455  Biso   1.000  C
  C865     1.0000 0.72504  0.49074  0.77694  Biso   1.000  C
  C866     1.0000 0.80012  0.72232  0.51871  Biso   1.000  C
  C867     1.0000 0.48630  0.77064  0.77856  Biso   1.000  C
  C868     1.0000 0.25234  0.45831  0.73991  Biso   1.000  C
  C869     1.0000 0.26527  0.67982  0.01807  Biso   1.000  C
  C870     1.0000 0.97972  0.76841  0.77208  Biso   1.000  C
  C871     1.0000 0.76245  0.97194  0.81165  Biso   1.000  C
  C872     1.0000 0.71908  0.21946  0.49530  Biso   1.000  C
  C873     1.0000 0.99386  0.23892  0.74905  Biso   1.000  C
  C874     1.0000 0.26282  0.00109  0.72813  Biso   1.000  C
  C875     1.0000 0.25545  0.18109  0.01604  Biso   1.000  C
  C876     1.0000 0.53355  0.23721  0.78386  Biso   1.000  C
  C877     1.0000 0.30088  0.47360  0.27272  Biso   1.000  C
  C878     1.0000 0.25237  0.25872  0.53392  Biso   1.000  C
  C879     1.0000 0.50149  0.17254  0.25638  Biso   1.000  C
  C880     1.0000 0.76734  0.46713  0.30104  Biso   1.000  C
  C881     1.0000 0.75113  0.25693  0.02680  Biso   1.000  C
  C882     1.0000 0.03866  0.17224  0.27477  Biso   1.000  C
  C883     1.0000 0.25043  0.98635  0.23350  Biso   1.000  C
  C884     1.0000 0.26746  0.75775  0.52702  Biso   1.000  C
  C885     1.0000 0.04151  0.70136  0.29729  Biso   1.000  C
  C886     1.0000 0.72334  0.98414  0.27836  Biso   1.000  C
  C887     1.0000 0.77151  0.74969  0.01243  Biso   1.000  C
  C888     1.0000 0.53700  0.70020  0.25052  Biso   1.000  C
  C889     1.0000 0.74971  0.94710  0.30820  Biso   1.000  C
  C890     1.0000 0.29872  0.71440  0.99172  Biso   1.000  C
  C891     1.0000 0.02651  0.27068  0.77527  Biso   1.000  C
  C892     1.0000 0.22689  0.94398  0.25274  Biso   1.000  C
  C893     1.0000 0.76977  0.69089  0.54784  Biso   1.000  C
  C894     1.0000 0.49958  0.26610  0.75590  Biso   1.000  C
  C895     1.0000 0.80296  0.48810  0.26951  Biso   1.000  C
  C896     1.0000 0.22119  0.21477  0.99059  Biso   1.000  C
  C897     1.0000 0.51771  0.74191  0.74810  Biso   1.000  C
  C898     1.0000 0.26587  0.45554  0.23482  Biso   1.000  C
  C899     1.0000 0.75343  0.19031  0.52389  Biso   1.000  C
  C900     1.0000 0.01958  0.74353  0.79832  Biso   1.000  C
  C901     1.0000 0.29348  0.97218  0.75796  Biso   1.000  C
  C902     1.0000 0.73088  0.22745  0.98814  Biso   1.000  C
  C903     1.0000 0.01183  0.66980  0.26600  Biso   1.000  C
  C904     1.0000 0.79235  0.00033  0.77822  Biso   1.000  C
  C905     1.0000 0.21727  0.22660  0.50903  Biso   1.000  C
  C906     1.0000 0.49934  0.67480  0.27528  Biso   1.000  C
  C907     1.0000 0.22234  0.49218  0.76867  Biso   1.000  C
  C908     1.0000 0.80072  0.72775  0.05187  Biso   1.000  C
  C909     1.0000 0.48154  0.20801  0.28942  Biso   1.000  C
  C910     1.0000 0.74515  0.44864  0.80142  Biso   1.000  C
  C911     1.0000 0.30294  0.72364  0.54919  Biso   1.000  C
  C912     1.0000 0.00944  0.20310  0.24425  Biso   1.000  C
  C913     1.0000 0.76990  0.46596  0.75646  Biso   1.000  C
  C914     1.0000 0.75180  0.73796  0.53216  Biso   1.000  C
  C915     1.0000 0.50385  0.71977  0.79699  Biso   1.000  C
  C916     1.0000 0.26996  0.47794  0.78667  Biso   1.000  C
  C917     1.0000 0.24735  0.72932  0.00176  Biso   1.000  C
  C918     1.0000 0.99900  0.72103  0.75183  Biso   1.000  C
  C919     1.0000 0.74575  0.98038  0.76245  Biso   1.000  C
  C920     1.0000 0.76618  0.23868  0.50910  Biso   1.000  C
  C921     1.0000 0.01343  0.22633  0.79709  Biso   1.000  C
  C922     1.0000 0.24230  0.98318  0.77280  Biso   1.000  C
  C923     1.0000 0.27206  0.22978  0.00113  Biso   1.000  C
  C924     1.0000 0.51086  0.21962  0.73840  Biso   1.000  C
  C925     1.0000 0.25058  0.46218  0.28495  Biso   1.000  C
  C926     1.0000 0.26703  0.20967  0.51961  Biso   1.000  C
  C927     1.0000 0.49852  0.22267  0.23943  Biso   1.000  C
  C928     1.0000 0.75391  0.47307  0.25284  Biso   1.000  C
  C929     1.0000 0.77207  0.20909  0.01661  Biso   1.000  C
  C930     1.0000 0.01766  0.21716  0.29422  Biso   1.000  C
  C931     1.0000 0.27121  0.96210  0.27624  Biso   1.000  C
  C932     1.0000 0.25258  0.70697  0.53753  Biso   1.000  C
  C933     1.0000 0.02872  0.71757  0.24757  Biso   1.000  C
  C934     1.0000 0.76935  0.96276  0.26243  Biso   1.000  C
  C935     1.0000 0.75150  0.70632  0.03418  Biso   1.000  C
  C936     1.0000 0.52264  0.72127  0.29479  Biso   1.000  C
  C937     1.0000 0.75074  0.23221  0.01079  Biso   1.000  C
  C938     1.0000 0.02723  0.69642  0.27096  Biso   1.000  C
  C939     1.0000 0.26767  0.98545  0.75364  Biso   1.000  C
  C940     1.0000 0.24506  0.23172  0.52145  Biso   1.000  C
  C941     1.0000 0.51908  0.69799  0.27397  Biso   1.000  C
  C942     1.0000 0.76847  0.98294  0.78433  Biso   1.000  C
  C943     1.0000 0.77666  0.72681  0.03250  Biso   1.000  C
  C944     1.0000 0.49371  0.20109  0.26287  Biso   1.000  C
  C945     1.0000 0.24685  0.47560  0.76368  Biso   1.000  C
  C946     1.0000 0.27401  0.73066  0.53980  Biso   1.000  C
  C947     1.0000 0.02406  0.19719  0.27049  Biso   1.000  C
  C948     1.0000 0.74690  0.46921  0.77920  Biso   1.000  C
  C949     1.0000 0.27117  0.70753  0.00605  Biso   1.000  C
  C950     1.0000 0.01286  0.24473  0.77173  Biso   1.000  C
  C951     1.0000 0.74641  0.96457  0.28412  Biso   1.000  C
  C952     1.0000 0.77578  0.71788  0.53548  Biso   1.000  C
  C953     1.0000 0.51614  0.24150  0.75990  Biso   1.000  C
  C954     1.0000 0.24799  0.96498  0.25455  Biso   1.000  C
  C955     1.0000 0.24925  0.20795  0.00340  Biso   1.000  C
  C956     1.0000 0.50394  0.74508  0.77557  Biso   1.000  C
  C957     1.0000 0.77557  0.47686  0.27474  Biso   1.000  C
  C958     1.0000 0.74584  0.21437  0.50910  Biso   1.000  C
  C959     1.0000 0.99920  0.74545  0.77453  Biso   1.000  C
  C960     1.0000 0.27342  0.46314  0.26328  Biso   1.000  C
  Cu1      1.0000 0.01116  0.47901  0.67895  Biso   1.000  Cu
  Cu2      1.0000 0.66289  0.97675  0.52053  Biso   1.000  Cu
  Cu3      1.0000 0.51164  0.62039  0.02879  Biso   1.000  Cu
  Cu4      1.0000 0.50967  0.47452  0.86181  Biso   1.000  Cu
  Cu5      1.0000 0.16664  0.96838  0.01109  Biso   1.000  Cu
  Cu6      1.0000 0.01373  0.62349  0.51315  Biso   1.000  Cu
  Cu7      1.0000 0.50738  0.97681  0.67253  Biso   1.000  Cu
  Cu8      1.0000 0.85570  0.47565  0.51649  Biso   1.000  Cu
  Cu9      1.0000 0.01234  0.11894  0.02879  Biso   1.000  Cu
  Cu10     1.0000 0.00583  0.98472  0.86840  Biso   1.000  Cu
  Cu11     1.0000 0.35612  0.46679  0.02333  Biso   1.000  Cu
  Cu12     1.0000 0.50741  0.12436  0.50305  Biso   1.000  Cu
  Cu13     1.0000 0.01081  0.45853  0.37189  Biso   1.000  Cu
  Cu14     1.0000 0.35894  0.97194  0.51363  Biso   1.000  Cu
  Cu15     1.0000 0.51340  0.31971  0.00486  Biso   1.000  Cu
  Cu16     1.0000 0.50743  0.46396  0.17694  Biso   1.000  Cu
  Cu17     1.0000 0.85703  0.97232  0.02766  Biso   1.000  Cu
  Cu18     1.0000 0.00682  0.31869  0.53248  Biso   1.000  Cu
  Cu19     1.0000 0.50995  0.96209  0.36681  Biso   1.000  Cu
  Cu20     1.0000 0.16128  0.46960  0.52210  Biso   1.000  Cu
  Cu21     1.0000 0.01118  0.81683  0.01386  Biso   1.000  Cu
  Cu22     1.0000 0.01201  0.95772  0.17529  Biso   1.000  Cu
  Cu23     1.0000 0.66463  0.47140  0.01861  Biso   1.000  Cu
  Cu24     1.0000 0.51270  0.81758  0.53207  Biso   1.000  Cu
  Cu25     1.0000 0.21921  0.96625  0.01056  Biso   1.000  Cu
  Cu26     1.0000 0.01320  0.17431  0.03246  Biso   1.000  Cu
  Cu27     1.0000 0.01660  0.95473  0.22811  Biso   1.000  Cu
  Cu28     1.0000 0.71738  0.97594  0.51743  Biso   1.000  Cu
  Cu29     1.0000 0.50693  0.17796  0.50172  Biso   1.000  Cu
  Cu30     1.0000 0.51102  0.95514  0.31309  Biso   1.000  Cu
  Cu31     1.0000 0.30369  0.46987  0.02193  Biso   1.000  Cu
  Cu32     1.0000 0.51242  0.67406  0.02889  Biso   1.000  Cu
  Cu33     1.0000 0.50931  0.45942  0.23245  Biso   1.000  Cu
  Cu34     1.0000 0.80255  0.47630  0.51855  Biso   1.000  Cu
  Cu35     1.0000 0.01230  0.67775  0.50975  Biso   1.000  Cu
  Cu36     1.0000 0.00893  0.45594  0.31770  Biso   1.000  Cu
  Cu37     1.0000 0.80332  0.97340  0.02594  Biso   1.000  Cu
  Cu38     1.0000 0.00884  0.76172  0.00890  Biso   1.000  Cu
  Cu39     1.0000 0.00250  0.98505  0.81363  Biso   1.000  Cu
  Cu40     1.0000 0.30451  0.97003  0.51320  Biso   1.000  Cu
  Cu41     1.0000 0.51530  0.76578  0.53438  Biso   1.000  Cu
  Cu42     1.0000 0.50777  0.98193  0.72770  Biso   1.000  Cu
  Cu43     1.0000 0.71756  0.46739  0.02064  Biso   1.000  Cu
  Cu44     1.0000 0.51088  0.26428  0.00460  Biso   1.000  Cu
  Cu45     1.0000 0.50710  0.47840  0.80582  Biso   1.000  Cu
  Cu46     1.0000 0.21520  0.46804  0.52512  Biso   1.000  Cu
  Cu47     1.0000 0.00754  0.26582  0.53568  Biso   1.000  Cu
  Cu48     1.0000 0.00810  0.48077  0.73396  Biso   1.000  Cu
  H1       1.0000 0.24601  0.76233  0.51821  Biso   1.000  H
  H2       1.0000 0.54787  0.21840  0.78504  Biso   1.000  H
  H3       1.0000 0.74470  0.45750  0.30466  Biso   1.000  H
  H4       1.0000 0.75363  0.75202  0.99844  Biso   1.000  H
  H5       1.0000 0.98049  0.21859  0.74815  Biso   1.000  H
  H6       1.0000 0.30544  0.48075  0.29489  Biso   1.000  H
  H7       1.0000 0.27436  0.26401  0.54428  Biso   1.000  H
  H8       1.0000 0.96469  0.76908  0.75382  Biso   1.000  H
  H9       1.0000 0.72501  0.99883  0.26048  Biso   1.000  H
  H10      1.0000 0.76796  0.26235  0.04277  Biso   1.000  H
  H11      1.0000 0.47320  0.77342  0.79860  Biso   1.000  H
  H12      1.0000 0.26630  0.00305  0.23504  Biso   1.000  H
  H13      1.0000 0.71512  0.23872  0.48131  Biso   1.000  H
  H14      1.0000 0.55317  0.71701  0.24910  Biso   1.000  H
  H15      1.0000 0.27123  0.44392  0.73696  Biso   1.000  H
  H16      1.0000 0.27552  0.17509  0.02518  Biso   1.000  H
  H17      1.0000 0.05743  0.71708  0.29965  Biso   1.000  H
  H18      1.0000 0.72207  0.50557  0.76052  Biso   1.000  H
  H19      1.0000 0.80341  0.74357  0.51007  Biso   1.000  H
  H20      1.0000 0.05021  0.16808  0.29437  Biso   1.000  H
  H21      1.0000 0.24415  0.01611  0.72684  Biso   1.000  H
  H22      1.0000 0.24387  0.67341  0.02472  Biso   1.000  H
  H23      1.0000 0.51035  0.16699  0.23542  Biso   1.000  H
  H24      1.0000 0.74314  0.95947  0.81454  Biso   1.000  H
  H25      1.0000 0.26827  0.00372  0.80641  Biso   1.000  H
  H26      1.0000 0.79890  0.23136  0.04805  Biso   1.000  H
  H27      1.0000 0.00063  0.69445  0.21602  Biso   1.000  H
  H28      1.0000 0.77232  0.95261  0.73531  Biso   1.000  H
  H29      1.0000 0.24608  0.18468  0.48628  Biso   1.000  H
  H30      1.0000 0.54634  0.75035  0.26902  Biso   1.000  H
  H31      1.0000 0.29713  0.50709  0.76050  Biso   1.000  H
  H32      1.0000 0.77554  0.67723  0.06194  Biso   1.000  H
  H33      1.0000 0.46783  0.25305  0.25884  Biso   1.000  H
  H34      1.0000 0.75269  0.50041  0.73149  Biso   1.000  H
  H35      1.0000 0.22115  0.73067  0.56208  Biso   1.000  H
  H36      1.0000 0.98141  0.24071  0.27252  Biso   1.000  H
  H37      1.0000 0.74028  0.94550  0.23054  Biso   1.000  H
  H38      1.0000 0.27382  0.76071  0.97826  Biso   1.000  H
  H39      1.0000 0.98136  0.24943  0.81863  Biso   1.000  H
  H40      1.0000 0.24389  0.93854  0.30435  Biso   1.000  H
  H41      1.0000 0.77779  0.76780  0.55285  Biso   1.000  H
  H42      1.0000 0.48215  0.19621  0.76270  Biso   1.000  H
  H43      1.0000 0.73152  0.43857  0.27558  Biso   1.000  H
  H44      1.0000 0.24530  0.26388  0.98102  Biso   1.000  H
  H45      1.0000 0.53581  0.69515  0.77496  Biso   1.000  H
  H46      1.0000 0.27692  0.43258  0.30997  Biso   1.000  H
  H47      1.0000 0.74237  0.26920  0.53330  Biso   1.000  H
  H48      1.0000 0.02359  0.69442  0.77873  Biso   1.000  H
  H49      1.0000 0.22740  0.49174  0.26125  Biso   1.000  H
  H50      1.0000 0.29413  0.22413  0.55905  Biso   1.000  H
  H51      1.0000 0.53083  0.19580  0.21647  Biso   1.000  H
  H52      1.0000 0.77207  0.50579  0.22693  Biso   1.000  H
  H53      1.0000 0.75245  0.17811  0.98696  Biso   1.000  H
  H54      1.0000 0.05459  0.20473  0.31628  Biso   1.000  H
  H55      1.0000 0.30183  0.98529  0.25061  Biso   1.000  H
  H56      1.0000 0.28066  0.67914  0.51200  Biso   1.000  H
  H57      1.0000 0.05691  0.74796  0.27309  Biso   1.000  H
  H58      1.0000 0.80444  0.97816  0.28987  Biso   1.000  H
  H59      1.0000 0.72590  0.72714  0.00092  Biso   1.000  H
  H60      1.0000 0.50321  0.69588  0.32774  Biso   1.000  H
  H61      1.0000 0.80006  0.43377  0.78068  Biso   1.000  H
  H62      1.0000 0.72436  0.71073  0.50600  Biso   1.000  H
  H63      1.0000 0.47283  0.74038  0.82667  Biso   1.000  H
  H64      1.0000 0.24364  0.45248  0.81777  Biso   1.000  H
  H65      1.0000 0.21734  0.70520  0.03042  Biso   1.000  H
  H66      1.0000 0.97139  0.74291  0.72014  Biso   1.000  H
  H67      1.0000 0.71906  0.00940  0.78506  Biso   1.000  H
  H68      1.0000 0.79345  0.21280  0.48322  Biso   1.000  H
  H69      1.0000 0.04713  0.19358  0.77796  Biso   1.000  H
  H70      1.0000 0.21508  0.95718  0.74586  Biso   1.000  H
  H71      1.0000 0.30597  0.20166  0.01631  Biso   1.000  H
  H72      1.0000 0.53937  0.24012  0.70759  Biso   1.000  H
  H73      1.0000 0.75811  0.42935  0.79888  Biso   1.000  H
  H74      1.0000 0.74957  0.68999  0.55782  Biso   1.000  H
  H75      1.0000 0.52936  0.72255  0.74429  Biso   1.000  H
  H76      1.0000 0.22047  0.50122  0.78998  Biso   1.000  H
  H77      1.0000 0.30363  0.73456  0.98200  Biso   1.000  H
  H78      1.0000 0.03785  0.72825  0.80478  Biso   1.000  H
  H79      1.0000 0.79210  0.01157  0.75783  Biso   1.000  H
  H80      1.0000 0.77522  0.18985  0.53439  Biso   1.000  H
  H81      1.0000 0.04023  0.27437  0.79595  Biso   1.000  H
  H82      1.0000 0.29615  0.95797  0.77636  Biso   1.000  H
  H83      1.0000 0.21657  0.23543  0.97936  Biso   1.000  H
  H84      1.0000 0.48788  0.27488  0.73657  Biso   1.000  H
  H85      1.0000 0.24526  0.44388  0.22833  Biso   1.000  H
  H86      1.0000 0.20979  0.20610  0.49902  Biso   1.000  H
  H87      1.0000 0.47389  0.22959  0.29412  Biso   1.000  H
  H88      1.0000 0.80871  0.49553  0.24827  Biso   1.000  H
  H89      1.0000 0.73425  0.20881  0.97526  Biso   1.000  H
  H90      1.0000 0.99685  0.22117  0.23952  Biso   1.000  H
  H91      1.0000 0.22567  0.92529  0.26667  Biso   1.000  H
  H92      1.0000 0.30742  0.70212  0.55935  Biso   1.000  H
  H93      1.0000 0.99918  0.66691  0.24627  Biso   1.000  H
  H94      1.0000 0.76718  0.93214  0.31093  Biso   1.000  H
  H95      1.0000 0.80660  0.70993  0.06686  Biso   1.000  H
  H96      1.0000 0.48474  0.66996  0.29370  Biso   1.000  H
  H97      1.0000 0.87562  0.99045  0.93378  Biso   1.000  H
  H98      1.0000 0.92124  0.83719  0.01981  Biso   1.000  H
  H99      1.0000 0.00419  0.89012  0.88225  Biso   1.000  H
  H100     1.0000 0.37607  0.98233  0.60674  Biso   1.000  H
  H101     1.0000 0.42135  0.83688  0.51566  Biso   1.000  H
  H102     1.0000 0.50689  0.88753  0.65974  Biso   1.000  H
  H103     1.0000 0.63936  0.48384  0.92642  Biso   1.000  H
  H104     1.0000 0.60185  0.33402  0.99310  Biso   1.000  H
  H105     1.0000 0.50947  0.38453  0.87067  Biso   1.000  H
  H106     1.0000 0.14062  0.46381  0.61609  Biso   1.000  H
  H107     1.0000 0.09866  0.33773  0.53284  Biso   1.000  H
  H108     1.0000 0.00715  0.38331  0.65953  Biso   1.000  H
  H109     1.0000 0.14700  0.97723  0.10076  Biso   1.000  H
  H110     1.0000 0.10425  0.09671  0.01967  Biso   1.000  H
  H111     1.0000 0.01470  0.05196  0.15881  Biso   1.000  H
  H112     1.0000 0.63851  0.96913  0.43085  Biso   1.000  H
  H113     1.0000 0.60515  0.10069  0.50823  Biso   1.000  H
  H114     1.0000 0.50651  0.05240  0.37419  Biso   1.000  H
  H115     1.0000 0.38037  0.47291  0.11869  Biso   1.000  H
  H116     1.0000 0.41756  0.60215  0.03275  Biso   1.000  H
  H117     1.0000 0.50033  0.55170  0.16522  Biso   1.000  H
  H118     1.0000 0.87462  0.47669  0.42774  Biso   1.000  H
  H119     1.0000 0.91859  0.60334  0.51685  Biso   1.000  H
  H120     1.0000 0.01612  0.55262  0.38446  Biso   1.000  H
  H121     1.0000 0.09817  0.97738  0.87714  Biso   1.000  H
  H122     1.0000 0.87824  0.06211  0.03088  Biso   1.000  H
  H123     1.0000 0.02376  0.82840  0.10416  Biso   1.000  H
  H124     1.0000 0.60301  0.98766  0.64648  Biso   1.000  H
  H125     1.0000 0.37739  0.06136  0.50261  Biso   1.000  H
  H126     1.0000 0.51582  0.83522  0.43824  Biso   1.000  H
  H127     1.0000 0.42058  0.46397  0.88685  Biso   1.000  H
  H128     1.0000 0.64854  0.55956  0.02910  Biso   1.000  H
  H129     1.0000 0.52595  0.33648  0.10097  Biso   1.000  H
  H130     1.0000 0.92383  0.47520  0.65656  Biso   1.000  H
  H131     1.0000 0.14795  0.55923  0.52113  Biso   1.000  H
  H132     1.0000 0.99848  0.32969  0.43959  Biso   1.000  H
  H133     1.0000 0.92283  0.95996  0.15630  Biso   1.000  H
  H134     1.0000 0.14000  0.87478  0.01298  Biso   1.000  H
  H135     1.0000 0.00131  0.10964  0.93561  Biso   1.000  H
  H136     1.0000 0.41770  0.95498  0.38521  Biso   1.000  H
  H137     1.0000 0.64626  0.88308  0.53666  Biso   1.000  H
  H138     1.0000 0.49853  0.10690  0.59180  Biso   1.000  H
  H139     1.0000 0.59934  0.47046  0.15775  Biso   1.000  H
  H140     1.0000 0.37907  0.37820  0.02194  Biso   1.000  H
  H141     1.0000 0.51511  0.60091  0.93299  Biso   1.000  H
  H142     1.0000 0.10068  0.46061  0.38954  Biso   1.000  H
  H143     1.0000 0.87512  0.38533  0.51524  Biso   1.000  H
  H144     1.0000 0.01019  0.60950  0.60584  Biso   1.000  H
  H145     1.0000 0.59469  0.48121  0.87953  Biso   1.000  H
  H146     1.0000 0.87821  0.56543  0.52111  Biso   1.000  H
  H147     1.0000 0.50423  0.84249  0.61831  Biso   1.000  H
  H148     1.0000 0.09604  0.47158  0.65642  Biso   1.000  H
  H149     1.0000 0.38048  0.56542  0.02486  Biso   1.000  H
  H150     1.0000 0.00249  0.84611  0.92361  Biso   1.000  H
  H151     1.0000 0.91388  0.99021  0.89308  Biso   1.000  H
  H152     1.0000 0.64448  0.06354  0.50065  Biso   1.000  H
  H153     1.0000 0.00695  0.33858  0.62112  Biso   1.000  H
  H154     1.0000 0.41788  0.98364  0.65060  Biso   1.000  H
  H155     1.0000 0.15299  0.05591  0.01681  Biso   1.000  H
  H156     1.0000 0.50565  0.34034  0.91478  Biso   1.000  H
  H157     1.0000 0.41740  0.46765  0.15630  Biso   1.000  H
  H158     1.0000 0.13920  0.38050  0.52176  Biso   1.000  H
  H159     1.0000 0.49469  0.09938  0.41540  Biso   1.000  H
  H160     1.0000 0.91220  0.46762  0.39173  Biso   1.000  H
  H161     1.0000 0.63980  0.37792  0.00368  Biso   1.000  H
  H162     1.0000 0.02326  0.09571  0.11752  Biso   1.000  H
  H163     1.0000 0.10212  0.96296  0.14532  Biso   1.000  H
  H164     1.0000 0.38340  0.87737  0.51875  Biso   1.000  H
  H165     1.0000 0.01901  0.59959  0.42261  Biso   1.000  H
  H166     1.0000 0.59606  0.97119  0.38496  Biso   1.000  H
  H167     1.0000 0.87590  0.87854  0.01505  Biso   1.000  H
  H168     1.0000 0.50396  0.59773  0.12072  Biso   1.000  H
  H169     1.0000 0.01111  0.07392  0.89324  Biso   1.000  H
  H170     1.0000 0.87675  0.96114  0.11369  Biso   1.000  H
  H171     1.0000 0.10216  0.83602  0.00750  Biso   1.000  H
  H172     1.0000 0.50209  0.06538  0.63973  Biso   1.000  H
  H173     1.0000 0.37864  0.95461  0.42321  Biso   1.000  H
  H174     1.0000 0.60119  0.84261  0.53255  Biso   1.000  H
  H175     1.0000 0.51245  0.56538  0.89060  Biso   1.000  H
  H176     1.0000 0.64087  0.46177  0.11030  Biso   1.000  H
  H177     1.0000 0.41676  0.33794  0.01840  Biso   1.000  H
  H178     1.0000 0.01464  0.57155  0.65194  Biso   1.000  H
  H179     1.0000 0.14365  0.47506  0.43301  Biso   1.000  H
  H180     1.0000 0.91796  0.34108  0.51690  Biso   1.000  H
  H181     1.0000 0.01704  0.86637  0.14923  Biso   1.000  H
  H182     1.0000 0.13903  0.96733  0.91976  Biso   1.000  H
  H183     1.0000 0.91955  0.10069  0.02713  Biso   1.000  H
  H184     1.0000 0.51979  0.87186  0.39409  Biso   1.000  H
  H185     1.0000 0.64444  0.98309  0.61020  Biso   1.000  H
  H186     1.0000 0.41748  0.10835  0.50095  Biso   1.000  H
  H187     1.0000 0.52533  0.37721  0.14934  Biso   1.000  H
  H188     1.0000 0.37787  0.46618  0.93460  Biso   1.000  H
  H189     1.0000 0.60252  0.60281  0.03580  Biso   1.000  H
  H190     1.0000 0.99922  0.36803  0.39572  Biso   1.000  H
  H191     1.0000 0.87918  0.48168  0.61024  Biso   1.000  H
  H192     1.0000 0.10733  0.60278  0.51355  Biso   1.000  H
  H193     1.0000 0.28369  0.83210  0.53727  Biso   1.000  H
  H194     1.0000 0.50614  0.24619  0.85714  Biso   1.000  H
  H195     1.0000 0.86904  0.47217  0.28917  Biso   1.000  H
  H196     1.0000 0.78034  0.82747  0.01501  Biso   1.000  H
  H197     1.0000 0.00484  0.24956  0.68333  Biso   1.000  H
  H198     1.0000 0.36836  0.44532  0.25342  Biso   1.000  H
  H199     1.0000 0.23113  0.32501  0.50382  Biso   1.000  H
  H200     1.0000 0.98930  0.75307  0.86989  Biso   1.000  H
  H201     1.0000 0.64938  0.96893  0.28872  Biso   1.000  H
  H202     1.0000 0.73872  0.32526  0.00638  Biso   1.000  H
  H203     1.0000 0.49713  0.74839  0.67604  Biso   1.000  H
  H204     1.0000 0.15877  0.96923  0.24117  Biso   1.000  H
  H205     1.0000 0.73974  0.11750  0.51469  Biso   1.000  H
  H206     1.0000 0.51946  0.69047  0.17579  Biso   1.000  H
  H207     1.0000 0.15180  0.47740  0.75381  Biso   1.000  H
  H208     1.0000 0.24106  0.11631  0.99387  Biso   1.000  H
  H209     1.0000 0.01618  0.69271  0.36431  Biso   1.000  H
  H210     1.0000 0.65794  0.47375  0.78835  Biso   1.000  H
  H211     1.0000 0.77867  0.61745  0.53145  Biso   1.000  H
  H212     1.0000 0.04029  0.18782  0.17505  Biso   1.000  H
  H213     1.0000 0.36240  0.98962  0.74630  Biso   1.000  H
  H214     1.0000 0.28373  0.61436  0.00182  Biso   1.000  H
  H215     1.0000 0.50533  0.18505  0.35205  Biso   1.000  H
  H216     1.0000 0.85888  0.98460  0.79438  Biso   1.000  H
  H217     1.0000 0.24062  0.47408  0.37995  Biso   1.000  H
  H218     1.0000 0.36208  0.20208  0.51323  Biso   1.000  H
  H219     1.0000 0.51657  0.31258  0.23801  Biso   1.000  H
  H220     1.0000 0.73779  0.47353  0.16226  Biso   1.000  H
  H221     1.0000 0.86801  0.19867  0.02134  Biso   1.000  H
  H222     1.0000 0.00437  0.30752  0.30171  Biso   1.000  H
  H223     1.0000 0.27943  0.96978  0.37024  Biso   1.000  H
  H224     1.0000 0.16311  0.69624  0.51340  Biso   1.000  H
  H225     1.0000 0.02476  0.80595  0.24080  Biso   1.000  H
  H226     1.0000 0.78146  0.95963  0.16728  Biso   1.000  H
  H227     1.0000 0.65643  0.70061  0.03905  Biso   1.000  H
  H228     1.0000 0.52437  0.81587  0.30152  Biso   1.000  H
  H229     1.0000 0.78408  0.46159  0.66360  Biso   1.000  H
  H230     1.0000 0.65838  0.74946  0.55491  Biso   1.000  H
  H231     1.0000 0.49587  0.62487  0.79836  Biso   1.000  H
  H232     1.0000 0.28070  0.47679  0.88275  Biso   1.000  H
  H233     1.0000 0.15236  0.74127  0.99078  Biso   1.000  H
  H234     1.0000 0.99729  0.63064  0.74364  Biso   1.000  H
  H235     1.0000 0.74070  0.98710  0.66679  Biso   1.000  H
  H236     1.0000 0.86090  0.24550  0.52301  Biso   1.000  H
  H237     1.0000 0.01171  0.12976  0.79715  Biso   1.000  H
  H238     1.0000 0.23305  0.96509  0.86547  Biso   1.000  H
  H239     1.0000 0.36913  0.24456  0.99212  Biso   1.000  H
  H240     1.0000 0.50906  0.12680  0.73110  Biso   1.000  H
  H241     1.0000 0.73630  0.46936  0.87609  Biso   1.000  H
  H242     1.0000 0.87383  0.70461  0.51665  Biso   1.000  H
  H243     1.0000 0.50918  0.83829  0.76125  Biso   1.000  H
  H244     1.0000 0.23620  0.47983  0.67258  Biso   1.000  H
  H245     1.0000 0.36998  0.70063  0.02266  Biso   1.000  H
  H246     1.0000 0.99792  0.84104  0.78262  Biso   1.000  H
  H247     1.0000 0.77802  0.00091  0.88662  Biso   1.000  H
  H248     1.0000 0.64868  0.19972  0.52750  Biso   1.000  H
  H249     1.0000 0.99964  0.33806  0.76031  Biso   1.000  H
  H250     1.0000 0.27898  0.97848  0.65913  Biso   1.000  H
  H251     1.0000 0.15314  0.19613  0.01698  Biso   1.000  H
  H252     1.0000 0.52159  0.33601  0.77400  Biso   1.000  H
  H253     1.0000 0.28308  0.47763  0.16776  Biso   1.000  H
  H254     1.0000 0.15075  0.24017  0.54097  Biso   1.000  H
  H255     1.0000 0.48004  0.09604  0.27603  Biso   1.000  H
  H256     1.0000 0.77886  0.49435  0.37153  Biso   1.000  H
  H257     1.0000 0.65557  0.23778  0.99676  Biso   1.000  H
  H258     1.0000 0.02109  0.10223  0.25718  Biso   1.000  H
  H259     1.0000 0.24082  0.97528  0.15909  Biso   1.000  H
  H260     1.0000 0.36964  0.74020  0.52352  Biso   1.000  H
  H261     1.0000 0.01942  0.60003  0.28496  Biso   1.000  H
  H262     1.0000 0.73731  0.96350  0.37634  Biso   1.000  H
  H263     1.0000 0.86575  0.74085  0.01975  Biso   1.000  H
  H264     1.0000 0.51928  0.60283  0.25911  Biso   1.000  H
  H265     1.0000 0.00651  0.21184  0.89318  Biso   1.000  H
  H266     1.0000 0.86916  0.94115  0.25211  Biso   1.000  H
  H267     1.0000 0.23625  0.82174  0.00818  Biso   1.000  H
  H268     1.0000 0.50042  0.20562  0.64480  Biso   1.000  H
  H269     1.0000 0.36815  0.94656  0.28659  Biso   1.000  H
  H270     1.0000 0.74641  0.83331  0.52429  Biso   1.000  H
  H271     1.0000 0.50677  0.70253  0.89458  Biso   1.000  H
  H272     1.0000 0.65311  0.46817  0.25260  Biso   1.000  H
  H273     1.0000 0.28024  0.32587  0.01839  Biso   1.000  H
  H274     1.0000 0.01309  0.70840  0.65930  Biso   1.000  H
  H275     1.0000 0.15535  0.45017  0.29203  Biso   1.000  H
  H276     1.0000 0.78114  0.33386  0.50138  Biso   1.000  H
  H277     1.0000 0.02560  0.72999  0.15030  Biso   1.000  H
  H278     1.0000 0.14974  0.98051  0.78206  Biso   1.000  H
  H279     1.0000 0.78096  0.11641  0.03110  Biso   1.000  H
  H280     1.0000 0.53553  0.73511  0.39394  Biso   1.000  H
  H281     1.0000 0.65138  0.98241  0.74864  Biso   1.000  H
  H282     1.0000 0.27999  0.11383  0.51178  Biso   1.000  H
  H283     1.0000 0.51742  0.23589  0.14499  Biso   1.000  H
  H284     1.0000 0.35936  0.47080  0.79357  Biso   1.000  H
  H285     1.0000 0.74252  0.61341  0.02204  Biso   1.000  H
  H286     1.0000 0.01897  0.23207  0.39454  Biso   1.000  H
  H287     1.0000 0.86252  0.47459  0.74928  Biso   1.000  H
  H288     1.0000 0.24594  0.61011  0.53587  Biso   1.000  H
  H289     1.0000 0.10104  0.19486  0.02677  Biso   1.000  H
  H290     1.0000 0.01346  0.04851  0.25518  Biso   1.000  H
  H291     1.0000 0.24360  0.97196  0.10640  Biso   1.000  H
  H292     1.0000 0.59410  0.19697  0.52386  Biso   1.000  H
  H293     1.0000 0.48525  0.04084  0.28330  Biso   1.000  H
  H294     1.0000 0.73355  0.96368  0.43120  Biso   1.000  H
  H295     1.0000 0.42423  0.69740  0.02955  Biso   1.000  H
  H296     1.0000 0.50794  0.55224  0.25883  Biso   1.000  H
  H297     1.0000 0.28573  0.48307  0.11294  Biso   1.000  H
  H298     1.0000 0.92459  0.69934  0.50816  Biso   1.000  H
  H299     1.0000 0.01535  0.54134  0.29089  Biso   1.000  H
  H300     1.0000 0.78109  0.50001  0.42645  Biso   1.000  H
  H301     1.0000 0.91918  0.74161  0.02470  Biso   1.000  H
  H302     1.0000 0.99970  0.89637  0.78790  Biso   1.000  H
  H303     1.0000 0.78087  0.99540  0.94158  Biso   1.000  H
  H304     1.0000 0.42440  0.74138  0.52573  Biso   1.000  H
  H305     1.0000 0.51153  0.89517  0.75491  Biso   1.000  H
  H306     1.0000 0.28113  0.97782  0.59960  Biso   1.000  H
  H307     1.0000 0.60416  0.23576  0.99279  Biso   1.000  H
  H308     1.0000 0.51432  0.39004  0.77621  Biso   1.000  H
  H309     1.0000 0.73731  0.46887  0.92564  Biso   1.000  H
  H310     1.0000 0.09957  0.24441  0.55017  Biso   1.000  H
  H311     1.0000 0.00194  0.39585  0.75535  Biso   1.000  H
  H312     1.0000 0.23670  0.48106  0.61536  Biso   1.000  H
  H313     1.0000 0.23535  0.96129  0.91760  Biso   1.000  H
  H314     1.0000 0.92275  0.19381  0.02196  Biso   1.000  H
  H315     1.0000 0.02814  0.86229  0.24497  Biso   1.000  H
  H316     1.0000 0.74130  0.98804  0.61208  Biso   1.000  H
  H317     1.0000 0.41484  0.20488  0.50532  Biso   1.000  H
  H318     1.0000 0.51674  0.86932  0.30045  Biso   1.000  H
  H319     1.0000 0.28056  0.46815  0.93046  Biso   1.000  H
  H320     1.0000 0.59968  0.69617  0.04591  Biso   1.000  H
  H321     1.0000 0.51052  0.36355  0.24605  Biso   1.000  H
  H322     1.0000 0.78494  0.46801  0.61033  Biso   1.000  H
  H323     1.0000 0.10739  0.69954  0.50007  Biso   1.000  H
  H324     1.0000 0.00112  0.36520  0.29905  Biso   1.000  H
  H325     1.0000 0.78062  0.96455  0.11745  Biso   1.000  H
  H326     1.0000 0.09637  0.74141  0.99306  Biso   1.000  H
  H327     1.0000 0.00985  0.07642  0.79721  Biso   1.000  H
  H328     1.0000 0.28189  0.96983  0.42309  Biso   1.000  H
  H329     1.0000 0.60045  0.75583  0.55929  Biso   1.000  H
  H330     1.0000 0.50624  0.07034  0.73691  Biso   1.000  H
  H331     1.0000 0.73745  0.47193  0.11195  Biso   1.000  H
  H332     1.0000 0.42026  0.24534  0.99251  Biso   1.000  H
  H333     1.0000 0.50488  0.57114  0.79528  Biso   1.000  H
  H334     1.0000 0.23706  0.47693  0.43530  Biso   1.000  H
  H335     1.0000 0.91592  0.24678  0.52427  Biso   1.000  H
  H336     1.0000 0.99992  0.57690  0.74798  Biso   1.000  H
  H337     1.0000 0.00149  0.20432  0.94864  Biso   1.000  H
  H338     1.0000 0.92731  0.94060  0.24901  Biso   1.000  H
  H339     1.0000 0.23807  0.87595  0.01216  Biso   1.000  H
  H340     1.0000 0.49248  0.20461  0.59193  Biso   1.000  H
  H341     1.0000 0.41912  0.94885  0.28755  Biso   1.000  H
  H342     1.0000 0.73915  0.88678  0.52060  Biso   1.000  H
  H343     1.0000 0.51975  0.69647  0.94355  Biso   1.000  H
  H344     1.0000 0.59990  0.46346  0.25338  Biso   1.000  H
  H345     1.0000 0.28307  0.37794  0.02768  Biso   1.000  H
  H346     1.0000 0.02202  0.70455  0.60079  Biso   1.000  H
  H347     1.0000 0.09970  0.44462  0.29523  Biso   1.000  H
  H348     1.0000 0.77757  0.38416  0.50395  Biso   1.000  H
  H349     1.0000 0.02943  0.73410  0.09436  Biso   1.000  H
  H350     1.0000 0.09372  0.98938  0.78455  Biso   1.000  H
  H351     1.0000 0.78169  0.06257  0.04127  Biso   1.000  H
  H352     1.0000 0.53486  0.74182  0.44679  Biso   1.000  H
  H353     1.0000 0.59683  0.98678  0.74391  Biso   1.000  H
  H354     1.0000 0.28296  0.06002  0.51229  Biso   1.000  H
  H355     1.0000 0.51869  0.24317  0.09170  Biso   1.000  H
  H356     1.0000 0.41779  0.46863  0.79123  Biso   1.000  H
  H357     1.0000 0.74609  0.55946  0.02309  Biso   1.000  H
  H358     1.0000 0.02131  0.23752  0.44789  Biso   1.000  H
  H359     1.0000 0.91905  0.48037  0.75262  Biso   1.000  H
  H360     1.0000 0.24163  0.55558  0.53797  Biso   1.000  H
  H361     1.0000 0.01387  0.69581  0.41870  Biso   1.000  H
  H362     1.0000 0.41385  0.98666  0.74681  Biso   1.000  H
  H363     1.0000 0.73498  0.37828  0.01341  Biso   1.000  H
  H364     1.0000 0.51401  0.69232  0.12189  Biso   1.000  H
  H365     1.0000 0.91229  0.98863  0.79361  Biso   1.000  H
  H366     1.0000 0.23261  0.37985  0.49843  Biso   1.000  H
  H367     1.0000 0.51127  0.19335  0.40507  Biso   1.000  H
  H368     1.0000 0.09706  0.47764  0.75231  Biso   1.000  H
  H369     1.0000 0.78037  0.88084  0.01131  Biso   1.000  H
  H370     1.0000 0.03331  0.19172  0.12417  Biso   1.000  H
  H371     1.0000 0.60289  0.48013  0.78463  Biso   1.000  H
  H372     1.0000 0.29048  0.88199  0.53972  Biso   1.000  H
  H373     1.0000 0.00584  0.24478  0.62704  Biso   1.000  H
  H374     1.0000 0.59673  0.97470  0.28978  Biso   1.000  H
  H375     1.0000 0.28486  0.56120  0.00356  Biso   1.000  H
  H376     1.0000 0.50374  0.24570  0.91301  Biso   1.000  H
  H377     1.0000 0.10470  0.96862  0.24097  Biso   1.000  H
  H378     1.0000 0.78476  0.56531  0.53163  Biso   1.000  H
  H379     1.0000 0.49808  0.74893  0.62289  Biso   1.000  H
  H380     1.0000 0.92334  0.46728  0.29491  Biso   1.000  H
  H381     1.0000 0.24536  0.05912  0.99501  Biso   1.000  H
  H382     1.0000 0.99008  0.74932  0.91971  Biso   1.000  H
  H383     1.0000 0.42193  0.45244  0.25370  Biso   1.000  H
  H384     1.0000 0.73883  0.06582  0.51591  Biso   1.000  H
  H385     1.0000 0.24040  0.42934  0.34887  Biso   1.000  H
  H386     1.0000 0.28521  0.14729  0.48206  Biso   1.000  H
  H387     1.0000 0.47851  0.29150  0.22180  Biso   1.000  H
  H388     1.0000 0.69023  0.43905  0.23930  Biso   1.000  H
  H389     1.0000 0.83531  0.19470  0.05422  Biso   1.000  H
  H390     1.0000 0.97868  0.27698  0.30566  Biso   1.000  H
  H391     1.0000 0.28008  0.93149  0.34226  Biso   1.000  H
  H392     1.0000 0.18322  0.69423  0.55564  Biso   1.000  H
  H393     1.0000 0.99695  0.73083  0.18124  Biso   1.000  H
  H394     1.0000 0.77536  0.93102  0.19793  Biso   1.000  H
  H395     1.0000 0.73937  0.63761  0.06170  Biso   1.000  H
  H396     1.0000 0.55572  0.78713  0.30602  Biso   1.000  H
  H397     1.0000 0.78985  0.49875  0.69276  Biso   1.000  H
  H398     1.0000 0.74024  0.80565  0.55443  Biso   1.000  H
  H399     1.0000 0.53297  0.65243  0.80256  Biso   1.000  H
  H400     1.0000 0.33452  0.50753  0.80081  Biso   1.000  H
  H401     1.0000 0.23218  0.79767  0.97651  Biso   1.000  H
  H402     1.0000 0.03120  0.65696  0.74079  Biso   1.000  H
  H403     1.0000 0.73923  0.94823  0.69807  Biso   1.000  H
  H404     1.0000 0.77864  0.30482  0.53821  Biso   1.000  H
  H405     1.0000 0.97645  0.21105  0.85701  Biso   1.000  H
  H406     1.0000 0.23398  0.99969  0.84239  Biso   1.000  H
  H407     1.0000 0.28231  0.29974  0.98176  Biso   1.000  H
  H408     1.0000 0.47115  0.15802  0.72258  Biso   1.000  H
  H409     1.0000 0.28438  0.44617  0.19289  Biso   1.000  H
  H410     1.0000 0.17700  0.24913  0.49820  Biso   1.000  H
  H411     1.0000 0.47024  0.19093  0.33056  Biso   1.000  H
  H412     1.0000 0.84217  0.50442  0.28794  Biso   1.000  H
  H413     1.0000 0.69435  0.24185  0.96588  Biso   1.000  H
  H414     1.0000 0.99970  0.18766  0.20025  Biso   1.000  H
  H415     1.0000 0.18941  0.93081  0.23223  Biso   1.000  H
  H416     1.0000 0.34578  0.73902  0.55689  Biso   1.000  H
  H417     1.0000 0.99511  0.63229  0.28434  Biso   1.000  H
  H418     1.0000 0.73070  0.93161  0.34714  Biso   1.000  H
  H419     1.0000 0.84091  0.74485  0.06162  Biso   1.000  H
  H420     1.0000 0.48036  0.63919  0.25077  Biso   1.000  H
  H421     1.0000 0.72246  0.43354  0.83919  Biso   1.000  H
  H422     1.0000 0.78931  0.64912  0.55996  Biso   1.000  H
  H423     1.0000 0.52817  0.75076  0.70543  Biso   1.000  H
  H424     1.0000 0.18092  0.50757  0.74919  Biso   1.000  H
  H425     1.0000 0.34189  0.69974  0.98823  Biso   1.000  H
  H426     1.0000 0.02883  0.76085  0.83943  Biso   1.000  H
  H427     1.0000 0.83036  0.01739  0.79654  Biso   1.000  H
  H428     1.0000 0.73907  0.14869  0.53805  Biso   1.000  H
  H429     1.0000 0.03552  0.31116  0.75617  Biso   1.000  H
  H430     1.0000 0.33572  0.95800  0.74054  Biso   1.000  H
  H431     1.0000 0.18015  0.19654  0.98115  Biso   1.000  H
  H432     1.0000 0.48529  0.30405  0.77566  Biso   1.000  H
  H433     1.0000 0.27776  0.01465  0.68722  Biso   1.000  H
  H434     1.0000 0.72496  0.29351  0.03836  Biso   1.000  H
  H435     1.0000 0.05120  0.68711  0.33974  Biso   1.000  H
  H436     1.0000 0.77729  0.96119  0.85310  Biso   1.000  H
  H437     1.0000 0.24133  0.30372  0.54379  Biso   1.000  H
  H438     1.0000 0.55048  0.68403  0.20830  Biso   1.000  H
  H439     1.0000 0.23543  0.44485  0.69969  Biso   1.000  H
  H440     1.0000 0.78627  0.78893  0.99574  Biso   1.000  H
  H441     1.0000 0.50858  0.12951  0.27159  Biso   1.000  H
  H442     1.0000 0.68855  0.51095  0.79800  Biso   1.000  H
  H443     1.0000 0.28385  0.79597  0.51273  Biso   1.000  H
  H444     1.0000 0.05580  0.13263  0.25350  Biso   1.000  H
  H445     1.0000 0.68359  0.00166  0.29528  Biso   1.000  H
  H446     1.0000 0.28374  0.64205  0.03565  Biso   1.000  H
  H447     1.0000 0.97205  0.25675  0.71101  Biso   1.000  H
  H448     1.0000 0.23178  0.00831  0.19554  Biso   1.000  H
  H449     1.0000 0.83889  0.70095  0.49867  Biso   1.000  H
  H450     1.0000 0.54893  0.25250  0.82558  Biso   1.000  H
  H451     1.0000 0.78441  0.45767  0.34566  Biso   1.000  H
  H452     1.0000 0.23784  0.14021  0.03035  Biso   1.000  H
  H453     1.0000 0.46817  0.80971  0.75735  Biso   1.000  H
  H454     1.0000 0.34292  0.48473  0.25901  Biso   1.000  H
  H455     1.0000 0.67570  0.20450  0.48975  Biso   1.000  H
  H456     1.0000 0.96114  0.80810  0.79253  Biso   1.000  H
  H457     1.0000 0.68253  0.74373  0.50660  Biso   1.000  H
  H458     1.0000 0.47368  0.70211  0.86268  Biso   1.000  H
  H459     1.0000 0.83792  0.43770  0.74754  Biso   1.000  H
  H460     1.0000 0.17806  0.73919  0.02462  Biso   1.000  H
  H461     1.0000 0.97250  0.70638  0.68395  Biso   1.000  H
  H462     1.0000 0.28432  0.44928  0.85090  Biso   1.000  H
  H463     1.0000 0.83641  0.24899  0.48608  Biso   1.000  H
  H464     1.0000 0.04216  0.15833  0.80710  Biso   1.000  H
  H465     1.0000 0.68405  0.01765  0.74164  Biso   1.000  H
  H466     1.0000 0.34212  0.23701  0.02285  Biso   1.000  H
  H467     1.0000 0.53686  0.19849  0.67193  Biso   1.000  H
  H468     1.0000 0.17657  0.95216  0.78008  Biso   1.000  H
  H469     1.0000 0.33063  0.19517  0.55000  Biso   1.000  H
  H470     1.0000 0.54445  0.23490  0.18473  Biso   1.000  H
  H471     1.0000 0.18601  0.49246  0.29605  Biso   1.000  H
  H472     1.0000 0.79254  0.14209  0.98769  Biso   1.000  H
  H473     1.0000 0.04782  0.23800  0.35947  Biso   1.000  H
  H474     1.0000 0.73173  0.50869  0.19101  Biso   1.000  H
  H475     1.0000 0.24109  0.64547  0.49712  Biso   1.000  H
  H476     1.0000 0.05769  0.78381  0.23679  Biso   1.000  H
  H477     1.0000 0.33936  0.98330  0.28622  Biso   1.000  H
  H478     1.0000 0.68785  0.69159  0.00027  Biso   1.000  H
  H479     1.0000 0.50479  0.73133  0.36552  Biso   1.000  H
  H480     1.0000 0.83981  0.98040  0.25135  Biso   1.000  H
  N1       1.0000 0.68465  0.15157  0.51221  Biso   1.000  N
  N2       1.0000 0.51333  0.63815  0.20688  Biso   1.000  N
  N3       1.0000 0.18462  0.47441  0.70115  Biso   1.000  N
  N4       1.0000 0.18706  0.14488  0.00799  Biso   1.000  N
  N5       1.0000 0.01855  0.63630  0.33610  Biso   1.000  N
  N6       1.0000 0.68426  0.47359  0.84282  Biso   1.000  N
  N7       1.0000 0.83662  0.65235  0.52633  Biso   1.000  N
  N8       1.0000 0.03012  0.13507  0.20658  Biso   1.000  N
  N9       1.0000 0.33019  0.98771  0.69129  Biso   1.000  N
  N10      1.0000 0.33603  0.64686  0.01540  Biso   1.000  N
  N11      1.0000 0.49255  0.13532  0.32499  Biso   1.000  N
  N12      1.0000 0.82825  0.99142  0.84992  Biso   1.000  N
  N13      1.0000 0.33700  0.79249  0.52928  Biso   1.000  N
  N14      1.0000 0.51402  0.30053  0.82663  Biso   1.000  N
  N15      1.0000 0.83422  0.48138  0.34037  Biso   1.000  N
  N16      1.0000 0.83343  0.79525  0.02735  Biso   1.000  N
  N17      1.0000 0.00355  0.30400  0.71005  Biso   1.000  N
  N18      1.0000 0.33424  0.46929  0.20192  Biso   1.000  N
  N19      1.0000 0.18446  0.29418  0.52500  Biso   1.000  N
  N20      1.0000 0.99431  0.80770  0.83779  Biso   1.000  N
  N21      1.0000 0.68197  0.96940  0.34375  Biso   1.000  N
  N22      1.0000 0.68689  0.29230  0.99743  Biso   1.000  N
  N23      1.0000 0.50041  0.80494  0.70681  Biso   1.000  N
  N24      1.0000 0.18793  0.96739  0.18773  Biso   1.000  N
  N25      1.0000 0.83607  0.46809  0.69581  Biso   1.000  N
  N26      1.0000 0.68894  0.79843  0.53132  Biso   1.000  N
  N27      1.0000 0.50269  0.65277  0.85410  Biso   1.000  N
  N28      1.0000 0.33298  0.47676  0.84723  Biso   1.000  N
  N29      1.0000 0.18461  0.79175  0.00562  Biso   1.000  N
  N30      1.0000 0.00709  0.65820  0.68868  Biso   1.000  N
  N31      1.0000 0.68612  0.98236  0.69575  Biso   1.000  N
  N32      1.0000 0.83097  0.30034  0.51146  Biso   1.000  N
  N33      1.0000 0.00927  0.15961  0.85591  Biso   1.000  N
  N34      1.0000 0.18113  0.97442  0.83547  Biso   1.000  N
  N35      1.0000 0.33420  0.29390  0.00767  Biso   1.000  N
  N36      1.0000 0.50440  0.15353  0.67783  Biso   1.000  N
  N37      1.0000 0.18734  0.45948  0.34618  Biso   1.000  N
  N38      1.0000 0.33090  0.14779  0.51359  Biso   1.000  N
  N39      1.0000 0.52035  0.28657  0.18273  Biso   1.000  N
  N40      1.0000 0.68378  0.47290  0.19697  Biso   1.000  N
  N41      1.0000 0.83555  0.14639  0.02402  Biso   1.000  N
  N42      1.0000 0.01036  0.28239  0.35682  Biso   1.000  N
  N43      1.0000 0.33447  0.95952  0.33887  Biso   1.000  N
  N44      1.0000 0.19127  0.64530  0.52476  Biso   1.000  N
  N45      1.0000 0.02683  0.78116  0.18710  Biso   1.000  N
  N46      1.0000 0.83573  0.95312  0.20095  Biso   1.000  N
  N47      1.0000 0.68790  0.64487  0.03260  Biso   1.000  N
  N48      1.0000 0.52631  0.78320  0.35766  Biso   1.000  N
  O1       1.0000 0.35605  0.51007  0.01667  Biso   1.000  O
  O2       1.0000 0.00782  0.31590  0.57552  Biso   1.000  O
  O3       1.0000 0.55090  0.96473  0.36439  Biso   1.000  O
  O4       1.0000 0.85248  0.51657  0.51593  Biso   1.000  O
  O5       1.0000 0.50770  0.31813  0.96260  Biso   1.000  O
  O6       1.0000 0.05277  0.96251  0.17338  Biso   1.000  O
  O7       1.0000 0.17310  0.01191  0.00803  Biso   1.000  O
  O8       1.0000 0.50596  0.81549  0.57333  Biso   1.000  O
  O9       1.0000 0.96888  0.46176  0.36813  Biso   1.000  O
  O10      1.0000 0.66748  0.01728  0.51658  Biso   1.000  O
  O11      1.0000 0.00365  0.81899  0.97346  Biso   1.000  O
  O12      1.0000 0.46650  0.46372  0.18193  Biso   1.000  O
  O13      1.0000 0.66560  0.42909  0.01542  Biso   1.000  O
  O14      1.0000 0.01226  0.62773  0.47175  Biso   1.000  O
  O15      1.0000 0.46531  0.97170  0.67692  Biso   1.000  O
  O16      1.0000 0.16212  0.42705  0.52148  Biso   1.000  O
  O17      1.0000 0.50222  0.62096  0.06989  Biso   1.000  O
  O18      1.0000 0.96423  0.98474  0.86689  Biso   1.000  O
  O19      1.0000 0.85416  0.92704  0.02314  Biso   1.000  O
  O20      1.0000 0.50650  0.12510  0.46022  Biso   1.000  O
  O21      1.0000 0.05062  0.47427  0.68015  Biso   1.000  O
  O22      1.0000 0.35904  0.93118  0.51887  Biso   1.000  O
  O23      1.0000 0.01751  0.12110  0.07095  Biso   1.000  O
  O24      1.0000 0.55088  0.47752  0.85565  Biso   1.000  O
  O25      1.0000 0.97110  0.95648  0.17909  Biso   1.000  O
  O26      1.0000 0.16884  0.92636  0.01573  Biso   1.000  O
  O27      1.0000 0.00821  0.12626  0.98612  Biso   1.000  O
  O28      1.0000 0.46830  0.95661  0.36132  Biso   1.000  O
  O29      1.0000 0.66703  0.93139  0.52525  Biso   1.000  O
  O30      1.0000 0.50880  0.12889  0.54289  Biso   1.000  O
  O31      1.0000 0.54937  0.46372  0.17859  Biso   1.000  O
  O32      1.0000 0.35463  0.42601  0.02334  Biso   1.000  O
  O33      1.0000 0.51876  0.62144  0.98791  Biso   1.000  O
  O34      1.0000 0.05256  0.45288  0.36915  Biso   1.000  O
  O35      1.0000 0.85258  0.43292  0.51785  Biso   1.000  O
  O36      1.0000 0.01372  0.63121  0.55514  Biso   1.000  O
  O37      1.0000 0.04856  0.98342  0.86249  Biso   1.000  O
  O38      1.0000 0.85317  0.01352  0.03272  Biso   1.000  O
  O39      1.0000 0.02094  0.80751  0.05283  Biso   1.000  O
  O40      1.0000 0.54776  0.98446  0.67157  Biso   1.000  O
  O41      1.0000 0.35482  0.01347  0.51126  Biso   1.000  O
  O42      1.0000 0.51468  0.81538  0.48956  Biso   1.000  O
  O43      1.0000 0.46781  0.47134  0.86216  Biso   1.000  O
  O44      1.0000 0.66980  0.51144  0.02657  Biso   1.000  O
  O45      1.0000 0.52329  0.31412  0.04635  Biso   1.000  O
  O46      1.0000 0.96796  0.48228  0.68200  Biso   1.000  O
  O47      1.0000 0.16995  0.51055  0.52678  Biso   1.000  O
  O48      1.0000 0.00937  0.31066  0.49020  Biso   1.000  O
  O49      1.0000 0.01883  0.91448  0.17262  Biso   1.000  O
  O50      1.0000 0.16540  0.96691  0.97056  Biso   1.000  O
  O51      1.0000 0.97045  0.12347  0.03067  Biso   1.000  O
  O52      1.0000 0.51243  0.92041  0.36891  Biso   1.000  O
  O53      1.0000 0.66988  0.97937  0.56227  Biso   1.000  O
  O54      1.0000 0.46349  0.12778  0.50380  Biso   1.000  O
  O55      1.0000 0.50424  0.42206  0.17689  Biso   1.000  O
  O56      1.0000 0.35347  0.46115  0.98258  Biso   1.000  O
  O57      1.0000 0.55308  0.62402  0.03763  Biso   1.000  O
  O58      1.0000 0.00245  0.41691  0.37071  Biso   1.000  O
  O59      1.0000 0.85530  0.47030  0.56065  Biso   1.000  O
  O60      1.0000 0.05615  0.62852  0.51154  Biso   1.000  O
  O61      1.0000 0.00740  0.02598  0.86799  Biso   1.000  O
  O62      1.0000 0.85519  0.96638  0.06966  Biso   1.000  O
  O63      1.0000 0.05304  0.81131  0.00783  Biso   1.000  O
  O64      1.0000 0.50510  0.01790  0.66899  Biso   1.000  O
  O65      1.0000 0.35553  0.96949  0.47222  Biso   1.000  O
  O66      1.0000 0.55455  0.81793  0.53808  Biso   1.000  O
  O67      1.0000 0.51088  0.51712  0.86345  Biso   1.000  O
  O68      1.0000 0.66583  0.47005  0.05963  Biso   1.000  O
  O69      1.0000 0.46877  0.31944  0.00911  Biso   1.000  O
  O70      1.0000 0.01240  0.52152  0.68188  Biso   1.000  O
  O71      1.0000 0.16585  0.47266  0.48207  Biso   1.000  O
  O72      1.0000 0.96427  0.31813  0.53035  Biso   1.000  O
  O73      1.0000 0.00563  0.43910  0.68283  Biso   1.000  O
  O74      1.0000 0.66375  0.97178  0.47813  Biso   1.000  O
  O75      1.0000 0.47041  0.62585  0.02390  Biso   1.000  O
  O76      1.0000 0.51023  0.43403  0.85188  Biso   1.000  O
  O77      1.0000 0.16938  0.97327  0.05375  Biso   1.000  O
  O78      1.0000 0.97101  0.62734  0.51026  Biso   1.000  O
  O79      1.0000 0.51331  0.93569  0.67879  Biso   1.000  O
  O80      1.0000 0.84815  0.47559  0.47509  Biso   1.000  O
  O81      1.0000 0.05512  0.12033  0.02457  Biso   1.000  O
  O82      1.0000 0.00525  0.94061  0.86248  Biso   1.000  O
  O83      1.0000 0.35579  0.47163  0.06532  Biso   1.000  O
  O84      1.0000 0.55034  0.12289  0.50427  Biso   1.000  O
  O85      1.0000 0.01468  0.50104  0.36675  Biso   1.000  O
  O86      1.0000 0.35338  0.97754  0.55685  Biso   1.000  O
  O87      1.0000 0.55469  0.31129  0.00052  Biso   1.000  O
  O88      1.0000 0.50800  0.50565  0.18270  Biso   1.000  O
  O89      1.0000 0.85654  0.97771  0.98584  Biso   1.000  O
  O90      1.0000 0.04885  0.31529  0.53445  Biso   1.000  O
  O91      1.0000 0.50473  0.00339  0.35821  Biso   1.000  O
  O92      1.0000 0.16451  0.46988  0.56424  Biso   1.000  O
  O93      1.0000 0.96940  0.81480  0.01984  Biso   1.000  O
  O94      1.0000 0.01172  0.00014  0.18030  Biso   1.000  O
  O95      1.0000 0.66374  0.47917  0.97685  Biso   1.000  O
  O96      1.0000 0.46901  0.81549  0.52707  Biso   1.000  O
  O97      1.0000 0.46465  0.17679  0.49751  Biso   1.000  O
  O98      1.0000 0.50694  0.41659  0.22511  Biso   1.000  O
  O99      1.0000 0.21429  0.47356  0.48218  Biso   1.000  O
  O100     1.0000 0.97136  0.17169  0.03364  Biso   1.000  O
  O101     1.0000 0.00644  0.41514  0.32211  Biso   1.000  O
  O102     1.0000 0.71447  0.46564  0.06342  Biso   1.000  O
  O103     1.0000 0.05578  0.67754  0.50621  Biso   1.000  O
  O104     1.0000 0.02405  0.91365  0.22105  Biso   1.000  O
  O105     1.0000 0.30647  0.96692  0.47283  Biso   1.000  O
  O106     1.0000 0.55412  0.67230  0.03432  Biso   1.000  O
  O107     1.0000 0.51725  0.91465  0.32052  Biso   1.000  O
  O108     1.0000 0.80532  0.96675  0.06699  Biso   1.000  O
  O109     1.0000 0.55701  0.76876  0.53770  Biso   1.000  O
  O110     1.0000 0.50217  0.51994  0.81534  Biso   1.000  O
  O111     1.0000 0.80658  0.47475  0.56063  Biso   1.000  O
  O112     1.0000 0.05084  0.76317  0.00390  Biso   1.000  O
  O113     1.0000 0.00784  0.52375  0.72964  Biso   1.000  O
  O114     1.0000 0.30431  0.46236  0.98103  Biso   1.000  O
  O115     1.0000 0.96390  0.26948  0.53410  Biso   1.000  O
  O116     1.0000 0.00530  0.02560  0.82066  Biso   1.000  O
  O117     1.0000 0.71913  0.97720  0.56180  Biso   1.000  O
  O118     1.0000 0.46889  0.27067  0.00674  Biso   1.000  O
  O119     1.0000 0.50429  0.02228  0.71709  Biso   1.000  O
  O120     1.0000 0.21451  0.96134  0.96947  Biso   1.000  O
  O121     1.0000 0.04842  0.47497  0.72747  Biso   1.000  O
  O122     1.0000 0.71496  0.01768  0.51845  Biso   1.000  O
  O123     1.0000 0.50113  0.66968  0.07291  Biso   1.000  O
  O124     1.0000 0.54939  0.48000  0.80576  Biso   1.000  O
  O125     1.0000 0.22143  0.00926  0.00298  Biso   1.000  O
  O126     1.0000 0.00587  0.67467  0.46815  Biso   1.000  O
  O127     1.0000 0.46625  0.97656  0.72362  Biso   1.000  O
  O128     1.0000 0.80431  0.51731  0.52503  Biso   1.000  O
  O129     1.0000 0.02150  0.16985  0.07238  Biso   1.000  O
  O130     1.0000 0.96288  0.99026  0.81874  Biso   1.000  O
  O131     1.0000 0.30826  0.51146  0.01473  Biso   1.000  O
  O132     1.0000 0.50936  0.17278  0.45959  Biso   1.000  O
  O133     1.0000 0.96624  0.45886  0.31891  Biso   1.000  O
  O134     1.0000 0.31001  0.92911  0.51736  Biso   1.000  O
  O135     1.0000 0.50972  0.26814  0.96160  Biso   1.000  O
  O136     1.0000 0.46724  0.46271  0.23052  Biso   1.000  O
  O137     1.0000 0.80548  0.93124  0.01793  Biso   1.000  O
  O138     1.0000 0.00231  0.26738  0.57718  Biso   1.000  O
  O139     1.0000 0.55042  0.96215  0.31552  Biso   1.000  O
  O140     1.0000 0.21082  0.42783  0.51698  Biso   1.000  O
  O141     1.0000 0.00076  0.77019  0.97067  Biso   1.000  O
  O142     1.0000 0.05840  0.96120  0.22308  Biso   1.000  O
  O143     1.0000 0.71320  0.42623  0.01829  Biso   1.000  O
  O144     1.0000 0.51139  0.76856  0.57497  Biso   1.000  O
  O145     1.0000 0.55098  0.45642  0.22860  Biso   1.000  O
  O146     1.0000 0.21767  0.51022  0.52681  Biso   1.000  O
  O147     1.0000 0.50026  0.17768  0.54212  Biso   1.000  O
  O148     1.0000 0.05252  0.45353  0.32000  Biso   1.000  O
  O149     1.0000 0.71855  0.50834  0.02363  Biso   1.000  O
  O150     1.0000 0.00699  0.17468  0.99226  Biso   1.000  O
  O151     1.0000 0.97436  0.95059  0.22617  Biso   1.000  O
  O152     1.0000 0.30580  0.01179  0.50825  Biso   1.000  O
  O153     1.0000 0.01339  0.68066  0.55307  Biso   1.000  O
  O154     1.0000 0.46919  0.95483  0.31410  Biso   1.000  O
  O155     1.0000 0.80402  0.01480  0.03241  Biso   1.000  O
  O156     1.0000 0.51913  0.66968  0.98814  Biso   1.000  O
  O157     1.0000 0.46648  0.47227  0.81384  Biso   1.000  O
  O158     1.0000 0.80338  0.43483  0.51283  Biso   1.000  O
  O159     1.0000 0.51565  0.76801  0.49361  Biso   1.000  O
  O160     1.0000 0.96776  0.48327  0.73018  Biso   1.000  O
  O161     1.0000 0.30616  0.42752  0.02874  Biso   1.000  O
  O162     1.0000 0.01900  0.76014  0.05064  Biso   1.000  O
  O163     1.0000 0.04231  0.98393  0.81300  Biso   1.000  O
  O164     1.0000 0.71566  0.93417  0.52230  Biso   1.000  O
  O165     1.0000 0.01077  0.26195  0.49375  Biso   1.000  O
  O166     1.0000 0.54972  0.98486  0.72076  Biso   1.000  O
  O167     1.0000 0.21715  0.92246  0.01459  Biso   1.000  O
  O168     1.0000 0.51512  0.26560  0.04699  Biso   1.000  O
  O169     1.0000 0.01050  0.99936  0.22858  Biso   1.000  O
  O170     1.0000 0.21828  0.97211  0.05194  Biso   1.000  O
  O171     1.0000 0.05355  0.16870  0.02582  Biso   1.000  O
  O172     1.0000 0.50541  0.99693  0.31046  Biso   1.000  O
  O173     1.0000 0.71289  0.97447  0.47587  Biso   1.000  O
  O174     1.0000 0.54922  0.17216  0.50221  Biso   1.000  O
  O175     1.0000 0.50850  0.50102  0.23123  Biso   1.000  O
  O176     1.0000 0.30668  0.47639  0.06472  Biso   1.000  O
  O177     1.0000 0.47040  0.67468  0.02347  Biso   1.000  O
  O178     1.0000 0.01203  0.49623  0.31948  Biso   1.000  O
  O179     1.0000 0.80064  0.48609  0.47691  Biso   1.000  O
  O180     1.0000 0.96910  0.67522  0.51205  Biso   1.000  O
  O181     1.0000 0.99916  0.94405  0.81488  Biso   1.000  O
  O182     1.0000 0.80829  0.97878  0.98546  Biso   1.000  O
  O183     1.0000 0.96724  0.76654  0.01937  Biso   1.000  O
  O184     1.0000 0.51111  0.94150  0.72718  Biso   1.000  O
  O185     1.0000 0.30408  0.97544  0.55485  Biso   1.000  O
  O186     1.0000 0.47241  0.76646  0.52932  Biso   1.000  O
  O187     1.0000 0.51215  0.43586  0.80324  Biso   1.000  O
  O188     1.0000 0.71252  0.47336  0.97785  Biso   1.000  O
  O189     1.0000 0.55218  0.26213  0.99834  Biso   1.000  O
  O190     1.0000 0.00672  0.43926  0.73077  Biso   1.000  O
  O191     1.0000 0.21297  0.46701  0.56741  Biso   1.000  O
  O192     1.0000 0.04906  0.26652  0.53833  Biso   1.000  O
