data_image0
_cell_length_a       46.4726
_cell_length_b       46.9647
_cell_length_c       46.5798
_cell_angle_alpha    90
_cell_angle_beta     90
_cell_angle_gamma    90

_symmetry_space_group_name_H-M    "P 1"
_symmetry_int_tables_number       1

loop_
  _symmetry_equiv_pos_as_xyz
  'x, y, z'

loop_
  _atom_site_label
  _atom_site_occupancy
  _atom_site_fract_x
  _atom_site_fract_y
  _atom_site_fract_z
  _atom_site_thermal_displace_type
  _atom_site_B_iso_or_equiv
  _atom_site_type_symbol
  C1       1.0000 0.59747  0.98714  0.30645  Biso   1.000  C
  C2       1.0000 0.36490  0.55368  0.97741  Biso   1.000  C
  C3       1.0000 0.04829  0.31402  0.53611  Biso   1.000  C
  C4       1.0000 0.09320  0.00993  0.16955  Biso   1.000  C
  C5       1.0000 0.86456  0.54729  0.50659  Biso   1.000  C
  C6       1.0000 0.53734  0.32079  0.92141  Biso   1.000  C
  C7       1.0000 0.98689  0.50641  0.31045  Biso   1.000  C
  C8       1.0000 0.22755  0.05339  0.99256  Biso   1.000  C
  C9       1.0000 0.54377  0.81824  0.54836  Biso   1.000  C
  C10      1.0000 0.48419  0.48721  0.16605  Biso   1.000  C
  C11      1.0000 0.72316  0.04729  0.48381  Biso   1.000  C
  C12      1.0000 0.03980  0.81124  0.94078  Biso   1.000  C
  C13      1.0000 0.49649  0.99392  0.67863  Biso   1.000  C
  C14      1.0000 0.72902  0.43684  0.99940  Biso   1.000  C
  C15      1.0000 0.03305  0.67754  0.44159  Biso   1.000  C
  C16      1.0000 0.99531  0.99930  0.81048  Biso   1.000  C
  C17      1.0000 0.22695  0.44426  0.49006  Biso   1.000  C
  C18      1.0000 0.54170  0.67806  0.05391  Biso   1.000  C
  C19      1.0000 0.09948  0.49313  0.67218  Biso   1.000  C
  C20      1.0000 0.86296  0.93960  0.99186  Biso   1.000  C
  C21      1.0000 0.54081  0.16960  0.42546  Biso   1.000  C
  C22      1.0000 0.60216  0.50965  0.80582  Biso   1.000  C
  C23      1.0000 0.37115  0.93851  0.49147  Biso   1.000  C
  C24      1.0000 0.03841  0.18221  0.03798  Biso   1.000  C
  C25      1.0000 0.36351  0.04752  0.50208  Biso   1.000  C
  C26      1.0000 0.54210  0.31523  0.03031  Biso   1.000  C
  C27      1.0000 0.09580  0.49638  0.30190  Biso   1.000  C
  C28      1.0000 0.86672  0.05030  0.98155  Biso   1.000  C
  C29      1.0000 0.03634  0.31988  0.42692  Biso   1.000  C
  C30      1.0000 0.59412  0.49070  0.16840  Biso   1.000  C
  C31      1.0000 0.22063  0.55224  0.48101  Biso   1.000  C
  C32      1.0000 0.05779  0.81638  0.04869  Biso   1.000  C
  C33      1.0000 0.48911  0.98737  0.31079  Biso   1.000  C
  C34      1.0000 0.72106  0.54504  0.99992  Biso   1.000  C
  C35      1.0000 0.54957  0.81049  0.44273  Biso   1.000  C
  C36      1.0000 0.98823  0.99533  0.16800  Biso   1.000  C
  C37      1.0000 0.73058  0.93957  0.48177  Biso   1.000  C
  C38      1.0000 0.55629  0.68071  0.94564  Biso   1.000  C
  C39      1.0000 0.98803  0.48212  0.67951  Biso   1.000  C
  C40      1.0000 0.23149  0.94428  0.99982  Biso   1.000  C
  C41      1.0000 0.04788  0.66846  0.54664  Biso   1.000  C
  C42      1.0000 0.49430  0.51103  0.80028  Biso   1.000  C
  C43      1.0000 0.86626  0.43970  0.48585  Biso   1.000  C
  C44      1.0000 0.04943  0.18516  0.92729  Biso   1.000  C
  C45      1.0000 0.60485  0.01406  0.67186  Biso   1.000  C
  C46      1.0000 0.36471  0.44792  0.98965  Biso   1.000  C
  C47      1.0000 0.53755  0.17645  0.53560  Biso   1.000  C
  C48      1.0000 0.10541  0.98517  0.81308  Biso   1.000  C
  C49      1.0000 0.05744  0.04374  0.81661  Biso   1.000  C
  C50      1.0000 0.86205  0.99801  0.04066  Biso   1.000  C
  C51      1.0000 0.10176  0.81663  0.98704  Biso   1.000  C
  C52      1.0000 0.54357  0.05970  0.67261  Biso   1.000  C
  C53      1.0000 0.36689  0.99353  0.44439  Biso   1.000  C
  C54      1.0000 0.60155  0.81026  0.49584  Biso   1.000  C
  C55      1.0000 0.55001  0.56325  0.80807  Biso   1.000  C
  C56      1.0000 0.72316  0.48725  0.05194  Biso   1.000  C
  C57      1.0000 0.48884  0.31711  0.97794  Biso   1.000  C
  C58      1.0000 0.03898  0.53995  0.67225  Biso   1.000  C
  C59      1.0000 0.22167  0.49423  0.43201  Biso   1.000  C
  C60      1.0000 0.99136  0.31527  0.48842  Biso   1.000  C
  C61      1.0000 0.04553  0.94926  0.16683  Biso   1.000  C
  C62      1.0000 0.22996  0.99862  0.94181  Biso   1.000  C
  C63      1.0000 0.99018  0.18309  0.97686  Biso   1.000  C
  C64      1.0000 0.54319  0.92996  0.31242  Biso   1.000  C
  C65      1.0000 0.72290  0.99107  0.53850  Biso   1.000  C
  C66      1.0000 0.48783  0.17872  0.47930  Biso   1.000  C
  C67      1.0000 0.54338  0.43347  0.16715  Biso   1.000  C
  C68      1.0000 0.36810  0.49714  0.93094  Biso   1.000  C
  C69      1.0000 0.60235  0.67778  0.00804  Biso   1.000  C
  C70      1.0000 0.03436  0.44650  0.30232  Biso   1.000  C
  C71      1.0000 0.86532  0.48451  0.54732  Biso   1.000  C
  C72      1.0000 0.09567  0.67513  0.48928  Biso   1.000  C
  C73      1.0000 0.04736  0.55699  0.31205  Biso   1.000  C
  C74      1.0000 0.36445  0.99181  0.55337  Biso   1.000  C
  C75      1.0000 0.59765  0.31594  0.97696  Biso   1.000  C
  C76      1.0000 0.53874  0.54215  0.16733  Biso   1.000  C
  C77      1.0000 0.86354  0.99634  0.93387  Biso   1.000  C
  C78      1.0000 0.09672  0.31620  0.47617  Biso   1.000  C
  C79      1.0000 0.54182  0.03842  0.30135  Biso   1.000  C
  C80      1.0000 0.22583  0.50210  0.53986  Biso   1.000  C
  C81      1.0000 0.99383  0.81486  0.00267  Biso   1.000  C
  C82      1.0000 0.03267  0.05736  0.16843  Biso   1.000  C
  C83      1.0000 0.72145  0.49560  0.94434  Biso   1.000  C
  C84      1.0000 0.49035  0.81524  0.48833  Biso   1.000  C
  C85      1.0000 0.04508  0.43245  0.66840  Biso   1.000  C
  C86      1.0000 0.72874  0.99836  0.42897  Biso   1.000  C
  C87      1.0000 0.49578  0.68076  0.99008  Biso   1.000  C
  C88      1.0000 0.54546  0.45596  0.80471  Biso   1.000  C
  C89      1.0000 0.22898  0.00241  0.05113  Biso   1.000  C
  C90      1.0000 0.98773  0.67372  0.50223  Biso   1.000  C
  C91      1.0000 0.56143  0.95241  0.67012  Biso   1.000  C
  C92      1.0000 0.86293  0.49935  0.44224  Biso   1.000  C
  C93      1.0000 0.10035  0.17901  0.98875  Biso   1.000  C
  C94      1.0000 0.04533  0.93785  0.81059  Biso   1.000  C
  C95      1.0000 0.35937  0.50497  0.03789  Biso   1.000  C
  C96      1.0000 0.59789  0.17109  0.48240  Biso   1.000  C
  C97      1.0000 0.72487  0.08007  0.48572  Biso   1.000  C
  C98      1.0000 0.54558  0.67673  0.08578  Biso   1.000  C
  C99      1.0000 0.13159  0.49450  0.66938  Biso   1.000  C
  C100     1.0000 0.22720  0.08490  0.98984  Biso   1.000  C
  C101     1.0000 0.03338  0.67838  0.40865  Biso   1.000  C
  C102     1.0000 0.63398  0.50993  0.80898  Biso   1.000  C
  C103     1.0000 0.86215  0.57952  0.51077  Biso   1.000  C
  C104     1.0000 0.03176  0.18211  0.06930  Biso   1.000  C
  C105     1.0000 0.46502  0.99462  0.68193  Biso   1.000  C
  C106     1.0000 0.36524  0.58549  0.97589  Biso   1.000  C
  C107     1.0000 0.54453  0.16767  0.39362  Biso   1.000  C
  C108     1.0000 0.96301  0.00036  0.80961  Biso   1.000  C
  C109     1.0000 0.36884  0.90836  0.47918  Biso   1.000  C
  C110     1.0000 0.54015  0.32278  0.88944  Biso   1.000  C
  C111     1.0000 0.95449  0.50558  0.31287  Biso   1.000  C
  C112     1.0000 0.86305  0.90759  0.99198  Biso   1.000  C
  C113     1.0000 0.04986  0.31221  0.56868  Biso   1.000  C
  C114     1.0000 0.45280  0.49009  0.16427  Biso   1.000  C
  C115     1.0000 0.22605  0.41257  0.48876  Biso   1.000  C
  C116     1.0000 0.03510  0.81285  0.90844  Biso   1.000  C
  C117     1.0000 0.63035  0.98735  0.30502  Biso   1.000  C
  C118     1.0000 0.72966  0.40599  0.00070  Biso   1.000  C
  C119     1.0000 0.54756  0.82111  0.58031  Biso   1.000  C
  C120     1.0000 0.12495  0.01303  0.17203  Biso   1.000  C
  C121     1.0000 0.86176  0.99576  0.07336  Biso   1.000  C
  C122     1.0000 0.13488  0.81800  0.98726  Biso   1.000  C
  C123     1.0000 0.05206  0.07509  0.81557  Biso   1.000  C
  C124     1.0000 0.36646  0.99551  0.41212  Biso   1.000  C
  C125     1.0000 0.63476  0.81204  0.49319  Biso   1.000  C
  C126     1.0000 0.54562  0.09191  0.66976  Biso   1.000  C
  C127     1.0000 0.72447  0.47663  0.08255  Biso   1.000  C
  C128     1.0000 0.45673  0.31424  0.97779  Biso   1.000  C
  C129     1.0000 0.54681  0.59548  0.80844  Biso   1.000  C
  C130     1.0000 0.22182  0.49155  0.39963  Biso   1.000  C
  C131     1.0000 0.95940  0.31430  0.49122  Biso   1.000  C
  C132     1.0000 0.03969  0.57173  0.67423  Biso   1.000  C
  C133     1.0000 0.23107  0.00141  0.91014  Biso   1.000  C
  C134     1.0000 0.95815  0.18289  0.97140  Biso   1.000  C
  C135     1.0000 0.04673  0.91736  0.16859  Biso   1.000  C
  C136     1.0000 0.72452  0.99406  0.57071  Biso   1.000  C
  C137     1.0000 0.45551  0.17792  0.48177  Biso   1.000  C
  C138     1.0000 0.54096  0.89750  0.31252  Biso   1.000  C
  C139     1.0000 0.37037  0.50298  0.89886  Biso   1.000  C
  C140     1.0000 0.63405  0.67682  0.01114  Biso   1.000  C
  C141     1.0000 0.54178  0.40052  0.16542  Biso   1.000  C
  C142     1.0000 0.86447  0.48337  0.57942  Biso   1.000  C
  C143     1.0000 0.12802  0.67729  0.49070  Biso   1.000  C
  C144     1.0000 0.02843  0.41573  0.30027  Biso   1.000  C
  C145     1.0000 0.35655  0.50184  0.07072  Biso   1.000  C
  C146     1.0000 0.12840  0.31721  0.47841  Biso   1.000  C
  C147     1.0000 0.54062  0.06975  0.30052  Biso   1.000  C
  C148     1.0000 0.86283  0.49294  0.40986  Biso   1.000  C
  C149     1.0000 0.63045  0.31506  0.97948  Biso   1.000  C
  C150     1.0000 0.02705  0.08950  0.16852  Biso   1.000  C
  C151     1.0000 0.22592  0.00444  0.08320  Biso   1.000  C
  C152     1.0000 0.45989  0.81452  0.48232  Biso   1.000  C
  C153     1.0000 0.04400  0.58874  0.31211  Biso   1.000  C
  C154     1.0000 0.72691  0.00212  0.39742  Biso   1.000  C
  C155     1.0000 0.96154  0.81314  0.99958  Biso   1.000  C
  C156     1.0000 0.53824  0.57401  0.16907  Biso   1.000  C
  C157     1.0000 0.72331  0.49821  0.91117  Biso   1.000  C
  C158     1.0000 0.95539  0.67497  0.50001  Biso   1.000  C
  C159     1.0000 0.56563  0.92061  0.66907  Biso   1.000  C
  C160     1.0000 0.22471  0.50639  0.57247  Biso   1.000  C
  C161     1.0000 0.46289  0.67940  0.98701  Biso   1.000  C
  C162     1.0000 0.04672  0.90568  0.81147  Biso   1.000  C
  C163     1.0000 0.86547  0.99721  0.90213  Biso   1.000  C
  C164     1.0000 0.62944  0.17356  0.47968  Biso   1.000  C
  C165     1.0000 0.04258  0.40063  0.66800  Biso   1.000  C
  C166     1.0000 0.36619  0.99176  0.58519  Biso   1.000  C
  C167     1.0000 0.13223  0.17926  0.99438  Biso   1.000  C
  C168     1.0000 0.54021  0.42524  0.80114  Biso   1.000  C
  C169     1.0000 0.05796  0.81770  0.08052  Biso   1.000  C
  C170     1.0000 0.13736  0.98657  0.81496  Biso   1.000  C
  C171     1.0000 0.86628  0.08360  0.97792  Biso   1.000  C
  C172     1.0000 0.55639  0.80946  0.41115  Biso   1.000  C
  C173     1.0000 0.63614  0.01539  0.66995  Biso   1.000  C
  C174     1.0000 0.36247  0.07937  0.49733  Biso   1.000  C
  C175     1.0000 0.53948  0.31222  0.06244  Biso   1.000  C
  C176     1.0000 0.46130  0.51092  0.80039  Biso   1.000  C
  C177     1.0000 0.72235  0.57823  0.00141  Biso   1.000  C
  C178     1.0000 0.03997  0.32050  0.39443  Biso   1.000  C
  C179     1.0000 0.95608  0.48605  0.67702  Biso   1.000  C
  C180     1.0000 0.22163  0.58374  0.47503  Biso   1.000  C
  C181     1.0000 0.05352  0.18459  0.89566  Biso   1.000  C
  C182     1.0000 0.95829  0.98934  0.16898  Biso   1.000  C
  C183     1.0000 0.23042  0.91212  0.99879  Biso   1.000  C
  C184     1.0000 0.53252  0.17855  0.56792  Biso   1.000  C
  C185     1.0000 0.45659  0.99174  0.31235  Biso   1.000  C
  C186     1.0000 0.73155  0.90798  0.48633  Biso   1.000  C
  C187     1.0000 0.55615  0.68292  0.91173  Biso   1.000  C
  C188     1.0000 0.62619  0.48738  0.17239  Biso   1.000  C
  C189     1.0000 0.36612  0.41525  0.98953  Biso   1.000  C
  C190     1.0000 0.04811  0.66721  0.57885  Biso   1.000  C
  C191     1.0000 0.12665  0.48584  0.30113  Biso   1.000  C
  C192     1.0000 0.86370  0.40790  0.48361  Biso   1.000  C
  C193     1.0000 0.89383  0.99601  0.88630  Biso   1.000  C
  C194     1.0000 0.94474  0.83993  0.00036  Biso   1.000  C
  C195     1.0000 0.04426  0.88809  0.83820  Biso   1.000  C
  C196     1.0000 0.39497  0.99476  0.59993  Biso   1.000  C
  C197     1.0000 0.44332  0.83978  0.48042  Biso   1.000  C
  C198     1.0000 0.56224  0.90435  0.64210  Biso   1.000  C
  C199     1.0000 0.69750  0.50425  0.89328  Biso   1.000  C
  C200     1.0000 0.64725  0.34228  0.98464  Biso   1.000  C
  C201     1.0000 0.53812  0.40746  0.82672  Biso   1.000  C
  C202     1.0000 0.19834  0.50132  0.58865  Biso   1.000  C
  C203     1.0000 0.14449  0.34454  0.47743  Biso   1.000  C
  C204     1.0000 0.04436  0.38658  0.63994  Biso   1.000  C
  C205     1.0000 0.19797  0.00755  0.09771  Biso   1.000  C
  C206     1.0000 0.14804  0.15288  0.99286  Biso   1.000  C
  C207     1.0000 0.02605  0.10453  0.13989  Biso   1.000  C
  C208     1.0000 0.69953  0.99900  0.38120  Biso   1.000  C
  C209     1.0000 0.64647  0.14735  0.48060  Biso   1.000  C
  C210     1.0000 0.54031  0.08640  0.32709  Biso   1.000  C
  C211     1.0000 0.38353  0.49842  0.08534  Biso   1.000  C
  C212     1.0000 0.44589  0.65140  0.98342  Biso   1.000  C
  C213     1.0000 0.54016  0.59191  0.14355  Biso   1.000  C
  C214     1.0000 0.88861  0.49571  0.39140  Biso   1.000  C
  C215     1.0000 0.94040  0.64889  0.50110  Biso   1.000  C
  C216     1.0000 0.04300  0.60415  0.33981  Biso   1.000  C
  C217     1.0000 0.15347  0.99008  0.84178  Biso   1.000  C
  C218     1.0000 0.89303  0.10086  0.97502  Biso   1.000  C
  C219     1.0000 0.05489  0.84594  0.09346  Biso   1.000  C
  C220     1.0000 0.65047  0.01322  0.64170  Biso   1.000  C
  C221     1.0000 0.38913  0.09669  0.49354  Biso   1.000  C
  C222     1.0000 0.55158  0.83509  0.39294  Biso   1.000  C
  C223     1.0000 0.44681  0.50821  0.82834  Biso   1.000  C
  C224     1.0000 0.69721  0.59520  0.00882  Biso   1.000  C
  C225     1.0000 0.53602  0.33775  0.08077  Biso   1.000  C
  C226     1.0000 0.93959  0.48523  0.64953  Biso   1.000  C
  C227     1.0000 0.19518  0.59865  0.47507  Biso   1.000  C
  C228     1.0000 0.04051  0.34775  0.37854  Biso   1.000  C
  C229     1.0000 0.94189  0.99222  0.14263  Biso   1.000  C
  C230     1.0000 0.20253  0.89699  0.99890  Biso   1.000  C
  C231     1.0000 0.05770  0.15563  0.88336  Biso   1.000  C
  C232     1.0000 0.44133  0.99581  0.33962  Biso   1.000  C
  C233     1.0000 0.70440  0.89142  0.48836  Biso   1.000  C
  C234     1.0000 0.53403  0.15112  0.58406  Biso   1.000  C
  C235     1.0000 0.64192  0.48251  0.14624  Biso   1.000  C
  C236     1.0000 0.39310  0.39929  0.98720  Biso   1.000  C
  C237     1.0000 0.55438  0.65766  0.89336  Biso   1.000  C
  C238     1.0000 0.14409  0.48558  0.33004  Biso   1.000  C
  C239     1.0000 0.89094  0.39235  0.48435  Biso   1.000  C
  C240     1.0000 0.04523  0.64019  0.59314  Biso   1.000  C
  C241     1.0000 0.64922  0.51300  0.83619  Biso   1.000  C
  C242     1.0000 0.88945  0.59524  0.50880  Biso   1.000  C
  C243     1.0000 0.55090  0.84958  0.59350  Biso   1.000  C
  C244     1.0000 0.14695  0.49714  0.64147  Biso   1.000  C
  C245     1.0000 0.39387  0.60081  0.97466  Biso   1.000  C
  C246     1.0000 0.03593  0.83947  0.89003  Biso   1.000  C
  C247     1.0000 0.94752  0.00115  0.83661  Biso   1.000  C
  C248     1.0000 0.69786  0.09756  0.48762  Biso   1.000  C
  C249     1.0000 0.04879  0.33785  0.58585  Biso   1.000  C
  C250     1.0000 0.44899  0.99402  0.65547  Biso   1.000  C
  C251     1.0000 0.19884  0.10028  0.99033  Biso   1.000  C
  C252     1.0000 0.53910  0.35097  0.87607  Biso   1.000  C
  C253     1.0000 0.43691  0.49318  0.13685  Biso   1.000  C
  C254     1.0000 0.19879  0.39498  0.48314  Biso   1.000  C
  C255     1.0000 0.54338  0.13968  0.37934  Biso   1.000  C
  C256     1.0000 0.93746  0.49865  0.33897  Biso   1.000  C
  C257     1.0000 0.70195  0.38996  0.99862  Biso   1.000  C
  C258     1.0000 0.02838  0.15465  0.08556  Biso   1.000  C
  C259     1.0000 0.14322  0.01028  0.14629  Biso   1.000  C
  C260     1.0000 0.39513  0.89114  0.48005  Biso   1.000  C
  C261     1.0000 0.03609  0.65259  0.39147  Biso   1.000  C
  C262     1.0000 0.64624  0.99135  0.33125  Biso   1.000  C
  C263     1.0000 0.89093  0.89091  0.99425  Biso   1.000  C
  C264     1.0000 0.54296  0.64880  0.09909  Biso   1.000  C
  C265     1.0000 0.05640  0.09613  0.83899  Biso   1.000  C
  C266     1.0000 0.88904  0.99502  0.09060  Biso   1.000  C
  C267     1.0000 0.15196  0.84651  0.99092  Biso   1.000  C
  C268     1.0000 0.54375  0.10517  0.64101  Biso   1.000  C
  C269     1.0000 0.39315  0.99552  0.39621  Biso   1.000  C
  C270     1.0000 0.65063  0.83943  0.48974  Biso   1.000  C
  C271     1.0000 0.54974  0.60938  0.83759  Biso   1.000  C
  C272     1.0000 0.69683  0.47758  0.09688  Biso   1.000  C
  C273     1.0000 0.44274  0.34275  0.98403  Biso   1.000  C
  C274     1.0000 0.04127  0.58866  0.64686  Biso   1.000  C
  C275     1.0000 0.19454  0.49042  0.38388  Biso   1.000  C
  C276     1.0000 0.94306  0.34195  0.49049  Biso   1.000  C
  C277     1.0000 0.05095  0.90115  0.14225  Biso   1.000  C
  C278     1.0000 0.20296  0.00015  0.89498  Biso   1.000  C
  C279     1.0000 0.94226  0.15517  0.97015  Biso   1.000  C
  C280     1.0000 0.54374  0.88265  0.34049  Biso   1.000  C
  C281     1.0000 0.69746  0.00025  0.58671  Biso   1.000  C
  C282     1.0000 0.44033  0.15086  0.48629  Biso   1.000  C
  C283     1.0000 0.53760  0.38591  0.13749  Biso   1.000  C
  C284     1.0000 0.39679  0.50729  0.88210  Biso   1.000  C
  C285     1.0000 0.64813  0.64923  0.01180  Biso   1.000  C
  C286     1.0000 0.02958  0.39895  0.32682  Biso   1.000  C
  C287     1.0000 0.89115  0.48377  0.59781  Biso   1.000  C
  C288     1.0000 0.14355  0.65135  0.48500  Biso   1.000  C
  C289     1.0000 0.39290  0.86040  0.47859  Biso   1.000  C
  C290     1.0000 0.53737  0.35364  0.84463  Biso   1.000  C
  C291     1.0000 0.90516  0.49883  0.33808  Biso   1.000  C
  C292     1.0000 0.89112  0.85954  0.99847  Biso   1.000  C
  C293     1.0000 0.04280  0.33459  0.61658  Biso   1.000  C
  C294     1.0000 0.40512  0.49405  0.13842  Biso   1.000  C
  C295     1.0000 0.19935  0.36419  0.48281  Biso   1.000  C
  C296     1.0000 0.04144  0.83581  0.85904  Biso   1.000  C
  C297     1.0000 0.67768  0.99234  0.32921  Biso   1.000  C
  C298     1.0000 0.70173  0.36008  0.99154  Biso   1.000  C
  C299     1.0000 0.55722  0.85019  0.62463  Biso   1.000  C
  C300     1.0000 0.17462  0.00892  0.14918  Biso   1.000  C
  C301     1.0000 0.70034  0.12887  0.48677  Biso   1.000  C
  C302     1.0000 0.54519  0.64751  0.13086  Biso   1.000  C
  C303     1.0000 0.17875  0.50262  0.64059  Biso   1.000  C
  C304     1.0000 0.19979  0.13153  0.99127  Biso   1.000  C
  C305     1.0000 0.03907  0.65738  0.36074  Biso   1.000  C
  C306     1.0000 0.67983  0.50429  0.83875  Biso   1.000  C
  C307     1.0000 0.88816  0.62606  0.50680  Biso   1.000  C
  C308     1.0000 0.02827  0.15605  0.11773  Biso   1.000  C
  C309     1.0000 0.41722  0.99331  0.65350  Biso   1.000  C
  C310     1.0000 0.39195  0.63109  0.97869  Biso   1.000  C
  C311     1.0000 0.54377  0.13865  0.34735  Biso   1.000  C
  C312     1.0000 0.91638  0.00345  0.83550  Biso   1.000  C
  C313     1.0000 0.19667  0.49113  0.35262  Biso   1.000  C
  C314     1.0000 0.40768  0.15060  0.49012  Biso   1.000  C
  C315     1.0000 0.53657  0.35422  0.13429  Biso   1.000  C
  C316     1.0000 0.69535  0.48264  0.12868  Biso   1.000  C
  C317     1.0000 0.91101  0.15575  0.96637  Biso   1.000  C
  C318     1.0000 0.03472  0.36828  0.32638  Biso   1.000  C
  C319     1.0000 0.38952  0.99411  0.36443  Biso   1.000  C
  C320     1.0000 0.17463  0.65139  0.48184  Biso   1.000  C
  C321     1.0000 0.05380  0.86967  0.14486  Biso   1.000  C
  C322     1.0000 0.88823  0.99119  0.12247  Biso   1.000  C
  C323     1.0000 0.67936  0.64950  0.01175  Biso   1.000  C
  C324     1.0000 0.54536  0.85248  0.33991  Biso   1.000  C
  C325     1.0000 0.88604  0.48082  0.62836  Biso   1.000  C
  C326     1.0000 0.68307  0.83975  0.48911  Biso   1.000  C
  C327     1.0000 0.55006  0.64084  0.83825  Biso   1.000  C
  C328     1.0000 0.39414  0.50866  0.85042  Biso   1.000  C
  C329     1.0000 0.18304  0.84533  0.98861  Biso   1.000  C
  C330     1.0000 0.04450  0.61975  0.64777  Biso   1.000  C
  C331     1.0000 0.70027  0.00593  0.61771  Biso   1.000  C
  C332     1.0000 0.91200  0.33997  0.48934  Biso   1.000  C
  C333     1.0000 0.05269  0.12708  0.83373  Biso   1.000  C
  C334     1.0000 0.20459  0.99936  0.86275  Biso   1.000  C
  C335     1.0000 0.41177  0.34540  0.98305  Biso   1.000  C
  C336     1.0000 0.53998  0.13617  0.63854  Biso   1.000  C
  C337     1.0000 0.70130  0.50311  0.86224  Biso   1.000  C
  C338     1.0000 0.90922  0.64827  0.50300  Biso   1.000  C
  C339     1.0000 0.56165  0.87338  0.64436  Biso   1.000  C
  C340     1.0000 0.19934  0.50576  0.61946  Biso   1.000  C
  C341     1.0000 0.41433  0.65202  0.98052  Biso   1.000  C
  C342     1.0000 0.04525  0.85720  0.83615  Biso   1.000  C
  C343     1.0000 0.89340  0.00179  0.85497  Biso   1.000  C
  C344     1.0000 0.67857  0.14913  0.48489  Biso   1.000  C
  C345     1.0000 0.04314  0.35516  0.63871  Biso   1.000  C
  C346     1.0000 0.39487  0.99443  0.63117  Biso   1.000  C
  C347     1.0000 0.17932  0.15423  0.99282  Biso   1.000  C
  C348     1.0000 0.53601  0.37630  0.82465  Biso   1.000  C
  C349     1.0000 0.38232  0.49614  0.11755  Biso   1.000  C
  C350     1.0000 0.17695  0.34310  0.48064  Biso   1.000  C
  C351     1.0000 0.54280  0.11736  0.32579  Biso   1.000  C
  C352     1.0000 0.88453  0.49652  0.36048  Biso   1.000  C
  C353     1.0000 0.67963  0.34080  0.98294  Biso   1.000  C
  C354     1.0000 0.02700  0.13524  0.14000  Biso   1.000  C
  C355     1.0000 0.19744  0.00695  0.12904  Biso   1.000  C
  C356     1.0000 0.41254  0.83796  0.47922  Biso   1.000  C
  C357     1.0000 0.04210  0.63594  0.33943  Biso   1.000  C
  C358     1.0000 0.70029  0.99490  0.35021  Biso   1.000  C
  C359     1.0000 0.91390  0.83957  0.00166  Biso   1.000  C
  C360     1.0000 0.54164  0.62349  0.14942  Biso   1.000  C
  C361     1.0000 0.05376  0.15081  0.85239  Biso   1.000  C
  C362     1.0000 0.91028  0.99085  0.14414  Biso   1.000  C
  C363     1.0000 0.20435  0.86672  0.99088  Biso   1.000  C
  C364     1.0000 0.53552  0.15565  0.61558  Biso   1.000  C
  C365     1.0000 0.41042  0.99464  0.34160  Biso   1.000  C
  C366     1.0000 0.70613  0.86086  0.48810  Biso   1.000  C
  C367     1.0000 0.55139  0.66066  0.86176  Biso   1.000  C
  C368     1.0000 0.67306  0.48516  0.14888  Biso   1.000  C
  C369     1.0000 0.39142  0.36739  0.98508  Biso   1.000  C
  C370     1.0000 0.04594  0.64171  0.62589  Biso   1.000  C
  C371     1.0000 0.17542  0.48927  0.33038  Biso   1.000  C
  C372     1.0000 0.89044  0.36155  0.48929  Biso   1.000  C
  C373     1.0000 0.05661  0.84713  0.12464  Biso   1.000  C
  C374     1.0000 0.18464  0.99482  0.84087  Biso   1.000  C
  C375     1.0000 0.89163  0.13278  0.96981  Biso   1.000  C
  C376     1.0000 0.54901  0.83156  0.36237  Biso   1.000  C
  C377     1.0000 0.68149  0.01123  0.64065  Biso   1.000  C
  C378     1.0000 0.38732  0.12802  0.49485  Biso   1.000  C
  C379     1.0000 0.53656  0.33399  0.11199  Biso   1.000  C
  C380     1.0000 0.41583  0.51014  0.82845  Biso   1.000  C
  C381     1.0000 0.69932  0.62679  0.01023  Biso   1.000  C
  C382     1.0000 0.03867  0.34625  0.34712  Biso   1.000  C
  C383     1.0000 0.90760  0.48426  0.65039  Biso   1.000  C
  C384     1.0000 0.19520  0.63018  0.47860  Biso   1.000  C
  C385     1.0000 0.22665  0.14710  0.99146  Biso   1.000  C
  C386     1.0000 0.03023  0.18258  0.13277  Biso   1.000  C
  C387     1.0000 0.18851  0.00922  0.17660  Biso   1.000  C
  C388     1.0000 0.72738  0.14477  0.48698  Biso   1.000  C
  C389     1.0000 0.54501  0.16467  0.33113  Biso   1.000  C
  C390     1.0000 0.69299  0.98955  0.30294  Biso   1.000  C
  C391     1.0000 0.36471  0.64827  0.97721  Biso   1.000  C
  C392     1.0000 0.54916  0.67243  0.14698  Biso   1.000  C
  C393     1.0000 0.39020  0.49318  0.16518  Biso   1.000  C
  C394     1.0000 0.86137  0.64058  0.50772  Biso   1.000  C
  C395     1.0000 0.03647  0.68477  0.34537  Biso   1.000  C
  C396     1.0000 0.88872  0.50211  0.31249  Biso   1.000  C
  C397     1.0000 0.86352  0.84335  0.99968  Biso   1.000  C
  C398     1.0000 0.04403  0.80931  0.84444  Biso   1.000  C
  C399     1.0000 0.90157  0.00777  0.80700  Biso   1.000  C
  C400     1.0000 0.36478  0.84610  0.47554  Biso   1.000  C
  C401     1.0000 0.56094  0.82508  0.64142  Biso   1.000  C
  C402     1.0000 0.40022  0.98893  0.68064  Biso   1.000  C
  C403     1.0000 0.72829  0.34624  0.98594  Biso   1.000  C
  C404     1.0000 0.53831  0.32727  0.82754  Biso   1.000  C
  C405     1.0000 0.69633  0.49450  0.81471  Biso   1.000  C
  C406     1.0000 0.22589  0.34830  0.48869  Biso   1.000  C
  C407     1.0000 0.04246  0.30721  0.63119  Biso   1.000  C
  C408     1.0000 0.19475  0.50456  0.66726  Biso   1.000  C
  C409     1.0000 0.20084  0.99382  0.81500  Biso   1.000  C
  C410     1.0000 0.86314  0.14646  0.96780  Biso   1.000  C
  C411     1.0000 0.05811  0.82232  0.14290  Biso   1.000  C
  C412     1.0000 0.69921  0.01408  0.66591  Biso   1.000  C
  C413     1.0000 0.35991  0.14244  0.49711  Biso   1.000  C
  C414     1.0000 0.55428  0.80435  0.34780  Biso   1.000  C
  C415     1.0000 0.39852  0.51429  0.80103  Biso   1.000  C
  C416     1.0000 0.72670  0.64087  0.00957  Biso   1.000  C
  C417     1.0000 0.54082  0.30628  0.12689  Biso   1.000  C
  C418     1.0000 0.89127  0.48431  0.67716  Biso   1.000  C
  C419     1.0000 0.22310  0.64553  0.47888  Biso   1.000  C
  C420     1.0000 0.03828  0.31892  0.33358  Biso   1.000  C
  C421     1.0000 0.89572  0.98697  0.17076  Biso   1.000  C
  C422     1.0000 0.23194  0.85179  0.98547  Biso   1.000  C
  C423     1.0000 0.04620  0.17603  0.83383  Biso   1.000  C
  C424     1.0000 0.39452  0.99389  0.31463  Biso   1.000  C
  C425     1.0000 0.73357  0.84511  0.48864  Biso   1.000  C
  C426     1.0000 0.53607  0.18337  0.62893  Biso   1.000  C
  C427     1.0000 0.68796  0.48878  0.17639  Biso   1.000  C
  C428     1.0000 0.36410  0.35255  0.98295  Biso   1.000  C
  C429     1.0000 0.55304  0.68826  0.84830  Biso   1.000  C
  C430     1.0000 0.19027  0.49020  0.30338  Biso   1.000  C
  C431     1.0000 0.86344  0.34542  0.49052  Biso   1.000  C
  C432     1.0000 0.04728  0.66738  0.64263  Biso   1.000  C
  C433     1.0000 0.04746  0.13934  0.80610  Biso   1.000  C
  C434     1.0000 0.86063  0.98931  0.13679  Biso   1.000  C
  C435     1.0000 0.19781  0.81856  0.98531  Biso   1.000  C
  C436     1.0000 0.54052  0.15457  0.66487  Biso   1.000  C
  C437     1.0000 0.36261  0.99353  0.34965  Biso   1.000  C
  C438     1.0000 0.69924  0.81373  0.49311  Biso   1.000  C
  C439     1.0000 0.54849  0.65841  0.81288  Biso   1.000  C
  C440     1.0000 0.72111  0.48619  0.14482  Biso   1.000  C
  C441     1.0000 0.39572  0.31943  0.98074  Biso   1.000  C
  C442     1.0000 0.04676  0.63451  0.67543  Biso   1.000  C
  C443     1.0000 0.22334  0.49164  0.33719  Biso   1.000  C
  C444     1.0000 0.89654  0.31267  0.49117  Biso   1.000  C
  C445     1.0000 0.05454  0.85670  0.17311  Biso   1.000  C
  C446     1.0000 0.23299  0.00218  0.84783  Biso   1.000  C
  C447     1.0000 0.89433  0.18131  0.96546  Biso   1.000  C
  C448     1.0000 0.54646  0.83479  0.31344  Biso   1.000  C
  C449     1.0000 0.72745  0.00286  0.63177  Biso   1.000  C
  C450     1.0000 0.39167  0.17701  0.48903  Biso   1.000  C
  C451     1.0000 0.53790  0.33690  0.16062  Biso   1.000  C
  C452     1.0000 0.36787  0.51118  0.83391  Biso   1.000  C
  C453     1.0000 0.69584  0.67670  0.01342  Biso   1.000  C
  C454     1.0000 0.03580  0.35142  0.30001  Biso   1.000  C
  C455     1.0000 0.85894  0.48058  0.64275  Biso   1.000  C
  C456     1.0000 0.19075  0.67842  0.48401  Biso   1.000  C
  C457     1.0000 0.04155  0.65202  0.31312  Biso   1.000  C
  C458     1.0000 0.36940  0.99390  0.64804  Biso   1.000  C
  C459     1.0000 0.69411  0.31451  0.97812  Biso   1.000  C
  C460     1.0000 0.54408  0.63722  0.17687  Biso   1.000  C
  C461     1.0000 0.86769  0.00552  0.83904  Biso   1.000  C
  C462     1.0000 0.19222  0.31623  0.48585  Biso   1.000  C
  C463     1.0000 0.54472  0.13260  0.29807  Biso   1.000  C
  C464     1.0000 0.22587  0.51216  0.63464  Biso   1.000  C
  C465     1.0000 0.89869  0.81251  0.00402  Biso   1.000  C
  C466     1.0000 0.02828  0.15136  0.16621  Biso   1.000  C
  C467     1.0000 0.72746  0.49466  0.84866  Biso   1.000  C
  C468     1.0000 0.39617  0.81251  0.47999  Biso   1.000  C
  C469     1.0000 0.04220  0.33887  0.66516  Biso   1.000  C
  C470     1.0000 0.72768  0.99549  0.33396  Biso   1.000  C
  C471     1.0000 0.39964  0.67924  0.98081  Biso   1.000  C
  C472     1.0000 0.53557  0.36247  0.79711  Biso   1.000  C
  C473     1.0000 0.22268  0.00476  0.14655  Biso   1.000  C
  C474     1.0000 0.89354  0.67448  0.50260  Biso   1.000  C
  C475     1.0000 0.56793  0.85890  0.67138  Biso   1.000  C
  C476     1.0000 0.85782  0.49708  0.34652  Biso   1.000  C
  C477     1.0000 0.19531  0.18074  0.99433  Biso   1.000  C
  C478     1.0000 0.04843  0.84123  0.80971  Biso   1.000  C
  C479     1.0000 0.35565  0.49542  0.13340  Biso   1.000  C
  C480     1.0000 0.69297  0.17639  0.48500  Biso   1.000  C
  C481     1.0000 0.41206  0.78625  0.48427  Biso   1.000  C
  C482     1.0000 0.53474  0.38090  0.77040  Biso   1.000  C
  C483     1.0000 0.82965  0.49262  0.36302  Biso   1.000  C
  C484     1.0000 0.91497  0.78460  0.99892  Biso   1.000  C
  C485     1.0000 0.03889  0.35420  0.69398  Biso   1.000  C
  C486     1.0000 0.32772  0.49692  0.11763  Biso   1.000  C
  C487     1.0000 0.17432  0.28979  0.48762  Biso   1.000  C
  C488     1.0000 0.05523  0.85824  0.78251  Biso   1.000  C
  C489     1.0000 0.75361  0.00176  0.34960  Biso   1.000  C
  C490     1.0000 0.67802  0.28822  0.97279  Biso   1.000  C
  C491     1.0000 0.57578  0.87481  0.69774  Biso   1.000  C
  C492     1.0000 0.25060  0.00053  0.13163  Biso   1.000  C
  C493     1.0000 0.67581  0.20138  0.48597  Biso   1.000  C
  C494     1.0000 0.54427  0.61814  0.20217  Biso   1.000  C
  C495     1.0000 0.25286  0.51749  0.61846  Biso   1.000  C
  C496     1.0000 0.18004  0.20745  0.99809  Biso   1.000  C
  C497     1.0000 0.04492  0.63606  0.28580  Biso   1.000  C
  C498     1.0000 0.75225  0.49052  0.86694  Biso   1.000  C
  C499     1.0000 0.90939  0.70193  0.50179  Biso   1.000  C
  C500     1.0000 0.02422  0.13672  0.19531  Biso   1.000  C
  C501     1.0000 0.34051  0.99232  0.63345  Biso   1.000  C
  C502     1.0000 0.41640  0.70576  0.98481  Biso   1.000  C
  C503     1.0000 0.54272  0.11741  0.27090  Biso   1.000  C
  C504     1.0000 0.83960  0.00545  0.85332  Biso   1.000  C
  C505     1.0000 0.68120  0.49280  0.78643  Biso   1.000  C
  C506     1.0000 0.83389  0.62343  0.50771  Biso   1.000  C
  C507     1.0000 0.55330  0.79538  0.62830  Biso   1.000  C
  C508     1.0000 0.17992  0.50087  0.69490  Biso   1.000  C
  C509     1.0000 0.33781  0.63447  0.97132  Biso   1.000  C
  C510     1.0000 0.04236  0.78262  0.86245  Biso   1.000  C
  C511     1.0000 0.91920  0.00893  0.78038  Biso   1.000  C
  C512     1.0000 0.75344  0.12726  0.48314  Biso   1.000  C
  C513     1.0000 0.04589  0.28153  0.61366  Biso   1.000  C
  C514     1.0000 0.41612  0.99029  0.70870  Biso   1.000  C
  C515     1.0000 0.25333  0.13300  0.98921  Biso   1.000  C
  C516     1.0000 0.54374  0.29934  0.84088  Biso   1.000  C
  C517     1.0000 0.40460  0.48720  0.19255  Biso   1.000  C
  C518     1.0000 0.25260  0.36472  0.49001  Biso   1.000  C
  C519     1.0000 0.54872  0.19145  0.34618  Biso   1.000  C
  C520     1.0000 0.90467  0.50717  0.28643  Biso   1.000  C
  C521     1.0000 0.75639  0.36118  0.98877  Biso   1.000  C
  C522     1.0000 0.03411  0.20930  0.11713  Biso   1.000  C
  C523     1.0000 0.17037  0.01122  0.20328  Biso   1.000  C
  C524     1.0000 0.33815  0.86366  0.47135  Biso   1.000  C
  C525     1.0000 0.03063  0.70968  0.36283  Biso   1.000  C
  C526     1.0000 0.67549  0.98419  0.27627  Biso   1.000  C
  C527     1.0000 0.83544  0.85935  0.99879  Biso   1.000  C
  C528     1.0000 0.55299  0.70062  0.13329  Biso   1.000  C
  C529     1.0000 0.83551  0.12929  0.97328  Biso   1.000  C
  C530     1.0000 0.06130  0.79258  0.12948  Biso   1.000  C
  C531     1.0000 0.18627  0.98876  0.78755  Biso   1.000  C
  C532     1.0000 0.33303  0.12486  0.50301  Biso   1.000  C
  C533     1.0000 0.56182  0.77949  0.36610  Biso   1.000  C
  C534     1.0000 0.68457  0.02041  0.69338  Biso   1.000  C
  C535     1.0000 0.75219  0.62363  0.00561  Biso   1.000  C
  C536     1.0000 0.54155  0.28020  0.10748  Biso   1.000  C
  C537     1.0000 0.41297  0.51249  0.77287  Biso   1.000  C
  C538     1.0000 0.25015  0.62934  0.47649  Biso   1.000  C
  C539     1.0000 0.04331  0.29191  0.34844  Biso   1.000  C
  C540     1.0000 0.90717  0.48941  0.70403  Biso   1.000  C
  C541     1.0000 0.25912  0.86738  0.98668  Biso   1.000  C
  C542     1.0000 0.04760  0.20563  0.84524  Biso   1.000  C
  C543     1.0000 0.91061  0.98185  0.19902  Biso   1.000  C
  C544     1.0000 0.76107  0.86099  0.48838  Biso   1.000  C
  C545     1.0000 0.53275  0.20819  0.61186  Biso   1.000  C
  C546     1.0000 0.40895  0.98896  0.28742  Biso   1.000  C
  C547     1.0000 0.33742  0.36825  0.98378  Biso   1.000  C
  C548     1.0000 0.55384  0.71462  0.86559  Biso   1.000  C
  C549     1.0000 0.67170  0.49125  0.20395  Biso   1.000  C
  C550     1.0000 0.83626  0.36102  0.48791  Biso   1.000  C
  C551     1.0000 0.05002  0.69418  0.62710  Biso   1.000  C
  C552     1.0000 0.17482  0.48701  0.27713  Biso   1.000  C
  C553     1.0000 0.04076  0.11851  0.78234  Biso   1.000  C
  C554     1.0000 0.83386  0.99327  0.12119  Biso   1.000  C
  C555     1.0000 0.18117  0.79095  0.98313  Biso   1.000  C
  C556     1.0000 0.54240  0.14160  0.69388  Biso   1.000  C
  C557     1.0000 0.33676  0.99305  0.36643  Biso   1.000  C
  C558     1.0000 0.68294  0.78614  0.49841  Biso   1.000  C
  C559     1.0000 0.54321  0.64562  0.78422  Biso   1.000  C
  C560     1.0000 0.74868  0.48051  0.13129  Biso   1.000  C
  C561     1.0000 0.40831  0.29153  0.97313  Biso   1.000  C
  C562     1.0000 0.04779  0.61916  0.70256  Biso   1.000  C
  C563     1.0000 0.25100  0.49428  0.35428  Biso   1.000  C
  C564     1.0000 0.91166  0.28541  0.49649  Biso   1.000  C
  C565     1.0000 0.05095  0.87367  0.19900  Biso   1.000  C
  C566     1.0000 0.25957  0.00559  0.86312  Biso   1.000  C
  C567     1.0000 0.91082  0.20821  0.96481  Biso   1.000  C
  C568     1.0000 0.53994  0.85028  0.28538  Biso   1.000  C
  C569     1.0000 0.75354  0.99477  0.61733  Biso   1.000  C
  C570     1.0000 0.40704  0.20411  0.48527  Biso   1.000  C
  C571     1.0000 0.53624  0.35009  0.18949  Biso   1.000  C
  C572     1.0000 0.34113  0.51052  0.85052  Biso   1.000  C
  C573     1.0000 0.68152  0.70444  0.01779  Biso   1.000  C
  C574     1.0000 0.03411  0.36888  0.27157  Biso   1.000  C
  C575     1.0000 0.83151  0.48071  0.62467  Biso   1.000  C
  C576     1.0000 0.17508  0.70564  0.48998  Biso   1.000  C
  C577     1.0000 0.32723  0.50079  0.08597  Biso   1.000  C
  C578     1.0000 0.14328  0.28943  0.48337  Biso   1.000  C
  C579     1.0000 0.54295  0.08463  0.27193  Biso   1.000  C
  C580     1.0000 0.83415  0.48974  0.39542  Biso   1.000  C
  C581     1.0000 0.64676  0.28797  0.97281  Biso   1.000  C
  C582     1.0000 0.02621  0.10551  0.19540  Biso   1.000  C
  C583     1.0000 0.25148  0.99942  0.10095  Biso   1.000  C
  C584     1.0000 0.44469  0.78601  0.48415  Biso   1.000  C
  C585     1.0000 0.04476  0.60485  0.28514  Biso   1.000  C
  C586     1.0000 0.75362  0.00515  0.38097  Biso   1.000  C
  C587     1.0000 0.94581  0.78543  0.99906  Biso   1.000  C
  C588     1.0000 0.54079  0.58636  0.19666  Biso   1.000  C
  C589     1.0000 0.75146  0.49228  0.89731  Biso   1.000  C
  C590     1.0000 0.94050  0.70243  0.50099  Biso   1.000  C
  C591     1.0000 0.57669  0.90628  0.69628  Biso   1.000  C
  C592     1.0000 0.25093  0.51643  0.58740  Biso   1.000  C
  C593     1.0000 0.44771  0.70592  0.98883  Biso   1.000  C
  C594     1.0000 0.05490  0.89094  0.78451  Biso   1.000  C
  C595     1.0000 0.83850  0.00219  0.88511  Biso   1.000  C
  C596     1.0000 0.64579  0.20024  0.48337  Biso   1.000  C
  C597     1.0000 0.04111  0.38461  0.69516  Biso   1.000  C
  C598     1.0000 0.34035  0.99127  0.60242  Biso   1.000  C
  C599     1.0000 0.14868  0.20736  0.99894  Biso   1.000  C
  C600     1.0000 0.53804  0.41111  0.77206  Biso   1.000  C
  C601     1.0000 0.25893  0.00249  0.89460  Biso   1.000  C
  C602     1.0000 0.94261  0.20869  0.96853  Biso   1.000  C
  C603     1.0000 0.04662  0.90439  0.19681  Biso   1.000  C
  C604     1.0000 0.75274  0.99063  0.58627  Biso   1.000  C
  C605     1.0000 0.43885  0.20457  0.47971  Biso   1.000  C
  C606     1.0000 0.53906  0.88109  0.28654  Biso   1.000  C
  C607     1.0000 0.34189  0.50399  0.88218  Biso   1.000  C
  C608     1.0000 0.65061  0.70433  0.01648  Biso   1.000  C
  C609     1.0000 0.54086  0.38184  0.19146  Biso   1.000  C
  C610     1.0000 0.83606  0.48384  0.59335  Biso   1.000  C
  C611     1.0000 0.14320  0.70473  0.49147  Biso   1.000  C
  C612     1.0000 0.03018  0.39993  0.27212  Biso   1.000  C
  C613     1.0000 0.83453  0.99478  0.08986  Biso   1.000  C
  C614     1.0000 0.15007  0.79088  0.98459  Biso   1.000  C
  C615     1.0000 0.04438  0.08770  0.78656  Biso   1.000  C
  C616     1.0000 0.33761  0.99386  0.39750  Biso   1.000  C
  C617     1.0000 0.65129  0.78541  0.49854  Biso   1.000  C
  C618     1.0000 0.54483  0.10980  0.69525  Biso   1.000  C
  C619     1.0000 0.75045  0.47740  0.10024  Biso   1.000  C
  C620     1.0000 0.43968  0.28796  0.97278  Biso   1.000  C
  C621     1.0000 0.54234  0.61407  0.78220  Biso   1.000  C
  C622     1.0000 0.25018  0.49460  0.38541  Biso   1.000  C
  C623     1.0000 0.94420  0.28542  0.49423  Biso   1.000  C
  C624     1.0000 0.04234  0.58744  0.69983  Biso   1.000  C
  C625     1.0000 0.04814  0.20859  0.87738  Biso   1.000  C
  C626     1.0000 0.94292  0.98382  0.19671  Biso   1.000  C
  C627     1.0000 0.25762  0.89782  0.99326  Biso   1.000  C
  C628     1.0000 0.53147  0.20790  0.58031  Biso   1.000  C
  C629     1.0000 0.44050  0.98860  0.28525  Biso   1.000  C
  C630     1.0000 0.75934  0.89348  0.48570  Biso   1.000  C
  C631     1.0000 0.55579  0.71183  0.89775  Biso   1.000  C
  C632     1.0000 0.63983  0.49014  0.20115  Biso   1.000  C
  C633     1.0000 0.33798  0.39847  0.98779  Biso   1.000  C
  C634     1.0000 0.05018  0.69348  0.59545  Biso   1.000  C
  C635     1.0000 0.14336  0.48674  0.27477  Biso   1.000  C
  C636     1.0000 0.83579  0.39283  0.48369  Biso   1.000  C
  C637     1.0000 0.05966  0.79161  0.09900  Biso   1.000  C
  C638     1.0000 0.15493  0.98480  0.78735  Biso   1.000  C
  C639     1.0000 0.83794  0.09804  0.97809  Biso   1.000  C
  C640     1.0000 0.56345  0.78239  0.39755  Biso   1.000  C
  C641     1.0000 0.65399  0.01809  0.69623  Biso   1.000  C
  C642     1.0000 0.33336  0.09394  0.50213  Biso   1.000  C
  C643     1.0000 0.54145  0.28290  0.07638  Biso   1.000  C
  C644     1.0000 0.44519  0.51222  0.77309  Biso   1.000  C
  C645     1.0000 0.74950  0.59288  0.00263  Biso   1.000  C
  C646     1.0000 0.04212  0.29307  0.37904  Biso   1.000  C
  C647     1.0000 0.93959  0.48945  0.70376  Biso   1.000  C
  C648     1.0000 0.24937  0.59883  0.47549  Biso   1.000  C
  C649     1.0000 0.03054  0.70544  0.39304  Biso   1.000  C
  C650     1.0000 0.44764  0.99112  0.70869  Biso   1.000  C
  C651     1.0000 0.75660  0.39083  0.99752  Biso   1.000  C
  C652     1.0000 0.55120  0.70267  0.10180  Biso   1.000  C
  C653     1.0000 0.94911  0.00344  0.78052  Biso   1.000  C
  C654     1.0000 0.25417  0.39645  0.49214  Biso   1.000  C
  C655     1.0000 0.54864  0.19360  0.37691  Biso   1.000  C
  C656     1.0000 0.14812  0.49592  0.69665  Biso   1.000  C
  C657     1.0000 0.83437  0.88944  0.99319  Biso   1.000  C
  C658     1.0000 0.03373  0.20983  0.08533  Biso   1.000  C
  C659     1.0000 0.65058  0.50152  0.78305  Biso   1.000  C
  C660     1.0000 0.34037  0.89547  0.47388  Biso   1.000  C
  C661     1.0000 0.04967  0.28401  0.58163  Biso   1.000  C
  C662     1.0000 0.64414  0.98413  0.27775  Biso   1.000  C
  C663     1.0000 0.33697  0.60269  0.97410  Biso   1.000  C
  C664     1.0000 0.54558  0.29674  0.87218  Biso   1.000  C
  C665     1.0000 0.13859  0.01340  0.20084  Biso   1.000  C
  C666     1.0000 0.83260  0.59228  0.51067  Biso   1.000  C
  C667     1.0000 0.54768  0.79361  0.59752  Biso   1.000  C
  C668     1.0000 0.93690  0.50812  0.28679  Biso   1.000  C
  C669     1.0000 0.25414  0.10165  0.98867  Biso   1.000  C
  C670     1.0000 0.03711  0.78410  0.89404  Biso   1.000  C
  C671     1.0000 0.43623  0.48687  0.19261  Biso   1.000  C
  C672     1.0000 0.75330  0.09547  0.48303  Biso   1.000  C
  C673     1.0000 0.24791  0.99876  0.80207  Biso   1.000  C
  C674     1.0000 0.84708  0.19162  0.96448  Biso   1.000  C
  C675     1.0000 0.05426  0.81131  0.19087  Biso   1.000  C
  C676     1.0000 0.74705  0.01152  0.67796  Biso   1.000  C
  C677     1.0000 0.34544  0.18851  0.49364  Biso   1.000  C
  C678     1.0000 0.55602  0.79079  0.29964  Biso   1.000  C
  C679     1.0000 0.35166  0.51575  0.78798  Biso   1.000  C
  C680     1.0000 0.74124  0.68763  0.00714  Biso   1.000  C
  C681     1.0000 0.53878  0.28949  0.17212  Biso   1.000  C
  C682     1.0000 0.84597  0.47754  0.69129  Biso   1.000  C
  C683     1.0000 0.23750  0.69211  0.48164  Biso   1.000  C
  C684     1.0000 0.04069  0.30427  0.28749  Biso   1.000  C
  C685     1.0000 0.84715  0.98717  0.18195  Biso   1.000  C
  C686     1.0000 0.24433  0.80466  0.98158  Biso   1.000  C
  C687     1.0000 0.03773  0.18273  0.78505  Biso   1.000  C
  C688     1.0000 0.34651  0.99382  0.30137  Biso   1.000  C
  C689     1.0000 0.74558  0.79923  0.49230  Biso   1.000  C
  C690     1.0000 0.53667  0.20329  0.67253  Biso   1.000  C
  C691     1.0000 0.73345  0.49478  0.19087  Biso   1.000  C
  C692     1.0000 0.35019  0.30642  0.98110  Biso   1.000  C
  C693     1.0000 0.55299  0.70587  0.80132  Biso   1.000  C
  C694     1.0000 0.23883  0.49415  0.28956  Biso   1.000  C
  C695     1.0000 0.84807  0.29768  0.49094  Biso   1.000  C
  C696     1.0000 0.04694  0.68117  0.68944  Biso   1.000  C
  C697     1.0000 0.74080  0.99063  0.28657  Biso   1.000  C
  C698     1.0000 0.35284  0.69588  0.98239  Biso   1.000  C
  C699     1.0000 0.03888  0.29234  0.67721  Biso   1.000  C
  C700     1.0000 0.23467  0.00171  0.19353  Biso   1.000  C
  C701     1.0000 0.84670  0.68650  0.50252  Biso   1.000  C
  C702     1.0000 0.53383  0.31693  0.78069  Biso   1.000  C
  C703     1.0000 0.84159  0.49812  0.30051  Biso   1.000  C
  C704     1.0000 0.24116  0.19511  0.98857  Biso   1.000  C
  C705     1.0000 0.56589  0.81200  0.68771  Biso   1.000  C
  C706     1.0000 0.34454  0.49273  0.18084  Biso   1.000  C
  C707     1.0000 0.74005  0.18955  0.49022  Biso   1.000  C
  C708     1.0000 0.04891  0.79462  0.79751  Biso   1.000  C
  C709     1.0000 0.35434  0.99254  0.69581  Biso   1.000  C
  C710     1.0000 0.74185  0.30024  0.97494  Biso   1.000  C
  C711     1.0000 0.03986  0.70023  0.29813  Biso   1.000  C
  C712     1.0000 0.85597  0.01297  0.79094  Biso   1.000  C
  C713     1.0000 0.23810  0.30104  0.48964  Biso   1.000  C
  C714     1.0000 0.55310  0.68074  0.19542  Biso   1.000  C
  C715     1.0000 0.24070  0.51255  0.68138  Biso   1.000  C
  C716     1.0000 0.85177  0.79699  0.00168  Biso   1.000  C
  C717     1.0000 0.54342  0.17869  0.28384  Biso   1.000  C
  C718     1.0000 0.74137  0.48196  0.80360  Biso   1.000  C
  C719     1.0000 0.34894  0.80019  0.47781  Biso   1.000  C
  C720     1.0000 0.03185  0.19856  0.17797  Biso   1.000  C
  C721     1.0000 0.56319  0.79757  0.26807  Biso   1.000  C
  C722     1.0000 0.35697  0.53526  0.76426  Biso   1.000  C
  C723     1.0000 0.81860  0.30092  0.50500  Biso   1.000  C
  C724     1.0000 0.03613  0.78521  0.18587  Biso   1.000  C
  C725     1.0000 0.81670  0.48911  0.68863  Biso   1.000  C
  C726     1.0000 0.32432  0.30656  0.96202  Biso   1.000  C
  C727     1.0000 0.02397  0.27875  0.29032  Biso   1.000  C
  C728     1.0000 0.27066  0.02058  0.80097  Biso   1.000  C
  C729     1.0000 0.77169  0.80240  0.51020  Biso   1.000  C
  C730     1.0000 0.51900  0.28857  0.19642  Biso   1.000  C
  C731     1.0000 0.77006  0.99020  0.68169  Biso   1.000  C
  C732     1.0000 0.26844  0.80541  0.96202  Biso   1.000  C
  C733     1.0000 0.52077  0.20044  0.70007  Biso   1.000  C
  C734     1.0000 0.73112  0.48313  0.21955  Biso   1.000  C
  C735     1.0000 0.23124  0.71954  0.46739  Biso   1.000  C
  C736     1.0000 0.02085  0.20919  0.78961  Biso   1.000  C
  C737     1.0000 0.26742  0.48131  0.29366  Biso   1.000  C
  C738     1.0000 0.77152  0.68412  0.01800  Biso   1.000  C
  C739     1.0000 0.06728  0.67970  0.71519  Biso   1.000  C
  C740     1.0000 0.82116  0.97053  0.17555  Biso   1.000  C
  C741     1.0000 0.31715  0.18453  0.47841  Biso   1.000  C
  C742     1.0000 0.57196  0.70118  0.77656  Biso   1.000  C
  C743     1.0000 0.32273  0.97370  0.30302  Biso   1.000  C
  C744     1.0000 0.85165  0.21732  0.98172  Biso   1.000  C
  C745     1.0000 0.05434  0.72697  0.30489  Biso   1.000  C
  C746     1.0000 0.33196  0.01499  0.69263  Biso   1.000  C
  C747     1.0000 0.76839  0.30055  0.99212  Biso   1.000  C
  C748     1.0000 0.57253  0.70487  0.19153  Biso   1.000  C
  C749     1.0000 0.86048  0.99946  0.76258  Biso   1.000  C
  C750     1.0000 0.26332  0.30163  0.50923  Biso   1.000  C
  C751     1.0000 0.55646  0.17550  0.25594  Biso   1.000  C
  C752     1.0000 0.26831  0.49979  0.67729  Biso   1.000  C
  C753     1.0000 0.82735  0.79813  0.98224  Biso   1.000  C
  C754     1.0000 0.04645  0.19216  0.20543  Biso   1.000  C
  C755     1.0000 0.73620  0.46473  0.77758  Biso   1.000  C
  C756     1.0000 0.31811  0.80562  0.48869  Biso   1.000  C
  C757     1.0000 0.01975  0.26746  0.66930  Biso   1.000  C
  C758     1.0000 0.73528  0.00454  0.25811  Biso   1.000  C
  C759     1.0000 0.32495  0.69163  0.99642  Biso   1.000  C
  C760     1.0000 0.55111  0.31988  0.75335  Biso   1.000  C
  C761     1.0000 0.26351  0.01367  0.19157  Biso   1.000  C
  C762     1.0000 0.84918  0.71105  0.48219  Biso   1.000  C
  C763     1.0000 0.55537  0.81825  0.71655  Biso   1.000  C
  C764     1.0000 0.81472  0.51576  0.30399  Biso   1.000  C
  C765     1.0000 0.27072  0.19190  0.00006  Biso   1.000  C
  C766     1.0000 0.03932  0.79968  0.76737  Biso   1.000  C
  C767     1.0000 0.34996  0.50930  0.20789  Biso   1.000  C
  C768     1.0000 0.73924  0.21527  0.47198  Biso   1.000  C
  C769     1.0000 0.53915  0.73357  0.80458  Biso   1.000  C
  C770     1.0000 0.85374  0.46353  0.71888  Biso   1.000  C
  C771     1.0000 0.73981  0.77173  0.47765  Biso   1.000  C
  C772     1.0000 0.02734  0.70606  0.68880  Biso   1.000  C
  C773     1.0000 0.32450  0.50079  0.79240  Biso   1.000  C
  C774     1.0000 0.24234  0.77999  0.00048  Biso   1.000  C
  C775     1.0000 0.04958  0.17713  0.75564  Biso   1.000  C
  C776     1.0000 0.74683  0.03480  0.69938  Biso   1.000  C
  C777     1.0000 0.85189  0.27223  0.47469  Biso   1.000  C
  C778     1.0000 0.55129  0.23073  0.66745  Biso   1.000  C
  C779     1.0000 0.24808  0.97428  0.78166  Biso   1.000  C
  C780     1.0000 0.35123  0.28197  0.00212  Biso   1.000  C
  C781     1.0000 0.56020  0.26596  0.17242  Biso   1.000  C
  C782     1.0000 0.23222  0.50915  0.26210  Biso   1.000  C
  C783     1.0000 0.34954  0.21552  0.50787  Biso   1.000  C
  C784     1.0000 0.05635  0.30821  0.26044  Biso   1.000  C
  C785     1.0000 0.75936  0.51177  0.18536  Biso   1.000  C
  C786     1.0000 0.81994  0.18726  0.94838  Biso   1.000  C
  C787     1.0000 0.06949  0.81222  0.21917  Biso   1.000  C
  C788     1.0000 0.34826  0.01268  0.27691  Biso   1.000  C
  C789     1.0000 0.26632  0.68694  0.49390  Biso   1.000  C
  C790     1.0000 0.55148  0.76017  0.30686  Biso   1.000  C
  C791     1.0000 0.85000  0.00517  0.20655  Biso   1.000  C
  C792     1.0000 0.73603  0.71494  0.99134  Biso   1.000  C
  C793     1.0000 0.53025  0.20745  0.28749  Biso   1.000  C
  C794     1.0000 0.31776  0.47664  0.17773  Biso   1.000  C
  C795     1.0000 0.23331  0.27529  0.47214  Biso   1.000  C
  C796     1.0000 0.02083  0.22716  0.17346  Biso   1.000  C
  C797     1.0000 0.84502  0.48053  0.27443  Biso   1.000  C
  C798     1.0000 0.73727  0.27815  0.95390  Biso   1.000  C
  C799     1.0000 0.02478  0.69720  0.26880  Biso   1.000  C
  C800     1.0000 0.22752  0.98682  0.22091  Biso   1.000  C
  C801     1.0000 0.35410  0.77091  0.46515  Biso   1.000  C
  C802     1.0000 0.53736  0.67858  0.22318  Biso   1.000  C
  C803     1.0000 0.76865  0.97617  0.29241  Biso   1.000  C
  C804     1.0000 0.85254  0.77274  0.02235  Biso   1.000  C
  C805     1.0000 0.57549  0.78150  0.68471  Biso   1.000  C
  C806     1.0000 0.76981  0.49571  0.80519  Biso   1.000  C
  C807     1.0000 0.82170  0.68771  0.51913  Biso   1.000  C
  C808     1.0000 0.06052  0.76503  0.80270  Biso   1.000  C
  C809     1.0000 0.23625  0.52633  0.70961  Biso   1.000  C
  C810     1.0000 0.35619  0.72275  0.96654  Biso   1.000  C
  C811     1.0000 0.05369  0.29238  0.70536  Biso   1.000  C
  C812     1.0000 0.83093  0.03132  0.79279  Biso   1.000  C
  C813     1.0000 0.76623  0.18430  0.50682  Biso   1.000  C
  C814     1.0000 0.51445  0.29032  0.78248  Biso   1.000  C
  C815     1.0000 0.35270  0.97270  0.71971  Biso   1.000  C
  C816     1.0000 0.23354  0.22121  0.97135  Biso   1.000  C
  C817     1.0000 0.01863  0.22826  0.76656  Biso   1.000  C
  C818     1.0000 0.79796  0.97256  0.19516  Biso   1.000  C
  C819     1.0000 0.28868  0.78371  0.96236  Biso   1.000  C
  C820     1.0000 0.51877  0.22370  0.71946  Biso   1.000  C
  C821     1.0000 0.30049  0.97344  0.28197  Biso   1.000  C
  C822     1.0000 0.79065  0.77869  0.51118  Biso   1.000  C
  C823     1.0000 0.57501  0.72262  0.75554  Biso   1.000  C
  C824     1.0000 0.75291  0.48502  0.24109  Biso   1.000  C
  C825     1.0000 0.30318  0.28564  0.96440  Biso   1.000  C
  C826     1.0000 0.06583  0.70096  0.73645  Biso   1.000  C
  C827     1.0000 0.28779  0.48277  0.27137  Biso   1.000  C
  C828     1.0000 0.79897  0.27819  0.50449  Biso   1.000  C
  C829     1.0000 0.03393  0.76408  0.20621  Biso   1.000  C
  C830     1.0000 0.29086  0.01803  0.77903  Biso   1.000  C
  C831     1.0000 0.82994  0.23833  0.98132  Biso   1.000  C
  C832     1.0000 0.56484  0.77575  0.24782  Biso   1.000  C
  C833     1.0000 0.79094  0.99323  0.70338  Biso   1.000  C
  C834     1.0000 0.29702  0.20610  0.47734  Biso   1.000  C
  C835     1.0000 0.52021  0.26638  0.21680  Biso   1.000  C
  C836     1.0000 0.33540  0.53576  0.74169  Biso   1.000  C
  C837     1.0000 0.79147  0.70647  0.01564  Biso   1.000  C
  C838     1.0000 0.02622  0.25630  0.27158  Biso   1.000  C
  C839     1.0000 0.79665  0.48743  0.71116  Biso   1.000  C
  C840     1.0000 0.25212  0.74136  0.47003  Biso   1.000  C
  C841     1.0000 0.26837  0.97292  0.76010  Biso   1.000  C
  C842     1.0000 0.79905  0.20882  0.95028  Biso   1.000  C
  C843     1.0000 0.06693  0.79025  0.23849  Biso   1.000  C
  C844     1.0000 0.76981  0.03829  0.71802  Biso   1.000  C
  C845     1.0000 0.32798  0.23646  0.50737  Biso   1.000  C
  C846     1.0000 0.55474  0.73965  0.28589  Biso   1.000  C
  C847     1.0000 0.30327  0.50145  0.77063  Biso   1.000  C
  C848     1.0000 0.75639  0.73669  0.98869  Biso   1.000  C
  C849     1.0000 0.55960  0.24372  0.19291  Biso   1.000  C
  C850     1.0000 0.83223  0.46349  0.74094  Biso   1.000  C
  C851     1.0000 0.28727  0.70966  0.49396  Biso   1.000  C
  C852     1.0000 0.05489  0.28690  0.23985  Biso   1.000  C
  C853     1.0000 0.82727  0.00630  0.22618  Biso   1.000  C
  C854     1.0000 0.26347  0.75811  0.99970  Biso   1.000  C
  C855     1.0000 0.04317  0.19689  0.73293  Biso   1.000  C
  C856     1.0000 0.32475  0.01394  0.25773  Biso   1.000  C
  C857     1.0000 0.75989  0.74883  0.47891  Biso   1.000  C
  C858     1.0000 0.54626  0.25309  0.68690  Biso   1.000  C
  C859     1.0000 0.78026  0.51417  0.20722  Biso   1.000  C
  C860     1.0000 0.32825  0.26174  0.00209  Biso   1.000  C
  C861     1.0000 0.54262  0.75297  0.78111  Biso   1.000  C
  C862     1.0000 0.25410  0.50965  0.24110  Biso   1.000  C
  C863     1.0000 0.83116  0.25070  0.47548  Biso   1.000  C
  C864     1.0000 0.02769  0.72535  0.71086  Biso   1.000  C
  C865     1.0000 0.75906  0.46156  0.75807  Biso   1.000  C
  C866     1.0000 0.82829  0.73229  0.47812  Biso   1.000  C
  C867     1.0000 0.55298  0.79790  0.73878  Biso   1.000  C
  C868     1.0000 0.29060  0.50357  0.69815  Biso   1.000  C
  C869     1.0000 0.30286  0.71345  0.99746  Biso   1.000  C
  C870     1.0000 0.03801  0.77628  0.74860  Biso   1.000  C
  C871     1.0000 0.83936  0.00404  0.74140  Biso   1.000  C
  C872     1.0000 0.76101  0.23559  0.47231  Biso   1.000  C
  C873     1.0000 0.01416  0.24502  0.68975  Biso   1.000  C
  C874     1.0000 0.31307  0.01714  0.71598  Biso   1.000  C
  C875     1.0000 0.29148  0.21416  0.99660  Biso   1.000  C
  C876     1.0000 0.54700  0.30044  0.73153  Biso   1.000  C
  C877     1.0000 0.32831  0.51003  0.22888  Biso   1.000  C
  C878     1.0000 0.28131  0.27834  0.51279  Biso   1.000  C
  C879     1.0000 0.55488  0.19588  0.23431  Biso   1.000  C
  C880     1.0000 0.79350  0.51518  0.28197  Biso   1.000  C
  C881     1.0000 0.78745  0.27741  0.99016  Biso   1.000  C
  C882     1.0000 0.04791  0.21307  0.22720  Biso   1.000  C
  C883     1.0000 0.28383  0.01123  0.21405  Biso   1.000  C
  C884     1.0000 0.29570  0.78477  0.48939  Biso   1.000  C
  C885     1.0000 0.05624  0.74947  0.28388  Biso   1.000  C
  C886     1.0000 0.75493  0.99917  0.23579  Biso   1.000  C
  C887     1.0000 0.80536  0.77752  0.98105  Biso   1.000  C
  C888     1.0000 0.57429  0.72610  0.21125  Biso   1.000  C
  C889     1.0000 0.78871  0.97463  0.26853  Biso   1.000  C
  C890     1.0000 0.33483  0.74418  0.96885  Biso   1.000  C
  C891     1.0000 0.04654  0.27001  0.72464  Biso   1.000  C
  C892     1.0000 0.24850  0.98664  0.24343  Biso   1.000  C
  C893     1.0000 0.80099  0.71011  0.51639  Biso   1.000  C
  C894     1.0000 0.51465  0.26978  0.76048  Biso   1.000  C
  C895     1.0000 0.82437  0.48325  0.25306  Biso   1.000  C
  C896     1.0000 0.25319  0.24388  0.97190  Biso   1.000  C
  C897     1.0000 0.57432  0.76262  0.70829  Biso   1.000  C
  C898     1.0000 0.29711  0.47823  0.19841  Biso   1.000  C
  C899     1.0000 0.78798  0.20491  0.50616  Biso   1.000  C
  C900     1.0000 0.05930  0.74374  0.78311  Biso   1.000  C
  C901     1.0000 0.33219  0.97475  0.74057  Biso   1.000  C
  C902     1.0000 0.75790  0.25674  0.95113  Biso   1.000  C
  C903     1.0000 0.03195  0.71875  0.24810  Biso   1.000  C
  C904     1.0000 0.80896  0.03224  0.77047  Biso   1.000  C
  C905     1.0000 0.25414  0.25260  0.47413  Biso   1.000  C
  C906     1.0000 0.54066  0.70123  0.24205  Biso   1.000  C
  C907     1.0000 0.25846  0.52909  0.72926  Biso   1.000  C
  C908     1.0000 0.82869  0.75395  0.02324  Biso   1.000  C
  C909     1.0000 0.53011  0.22874  0.26533  Biso   1.000  C
  C910     1.0000 0.79130  0.49356  0.78431  Biso   1.000  C
  C911     1.0000 0.33035  0.75096  0.46831  Biso   1.000  C
  C912     1.0000 0.02314  0.24746  0.19604  Biso   1.000  C
  C913     1.0000 0.80476  0.47430  0.73717  Biso   1.000  C
  C914     1.0000 0.78444  0.75439  0.49477  Biso   1.000  C
  C915     1.0000 0.56151  0.74894  0.75800  Biso   1.000  C
  C916     1.0000 0.30901  0.51943  0.74630  Biso   1.000  C
  C917     1.0000 0.28643  0.76133  0.98147  Biso   1.000  C
  C918     1.0000 0.04883  0.72450  0.73243  Biso   1.000  C
  C919     1.0000 0.78939  0.01641  0.72238  Biso   1.000  C
  C920     1.0000 0.80574  0.25440  0.48957  Biso   1.000  C
  C921     1.0000 0.02716  0.22131  0.73813  Biso   1.000  C
  C922     1.0000 0.29017  0.99541  0.75956  Biso   1.000  C
  C923     1.0000 0.30549  0.26276  0.98339  Biso   1.000  C
  C924     1.0000 0.53037  0.25061  0.71225  Biso   1.000  C
  C925     1.0000 0.28101  0.49728  0.24636  Biso   1.000  C
  C926     1.0000 0.30059  0.23195  0.49334  Biso   1.000  C
  C927     1.0000 0.54063  0.24548  0.21610  Biso   1.000  C
  C928     1.0000 0.77761  0.50063  0.23371  Biso   1.000  C
  C929     1.0000 0.80419  0.23336  0.96617  Biso   1.000  C
  C930     1.0000 0.04020  0.26158  0.24430  Biso   1.000  C
  C931     1.0000 0.30125  0.99398  0.26112  Biso   1.000  C
  C932     1.0000 0.28065  0.73586  0.48145  Biso   1.000  C
  C933     1.0000 0.05034  0.76557  0.23248  Biso   1.000  C
  C934     1.0000 0.80349  0.98912  0.22013  Biso   1.000  C
  C935     1.0000 0.78330  0.73312  0.00228  Biso   1.000  C
  C936     1.0000 0.56094  0.74740  0.25798  Biso   1.000  C
  C937     1.0000 0.78216  0.25625  0.96903  Biso   1.000  C
  C938     1.0000 0.04517  0.74486  0.25594  Biso   1.000  C
  C939     1.0000 0.31196  0.99583  0.73726  Biso   1.000  C
  C940     1.0000 0.27725  0.25417  0.49433  Biso   1.000  C
  C941     1.0000 0.55770  0.72503  0.23617  Biso   1.000  C
  C942     1.0000 0.81340  0.01885  0.74396  Biso   1.000  C
  C943     1.0000 0.80715  0.75489  0.00164  Biso   1.000  C
  C944     1.0000 0.54330  0.22293  0.23901  Biso   1.000  C
  C945     1.0000 0.28582  0.51831  0.72367  Biso   1.000  C
  C946     1.0000 0.30317  0.75812  0.47957  Biso   1.000  C
  C947     1.0000 0.03788  0.24115  0.22163  Biso   1.000  C
  C948     1.0000 0.78490  0.47574  0.76140  Biso   1.000  C
  C949     1.0000 0.30816  0.73856  0.98236  Biso   1.000  C
  C950     1.0000 0.02798  0.24607  0.71719  Biso   1.000  C
  C951     1.0000 0.78110  0.98744  0.24200  Biso   1.000  C
  C952     1.0000 0.80497  0.73236  0.49641  Biso   1.000  C
  C953     1.0000 0.53130  0.27422  0.73595  Biso   1.000  C
  C954     1.0000 0.27742  0.99687  0.23984  Biso   1.000  C
  C955     1.0000 0.28240  0.23960  0.98406  Biso   1.000  C
  C956     1.0000 0.56324  0.76986  0.73474  Biso   1.000  C
  C957     1.0000 0.79970  0.50003  0.25650  Biso   1.000  C
  C958     1.0000 0.78417  0.23038  0.49010  Biso   1.000  C
  C959     1.0000 0.04795  0.74916  0.75591  Biso   1.000  C
  C960     1.0000 0.30190  0.49736  0.22233  Biso   1.000  C
  Cu1      1.0000 0.04081  0.48622  0.64701  Biso   1.000  Cu
  Cu2      1.0000 0.69933  0.99112  0.48005  Biso   1.000  Cu
  Cu3      1.0000 0.54896  0.65314  0.99779  Biso   1.000  Cu
  Cu4      1.0000 0.54574  0.50794  0.83173  Biso   1.000  Cu
  Cu5      1.0000 0.20304  0.99875  0.99702  Biso   1.000  Cu
  Cu6      1.0000 0.04200  0.64703  0.49182  Biso   1.000  Cu
  Cu7      1.0000 0.54843  0.00548  0.64622  Biso   1.000  Cu
  Cu8      1.0000 0.89210  0.49243  0.49567  Biso   1.000  Cu
  Cu9      1.0000 0.04529  0.15508  0.98406  Biso   1.000  Cu
  Cu10     1.0000 0.05104  0.98964  0.83999  Biso   1.000  Cu
  Cu11     1.0000 0.39082  0.50248  0.98682  Biso   1.000  Cu
  Cu12     1.0000 0.54124  0.14679  0.48340  Biso   1.000  Cu
  Cu13     1.0000 0.04320  0.50026  0.33356  Biso   1.000  Cu
  Cu14     1.0000 0.39465  0.99493  0.49966  Biso   1.000  Cu
  Cu15     1.0000 0.54236  0.34237  0.97878  Biso   1.000  Cu
  Cu16     1.0000 0.54095  0.49114  0.14028  Biso   1.000  Cu
  Cu17     1.0000 0.89111  0.99509  0.99010  Biso   1.000  Cu
  Cu18     1.0000 0.04575  0.34515  0.48165  Biso   1.000  Cu
  Cu19     1.0000 0.54401  0.98693  0.33492  Biso   1.000  Cu
  Cu20     1.0000 0.19721  0.49884  0.48590  Biso   1.000  Cu
  Cu21     1.0000 0.04803  0.84131  0.99434  Biso   1.000  Cu
  Cu22     1.0000 0.04071  0.00341  0.14071  Biso   1.000  Cu
  Cu23     1.0000 0.69592  0.48995  0.99764  Biso   1.000  Cu
  Cu24     1.0000 0.54700  0.84126  0.49463  Biso   1.000  Cu
  Cu25     1.0000 0.25747  0.00185  0.99649  Biso   1.000  Cu
  Cu26     1.0000 0.04580  0.20921  0.98174  Biso   1.000  Cu
  Cu27     1.0000 0.04025  0.00345  0.19485  Biso   1.000  Cu
  Cu28     1.0000 0.75208  0.99455  0.48312  Biso   1.000  Cu
  Cu29     1.0000 0.54262  0.19981  0.47715  Biso   1.000  Cu
  Cu30     1.0000 0.54122  0.98358  0.28167  Biso   1.000  Cu
  Cu31     1.0000 0.33549  0.50144  0.98150  Biso   1.000  Cu
  Cu32     1.0000 0.55011  0.70601  0.00175  Biso   1.000  Cu
  Cu33     1.0000 0.53890  0.48642  0.19512  Biso   1.000  Cu
  Cu34     1.0000 0.83827  0.49359  0.49680  Biso   1.000  Cu
  Cu35     1.0000 0.04173  0.70042  0.49637  Biso   1.000  Cu
  Cu36     1.0000 0.04035  0.50445  0.28040  Biso   1.000  Cu
  Cu37     1.0000 0.83510  0.99486  0.98680  Biso   1.000  Cu
  Cu38     1.0000 0.05148  0.78695  0.99423  Biso   1.000  Cu
  Cu39     1.0000 0.05099  0.99256  0.78603  Biso   1.000  Cu
  Cu40     1.0000 0.34113  0.99148  0.49869  Biso   1.000  Cu
  Cu41     1.0000 0.54502  0.78672  0.49647  Biso   1.000  Cu
  Cu42     1.0000 0.55164  0.00600  0.69995  Biso   1.000  Cu
  Cu43     1.0000 0.75012  0.49323  0.99757  Biso   1.000  Cu
  Cu44     1.0000 0.54118  0.28990  0.97435  Biso   1.000  Cu
  Cu45     1.0000 0.55011  0.51119  0.77827  Biso   1.000  Cu
  Cu46     1.0000 0.25178  0.49907  0.48693  Biso   1.000  Cu
  Cu47     1.0000 0.04274  0.28811  0.48080  Biso   1.000  Cu
  Cu48     1.0000 0.04441  0.48481  0.70172  Biso   1.000  Cu
  H1       1.0000 0.27376  0.78721  0.49859  Biso   1.000  H
  H2       1.0000 0.55690  0.30591  0.71069  Biso   1.000  H
  H3       1.0000 0.77336  0.52824  0.28282  Biso   1.000  H
  H4       1.0000 0.78630  0.77832  0.96688  Biso   1.000  H
  H5       1.0000 0.00031  0.22713  0.68551  Biso   1.000  H
  H6       1.0000 0.32913  0.52377  0.24881  Biso   1.000  H
  H7       1.0000 0.29843  0.27954  0.53050  Biso   1.000  H
  H8       1.0000 0.02984  0.78011  0.72665  Biso   1.000  H
  H9       1.0000 0.75121  0.01144  0.21422  Biso   1.000  H
  H10      1.0000 0.80489  0.27785  0.00606  Biso   1.000  H
  H11      1.0000 0.54439  0.80512  0.75946  Biso   1.000  H
  H12      1.0000 0.30693  0.01639  0.21092  Biso   1.000  H
  H13      1.0000 0.75977  0.25604  0.46068  Biso   1.000  H
  H14      1.0000 0.59002  0.74371  0.20791  Biso   1.000  H
  H15      1.0000 0.31098  0.49435  0.69604  Biso   1.000  H
  H16      1.0000 0.31181  0.21071  0.00725  Biso   1.000  H
  H17      1.0000 0.06667  0.76947  0.28899  Biso   1.000  H
  H18      1.0000 0.75645  0.44708  0.73950  Biso   1.000  H
  H19      1.0000 0.83090  0.74966  0.46089  Biso   1.000  H
  H20      1.0000 0.05855  0.20879  0.24769  Biso   1.000  H
  H21      1.0000 0.29962  0.03592  0.71848  Biso   1.000  H
  H22      1.0000 0.28270  0.70937  0.01110  Biso   1.000  H
  H23      1.0000 0.56426  0.19215  0.21327  Biso   1.000  H
  H24      1.0000 0.84586  0.99630  0.72072  Biso   1.000  H
  H25      1.0000 0.30889  0.03365  0.77664  Biso   1.000  H
  H26      1.0000 0.83543  0.25594  0.99552  Biso   1.000  H
  H27      1.0000 0.01904  0.74716  0.20346  Biso   1.000  H
  H28      1.0000 0.80572  0.97688  0.70659  Biso   1.000  H
  H29      1.0000 0.27672  0.20258  0.46531  Biso   1.000  H
  H30      1.0000 0.56593  0.78136  0.22427  Biso   1.000  H
  H31      1.0000 0.33627  0.54974  0.72235  Biso   1.000  H
  H32      1.0000 0.81549  0.70098  0.02165  Biso   1.000  H
  H33      1.0000 0.50682  0.26988  0.23643  Biso   1.000  H
  H34      1.0000 0.77391  0.49294  0.70808  Biso   1.000  H
  H35      1.0000 0.24773  0.76179  0.45879  Biso   1.000  H
  H36      1.0000 0.01168  0.23659  0.27395  Biso   1.000  H
  H37      1.0000 0.77961  0.95756  0.19166  Biso   1.000  H
  H38      1.0000 0.30613  0.78701  0.94822  Biso   1.000  H
  H39      1.0000 0.00815  0.24983  0.76906  Biso   1.000  H
  H40      1.0000 0.28429  0.95786  0.28311  Biso   1.000  H
  H41      1.0000 0.80723  0.78084  0.52880  Biso   1.000  H
  H42      1.0000 0.51032  0.21865  0.74056  Biso   1.000  H
  H43      1.0000 0.75125  0.47203  0.26134  Biso   1.000  H
  H44      1.0000 0.28401  0.28804  0.94921  Biso   1.000  H
  H45      1.0000 0.58813  0.71516  0.73745  Biso   1.000  H
  H46      1.0000 0.31028  0.47746  0.27571  Biso   1.000  H
  H47      1.0000 0.77746  0.28034  0.51417  Biso   1.000  H
  H48      1.0000 0.08048  0.69901  0.75465  Biso   1.000  H
  H49      1.0000 0.24994  0.52521  0.22290  Biso   1.000  H
  H50      1.0000 0.33188  0.25694  0.51903  Biso   1.000  H
  H51      1.0000 0.57424  0.22562  0.19112  Biso   1.000  H
  H52      1.0000 0.79957  0.52701  0.20564  Biso   1.000  H
  H53      1.0000 0.77806  0.20582  0.93921  Biso   1.000  H
  H54      1.0000 0.06748  0.28751  0.21971  Biso   1.000  H
  H55      1.0000 0.32641  0.03100  0.24007  Biso   1.000  H
  H56      1.0000 0.30830  0.70411  0.50352  Biso   1.000  H
  H57      1.0000 0.07949  0.79335  0.25846  Biso   1.000  H
  H58      1.0000 0.82888  0.01763  0.24685  Biso   1.000  H
  H59      1.0000 0.75206  0.75792  0.97872  Biso   1.000  H
  H60      1.0000 0.55437  0.71668  0.29450  Biso   1.000  H
  H61      1.0000 0.83789  0.45209  0.76052  Biso   1.000  H
  H62      1.0000 0.75672  0.72712  0.47087  Biso   1.000  H
  H63      1.0000 0.52922  0.77257  0.78393  Biso   1.000  H
  H64      1.0000 0.28504  0.48674  0.77341  Biso   1.000  H
  H65      1.0000 0.26096  0.74093  0.01583  Biso   1.000  H
  H66      1.0000 0.00970  0.74059  0.71166  Biso   1.000  H
  H67      1.0000 0.76845  0.05532  0.73380  Biso   1.000  H
  H68      1.0000 0.83526  0.22963  0.46139  Biso   1.000  H
  H69      1.0000 0.05131  0.19188  0.71128  Biso   1.000  H
  H70      1.0000 0.26524  0.95686  0.74230  Biso   1.000  H
  H71      1.0000 0.32791  0.24784  0.02237  Biso   1.000  H
  H72      1.0000 0.55720  0.27340  0.68116  Biso   1.000  H
  H73      1.0000 0.81156  0.50681  0.78270  Biso   1.000  H
  H74      1.0000 0.78433  0.71336  0.53175  Biso   1.000  H
  H75      1.0000 0.57986  0.74018  0.70286  Biso   1.000  H
  H76      1.0000 0.25391  0.53637  0.75104  Biso   1.000  H
  H77      1.0000 0.33920  0.76426  0.95730  Biso   1.000  H
  H78      1.0000 0.06746  0.72103  0.78862  Biso   1.000  H
  H79      1.0000 0.78737  0.03913  0.77367  Biso   1.000  H
  H80      1.0000 0.80879  0.20308  0.51841  Biso   1.000  H
  H81      1.0000 0.05581  0.27242  0.74613  Biso   1.000  H
  H82      1.0000 0.33201  0.95919  0.75843  Biso   1.000  H
  H83      1.0000 0.24446  0.26226  0.95985  Biso   1.000  H
  H84      1.0000 0.50095  0.25103  0.76450  Biso   1.000  H
  H85      1.0000 0.27806  0.46511  0.19092  Biso   1.000  H
  H86      1.0000 0.25381  0.23528  0.46042  Biso   1.000  H
  H87      1.0000 0.51900  0.24907  0.26798  Biso   1.000  H
  H88      1.0000 0.82727  0.47337  0.23359  Biso   1.000  H
  H89      1.0000 0.75334  0.24266  0.93282  Biso   1.000  H
  H90      1.0000 0.01369  0.26784  0.19280  Biso   1.000  H
  H91      1.0000 0.24278  0.97636  0.26400  Biso   1.000  H
  H92      1.0000 0.33230  0.72981  0.45765  Biso   1.000  H
  H93      1.0000 0.02653  0.71359  0.22550  Biso   1.000  H
  H94      1.0000 0.80997  0.96649  0.27117  Biso   1.000  H
  H95      1.0000 0.82632  0.73724  0.03951  Biso   1.000  H
  H96      1.0000 0.52588  0.70013  0.26139  Biso   1.000  H
  H97      1.0000 0.91425  0.99216  0.89760  Biso   1.000  H
  H98      1.0000 0.95659  0.86070  0.00348  Biso   1.000  H
  H99      1.0000 0.04347  0.89907  0.85926  Biso   1.000  H
  H100     1.0000 0.41639  0.99650  0.58875  Biso   1.000  H
  H101     1.0000 0.45425  0.86071  0.48155  Biso   1.000  H
  H102     1.0000 0.56022  0.91599  0.62120  Biso   1.000  H
  H103     1.0000 0.67618  0.50684  0.90262  Biso   1.000  H
  H104     1.0000 0.63564  0.36277  0.99266  Biso   1.000  H
  H105     1.0000 0.54168  0.41764  0.84854  Biso   1.000  H
  H106     1.0000 0.17870  0.49353  0.57936  Biso   1.000  H
  H107     1.0000 0.13454  0.36568  0.47351  Biso   1.000  H
  H108     1.0000 0.04780  0.40023  0.61978  Biso   1.000  H
  H109     1.0000 0.17813  0.00870  0.08448  Biso   1.000  H
  H110     1.0000 0.13488  0.13290  0.98915  Biso   1.000  H
  H111     1.0000 0.02324  0.09159  0.12147  Biso   1.000  H
  H112     1.0000 0.67826  0.99715  0.39190  Biso   1.000  H
  H113     1.0000 0.63775  0.12527  0.47814  Biso   1.000  H
  H114     1.0000 0.53981  0.07472  0.34817  Biso   1.000  H
  H115     1.0000 0.40586  0.49844  0.07477  Biso   1.000  H
  H116     1.0000 0.45580  0.63050  0.98003  Biso   1.000  H
  H117     1.0000 0.53595  0.58261  0.12162  Biso   1.000  H
  H118     1.0000 0.91059  0.49691  0.40139  Biso   1.000  H
  H119     1.0000 0.95391  0.63014  0.49931  Biso   1.000  H
  H120     1.0000 0.04310  0.59230  0.35986  Biso   1.000  H
  H121     1.0000 0.14173  0.99303  0.86076  Biso   1.000  H
  H122     1.0000 0.91431  0.09217  0.97500  Biso   1.000  H
  H123     1.0000 0.05146  0.86341  0.07923  Biso   1.000  H
  H124     1.0000 0.63889  0.00836  0.62221  Biso   1.000  H
  H125     1.0000 0.41070  0.08698  0.48997  Biso   1.000  H
  H126     1.0000 0.54933  0.85668  0.40150  Biso   1.000  H
  H127     1.0000 0.45842  0.50411  0.84979  Biso   1.000  H
  H128     1.0000 0.67697  0.58272  0.01029  Biso   1.000  H
  H129     1.0000 0.53220  0.35855  0.07173  Biso   1.000  H
  H130     1.0000 0.95165  0.48491  0.62820  Biso   1.000  H
  H131     1.0000 0.17353  0.58787  0.47593  Biso   1.000  H
  H132     1.0000 0.03791  0.36920  0.38723  Biso   1.000  H
  H133     1.0000 0.95221  0.99419  0.12114  Biso   1.000  H
  H134     1.0000 0.18021  0.90343  0.00448  Biso   1.000  H
  H135     1.0000 0.06131  0.13716  0.89741  Biso   1.000  H
  H136     1.0000 0.45446  0.99901  0.36007  Biso   1.000  H
  H137     1.0000 0.68475  0.90424  0.48935  Biso   1.000  H
  H138     1.0000 0.53451  0.13087  0.57471  Biso   1.000  H
  H139     1.0000 0.63013  0.47631  0.12628  Biso   1.000  H
  H140     1.0000 0.41415  0.41058  0.98802  Biso   1.000  H
  H141     1.0000 0.55348  0.63534  0.90211  Biso   1.000  H
  H142     1.0000 0.13296  0.48671  0.35050  Biso   1.000  H
  H143     1.0000 0.91284  0.40396  0.48174  Biso   1.000  H
  H144     1.0000 0.04305  0.62006  0.58271  Biso   1.000  H
  H145     1.0000 0.63809  0.51901  0.85573  Biso   1.000  H
  H146     1.0000 0.91069  0.58502  0.50723  Biso   1.000  H
  H147     1.0000 0.55000  0.87122  0.58080  Biso   1.000  H
  H148     1.0000 0.13382  0.49599  0.62146  Biso   1.000  H
  H149     1.0000 0.41456  0.59085  0.97665  Biso   1.000  H
  H150     1.0000 0.03072  0.86062  0.89794  Biso   1.000  H
  H151     1.0000 0.95833  0.99741  0.85640  Biso   1.000  H
  H152     1.0000 0.67536  0.08884  0.48827  Biso   1.000  H
  H153     1.0000 0.05172  0.35847  0.57480  Biso   1.000  H
  H154     1.0000 0.46070  0.99923  0.63582  Biso   1.000  H
  H155     1.0000 0.17933  0.08615  0.98879  Biso   1.000  H
  H156     1.0000 0.53956  0.37078  0.88845  Biso   1.000  H
  H157     1.0000 0.44759  0.49603  0.11590  Biso   1.000  H
  H158     1.0000 0.17847  0.40467  0.47657  Biso   1.000  H
  H159     1.0000 0.53918  0.12139  0.39195  Biso   1.000  H
  H160     1.0000 0.94853  0.49509  0.36061  Biso   1.000  H
  H161     1.0000 0.68232  0.39938  0.00647  Biso   1.000  H
  H162     1.0000 0.02369  0.13697  0.07163  Biso   1.000  H
  H163     1.0000 0.13220  0.01080  0.12611  Biso   1.000  H
  H164     1.0000 0.41583  0.89987  0.48157  Biso   1.000  H
  H165     1.0000 0.03667  0.63036  0.39901  Biso   1.000  H
  H166     1.0000 0.63434  0.99369  0.35066  Biso   1.000  H
  H167     1.0000 0.91105  0.90357  0.98925  Biso   1.000  H
  H168     1.0000 0.53803  0.63135  0.08528  Biso   1.000  H
  H169     1.0000 0.06416  0.08772  0.85917  Biso   1.000  H
  H170     1.0000 0.90883  0.99443  0.07771  Biso   1.000  H
  H171     1.0000 0.14050  0.86755  0.99280  Biso   1.000  H
  H172     1.0000 0.54824  0.09253  0.62050  Biso   1.000  H
  H173     1.0000 0.41375  0.99810  0.40799  Biso   1.000  H
  H174     1.0000 0.63903  0.85953  0.48842  Biso   1.000  H
  H175     1.0000 0.54818  0.59821  0.85847  Biso   1.000  H
  H176     1.0000 0.67745  0.47542  0.08298  Biso   1.000  H
  H177     1.0000 0.45426  0.36185  0.99088  Biso   1.000  H
  H178     1.0000 0.03980  0.57881  0.62511  Biso   1.000  H
  H179     1.0000 0.17487  0.48712  0.39514  Biso   1.000  H
  H180     1.0000 0.95321  0.36304  0.48858  Biso   1.000  H
  H181     1.0000 0.04740  0.90946  0.12077  Biso   1.000  H
  H182     1.0000 0.18309  0.99818  0.90609  Biso   1.000  H
  H183     1.0000 0.95315  0.13463  0.97341  Biso   1.000  H
  H184     1.0000 0.54026  0.89560  0.36004  Biso   1.000  H
  H185     1.0000 0.67659  0.99807  0.57545  Biso   1.000  H
  H186     1.0000 0.45071  0.13011  0.48859  Biso   1.000  H
  H187     1.0000 0.53976  0.39888  0.11796  Biso   1.000  H
  H188     1.0000 0.41822  0.50616  0.89319  Biso   1.000  H
  H189     1.0000 0.63477  0.62980  0.01413  Biso   1.000  H
  H190     1.0000 0.02685  0.41104  0.34703  Biso   1.000  H
  H191     1.0000 0.91393  0.48321  0.58999  Biso   1.000  H
  H192     1.0000 0.13382  0.63013  0.48261  Biso   1.000  H
  H193     1.0000 0.31649  0.85361  0.46511  Biso   1.000  H
  H194     1.0000 0.54685  0.28059  0.82680  Biso   1.000  H
  H195     1.0000 0.89398  0.50924  0.26572  Biso   1.000  H
  H196     1.0000 0.81462  0.84596  0.99726  Biso   1.000  H
  H197     1.0000 0.04845  0.26103  0.62630  Biso   1.000  H
  H198     1.0000 0.39527  0.48445  0.21530  Biso   1.000  H
  H199     1.0000 0.27284  0.35377  0.49091  Biso   1.000  H
  H200     1.0000 0.04191  0.76168  0.85503  Biso   1.000  H
  H201     1.0000 0.68464  0.98119  0.25566  Biso   1.000  H
  H202     1.0000 0.77681  0.35200  0.98172  Biso   1.000  H
  H203     1.0000 0.55153  0.77546  0.63931  Biso   1.000  H
  H204     1.0000 0.18056  0.01268  0.22539  Biso   1.000  H
  H205     1.0000 0.77431  0.13781  0.47840  Biso   1.000  H
  H206     1.0000 0.55639  0.72001  0.14599  Biso   1.000  H
  H207     1.0000 0.19077  0.50137  0.71461  Biso   1.000  H
  H208     1.0000 0.27367  0.14367  0.98764  Biso   1.000  H
  H209     1.0000 0.02703  0.73120  0.35358  Biso   1.000  H
  H210     1.0000 0.69242  0.48722  0.76602  Biso   1.000  H
  H211     1.0000 0.81303  0.63439  0.50515  Biso   1.000  H
  H212     1.0000 0.03851  0.22987  0.12714  Biso   1.000  H
  H213     1.0000 0.40390  0.98947  0.73041  Biso   1.000  H
  H214     1.0000 0.31778  0.64733  0.96807  Biso   1.000  H
  H215     1.0000 0.55383  0.21090  0.33444  Biso   1.000  H
  H216     1.0000 0.90804  0.00994  0.76056  Biso   1.000  H
  H217     1.0000 0.27179  0.49658  0.34345  Biso   1.000  H
  H218     1.0000 0.39876  0.22543  0.48163  Biso   1.000  H
  H219     1.0000 0.53600  0.33706  0.20911  Biso   1.000  H
  H220     1.0000 0.76868  0.47830  0.14646  Biso   1.000  H
  H221     1.0000 0.89909  0.22972  0.96181  Biso   1.000  H
  H222     1.0000 0.03286  0.35775  0.24959  Biso   1.000  H
  H223     1.0000 0.31551  0.98974  0.35641  Biso   1.000  H
  H224     1.0000 0.18655  0.72542  0.49464  Biso   1.000  H
  H225     1.0000 0.04864  0.86330  0.22093  Biso   1.000  H
  H226     1.0000 0.81327  0.99863  0.13193  Biso   1.000  H
  H227     1.0000 0.68968  0.72632  0.02028  Biso   1.000  H
  H228     1.0000 0.53294  0.83790  0.26625  Biso   1.000  H
  H229     1.0000 0.80945  0.48206  0.63164  Biso   1.000  H
  H230     1.0000 0.69334  0.76675  0.50158  Biso   1.000  H
  H231     1.0000 0.53883  0.66001  0.76640  Biso   1.000  H
  H232     1.0000 0.31972  0.51417  0.84060  Biso   1.000  H
  H233     1.0000 0.19305  0.77101  0.97924  Biso   1.000  H
  H234     1.0000 0.05196  0.63177  0.72215  Biso   1.000  H
  H235     1.0000 0.77322  0.99418  0.62923  Biso   1.000  H
  H236     1.0000 0.90021  0.26504  0.50218  Biso   1.000  H
  H237     1.0000 0.03455  0.12565  0.76072  Biso   1.000  H
  H238     1.0000 0.27992  0.00594  0.85098  Biso   1.000  H
  H239     1.0000 0.39447  0.27266  0.97186  Biso   1.000  H
  H240     1.0000 0.54378  0.15512  0.71337  Biso   1.000  H
  H241     1.0000 0.77156  0.48190  0.85577  Biso   1.000  H
  H242     1.0000 0.89802  0.72218  0.50290  Biso   1.000  H
  H243     1.0000 0.58426  0.86487  0.71846  Biso   1.000  H
  H244     1.0000 0.27288  0.52412  0.62718  Biso   1.000  H
  H245     1.0000 0.40530  0.72644  0.98532  Biso   1.000  H
  H246     1.0000 0.06127  0.84918  0.76165  Biso   1.000  H
  H247     1.0000 0.81881  0.00882  0.84221  Biso   1.000  H
  H248     1.0000 0.68533  0.22245  0.48910  Biso   1.000  H
  H249     1.0000 0.03466  0.34311  0.71372  Biso   1.000  H
  H250     1.0000 0.32042  0.98998  0.64607  Biso   1.000  H
  H251     1.0000 0.19263  0.22705  0.99929  Biso   1.000  H
  H252     1.0000 0.52819  0.37241  0.74870  Biso   1.000  H
  H253     1.0000 0.30683  0.49743  0.12868  Biso   1.000  H
  H254     1.0000 0.18277  0.26875  0.49302  Biso   1.000  H
  H255     1.0000 0.54412  0.12637  0.24982  Biso   1.000  H
  H256     1.0000 0.80769  0.49086  0.35432  Biso   1.000  H
  H257     1.0000 0.69132  0.26848  0.97029  Biso   1.000  H
  H258     1.0000 0.02196  0.14734  0.21604  Biso   1.000  H
  H259     1.0000 0.27112  0.99583  0.14247  Biso   1.000  H
  H260     1.0000 0.40343  0.76295  0.48800  Biso   1.000  H
  H261     1.0000 0.04512  0.64792  0.26528  Biso   1.000  H
  H262     1.0000 0.77660  0.00163  0.33901  Biso   1.000  H
  H263     1.0000 0.90323  0.76273  0.99969  Biso   1.000  H
  H264     1.0000 0.54371  0.62770  0.22295  Biso   1.000  H
  H265     1.0000 0.05006  0.22488  0.83238  Biso   1.000  H
  H266     1.0000 0.89777  0.97759  0.21839  Biso   1.000  H
  H267     1.0000 0.28018  0.85790  0.98396  Biso   1.000  H
  H268     1.0000 0.53152  0.23122  0.62067  Biso   1.000  H
  H269     1.0000 0.39754  0.98387  0.26598  Biso   1.000  H
  H270     1.0000 0.77910  0.84720  0.48520  Biso   1.000  H
  H271     1.0000 0.55338  0.73580  0.85614  Biso   1.000  H
  H272     1.0000 0.68036  0.49070  0.22516  Biso   1.000  H
  H273     1.0000 0.31550  0.35855  0.98416  Biso   1.000  H
  H274     1.0000 0.05291  0.71671  0.63733  Biso   1.000  H
  H275     1.0000 0.18925  0.48920  0.25960  Biso   1.000  H
  H276     1.0000 0.81528  0.34845  0.48447  Biso   1.000  H
  H277     1.0000 0.06279  0.77222  0.13971  Biso   1.000  H
  H278     1.0000 0.19884  0.99043  0.76672  Biso   1.000  H
  H279     1.0000 0.81379  0.14111  0.97380  Biso   1.000  H
  H280     1.0000 0.56796  0.75785  0.35898  Biso   1.000  H
  H281     1.0000 0.69792  0.02131  0.71333  Biso   1.000  H
  H282     1.0000 0.31359  0.13925  0.50721  Biso   1.000  H
  H283     1.0000 0.54132  0.25900  0.11785  Biso   1.000  H
  H284     1.0000 0.40170  0.51179  0.75055  Biso   1.000  H
  H285     1.0000 0.77351  0.63246  0.00365  Biso   1.000  H
  H286     1.0000 0.04518  0.27236  0.33523  Biso   1.000  H
  H287     1.0000 0.89324  0.49115  0.72197  Biso   1.000  H
  H288     1.0000 0.26984  0.64060  0.47597  Biso   1.000  H
  H289     1.0000 0.13632  0.22821  0.00001  Biso   1.000  H
  H290     1.0000 0.02939  0.09525  0.21481  Biso   1.000  H
  H291     1.0000 0.27298  0.99411  0.09152  Biso   1.000  H
  H292     1.0000 0.63258  0.21956  0.48590  Biso   1.000  H
  H293     1.0000 0.54513  0.07272  0.25095  Biso   1.000  H
  H294     1.0000 0.77325  0.00957  0.39350  Biso   1.000  H
  H295     1.0000 0.45885  0.72586  0.98709  Biso   1.000  H
  H296     1.0000 0.54086  0.57177  0.21576  Biso   1.000  H
  H297     1.0000 0.30604  0.50531  0.07364  Biso   1.000  H
  H298     1.0000 0.95277  0.72343  0.50131  Biso   1.000  H
  H299     1.0000 0.04173  0.59448  0.26447  Biso   1.000  H
  H300     1.0000 0.81325  0.48468  0.40799  Biso   1.000  H
  H301     1.0000 0.95804  0.76441  0.00044  Biso   1.000  H
  H302     1.0000 0.05923  0.90349  0.76473  Biso   1.000  H
  H303     1.0000 0.81830  0.00145  0.89833  Biso   1.000  H
  H304     1.0000 0.45590  0.76581  0.48544  Biso   1.000  H
  H305     1.0000 0.58448  0.92043  0.71235  Biso   1.000  H
  H306     1.0000 0.31813  0.98776  0.59208  Biso   1.000  H
  H307     1.0000 0.63542  0.26795  0.96589  Biso   1.000  H
  H308     1.0000 0.53765  0.42467  0.75081  Biso   1.000  H
  H309     1.0000 0.77150  0.48766  0.91021  Biso   1.000  H
  H310     1.0000 0.13095  0.26922  0.48653  Biso   1.000  H
  H311     1.0000 0.03737  0.39476  0.71668  Biso   1.000  H
  H312     1.0000 0.27106  0.52355  0.57503  Biso   1.000  H
  H313     1.0000 0.27929  0.99941  0.90501  Biso   1.000  H
  H314     1.0000 0.95384  0.23062  0.96887  Biso   1.000  H
  H315     1.0000 0.04194  0.91787  0.21618  Biso   1.000  H
  H316     1.0000 0.77354  0.98417  0.57576  Biso   1.000  H
  H317     1.0000 0.44920  0.22524  0.47603  Biso   1.000  H
  H318     1.0000 0.53396  0.89160  0.26526  Biso   1.000  H
  H319     1.0000 0.32290  0.49907  0.89389  Biso   1.000  H
  H320     1.0000 0.63822  0.72324  0.02103  Biso   1.000  H
  H321     1.0000 0.54035  0.39255  0.21267  Biso   1.000  H
  H322     1.0000 0.81625  0.48412  0.58087  Biso   1.000  H
  H323     1.0000 0.13029  0.72418  0.49288  Biso   1.000  H
  H324     1.0000 0.02877  0.41042  0.24971  Biso   1.000  H
  H325     1.0000 0.81485  0.99921  0.07769  Biso   1.000  H
  H326     1.0000 0.14007  0.76957  0.98477  Biso   1.000  H
  H327     1.0000 0.04314  0.07440  0.76724  Biso   1.000  H
  H328     1.0000 0.31721  0.99335  0.40937  Biso   1.000  H
  H329     1.0000 0.63915  0.76495  0.50308  Biso   1.000  H
  H330     1.0000 0.54536  0.09798  0.71641  Biso   1.000  H
  H331     1.0000 0.77051  0.47232  0.09011  Biso   1.000  H
  H332     1.0000 0.44794  0.26584  0.96929  Biso   1.000  H
  H333     1.0000 0.53831  0.60397  0.76037  Biso   1.000  H
  H334     1.0000 0.27059  0.49830  0.39903  Biso   1.000  H
  H335     1.0000 0.95393  0.26422  0.49291  Biso   1.000  H
  H336     1.0000 0.04139  0.57474  0.72038  Biso   1.000  H
  H337     1.0000 0.04801  0.22987  0.88613  Biso   1.000  H
  H338     1.0000 0.95554  0.98165  0.21631  Biso   1.000  H
  H339     1.0000 0.27809  0.90891  0.99117  Biso   1.000  H
  H340     1.0000 0.53223  0.22622  0.56666  Biso   1.000  H
  H341     1.0000 0.45051  0.98435  0.26486  Biso   1.000  H
  H342     1.0000 0.77856  0.90567  0.48136  Biso   1.000  H
  H343     1.0000 0.55591  0.73266  0.90984  Biso   1.000  H
  H344     1.0000 0.62709  0.49340  0.21964  Biso   1.000  H
  H345     1.0000 0.31816  0.40962  0.98767  Biso   1.000  H
  H346     1.0000 0.05378  0.71162  0.58179  Biso   1.000  H
  H347     1.0000 0.13509  0.48605  0.25329  Biso   1.000  H
  H348     1.0000 0.81410  0.40369  0.47982  Biso   1.000  H
  H349     1.0000 0.06086  0.77031  0.08806  Biso   1.000  H
  H350     1.0000 0.14378  0.98628  0.76628  Biso   1.000  H
  H351     1.0000 0.81800  0.08298  0.98002  Biso   1.000  H
  H352     1.0000 0.57118  0.76481  0.41080  Biso   1.000  H
  H353     1.0000 0.64371  0.01957  0.71664  Biso   1.000  H
  H354     1.0000 0.31436  0.08033  0.50461  Biso   1.000  H
  H355     1.0000 0.53863  0.26438  0.06248  Biso   1.000  H
  H356     1.0000 0.45641  0.50969  0.75186  Biso   1.000  H
  H357     1.0000 0.76894  0.57887  0.00154  Biso   1.000  H
  H358     1.0000 0.04101  0.27315  0.39124  Biso   1.000  H
  H359     1.0000 0.95182  0.49063  0.72530  Biso   1.000  H
  H360     1.0000 0.26675  0.58618  0.47248  Biso   1.000  H
  H361     1.0000 0.02635  0.72379  0.40602  Biso   1.000  H
  H362     1.0000 0.45896  0.99404  0.72938  Biso   1.000  H
  H363     1.0000 0.77697  0.40214  0.99962  Biso   1.000  H
  H364     1.0000 0.55559  0.72428  0.09193  Biso   1.000  H
  H365     1.0000 0.96226  0.00111  0.76036  Biso   1.000  H
  H366     1.0000 0.27711  0.40469  0.49317  Biso   1.000  H
  H367     1.0000 0.55136  0.21478  0.38769  Biso   1.000  H
  H368     1.0000 0.13891  0.49059  0.71784  Biso   1.000  H
  H369     1.0000 0.81351  0.90012  0.98872  Biso   1.000  H
  H370     1.0000 0.03684  0.23081  0.07397  Biso   1.000  H
  H371     1.0000 0.63923  0.50312  0.76162  Biso   1.000  H
  H372     1.0000 0.32103  0.90764  0.46842  Biso   1.000  H
  H373     1.0000 0.05503  0.26395  0.56942  Biso   1.000  H
  H374     1.0000 0.63082  0.97976  0.25693  Biso   1.000  H
  H375     1.0000 0.31571  0.59366  0.97369  Biso   1.000  H
  H376     1.0000 0.54928  0.27540  0.88088  Biso   1.000  H
  H377     1.0000 0.12714  0.01943  0.21944  Biso   1.000  H
  H378     1.0000 0.81325  0.57847  0.50977  Biso   1.000  H
  H379     1.0000 0.54307  0.77329  0.58732  Biso   1.000  H
  H380     1.0000 0.94624  0.51058  0.26572  Biso   1.000  H
  H381     1.0000 0.27348  0.08856  0.98610  Biso   1.000  H
  H382     1.0000 0.03599  0.76347  0.90755  Biso   1.000  H
  H383     1.0000 0.44888  0.48350  0.21197  Biso   1.000  H
  H384     1.0000 0.77426  0.08615  0.48045  Biso   1.000  H
  H385     1.0000 0.27560  0.46945  0.31217  Biso   1.000  H
  H386     1.0000 0.31155  0.16479  0.46543  Biso   1.000  H
  H387     1.0000 0.50101  0.30443  0.19856  Biso   1.000  H
  H388     1.0000 0.71229  0.46845  0.22460  Biso   1.000  H
  H389     1.0000 0.87070  0.22148  0.99699  Biso   1.000  H
  H390     1.0000 0.00764  0.27785  0.30757  Biso   1.000  H
  H391     1.0000 0.31997  0.96065  0.32271  Biso   1.000  H
  H392     1.0000 0.21332  0.72270  0.45222  Biso   1.000  H
  H393     1.0000 0.02203  0.78360  0.16660  Biso   1.000  H
  H394     1.0000 0.82092  0.95593  0.15901  Biso   1.000  H
  H395     1.0000 0.77948  0.66416  0.02677  Biso   1.000  H
  H396     1.0000 0.56704  0.81887  0.25890  Biso   1.000  H
  H397     1.0000 0.80907  0.49812  0.66783  Biso   1.000  H
  H398     1.0000 0.77480  0.82080  0.52498  Biso   1.000  H
  H399     1.0000 0.58338  0.68080  0.77323  Biso   1.000  H
  H400     1.0000 0.37576  0.54944  0.76187  Biso   1.000  H
  H401     1.0000 0.27186  0.82153  0.94517  Biso   1.000  H
  H402     1.0000 0.08382  0.66280  0.71879  Biso   1.000  H
  H403     1.0000 0.77113  0.97140  0.66657  Biso   1.000  H
  H404     1.0000 0.81224  0.32068  0.51596  Biso   1.000  H
  H405     1.0000 0.01088  0.21411  0.80923  Biso   1.000  H
  H406     1.0000 0.26812  0.03744  0.81651  Biso   1.000  H
  H407     1.0000 0.32301  0.31932  0.94224  Biso   1.000  H
  H408     1.0000 0.50860  0.18055  0.70440  Biso   1.000  H
  H409     1.0000 0.31373  0.45947  0.16054  Biso   1.000  H
  H410     1.0000 0.21690  0.27444  0.45499  Biso   1.000  H
  H411     1.0000 0.52026  0.21318  0.30883  Biso   1.000  H
  H412     1.0000 0.86485  0.46635  0.27562  Biso   1.000  H
  H413     1.0000 0.71807  0.27683  0.93938  Biso   1.000  H
  H414     1.0000 0.00831  0.23269  0.15317  Biso   1.000  H
  H415     1.0000 0.20775  0.97478  0.22282  Biso   1.000  H
  H416     1.0000 0.37388  0.76378  0.45687  Biso   1.000  H
  H417     1.0000 0.01328  0.67852  0.26132  Biso   1.000  H
  H418     1.0000 0.77581  0.96663  0.31312  Biso   1.000  H
  H419     1.0000 0.87143  0.77078  0.03605  Biso   1.000  H
  H420     1.0000 0.52062  0.66118  0.22827  Biso   1.000  H
  H421     1.0000 0.77533  0.51367  0.82176  Biso   1.000  H
  H422     1.0000 0.81686  0.67225  0.53573  Biso   1.000  H
  H423     1.0000 0.58486  0.77454  0.66400  Biso   1.000  H
  H424     1.0000 0.21648  0.53797  0.71403  Biso   1.000  H
  H425     1.0000 0.37471  0.72790  0.95140  Biso   1.000  H
  H426     1.0000 0.07043  0.75867  0.82326  Biso   1.000  H
  H427     1.0000 0.82883  0.04399  0.81228  Biso   1.000  H
  H428     1.0000 0.77041  0.16408  0.51850  Biso   1.000  H
  H429     1.0000 0.06938  0.31031  0.71161  Biso   1.000  H
  H430     1.0000 0.37019  0.95606  0.72347  Biso   1.000  H
  H431     1.0000 0.21290  0.22365  0.95898  Biso   1.000  H
  H432     1.0000 0.49900  0.28733  0.79869  Biso   1.000  H
  H433     1.0000 0.33098  0.03161  0.67428  Biso   1.000  H
  H434     1.0000 0.77096  0.31435  0.01087  Biso   1.000  H
  H435     1.0000 0.06781  0.72828  0.32501  Biso   1.000  H
  H436     1.0000 0.87744  0.98581  0.75525  Biso   1.000  H
  H437     1.0000 0.26928  0.32014  0.52209  Biso   1.000  H
  H438     1.0000 0.58664  0.70788  0.17288  Biso   1.000  H
  H439     1.0000 0.27385  0.48916  0.65737  Biso   1.000  H
  H440     1.0000 0.82767  0.81525  0.96652  Biso   1.000  H
  H441     1.0000 0.57058  0.15740  0.25254  Biso   1.000  H
  H442     1.0000 0.71597  0.45414  0.77189  Biso   1.000  H
  H443     1.0000 0.31317  0.82642  0.49985  Biso   1.000  H
  H444     1.0000 0.05999  0.17351  0.20725  Biso   1.000  H
  H445     1.0000 0.71795  0.02127  0.25459  Biso   1.000  H
  H446     1.0000 0.32025  0.67238  0.00783  Biso   1.000  H
  H447     1.0000 0.01273  0.26281  0.64764  Biso   1.000  H
  H448     1.0000 0.26944  0.02698  0.17215  Biso   1.000  H
  H449     1.0000 0.86570  0.71390  0.46624  Biso   1.000  H
  H450     1.0000 0.56678  0.33860  0.74965  Biso   1.000  H
  H451     1.0000 0.81194  0.52951  0.32274  Biso   1.000  H
  H452     1.0000 0.27336  0.17398  0.01392  Biso   1.000  H
  H453     1.0000 0.54820  0.83934  0.72179  Biso   1.000  H
  H454     1.0000 0.36930  0.52009  0.21317  Biso   1.000  H
  H455     1.0000 0.71965  0.21763  0.45914  Biso   1.000  H
  H456     1.0000 0.02885  0.81932  0.75994  Biso   1.000  H
  H457     1.0000 0.72028  0.76919  0.46350  Biso   1.000  H
  H458     1.0000 0.52568  0.73880  0.82202  Biso   1.000  H
  H459     1.0000 0.87421  0.45239  0.72181  Biso   1.000  H
  H460     1.0000 0.22480  0.77815  0.01420  Biso   1.000  H
  H461     1.0000 0.01143  0.70704  0.67197  Biso   1.000  H
  H462     1.0000 0.32103  0.48452  0.80880  Biso   1.000  H
  H463     1.0000 0.87004  0.26958  0.45882  Biso   1.000  H
  H464     1.0000 0.06371  0.15964  0.75053  Biso   1.000  H
  H465     1.0000 0.73077  0.05093  0.69857  Biso   1.000  H
  H466     1.0000 0.36820  0.27846  0.01825  Biso   1.000  H
  H467     1.0000 0.56435  0.23390  0.64858  Biso   1.000  H
  H468     1.0000 0.23268  0.95689  0.78486  Biso   1.000  H
  H469     1.0000 0.36942  0.21983  0.51997  Biso   1.000  H
  H470     1.0000 0.57637  0.26581  0.15556  Biso   1.000  H
  H471     1.0000 0.21259  0.52067  0.25959  Biso   1.000  H
  H472     1.0000 0.81541  0.16827  0.93505  Biso   1.000  H
  H473     1.0000 0.06918  0.32836  0.25513  Biso   1.000  H
  H474     1.0000 0.76104  0.52595  0.16560  Biso   1.000  H
  H475     1.0000 0.27127  0.66683  0.50547  Biso   1.000  H
  H476     1.0000 0.08082  0.83098  0.22702  Biso   1.000  H
  H477     1.0000 0.36822  0.02716  0.27197  Biso   1.000  H
  H478     1.0000 0.71446  0.71870  0.98159  Biso   1.000  H
  H479     1.0000 0.54270  0.75360  0.32731  Biso   1.000  H
  H480     1.0000 0.87075  0.01670  0.21154  Biso   1.000  H
  N1       1.0000 0.72030  0.17128  0.48769  Biso   1.000  N
  N2       1.0000 0.54841  0.66453  0.17395  Biso   1.000  N
  N3       1.0000 0.22093  0.51151  0.66229  Biso   1.000  N
  N4       1.0000 0.22244  0.17456  0.99140  Biso   1.000  N
  N5       1.0000 0.03883  0.67907  0.31770  Biso   1.000  N
  N6       1.0000 0.72253  0.48974  0.82249  Biso   1.000  N
  N7       1.0000 0.86627  0.66775  0.50557  Biso   1.000  N
  N8       1.0000 0.03177  0.17779  0.15986  Biso   1.000  N
  N9       1.0000 0.37260  0.99231  0.67568  Biso   1.000  N
  N10      1.0000 0.37121  0.67587  0.98008  Biso   1.000  N
  N11      1.0000 0.54463  0.15927  0.30397  Biso   1.000  N
  N12      1.0000 0.87429  0.00829  0.81195  Biso   1.000  N
  N13      1.0000 0.36911  0.81920  0.47836  Biso   1.000  N
  N14      1.0000 0.53440  0.33532  0.80101  Biso   1.000  N
  N15      1.0000 0.86167  0.49954  0.31905  Biso   1.000  N
  N16      1.0000 0.87069  0.81680  0.00226  Biso   1.000  N
  N17      1.0000 0.04020  0.31142  0.65864  Biso   1.000  N
  N18      1.0000 0.36269  0.49348  0.16068  Biso   1.000  N
  N19      1.0000 0.21992  0.32165  0.48753  Biso   1.000  N
  N20      1.0000 0.04730  0.81410  0.81688  Biso   1.000  N
  N21      1.0000 0.72183  0.99193  0.30675  Biso   1.000  N
  N22      1.0000 0.72209  0.31901  0.97948  Biso   1.000  N
  N23      1.0000 0.56573  0.83126  0.66779  Biso   1.000  N
  N24      1.0000 0.21604  0.00445  0.17355  Biso   1.000  N
  N25      1.0000 0.86433  0.48172  0.67044  Biso   1.000  N
  N26      1.0000 0.72684  0.81939  0.48977  Biso   1.000  N
  N27      1.0000 0.55017  0.68528  0.82027  Biso   1.000  N
  N28      1.0000 0.37179  0.51362  0.80719  Biso   1.000  N
  N29      1.0000 0.22568  0.82487  0.98345  Biso   1.000  N
  N30      1.0000 0.04661  0.66217  0.66975  Biso   1.000  N
  N31      1.0000 0.72649  0.01001  0.65908  Biso   1.000  N
  N32      1.0000 0.86829  0.31710  0.49110  Biso   1.000  N
  N33      1.0000 0.04419  0.16656  0.80710  Biso   1.000  N
  N34      1.0000 0.22744  0.99930  0.82040  Biso   1.000  N
  N35      1.0000 0.36936  0.32460  0.98052  Biso   1.000  N
  N36      1.0000 0.53820  0.18094  0.65674  Biso   1.000  N
  N37      1.0000 0.21888  0.49271  0.30884  Biso   1.000  N
  N38      1.0000 0.36482  0.16935  0.49326  Biso   1.000  N
  N39      1.0000 0.54010  0.31002  0.15369  Biso   1.000  N
  N40      1.0000 0.71478  0.49026  0.17143  Biso   1.000  N
  N41      1.0000 0.86741  0.17423  0.96501  Biso   1.000  N
  N42      1.0000 0.03764  0.32422  0.30593  Biso   1.000  N
  N43      1.0000 0.36578  0.99501  0.32149  Biso   1.000  N
  N44      1.0000 0.21833  0.67326  0.48116  Biso   1.000  N
  N45      1.0000 0.05684  0.82933  0.17068  Biso   1.000  N
  N46      1.0000 0.86793  0.98681  0.16378  Biso   1.000  N
  N47      1.0000 0.72176  0.66873  0.01092  Biso   1.000  N
  N48      1.0000 0.55295  0.80921  0.32003  Biso   1.000  N
  O1       1.0000 0.38939  0.54256  0.98163  Biso   1.000  O
  O2       1.0000 0.04978  0.33851  0.52343  Biso   1.000  O
  O3       1.0000 0.58846  0.98791  0.33106  Biso   1.000  O
  O4       1.0000 0.89003  0.53651  0.50650  Biso   1.000  O
  O5       1.0000 0.53678  0.34419  0.93632  Biso   1.000  O
  O6       1.0000 0.07981  0.00618  0.14459  Biso   1.000  O
  O7       1.0000 0.20288  0.03945  0.99166  Biso   1.000  O
  O8       1.0000 0.54080  0.84142  0.53395  Biso   1.000  O
  O9       1.0000 0.00083  0.50184  0.33332  Biso   1.000  O
  O10      1.0000 0.69872  0.03469  0.47870  Biso   1.000  O
  O11      1.0000 0.04147  0.83506  0.95303  Biso   1.000  O
  O12      1.0000 0.49696  0.48967  0.14208  Biso   1.000  O
  O13      1.0000 0.70360  0.44704  0.99747  Biso   1.000  O
  O14      1.0000 0.03253  0.65280  0.45338  Biso   1.000  O
  O15      1.0000 0.50767  0.99454  0.65350  Biso   1.000  O
  O16      1.0000 0.20283  0.45644  0.48979  Biso   1.000  O
  O17      1.0000 0.54197  0.65453  0.04029  Biso   1.000  O
  O18      1.0000 0.00760  0.99516  0.83469  Biso   1.000  O
  O19      1.0000 0.88639  0.95403  0.99388  Biso   1.000  O
  O20      1.0000 0.53903  0.14677  0.44194  Biso   1.000  O
  O21      1.0000 0.08383  0.49197  0.64904  Biso   1.000  O
  O22      1.0000 0.39552  0.95033  0.49491  Biso   1.000  O
  O23      1.0000 0.04114  0.15791  0.02662  Biso   1.000  O
  O24      1.0000 0.58772  0.50856  0.82986  Biso   1.000  O
  O25      1.0000 0.99926  0.99829  0.14314  Biso   1.000  O
  O26      1.0000 0.20689  0.95598  0.00031  Biso   1.000  O
  O27      1.0000 0.04696  0.16088  0.94043  Biso   1.000  O
  O28      1.0000 0.50282  0.98341  0.33407  Biso   1.000  O
  O29      1.0000 0.70465  0.95092  0.48013  Biso   1.000  O
  O30      1.0000 0.53685  0.15126  0.52487  Biso   1.000  O
  O31      1.0000 0.58312  0.49178  0.14298  Biso   1.000  O
  O32      1.0000 0.38844  0.46206  0.99346  Biso   1.000  O
  O33      1.0000 0.55561  0.65498  0.95633  Biso   1.000  O
  O34      1.0000 0.08467  0.49768  0.32698  Biso   1.000  O
  O35      1.0000 0.89078  0.45088  0.48470  Biso   1.000  O
  O36      1.0000 0.04822  0.64499  0.53352  Biso   1.000  O
  O37      1.0000 0.09171  0.98564  0.83733  Biso   1.000  O
  O38      1.0000 0.89184  0.03850  0.98477  Biso   1.000  O
  O39      1.0000 0.05651  0.84052  0.03528  Biso   1.000  O
  O40      1.0000 0.59132  0.01351  0.64799  Biso   1.000  O
  O41      1.0000 0.38908  0.03759  0.50322  Biso   1.000  O
  O42      1.0000 0.55005  0.83576  0.45486  Biso   1.000  O
  O43      1.0000 0.50434  0.51228  0.82649  Biso   1.000  O
  O44      1.0000 0.69583  0.53241  0.99752  Biso   1.000  O
  O45      1.0000 0.54451  0.33994  0.02022  Biso   1.000  O
  O46      1.0000 0.00061  0.48127  0.65578  Biso   1.000  O
  O47      1.0000 0.19575  0.54074  0.48315  Biso   1.000  O
  O48      1.0000 0.03911  0.34382  0.43974  Biso   1.000  O
  O49      1.0000 0.04321  0.96060  0.14223  Biso   1.000  O
  O50      1.0000 0.20631  0.99388  0.95502  Biso   1.000  O
  O51      1.0000 0.00251  0.15947  0.98327  Biso   1.000  O
  O52      1.0000 0.54765  0.94528  0.33494  Biso   1.000  O
  O53      1.0000 0.69845  0.99164  0.52407  Biso   1.000  O
  O54      1.0000 0.50184  0.15437  0.48177  Biso   1.000  O
  O55      1.0000 0.54291  0.44650  0.14317  Biso   1.000  O
  O56      1.0000 0.39126  0.49695  0.94610  Biso   1.000  O
  O57      1.0000 0.58939  0.65352  0.00461  Biso   1.000  O
  O58      1.0000 0.03519  0.45634  0.32808  Biso   1.000  O
  O59      1.0000 0.88973  0.48063  0.53589  Biso   1.000  O
  O60      1.0000 0.08373  0.64991  0.48750  Biso   1.000  O
  O61      1.0000 0.05880  0.03036  0.84093  Biso   1.000  O
  O62      1.0000 0.88661  0.00197  0.03042  Biso   1.000  O
  O63      1.0000 0.08881  0.84093  0.98591  Biso   1.000  O
  O64      1.0000 0.54040  0.04712  0.64860  Biso   1.000  O
  O65      1.0000 0.39184  0.99224  0.45674  Biso   1.000  O
  O66      1.0000 0.58797  0.83375  0.49942  Biso   1.000  O
  O67      1.0000 0.54948  0.55112  0.83270  Biso   1.000  O
  O68      1.0000 0.69963  0.49011  0.04008  Biso   1.000  O
  O69      1.0000 0.50211  0.34060  0.98319  Biso   1.000  O
  O70      1.0000 0.03598  0.52906  0.64781  Biso   1.000  O
  O71      1.0000 0.19718  0.49407  0.44405  Biso   1.000  O
  O72      1.0000 0.00488  0.33930  0.48857  Biso   1.000  O
  O73      1.0000 0.04555  0.44560  0.64329  Biso   1.000  O
  O74      1.0000 0.70437  0.99724  0.44116  Biso   1.000  O
  O75      1.0000 0.50822  0.65727  0.99362  Biso   1.000  O
  O76      1.0000 0.53973  0.46586  0.83041  Biso   1.000  O
  O77      1.0000 0.20602  0.00345  0.03660  Biso   1.000  O
  O78      1.0000 0.00061  0.65040  0.49976  Biso   1.000  O
  O79      1.0000 0.55954  0.96480  0.64550  Biso   1.000  O
  O80      1.0000 0.88738  0.50084  0.45453  Biso   1.000  O
  O81      1.0000 0.08748  0.15380  0.98702  Biso   1.000  O
  O82      1.0000 0.04594  0.94997  0.83454  Biso   1.000  O
  O83      1.0000 0.38504  0.50794  0.02789  Biso   1.000  O
  O84      1.0000 0.58477  0.14673  0.48221  Biso   1.000  O
  O85      1.0000 0.04680  0.54290  0.33574  Biso   1.000  O
  O86      1.0000 0.38811  0.99621  0.54010  Biso   1.000  O
  O87      1.0000 0.58477  0.34131  0.97714  Biso   1.000  O
  O88      1.0000 0.53989  0.53206  0.14236  Biso   1.000  O
  O89      1.0000 0.88592  0.99401  0.94792  Biso   1.000  O
  O90      1.0000 0.08552  0.34114  0.47472  Biso   1.000  O
  O91      1.0000 0.54279  0.02761  0.32659  Biso   1.000  O
  O92      1.0000 0.20145  0.50095  0.52745  Biso   1.000  O
  O93      1.0000 0.00620  0.83956  0.00264  Biso   1.000  O
  O94      1.0000 0.03576  0.04513  0.14412  Biso   1.000  O
  O95      1.0000 0.69676  0.49364  0.95672  Biso   1.000  O
  O96      1.0000 0.50413  0.83886  0.48924  Biso   1.000  O
  O97      1.0000 0.49929  0.20326  0.47858  Biso   1.000  O
  O98      1.0000 0.54452  0.44545  0.19177  Biso   1.000  O
  O99      1.0000 0.24578  0.49312  0.44593  Biso   1.000  O
  O100     1.0000 0.00287  0.20786  0.97449  Biso   1.000  O
  O101     1.0000 0.03687  0.46190  0.27979  Biso   1.000  O
  O102     1.0000 0.74720  0.49179  0.03931  Biso   1.000  O
  O103     1.0000 0.08217  0.69954  0.48977  Biso   1.000  O
  O104     1.0000 0.04769  0.96159  0.19073  Biso   1.000  O
  O105     1.0000 0.34156  0.99300  0.45703  Biso   1.000  O
  O106     1.0000 0.59091  0.70257  0.00852  Biso   1.000  O
  O107     1.0000 0.54045  0.94151  0.28706  Biso   1.000  O
  O108     1.0000 0.83852  0.99502  0.02642  Biso   1.000  O
  O109     1.0000 0.58887  0.78480  0.49528  Biso   1.000  O
  O110     1.0000 0.54953  0.55137  0.78359  Biso   1.000  O
  O111     1.0000 0.84124  0.49038  0.53583  Biso   1.000  O
  O112     1.0000 0.09235  0.79153  0.98826  Biso   1.000  O
  O113     1.0000 0.04391  0.52556  0.69495  Biso   1.000  O
  O114     1.0000 0.34153  0.49465  0.94024  Biso   1.000  O
  O115     1.0000 0.00248  0.29075  0.48698  Biso   1.000  O
  O116     1.0000 0.05899  0.03059  0.79250  Biso   1.000  O
  O117     1.0000 0.74771  0.98826  0.52599  Biso   1.000  O
  O118     1.0000 0.50099  0.29287  0.97262  Biso   1.000  O
  O119     1.0000 0.54561  0.04817  0.69686  Biso   1.000  O
  O120     1.0000 0.25407  0.00062  0.95488  Biso   1.000  O
  O121     1.0000 0.08727  0.49272  0.69655  Biso   1.000  O
  O122     1.0000 0.74757  0.03557  0.48672  Biso   1.000  O
  O123     1.0000 0.54100  0.70247  0.04288  Biso   1.000  O
  O124     1.0000 0.59212  0.51179  0.78023  Biso   1.000  O
  O125     1.0000 0.25225  0.04228  0.99589  Biso   1.000  O
  O126     1.0000 0.03478  0.70069  0.45609  Biso   1.000  O
  O127     1.0000 0.51037  0.99263  0.70216  Biso   1.000  O
  O128     1.0000 0.84069  0.53397  0.50413  Biso   1.000  O
  O129     1.0000 0.04048  0.20728  0.02279  Biso   1.000  O
  O130     1.0000 0.00787  0.00106  0.78568  Biso   1.000  O
  O131     1.0000 0.34032  0.54089  0.97678  Biso   1.000  O
  O132     1.0000 0.54424  0.19405  0.43641  Biso   1.000  O
  O133     1.0000 0.99891  0.50923  0.28653  Biso   1.000  O
  O134     1.0000 0.34701  0.94930  0.49642  Biso   1.000  O
  O135     1.0000 0.53938  0.29579  0.93166  Biso   1.000  O
  O136     1.0000 0.49679  0.48389  0.18976  Biso   1.000  O
  O137     1.0000 0.83815  0.95182  0.98988  Biso   1.000  O
  O138     1.0000 0.04910  0.29040  0.52347  Biso   1.000  O
  O139     1.0000 0.58151  0.98491  0.28231  Biso   1.000  O
  O140     1.0000 0.25150  0.45688  0.49208  Biso   1.000  O
  O141     1.0000 0.04395  0.78773  0.95258  Biso   1.000  O
  O142     1.0000 0.08193  0.00871  0.19335  Biso   1.000  O
  O143     1.0000 0.75331  0.44979  0.99899  Biso   1.000  O
  O144     1.0000 0.54393  0.79190  0.53729  Biso   1.000  O
  O145     1.0000 0.58057  0.48916  0.19223  Biso   1.000  O
  O146     1.0000 0.24527  0.53982  0.48187  Biso   1.000  O
  O147     1.0000 0.53997  0.19951  0.52050  Biso   1.000  O
  O148     1.0000 0.08394  0.50295  0.27881  Biso   1.000  O
  O149     1.0000 0.74618  0.53343  0.99871  Biso   1.000  O
  O150     1.0000 0.04892  0.20877  0.94090  Biso   1.000  O
  O151     1.0000 0.99922  0.99709  0.19251  Biso   1.000  O
  O152     1.0000 0.34003  0.03201  0.50466  Biso   1.000  O
  O153     1.0000 0.05032  0.69359  0.53620  Biso   1.000  O
  O154     1.0000 0.50017  0.98537  0.28583  Biso   1.000  O
  O155     1.0000 0.84209  0.03673  0.98375  Biso   1.000  O
  O156     1.0000 0.55528  0.70523  0.95974  Biso   1.000  O
  O157     1.0000 0.50857  0.51041  0.77699  Biso   1.000  O
  O158     1.0000 0.84260  0.45300  0.49052  Biso   1.000  O
  O159     1.0000 0.54445  0.78631  0.45487  Biso   1.000  O
  O160     1.0000 0.00103  0.48225  0.70376  Biso   1.000  O
  O161     1.0000 0.34013  0.45980  0.98520  Biso   1.000  O
  O162     1.0000 0.05917  0.79117  0.03607  Biso   1.000  O
  O163     1.0000 0.09216  0.98473  0.78835  Biso   1.000  O
  O164     1.0000 0.75492  0.95349  0.47878  Biso   1.000  O
  O165     1.0000 0.03215  0.29492  0.43861  Biso   1.000  O
  O166     1.0000 0.59265  0.01450  0.69573  Biso   1.000  O
  O167     1.0000 0.25534  0.95863  0.99910  Biso   1.000  O
  O168     1.0000 0.54364  0.29260  0.01582  Biso   1.000  O
  O169     1.0000 0.03545  0.04645  0.19437  Biso   1.000  O
  O170     1.0000 0.25468  0.00071  0.04015  Biso   1.000  O
  O171     1.0000 0.08707  0.20396  0.98652  Biso   1.000  O
  O172     1.0000 0.54339  0.02434  0.27756  Biso   1.000  O
  O173     1.0000 0.75308  0.99827  0.44238  Biso   1.000  O
  O174     1.0000 0.58686  0.19558  0.48366  Biso   1.000  O
  O175     1.0000 0.53702  0.52796  0.19029  Biso   1.000  O
  O176     1.0000 0.33548  0.50574  0.02415  Biso   1.000  O
  O177     1.0000 0.50858  0.70468  0.99017  Biso   1.000  O
  O178     1.0000 0.04515  0.54588  0.28659  Biso   1.000  O
  O179     1.0000 0.83822  0.49925  0.45484  Biso   1.000  O
  O180     1.0000 0.00085  0.69762  0.50578  Biso   1.000  O
  O181     1.0000 0.04680  0.94922  0.78729  Biso   1.000  O
  O182     1.0000 0.83854  0.99853  0.94486  Biso   1.000  O
  O183     1.0000 0.00839  0.79125  0.00334  Biso   1.000  O
  O184     1.0000 0.56251  0.96443  0.69504  Biso   1.000  O
  O185     1.0000 0.34053  0.98860  0.54139  Biso   1.000  O
  O186     1.0000 0.50083  0.79124  0.49484  Biso   1.000  O
  O187     1.0000 0.55171  0.47047  0.78161  Biso   1.000  O
  O188     1.0000 0.74624  0.49362  0.95624  Biso   1.000  O
  O189     1.0000 0.58472  0.29183  0.97561  Biso   1.000  O
  O190     1.0000 0.04519  0.44347  0.69403  Biso   1.000  O
  O191     1.0000 0.25094  0.50208  0.52807  Biso   1.000  O
  O192     1.0000 0.08365  0.29325  0.47889  Biso   1.000  O
