data_image0
_cell_length_a       46.5829
_cell_length_b       46.9142
_cell_length_c       46.6478
_cell_angle_alpha    90
_cell_angle_beta     90
_cell_angle_gamma    90

_symmetry_space_group_name_H-M    "P 1"
_symmetry_int_tables_number       1

loop_
  _symmetry_equiv_pos_as_xyz
  'x, y, z'

loop_
  _atom_site_label
  _atom_site_occupancy
  _atom_site_fract_x
  _atom_site_fract_y
  _atom_site_fract_z
  _atom_site_thermal_displace_type
  _atom_site_B_iso_or_equiv
  _atom_site_type_symbol
  C1       1.0000 0.53053  0.99875  0.32002  Biso   1.000  C
  C2       1.0000 0.29667  0.55965  0.00878  Biso   1.000  C
  C3       1.0000 0.96824  0.30313  0.56437  Biso   1.000  C
  C4       1.0000 0.02944  0.98948  0.18153  Biso   1.000  C
  C5       1.0000 0.80333  0.54001  0.50855  Biso   1.000  C
  C6       1.0000 0.45293  0.29977  0.95788  Biso   1.000  C
  C7       1.0000 0.92809  0.48418  0.31866  Biso   1.000  C
  C8       1.0000 0.15046  0.05585  0.00869  Biso   1.000  C
  C9       1.0000 0.48455  0.79927  0.54719  Biso   1.000  C
  C10      1.0000 0.42563  0.48999  0.18004  Biso   1.000  C
  C11      1.0000 0.65260  0.04167  0.48583  Biso   1.000  C
  C12      1.0000 0.99341  0.80352  0.94646  Biso   1.000  C
  C13      1.0000 0.42755  0.97751  0.68181  Biso   1.000  C
  C14      1.0000 0.64659  0.40759  0.99663  Biso   1.000  C
  C15      1.0000 0.99043  0.66387  0.43949  Biso   1.000  C
  C16      1.0000 0.92155  0.98213  0.82188  Biso   1.000  C
  C17      1.0000 0.15347  0.42308  0.50713  Biso   1.000  C
  C18      1.0000 0.49390  0.66549  0.04555  Biso   1.000  C
  C19      1.0000 0.02903  0.48750  0.68321  Biso   1.000  C
  C20      1.0000 0.79860  0.91077  0.00003  Biso   1.000  C
  C21      1.0000 0.47780  0.16719  0.45685  Biso   1.000  C
  C22      1.0000 0.52453  0.47603  0.82042  Biso   1.000  C
  C23      1.0000 0.29943  0.92060  0.50243  Biso   1.000  C
  C24      1.0000 0.95161  0.16298  0.05902  Biso   1.000  C
  C25      1.0000 0.29308  0.03142  0.51056  Biso   1.000  C
  C26      1.0000 0.45208  0.30164  0.06468  Biso   1.000  C
  C27      1.0000 0.03669  0.47223  0.32211  Biso   1.000  C
  C28      1.0000 0.79086  0.01881  0.99863  Biso   1.000  C
  C29      1.0000 0.96071  0.30121  0.45556  Biso   1.000  C
  C30      1.0000 0.53463  0.48842  0.17152  Biso   1.000  C
  C31      1.0000 0.16397  0.53302  0.50379  Biso   1.000  C
  C32      1.0000 0.98837  0.80031  0.05392  Biso   1.000  C
  C33      1.0000 0.42232  0.98375  0.31738  Biso   1.000  C
  C34      1.0000 0.65700  0.51457  0.00154  Biso   1.000  C
  C35      1.0000 0.49452  0.80377  0.43786  Biso   1.000  C
  C36      1.0000 0.91997  0.97253  0.17849  Biso   1.000  C
  C37      1.0000 0.66446  0.93327  0.50132  Biso   1.000  C
  C38      1.0000 0.49127  0.66248  0.93594  Biso   1.000  C
  C39      1.0000 0.91895  0.49107  0.68159  Biso   1.000  C
  C40      1.0000 0.15894  0.94575  0.00554  Biso   1.000  C
  C41      1.0000 0.98947  0.66719  0.54659  Biso   1.000  C
  C42      1.0000 0.41622  0.47413  0.82628  Biso   1.000  C
  C43      1.0000 0.79275  0.43167  0.49304  Biso   1.000  C
  C44      1.0000 0.96065  0.16817  0.95058  Biso   1.000  C
  C45      1.0000 0.53529  0.97717  0.67872  Biso   1.000  C
  C46      1.0000 0.28556  0.44949  0.01143  Biso   1.000  C
  C47      1.0000 0.45778  0.16359  0.56240  Biso   1.000  C
  C48      1.0000 0.03188  0.99306  0.82317  Biso   1.000  C
  C49      1.0000 0.97485  0.04045  0.82384  Biso   1.000  C
  C50      1.0000 0.79365  0.96770  0.05298  Biso   1.000  C
  C51      1.0000 0.04572  0.80683  0.00571  Biso   1.000  C
  C52      1.0000 0.48147  0.03224  0.68243  Biso   1.000  C
  C53      1.0000 0.29952  0.97727  0.45233  Biso   1.000  C
  C54      1.0000 0.54344  0.80397  0.49964  Biso   1.000  C
  C55      1.0000 0.46942  0.52866  0.82091  Biso   1.000  C
  C56      1.0000 0.65631  0.45464  0.04975  Biso   1.000  C
  C57      1.0000 0.39730  0.30892  0.01305  Biso   1.000  C
  C58      1.0000 0.97523  0.54475  0.67855  Biso   1.000  C
  C59      1.0000 0.15968  0.47694  0.45025  Biso   1.000  C
  C60      1.0000 0.91127  0.30377  0.51461  Biso   1.000  C
  C61      1.0000 0.98326  0.92556  0.18301  Biso   1.000  C
  C62      1.0000 0.15315  0.00350  0.95019  Biso   1.000  C
  C63      1.0000 0.90369  0.16433  0.00040  Biso   1.000  C
  C64      1.0000 0.48470  0.93715  0.31674  Biso   1.000  C
  C65      1.0000 0.65626  0.99613  0.54784  Biso   1.000  C
  C66      1.0000 0.41534  0.16555  0.49663  Biso   1.000  C
  C67      1.0000 0.48090  0.43421  0.17457  Biso   1.000  C
  C68      1.0000 0.28637  0.50362  0.95377  Biso   1.000  C
  C69      1.0000 0.54776  0.65538  0.99197  Biso   1.000  C
  C70      1.0000 0.97839  0.42333  0.32465  Biso   1.000  C
  C71      1.0000 0.79849  0.47562  0.55208  Biso   1.000  C
  C72      1.0000 0.04247  0.66878  0.49355  Biso   1.000  C
  C73      1.0000 0.98369  0.53264  0.31618  Biso   1.000  C
  C74      1.0000 0.29456  0.96843  0.56131  Biso   1.000  C
  C75      1.0000 0.50668  0.29436  0.01024  Biso   1.000  C
  C76      1.0000 0.48049  0.54271  0.17389  Biso   1.000  C
  C77      1.0000 0.79552  0.96400  0.94486  Biso   1.000  C
  C78      1.0000 0.01991  0.30167  0.50865  Biso   1.000  C
  C79      1.0000 0.46735  0.04618  0.32227  Biso   1.000  C
  C80      1.0000 0.15246  0.47601  0.55776  Biso   1.000  C
  C81      1.0000 0.93696  0.79509  0.99877  Biso   1.000  C
  C82      1.0000 0.96476  0.03496  0.18445  Biso   1.000  C
  C83      1.0000 0.65627  0.46769  0.94224  Biso   1.000  C
  C84      1.0000 0.43378  0.80408  0.48418  Biso   1.000  C
  C85      1.0000 0.96926  0.43587  0.68175  Biso   1.000  C
  C86      1.0000 0.66150  0.98146  0.44121  Biso   1.000  C
  C87      1.0000 0.43788  0.67196  0.99162  Biso   1.000  C
  C88      1.0000 0.47265  0.41854  0.82618  Biso   1.000  C
  C89      1.0000 0.15602  0.99761  0.05935  Biso   1.000  C
  C90      1.0000 0.93360  0.66341  0.49296  Biso   1.000  C
  C91      1.0000 0.47801  0.92257  0.67737  Biso   1.000  C
  C92      1.0000 0.80392  0.48978  0.44344  Biso   1.000  C
  C93      1.0000 0.01069  0.17076  0.01004  Biso   1.000  C
  C94      1.0000 0.97980  0.93120  0.82520  Biso   1.000  C
  C95      1.0000 0.29078  0.50499  0.06370  Biso   1.000  C
  C96      1.0000 0.52473  0.16490  0.52026  Biso   1.000  C
  C97      1.0000 0.65231  0.07358  0.48743  Biso   1.000  C
  C98      1.0000 0.48686  0.66742  0.07711  Biso   1.000  C
  C99      1.0000 0.06023  0.48130  0.68495  Biso   1.000  C
  C100     1.0000 0.14602  0.08774  0.01317  Biso   1.000  C
  C101     1.0000 0.98654  0.66324  0.40802  Biso   1.000  C
  C102     1.0000 0.55655  0.48072  0.81901  Biso   1.000  C
  C103     1.0000 0.80533  0.57137  0.51343  Biso   1.000  C
  C104     1.0000 0.94706  0.16052  0.09087  Biso   1.000  C
  C105     1.0000 0.39504  0.97442  0.68486  Biso   1.000  C
  C106     1.0000 0.30151  0.59168  0.01028  Biso   1.000  C
  C107     1.0000 0.47581  0.16676  0.42638  Biso   1.000  C
  C108     1.0000 0.89000  0.97977  0.82155  Biso   1.000  C
  C109     1.0000 0.29957  0.88795  0.49853  Biso   1.000  C
  C110     1.0000 0.45300  0.29612  0.92599  Biso   1.000  C
  C111     1.0000 0.89722  0.48159  0.31689  Biso   1.000  C
  C112     1.0000 0.80015  0.87838  0.00293  Biso   1.000  C
  C113     1.0000 0.96533  0.30276  0.59748  Biso   1.000  C
  C114     1.0000 0.39385  0.49354  0.18182  Biso   1.000  C
  C115     1.0000 0.15121  0.39055  0.50858  Biso   1.000  C
  C116     1.0000 0.99684  0.80449  0.91523  Biso   1.000  C
  C117     1.0000 0.56367  0.99778  0.31862  Biso   1.000  C
  C118     1.0000 0.64262  0.37506  0.99875  Biso   1.000  C
  C119     1.0000 0.47928  0.79835  0.57906  Biso   1.000  C
  C120     1.0000 0.06181  0.99084  0.18234  Biso   1.000  C
  C121     1.0000 0.79360  0.96828  0.08490  Biso   1.000  C
  C122     1.0000 0.07835  0.81020  0.01012  Biso   1.000  C
  C123     1.0000 0.97065  0.07180  0.82408  Biso   1.000  C
  C124     1.0000 0.30012  0.98359  0.42045  Biso   1.000  C
  C125     1.0000 0.57389  0.80580  0.50417  Biso   1.000  C
  C126     1.0000 0.48044  0.06450  0.68469  Biso   1.000  C
  C127     1.0000 0.65811  0.45483  0.08233  Biso   1.000  C
  C128     1.0000 0.36606  0.31319  0.02078  Biso   1.000  C
  C129     1.0000 0.46604  0.56106  0.81875  Biso   1.000  C
  C130     1.0000 0.16020  0.47128  0.41944  Biso   1.000  C
  C131     1.0000 0.87897  0.30484  0.51801  Biso   1.000  C
  C132     1.0000 0.97771  0.57620  0.67700  Biso   1.000  C
  C133     1.0000 0.15468  0.00578  0.91791  Biso   1.000  C
  C134     1.0000 0.87186  0.15952  0.00473  Biso   1.000  C
  C135     1.0000 0.98258  0.89367  0.18268  Biso   1.000  C
  C136     1.0000 0.65796  0.00165  0.57919  Biso   1.000  C
  C137     1.0000 0.38292  0.16417  0.49779  Biso   1.000  C
  C138     1.0000 0.49140  0.90474  0.31638  Biso   1.000  C
  C139     1.0000 0.28863  0.49980  0.92180  Biso   1.000  C
  C140     1.0000 0.58013  0.65238  0.99573  Biso   1.000  C
  C141     1.0000 0.47903  0.40203  0.17724  Biso   1.000  C
  C142     1.0000 0.79645  0.47502  0.58347  Biso   1.000  C
  C143     1.0000 0.07550  0.66736  0.49308  Biso   1.000  C
  C144     1.0000 0.97249  0.39169  0.32605  Biso   1.000  C
  C145     1.0000 0.29252  0.50599  0.09484  Biso   1.000  C
  C146     1.0000 0.05279  0.30016  0.51285  Biso   1.000  C
  C147     1.0000 0.46562  0.07838  0.32474  Biso   1.000  C
  C148     1.0000 0.80299  0.49169  0.41076  Biso   1.000  C
  C149     1.0000 0.54023  0.29107  0.00834  Biso   1.000  C
  C150     1.0000 0.96007  0.06695  0.18593  Biso   1.000  C
  C151     1.0000 0.15812  0.99350  0.09123  Biso   1.000  C
  C152     1.0000 0.40238  0.80356  0.47765  Biso   1.000  C
  C153     1.0000 0.98251  0.56442  0.31648  Biso   1.000  C
  C154     1.0000 0.66265  0.98157  0.41002  Biso   1.000  C
  C155     1.0000 0.90339  0.79171  0.00155  Biso   1.000  C
  C156     1.0000 0.47903  0.57489  0.17476  Biso   1.000  C
  C157     1.0000 0.65606  0.47632  0.91098  Biso   1.000  C
  C158     1.0000 0.90147  0.66295  0.49504  Biso   1.000  C
  C159     1.0000 0.47607  0.89136  0.67540  Biso   1.000  C
  C160     1.0000 0.15375  0.47606  0.58989  Biso   1.000  C
  C161     1.0000 0.40655  0.67703  0.99460  Biso   1.000  C
  C162     1.0000 0.98012  0.89945  0.82401  Biso   1.000  C
  C163     1.0000 0.79608  0.97003  0.91286  Biso   1.000  C
  C164     1.0000 0.55718  0.16323  0.52057  Biso   1.000  C
  C165     1.0000 0.97058  0.40413  0.68324  Biso   1.000  C
  C166     1.0000 0.29571  0.96679  0.59337  Biso   1.000  C
  C167     1.0000 0.04256  0.17338  0.01526  Biso   1.000  C
  C168     1.0000 0.47400  0.38765  0.82569  Biso   1.000  C
  C169     1.0000 0.98353  0.79883  0.08599  Biso   1.000  C
  C170     1.0000 0.06356  0.00049  0.82218  Biso   1.000  C
  C171     1.0000 0.78824  0.05100  0.99986  Biso   1.000  C
  C172     1.0000 0.49519  0.80522  0.40511  Biso   1.000  C
  C173     1.0000 0.56739  0.98283  0.67701  Biso   1.000  C
  C174     1.0000 0.29208  0.06367  0.50738  Biso   1.000  C
  C175     1.0000 0.44617  0.30527  0.09559  Biso   1.000  C
  C176     1.0000 0.38418  0.47603  0.82992  Biso   1.000  C
  C177     1.0000 0.66214  0.54616  0.00759  Biso   1.000  C
  C178     1.0000 0.95752  0.30058  0.42485  Biso   1.000  C
  C179     1.0000 0.88652  0.48862  0.68223  Biso   1.000  C
  C180     1.0000 0.16640  0.56543  0.50332  Biso   1.000  C
  C181     1.0000 0.96105  0.16714  0.91799  Biso   1.000  C
  C182     1.0000 0.88870  0.96768  0.17833  Biso   1.000  C
  C183     1.0000 0.16215  0.91433  0.00376  Biso   1.000  C
  C184     1.0000 0.45193  0.16081  0.59472  Biso   1.000  C
  C185     1.0000 0.39073  0.98103  0.32049  Biso   1.000  C
  C186     1.0000 0.66689  0.90179  0.50559  Biso   1.000  C
  C187     1.0000 0.48750  0.66131  0.90503  Biso   1.000  C
  C188     1.0000 0.56651  0.48829  0.16990  Biso   1.000  C
  C189     1.0000 0.28269  0.41766  0.02043  Biso   1.000  C
  C190     1.0000 0.99420  0.66871  0.57862  Biso   1.000  C
  C191     1.0000 0.06898  0.46917  0.32269  Biso   1.000  C
  C192     1.0000 0.78849  0.39999  0.49640  Biso   1.000  C
  C193     1.0000 0.82471  0.97249  0.89795  Biso   1.000  C
  C194     1.0000 0.88525  0.81770  0.00306  Biso   1.000  C
  C195     1.0000 0.98421  0.88352  0.85008  Biso   1.000  C
  C196     1.0000 0.32323  0.96944  0.60797  Biso   1.000  C
  C197     1.0000 0.38558  0.82898  0.48401  Biso   1.000  C
  C198     1.0000 0.47903  0.87388  0.64860  Biso   1.000  C
  C199     1.0000 0.62864  0.47939  0.89499  Biso   1.000  C
  C200     1.0000 0.55833  0.31653  0.00751  Biso   1.000  C
  C201     1.0000 0.46799  0.37317  0.85322  Biso   1.000  C
  C202     1.0000 0.12707  0.47720  0.60768  Biso   1.000  C
  C203     1.0000 0.06906  0.32871  0.51168  Biso   1.000  C
  C204     1.0000 0.96883  0.38661  0.65664  Biso   1.000  C
  C205     1.0000 0.13075  0.99410  0.10725  Biso   1.000  C
  C206     1.0000 0.06046  0.14755  0.01630  Biso   1.000  C
  C207     1.0000 0.95972  0.08240  0.15728  Biso   1.000  C
  C208     1.0000 0.63559  0.98683  0.39506  Biso   1.000  C
  C209     1.0000 0.57407  0.13643  0.51562  Biso   1.000  C
  C210     1.0000 0.47115  0.09118  0.35211  Biso   1.000  C
  C211     1.0000 0.31967  0.50209  0.10914  Biso   1.000  C
  C212     1.0000 0.38925  0.65094  0.00031  Biso   1.000  C
  C213     1.0000 0.48011  0.58993  0.14759  Biso   1.000  C
  C214     1.0000 0.82971  0.48833  0.39474  Biso   1.000  C
  C215     1.0000 0.88688  0.63598  0.49881  Biso   1.000  C
  C216     1.0000 0.98224  0.58103  0.34350  Biso   1.000  C
  C217     1.0000 0.07987  0.00488  0.84880  Biso   1.000  C
  C218     1.0000 0.81418  0.06893  0.00174  Biso   1.000  C
  C219     1.0000 0.98355  0.82668  0.10182  Biso   1.000  C
  C220     1.0000 0.58087  0.99067  0.65018  Biso   1.000  C
  C221     1.0000 0.31868  0.08228  0.50759  Biso   1.000  C
  C222     1.0000 0.49808  0.83275  0.38977  Biso   1.000  C
  C223     1.0000 0.36921  0.48237  0.85661  Biso   1.000  C
  C224     1.0000 0.63720  0.56638  0.00275  Biso   1.000  C
  C225     1.0000 0.45364  0.33169  0.10971  Biso   1.000  C
  C226     1.0000 0.87130  0.48265  0.65461  Biso   1.000  C
  C227     1.0000 0.13878  0.58213  0.49980  Biso   1.000  C
  C228     1.0000 0.96357  0.32676  0.40735  Biso   1.000  C
  C229     1.0000 0.87287  0.96472  0.15154  Biso   1.000  C
  C230     1.0000 0.13703  0.89542  0.00738  Biso   1.000  C
  C231     1.0000 0.95839  0.13964  0.90250  Biso   1.000  C
  C232     1.0000 0.37636  0.98441  0.34878  Biso   1.000  C
  C233     1.0000 0.64014  0.88462  0.50726  Biso   1.000  C
  C234     1.0000 0.45947  0.13358  0.60796  Biso   1.000  C
  C235     1.0000 0.58213  0.47912  0.14516  Biso   1.000  C
  C236     1.0000 0.30749  0.39794  0.01809  Biso   1.000  C
  C237     1.0000 0.48148  0.63318  0.89077  Biso   1.000  C
  C238     1.0000 0.08410  0.46917  0.35061  Biso   1.000  C
  C239     1.0000 0.81471  0.38404  0.50165  Biso   1.000  C
  C240     1.0000 0.99008  0.64325  0.59555  Biso   1.000  C
  C241     1.0000 0.57401  0.48005  0.84521  Biso   1.000  C
  C242     1.0000 0.83158  0.58621  0.50931  Biso   1.000  C
  C243     1.0000 0.47850  0.82502  0.59554  Biso   1.000  C
  C244     1.0000 0.07547  0.47937  0.65792  Biso   1.000  C
  C245     1.0000 0.33097  0.60472  0.00743  Biso   1.000  C
  C246     1.0000 0.99266  0.83203  0.89880  Biso   1.000  C
  C247     1.0000 0.87484  0.97737  0.84805  Biso   1.000  C
  C248     1.0000 0.62477  0.08786  0.49759  Biso   1.000  C
  C249     1.0000 0.95958  0.33003  0.60940  Biso   1.000  C
  C250     1.0000 0.37898  0.97320  0.65867  Biso   1.000  C
  C251     1.0000 0.11638  0.09980  0.01663  Biso   1.000  C
  C252     1.0000 0.45777  0.32216  0.90931  Biso   1.000  C
  C253     1.0000 0.37599  0.49630  0.15676  Biso   1.000  C
  C254     1.0000 0.12299  0.37713  0.51091  Biso   1.000  C
  C255     1.0000 0.47446  0.14062  0.40856  Biso   1.000  C
  C256     1.0000 0.88025  0.48351  0.34333  Biso   1.000  C
  C257     1.0000 0.61362  0.36262  0.00165  Biso   1.000  C
  C258     1.0000 0.95469  0.13506  0.10651  Biso   1.000  C
  C259     1.0000 0.07824  0.99089  0.15570  Biso   1.000  C
  C260     1.0000 0.32892  0.87441  0.49475  Biso   1.000  C
  C261     1.0000 0.98156  0.63441  0.39308  Biso   1.000  C
  C262     1.0000 0.58017  0.99437  0.34531  Biso   1.000  C
  C263     1.0000 0.82875  0.86470  0.00210  Biso   1.000  C
  C264     1.0000 0.48142  0.64021  0.09413  Biso   1.000  C
  C265     1.0000 0.96979  0.08744  0.85193  Biso   1.000  C
  C266     1.0000 0.82118  0.96637  0.10113  Biso   1.000  C
  C267     1.0000 0.09145  0.83965  0.01020  Biso   1.000  C
  C268     1.0000 0.47497  0.08042  0.65816  Biso   1.000  C
  C269     1.0000 0.32722  0.98131  0.40430  Biso   1.000  C
  C270     1.0000 0.58893  0.83281  0.50556  Biso   1.000  C
  C271     1.0000 0.47409  0.57907  0.84359  Biso   1.000  C
  C272     1.0000 0.63252  0.46007  0.09957  Biso   1.000  C
  C273     1.0000 0.35257  0.34134  0.02387  Biso   1.000  C
  C274     1.0000 0.98121  0.59235  0.65006  Biso   1.000  C
  C275     1.0000 0.13451  0.46802  0.40120  Biso   1.000  C
  C276     1.0000 0.86330  0.33225  0.51506  Biso   1.000  C
  C277     1.0000 0.98551  0.87783  0.15668  Biso   1.000  C
  C278     1.0000 0.12864  0.00983  0.90094  Biso   1.000  C
  C279     1.0000 0.85907  0.13031  0.00486  Biso   1.000  C
  C280     1.0000 0.49571  0.88684  0.34119  Biso   1.000  C
  C281     1.0000 0.63251  0.99790  0.59532  Biso   1.000  C
  C282     1.0000 0.36839  0.13651  0.50055  Biso   1.000  C
  C283     1.0000 0.47394  0.38413  0.15266  Biso   1.000  C
  C284     1.0000 0.31707  0.49546  0.90758  Biso   1.000  C
  C285     1.0000 0.59269  0.62406  0.99554  Biso   1.000  C
  C286     1.0000 0.97054  0.37562  0.35317  Biso   1.000  C
  C287     1.0000 0.82261  0.47980  0.60124  Biso   1.000  C
  C288     1.0000 0.09000  0.63872  0.49576  Biso   1.000  C
  C289     1.0000 0.33085  0.84420  0.48821  Biso   1.000  C
  C290     1.0000 0.45904  0.32036  0.87764  Biso   1.000  C
  C291     1.0000 0.84925  0.48285  0.34294  Biso   1.000  C
  C292     1.0000 0.83188  0.83259  0.00653  Biso   1.000  C
  C293     1.0000 0.96535  0.33172  0.64077  Biso   1.000  C
  C294     1.0000 0.34480  0.50051  0.15975  Biso   1.000  C
  C295     1.0000 0.12340  0.34504  0.51348  Biso   1.000  C
  C296     1.0000 0.99355  0.83053  0.86746  Biso   1.000  C
  C297     1.0000 0.61225  0.99114  0.34419  Biso   1.000  C
  C298     1.0000 0.61308  0.33120  0.00378  Biso   1.000  C
  C299     1.0000 0.47338  0.82310  0.62701  Biso   1.000  C
  C300     1.0000 0.10967  0.99294  0.15870  Biso   1.000  C
  C301     1.0000 0.62626  0.11916  0.50340  Biso   1.000  C
  C302     1.0000 0.48036  0.64263  0.12592  Biso   1.000  C
  C303     1.0000 0.10620  0.47578  0.65958  Biso   1.000  C
  C304     1.0000 0.11494  0.13168  0.01612  Biso   1.000  C
  C305     1.0000 0.98142  0.63549  0.36199  Biso   1.000  C
  C306     1.0000 0.60555  0.48022  0.84280  Biso   1.000  C
  C307     1.0000 0.83320  0.61706  0.50670  Biso   1.000  C
  C308     1.0000 0.95585  0.13703  0.13840  Biso   1.000  C
  C309     1.0000 0.34629  0.97310  0.66054  Biso   1.000  C
  C310     1.0000 0.33298  0.63553  0.00202  Biso   1.000  C
  C311     1.0000 0.47440  0.14297  0.37708  Biso   1.000  C
  C312     1.0000 0.84365  0.97378  0.84560  Biso   1.000  C
  C313     1.0000 0.13679  0.46995  0.37134  Biso   1.000  C
  C314     1.0000 0.33680  0.13510  0.50080  Biso   1.000  C
  C315     1.0000 0.46814  0.35296  0.15854  Biso   1.000  C
  C316     1.0000 0.63407  0.46539  0.13029  Biso   1.000  C
  C317     1.0000 0.82729  0.12490  0.00358  Biso   1.000  C
  C318     1.0000 0.96685  0.34343  0.35155  Biso   1.000  C
  C319     1.0000 0.32455  0.98383  0.37343  Biso   1.000  C
  C320     1.0000 0.12083  0.63622  0.49346  Biso   1.000  C
  C321     1.0000 0.98286  0.84663  0.15609  Biso   1.000  C
  C322     1.0000 0.81895  0.97002  0.13058  Biso   1.000  C
  C323     1.0000 0.62426  0.62128  0.00148  Biso   1.000  C
  C324     1.0000 0.49656  0.85634  0.33789  Biso   1.000  C
  C325     1.0000 0.82029  0.48054  0.63245  Biso   1.000  C
  C326     1.0000 0.62017  0.83229  0.50180  Biso   1.000  C
  C327     1.0000 0.47463  0.61076  0.83993  Biso   1.000  C
  C328     1.0000 0.31561  0.49160  0.87582  Biso   1.000  C
  C329     1.0000 0.12248  0.84278  0.00852  Biso   1.000  C
  C330     1.0000 0.98501  0.62390  0.64856  Biso   1.000  C
  C331     1.0000 0.63432  0.99669  0.62749  Biso   1.000  C
  C332     1.0000 0.83231  0.33074  0.51248  Biso   1.000  C
  C333     1.0000 0.96889  0.11953  0.85011  Biso   1.000  C
  C334     1.0000 0.13166  0.00809  0.86977  Biso   1.000  C
  C335     1.0000 0.32094  0.34271  0.02485  Biso   1.000  C
  C336     1.0000 0.47159  0.11264  0.66072  Biso   1.000  C
  C337     1.0000 0.62845  0.48131  0.86373  Biso   1.000  C
  C338     1.0000 0.85525  0.63768  0.50367  Biso   1.000  C
  C339     1.0000 0.47211  0.84326  0.64987  Biso   1.000  C
  C340     1.0000 0.12854  0.47524  0.63902  Biso   1.000  C
  C341     1.0000 0.35695  0.65384  0.99849  Biso   1.000  C
  C342     1.0000 0.98699  0.85184  0.84714  Biso   1.000  C
  C343     1.0000 0.82196  0.97241  0.86650  Biso   1.000  C
  C344     1.0000 0.60515  0.13927  0.51124  Biso   1.000  C
  C345     1.0000 0.96963  0.35508  0.66019  Biso   1.000  C
  C346     1.0000 0.32359  0.97174  0.63991  Biso   1.000  C
  C347     1.0000 0.09142  0.15112  0.01483  Biso   1.000  C
  C348     1.0000 0.46443  0.34148  0.85474  Biso   1.000  C
  C349     1.0000 0.32067  0.50221  0.14073  Biso   1.000  C
  C350     1.0000 0.10004  0.32489  0.51340  Biso   1.000  C
  C351     1.0000 0.47238  0.12183  0.35452  Biso   1.000  C
  C352     1.0000 0.82794  0.48542  0.36383  Biso   1.000  C
  C353     1.0000 0.58914  0.31125  0.00486  Biso   1.000  C
  C354     1.0000 0.95759  0.11393  0.15904  Biso   1.000  C
  C355     1.0000 0.13163  0.99471  0.13770  Biso   1.000  C
  C356     1.0000 0.35443  0.82412  0.48344  Biso   1.000  C
  C357     1.0000 0.98096  0.61216  0.34230  Biso   1.000  C
  C358     1.0000 0.63592  0.98701  0.36470  Biso   1.000  C
  C359     1.0000 0.85558  0.81325  0.00778  Biso   1.000  C
  C360     1.0000 0.48026  0.62105  0.14756  Biso   1.000  C
  C361     1.0000 0.96312  0.14115  0.87173  Biso   1.000  C
  C362     1.0000 0.84154  0.96930  0.15145  Biso   1.000  C
  C363     1.0000 0.14215  0.86614  0.00733  Biso   1.000  C
  C364     1.0000 0.46414  0.13312  0.63921  Biso   1.000  C
  C365     1.0000 0.34514  0.98550  0.35006  Biso   1.000  C
  C366     1.0000 0.64286  0.85416  0.50329  Biso   1.000  C
  C367     1.0000 0.47945  0.63291  0.85936  Biso   1.000  C
  C368     1.0000 0.61332  0.47393  0.15090  Biso   1.000  C
  C369     1.0000 0.30254  0.36693  0.02304  Biso   1.000  C
  C370     1.0000 0.98741  0.64562  0.62691  Biso   1.000  C
  C371     1.0000 0.11553  0.46966  0.34998  Biso   1.000  C
  C372     1.0000 0.81206  0.35369  0.50712  Biso   1.000  C
  C373     1.0000 0.98265  0.82633  0.13288  Biso   1.000  C
  C374     1.0000 0.11124  0.00569  0.84829  Biso   1.000  C
  C375     1.0000 0.80859  0.10003  0.00346  Biso   1.000  C
  C376     1.0000 0.49727  0.83334  0.35850  Biso   1.000  C
  C377     1.0000 0.61319  0.99265  0.65037  Biso   1.000  C
  C378     1.0000 0.31595  0.11301  0.50350  Biso   1.000  C
  C379     1.0000 0.46112  0.33084  0.13928  Biso   1.000  C
  C380     1.0000 0.33711  0.48777  0.85498  Biso   1.000  C
  C381     1.0000 0.64385  0.59738  0.00354  Biso   1.000  C
  C382     1.0000 0.96256  0.32392  0.37476  Biso   1.000  C
  C383     1.0000 0.84111  0.48252  0.65510  Biso   1.000  C
  C384     1.0000 0.14205  0.61250  0.49467  Biso   1.000  C
  C385     1.0000 0.14041  0.14993  0.01459  Biso   1.000  C
  C386     1.0000 0.95074  0.16269  0.15451  Biso   1.000  C
  C387     1.0000 0.12460  0.99188  0.18634  Biso   1.000  C
  C388     1.0000 0.65304  0.13440  0.49982  Biso   1.000  C
  C389     1.0000 0.47158  0.17157  0.36244  Biso   1.000  C
  C390     1.0000 0.62718  0.99176  0.31661  Biso   1.000  C
  C391     1.0000 0.30734  0.65311  0.00143  Biso   1.000  C
  C392     1.0000 0.48249  0.67004  0.13858  Biso   1.000  C
  C393     1.0000 0.33143  0.50174  0.18780  Biso   1.000  C
  C394     1.0000 0.80632  0.63326  0.51036  Biso   1.000  C
  C395     1.0000 0.97999  0.66203  0.34572  Biso   1.000  C
  C396     1.0000 0.83414  0.48027  0.31598  Biso   1.000  C
  C397     1.0000 0.80583  0.81462  0.01012  Biso   1.000  C
  C398     1.0000 0.99468  0.80467  0.85184  Biso   1.000  C
  C399     1.0000 0.82831  0.97359  0.81798  Biso   1.000  C
  C400     1.0000 0.30481  0.82576  0.48401  Biso   1.000  C
  C401     1.0000 0.46940  0.79521  0.64014  Biso   1.000  C
  C402     1.0000 0.33127  0.97254  0.68797  Biso   1.000  C
  C403     1.0000 0.63774  0.31276  0.00079  Biso   1.000  C
  C404     1.0000 0.45683  0.29256  0.86280  Biso   1.000  C
  C405     1.0000 0.62092  0.48164  0.81678  Biso   1.000  C
  C406     1.0000 0.14902  0.32694  0.51424  Biso   1.000  C
  C407     1.0000 0.97057  0.30669  0.65831  Biso   1.000  C
  C408     1.0000 0.12125  0.47370  0.68620  Biso   1.000  C
  C409     1.0000 0.12721  0.00316  0.82207  Biso   1.000  C
  C410     1.0000 0.78015  0.11277  0.00321  Biso   1.000  C
  C411     1.0000 0.98214  0.79875  0.14841  Biso   1.000  C
  C412     1.0000 0.63115  0.98881  0.67534  Biso   1.000  C
  C413     1.0000 0.28835  0.12579  0.50045  Biso   1.000  C
  C414     1.0000 0.49368  0.80697  0.34240  Biso   1.000  C
  C415     1.0000 0.32049  0.48306  0.82808  Biso   1.000  C
  C416     1.0000 0.67113  0.61031  0.00816  Biso   1.000  C
  C417     1.0000 0.45641  0.30567  0.15593  Biso   1.000  C
  C418     1.0000 0.82379  0.48488  0.68073  Biso   1.000  C
  C419     1.0000 0.17046  0.62734  0.49140  Biso   1.000  C
  C420     1.0000 0.95637  0.29721  0.36191  Biso   1.000  C
  C421     1.0000 0.82622  0.97211  0.17817  Biso   1.000  C
  C422     1.0000 0.17044  0.85321  0.00481  Biso   1.000  C
  C423     1.0000 0.96711  0.16798  0.85698  Biso   1.000  C
  C424     1.0000 0.32805  0.98357  0.32350  Biso   1.000  C
  C425     1.0000 0.66981  0.83890  0.49986  Biso   1.000  C
  C426     1.0000 0.45961  0.15912  0.65677  Biso   1.000  C
  C427     1.0000 0.62962  0.47803  0.17637  Biso   1.000  C
  C428     1.0000 0.27468  0.35544  0.02927  Biso   1.000  C
  C429     1.0000 0.47788  0.65911  0.84152  Biso   1.000  C
  C430     1.0000 0.13198  0.47320  0.32409  Biso   1.000  C
  C431     1.0000 0.78464  0.33931  0.50556  Biso   1.000  C
  C432     1.0000 0.98969  0.67243  0.64264  Biso   1.000  C
  C433     1.0000 0.97019  0.13512  0.82274  Biso   1.000  C
  C434     1.0000 0.79183  0.97057  0.14542  Biso   1.000  C
  C435     1.0000 0.14020  0.81752  0.00573  Biso   1.000  C
  C436     1.0000 0.47294  0.12695  0.68851  Biso   1.000  C
  C437     1.0000 0.29646  0.98562  0.35927  Biso   1.000  C
  C438     1.0000 0.63629  0.80558  0.49882  Biso   1.000  C
  C439     1.0000 0.46863  0.62375  0.81300  Biso   1.000  C
  C440     1.0000 0.66118  0.46462  0.14497  Biso   1.000  C
  C441     1.0000 0.30367  0.31784  0.02886  Biso   1.000  C
  C442     1.0000 0.98293  0.63913  0.67541  Biso   1.000  C
  C443     1.0000 0.16416  0.47195  0.35700  Biso   1.000  C
  C444     1.0000 0.81640  0.30458  0.51363  Biso   1.000  C
  C445     1.0000 0.98321  0.82997  0.18299  Biso   1.000  C
  C446     1.0000 0.15913  0.00534  0.85504  Biso   1.000  C
  C447     1.0000 0.80841  0.14930  0.00396  Biso   1.000  C
  C448     1.0000 0.49318  0.84049  0.31151  Biso   1.000  C
  C449     1.0000 0.66280  0.99719  0.64131  Biso   1.000  C
  C450     1.0000 0.31958  0.16087  0.49856  Biso   1.000  C
  C451     1.0000 0.46797  0.33973  0.18645  Biso   1.000  C
  C452     1.0000 0.28725  0.49125  0.85920  Biso   1.000  C
  C453     1.0000 0.64214  0.64710  0.00591  Biso   1.000  C
  C454     1.0000 0.96302  0.32784  0.32621  Biso   1.000  C
  C455     1.0000 0.79326  0.47944  0.64665  Biso   1.000  C
  C456     1.0000 0.13803  0.66036  0.48590  Biso   1.000  C
  C457     1.0000 0.97953  0.62801  0.31464  Biso   1.000  C
  C458     1.0000 0.29785  0.97110  0.65685  Biso   1.000  C
  C459     1.0000 0.60252  0.28264  0.00457  Biso   1.000  C
  C460     1.0000 0.48113  0.63842  0.17322  Biso   1.000  C
  C461     1.0000 0.79570  0.97239  0.85020  Biso   1.000  C
  C462     1.0000 0.11513  0.29679  0.51568  Biso   1.000  C
  C463     1.0000 0.46821  0.14070  0.32943  Biso   1.000  C
  C464     1.0000 0.15574  0.47434  0.65415  Biso   1.000  C
  C465     1.0000 0.84150  0.78508  0.01226  Biso   1.000  C
  C466     1.0000 0.95751  0.12892  0.18662  Biso   1.000  C
  C467     1.0000 0.65505  0.47955  0.84888  Biso   1.000  C
  C468     1.0000 0.34006  0.79728  0.47651  Biso   1.000  C
  C469     1.0000 0.97508  0.34070  0.68838  Biso   1.000  C
  C470     1.0000 0.66123  0.98305  0.34817  Biso   1.000  C
  C471     1.0000 0.34394  0.68235  0.99598  Biso   1.000  C
  C472     1.0000 0.46676  0.32445  0.82897  Biso   1.000  C
  C473     1.0000 0.15897  0.99431  0.15467  Biso   1.000  C
  C474     1.0000 0.83982  0.66407  0.50530  Biso   1.000  C
  C475     1.0000 0.46701  0.82647  0.67449  Biso   1.000  C
  C476     1.0000 0.80077  0.48548  0.34690  Biso   1.000  C
  C477     1.0000 0.10489  0.17969  0.01435  Biso   1.000  C
  C478     1.0000 0.98406  0.83796  0.82028  Biso   1.000  C
  C479     1.0000 0.29544  0.50364  0.15809  Biso   1.000  C
  C480     1.0000 0.62080  0.16630  0.51286  Biso   1.000  C
  C481     1.0000 0.35914  0.77178  0.46770  Biso   1.000  C
  C482     1.0000 0.47452  0.33821  0.80187  Biso   1.000  C
  C483     1.0000 0.77508  0.49230  0.36367  Biso   1.000  C
  C484     1.0000 0.86009  0.75885  0.01042  Biso   1.000  C
  C485     1.0000 0.97453  0.35873  0.71462  Biso   1.000  C
  C486     1.0000 0.26633  0.50710  0.14426  Biso   1.000  C
  C487     1.0000 0.09860  0.27075  0.51420  Biso   1.000  C
  C488     1.0000 0.97698  0.85372  0.79460  Biso   1.000  C
  C489     1.0000 0.68892  0.97485  0.36248  Biso   1.000  C
  C490     1.0000 0.58293  0.25656  0.00417  Biso   1.000  C
  C491     1.0000 0.46797  0.84438  0.70242  Biso   1.000  C
  C492     1.0000 0.18559  0.99482  0.13883  Biso   1.000  C
  C493     1.0000 0.60492  0.19270  0.52210  Biso   1.000  C
  C494     1.0000 0.48140  0.62176  0.20026  Biso   1.000  C
  C495     1.0000 0.18305  0.47443  0.63875  Biso   1.000  C
  C496     1.0000 0.08620  0.20459  0.01716  Biso   1.000  C
  C497     1.0000 0.98019  0.61020  0.28613  Biso   1.000  C
  C498     1.0000 0.68283  0.47634  0.86412  Biso   1.000  C
  C499     1.0000 0.85542  0.69081  0.50282  Biso   1.000  C
  C500     1.0000 0.95604  0.11269  0.21346  Biso   1.000  C
  C501     1.0000 0.26972  0.96934  0.64146  Biso   1.000  C
  C502     1.0000 0.36161  0.70842  0.99135  Biso   1.000  C
  C503     1.0000 0.46038  0.12618  0.30195  Biso   1.000  C
  C504     1.0000 0.76636  0.97045  0.86486  Biso   1.000  C
  C505     1.0000 0.60269  0.48396  0.78934  Biso   1.000  C
  C506     1.0000 0.77933  0.61844  0.51855  Biso   1.000  C
  C507     1.0000 0.46924  0.76959  0.62352  Biso   1.000  C
  C508     1.0000 0.10622  0.47533  0.71332  Biso   1.000  C
  C509     1.0000 0.27923  0.64007  0.00796  Biso   1.000  C
  C510     1.0000 0.99714  0.77593  0.86755  Biso   1.000  C
  C511     1.0000 0.84478  0.97539  0.79079  Biso   1.000  C
  C512     1.0000 0.67941  0.12091  0.49062  Biso   1.000  C
  C513     1.0000 0.97468  0.27987  0.64475  Biso   1.000  C
  C514     1.0000 0.35066  0.96986  0.71365  Biso   1.000  C
  C515     1.0000 0.16988  0.13728  0.01211  Biso   1.000  C
  C516     1.0000 0.45098  0.26643  0.88003  Biso   1.000  C
  C517     1.0000 0.35027  0.49750  0.21435  Biso   1.000  C
  C518     1.0000 0.17694  0.34133  0.51667  Biso   1.000  C
  C519     1.0000 0.47557  0.19827  0.38132  Biso   1.000  C
  C520     1.0000 0.85044  0.47661  0.28959  Biso   1.000  C
  C521     1.0000 0.66534  0.32557  0.99521  Biso   1.000  C
  C522     1.0000 0.94331  0.18909  0.13793  Biso   1.000  C
  C523     1.0000 0.10751  0.99348  0.21367  Biso   1.000  C
  C524     1.0000 0.27595  0.83871  0.49173  Biso   1.000  C
  C525     1.0000 0.98432  0.68964  0.36047  Biso   1.000  C
  C526     1.0000 0.61019  0.99734  0.28983  Biso   1.000  C
  C527     1.0000 0.77717  0.82804  0.01237  Biso   1.000  C
  C528     1.0000 0.48530  0.69750  0.12149  Biso   1.000  C
  C529     1.0000 0.75441  0.09454  0.00364  Biso   1.000  C
  C530     1.0000 0.98035  0.77114  0.13237  Biso   1.000  C
  C531     1.0000 0.11178  0.00021  0.79560  Biso   1.000  C
  C532     1.0000 0.26135  0.10758  0.50080  Biso   1.000  C
  C533     1.0000 0.49147  0.77909  0.35895  Biso   1.000  C
  C534     1.0000 0.61670  0.97952  0.70168  Biso   1.000  C
  C535     1.0000 0.69595  0.59022  0.01410  Biso   1.000  C
  C536     1.0000 0.44636  0.27919  0.14246  Biso   1.000  C
  C537     1.0000 0.33514  0.47415  0.80193  Biso   1.000  C
  C538     1.0000 0.19675  0.61077  0.49317  Biso   1.000  C
  C539     1.0000 0.95090  0.27187  0.37913  Biso   1.000  C
  C540     1.0000 0.83848  0.48889  0.70776  Biso   1.000  C
  C541     1.0000 0.19761  0.87147  0.00233  Biso   1.000  C
  C542     1.0000 0.96987  0.19450  0.87150  Biso   1.000  C
  C543     1.0000 0.84060  0.97363  0.20559  Biso   1.000  C
  C544     1.0000 0.69710  0.85657  0.49706  Biso   1.000  C
  C545     1.0000 0.45074  0.18695  0.64256  Biso   1.000  C
  C546     1.0000 0.34175  0.98179  0.29655  Biso   1.000  C
  C547     1.0000 0.24924  0.37520  0.03098  Biso   1.000  C
  C548     1.0000 0.48511  0.68624  0.85575  Biso   1.000  C
  C549     1.0000 0.61292  0.48691  0.20276  Biso   1.000  C
  C550     1.0000 0.75830  0.35483  0.49939  Biso   1.000  C
  C551     1.0000 0.99708  0.69855  0.62627  Biso   1.000  C
  C552     1.0000 0.11661  0.47301  0.29711  Biso   1.000  C
  C553     1.0000 0.97101  0.11904  0.79646  Biso   1.000  C
  C554     1.0000 0.76493  0.97220  0.12847  Biso   1.000  C
  C555     1.0000 0.12853  0.78845  0.00864  Biso   1.000  C
  C556     1.0000 0.48096  0.11065  0.71430  Biso   1.000  C
  C557     1.0000 0.27037  0.98625  0.37527  Biso   1.000  C
  C558     1.0000 0.62209  0.77702  0.50013  Biso   1.000  C
  C559     1.0000 0.46207  0.60490  0.78854  Biso   1.000  C
  C560     1.0000 0.68823  0.45878  0.12836  Biso   1.000  C
  C561     1.0000 0.31732  0.28974  0.02985  Biso   1.000  C
  C562     1.0000 0.97603  0.62490  0.70208  Biso   1.000  C
  C563     1.0000 0.19052  0.47180  0.37425  Biso   1.000  C
  C564     1.0000 0.83204  0.27599  0.51549  Biso   1.000  C
  C565     1.0000 0.98087  0.84652  0.21059  Biso   1.000  C
  C566     1.0000 0.18551  0.00579  0.87238  Biso   1.000  C
  C567     1.0000 0.82042  0.17859  0.00183  Biso   1.000  C
  C568     1.0000 0.49239  0.85821  0.28556  Biso   1.000  C
  C569     1.0000 0.69001  0.00302  0.62510  Biso   1.000  C
  C570     1.0000 0.33362  0.18877  0.49324  Biso   1.000  C
  C571     1.0000 0.47776  0.35681  0.21229  Biso   1.000  C
  C572     1.0000 0.26062  0.49785  0.87530  Biso   1.000  C
  C573     1.0000 0.62878  0.67751  0.00301  Biso   1.000  C
  C574     1.0000 0.96772  0.34308  0.29867  Biso   1.000  C
  C575     1.0000 0.76690  0.47546  0.62924  Biso   1.000  C
  C576     1.0000 0.12518  0.68924  0.48116  Biso   1.000  C
  C577     1.0000 0.26559  0.50720  0.11300  Biso   1.000  C
  C578     1.0000 0.06724  0.27196  0.51301  Biso   1.000  C
  C579     1.0000 0.45915  0.09561  0.29950  Biso   1.000  C
  C580     1.0000 0.77583  0.49380  0.39527  Biso   1.000  C
  C581     1.0000 0.55240  0.26185  0.00671  Biso   1.000  C
  C582     1.0000 0.95872  0.08265  0.21353  Biso   1.000  C
  C583     1.0000 0.18565  0.99477  0.10660  Biso   1.000  C
  C584     1.0000 0.38976  0.77735  0.46627  Biso   1.000  C
  C585     1.0000 0.98169  0.57972  0.28864  Biso   1.000  C
  C586     1.0000 0.68878  0.97562  0.39391  Biso   1.000  C
  C587     1.0000 0.88975  0.76254  0.00463  Biso   1.000  C
  C588     1.0000 0.47687  0.59053  0.20194  Biso   1.000  C
  C589     1.0000 0.68362  0.47563  0.89486  Biso   1.000  C
  C590     1.0000 0.88615  0.69061  0.49776  Biso   1.000  C
  C591     1.0000 0.46974  0.87520  0.70244  Biso   1.000  C
  C592     1.0000 0.18120  0.47468  0.60589  Biso   1.000  C
  C593     1.0000 0.39313  0.70574  0.98987  Biso   1.000  C
  C594     1.0000 0.97390  0.88387  0.79751  Biso   1.000  C
  C595     1.0000 0.76674  0.96827  0.89777  Biso   1.000  C
  C596     1.0000 0.57337  0.19173  0.52638  Biso   1.000  C
  C597     1.0000 0.97188  0.39022  0.71145  Biso   1.000  C
  C598     1.0000 0.26979  0.96821  0.60976  Biso   1.000  C
  C599     1.0000 0.05331  0.20213  0.01679  Biso   1.000  C
  C600     1.0000 0.47483  0.36905  0.79939  Biso   1.000  C
  C601     1.0000 0.18365  0.00417  0.90379  Biso   1.000  C
  C602     1.0000 0.85206  0.18418  0.00430  Biso   1.000  C
  C603     1.0000 0.98301  0.87888  0.21050  Biso   1.000  C
  C604     1.0000 0.68493  0.00639  0.59357  Biso   1.000  C
  C605     1.0000 0.36497  0.19010  0.49173  Biso   1.000  C
  C606     1.0000 0.49047  0.88980  0.28856  Biso   1.000  C
  C607     1.0000 0.26126  0.50307  0.90594  Biso   1.000  C
  C608     1.0000 0.59780  0.67951  0.99774  Biso   1.000  C
  C609     1.0000 0.48169  0.38943  0.20639  Biso   1.000  C
  C610     1.0000 0.76780  0.47180  0.59799  Biso   1.000  C
  C611     1.0000 0.09397  0.69249  0.48624  Biso   1.000  C
  C612     1.0000 0.97308  0.37545  0.29912  Biso   1.000  C
  C613     1.0000 0.76623  0.97487  0.09855  Biso   1.000  C
  C614     1.0000 0.09768  0.78464  0.01160  Biso   1.000  C
  C615     1.0000 0.97299  0.08803  0.79636  Biso   1.000  C
  C616     1.0000 0.27136  0.98385  0.40627  Biso   1.000  C
  C617     1.0000 0.59031  0.77733  0.50446  Biso   1.000  C
  C618     1.0000 0.48582  0.07901  0.71294  Biso   1.000  C
  C619     1.0000 0.68571  0.45429  0.09792  Biso   1.000  C
  C620     1.0000 0.34819  0.28776  0.02478  Biso   1.000  C
  C621     1.0000 0.46029  0.57394  0.79134  Biso   1.000  C
  C622     1.0000 0.18809  0.47260  0.40536  Biso   1.000  C
  C623     1.0000 0.86324  0.27746  0.52046  Biso   1.000  C
  C624     1.0000 0.97480  0.59274  0.70443  Biso   1.000  C
  C625     1.0000 0.96604  0.19551  0.90235  Biso   1.000  C
  C626     1.0000 0.87255  0.97009  0.20469  Biso   1.000  C
  C627     1.0000 0.19127  0.90267  0.00068  Biso   1.000  C
  C628     1.0000 0.44535  0.18702  0.61107  Biso   1.000  C
  C629     1.0000 0.37307  0.97961  0.29463  Biso   1.000  C
  C630     1.0000 0.69513  0.88773  0.50033  Biso   1.000  C
  C631     1.0000 0.49193  0.68648  0.88677  Biso   1.000  C
  C632     1.0000 0.58164  0.49437  0.19659  Biso   1.000  C
  C633     1.0000 0.25376  0.40607  0.02673  Biso   1.000  C
  C634     1.0000 0.99747  0.69520  0.59485  Biso   1.000  C
  C635     1.0000 0.08546  0.47216  0.29658  Biso   1.000  C
  C636     1.0000 0.75929  0.38625  0.49420  Biso   1.000  C
  C637     1.0000 0.98202  0.77141  0.10101  Biso   1.000  C
  C638     1.0000 0.07964  0.99824  0.79563  Biso   1.000  C
  C639     1.0000 0.75899  0.06380  0.99927  Biso   1.000  C
  C640     1.0000 0.49270  0.77839  0.38964  Biso   1.000  C
  C641     1.0000 0.58427  0.97819  0.70252  Biso   1.000  C
  C642     1.0000 0.26374  0.07677  0.50441  Biso   1.000  C
  C643     1.0000 0.44063  0.27893  0.11052  Biso   1.000  C
  C644     1.0000 0.36592  0.47219  0.80224  Biso   1.000  C
  C645     1.0000 0.69175  0.55884  0.01148  Biso   1.000  C
  C646     1.0000 0.95364  0.27317  0.41009  Biso   1.000  C
  C647     1.0000 0.86954  0.49263  0.70870  Biso   1.000  C
  C648     1.0000 0.19501  0.57853  0.49899  Biso   1.000  C
  C649     1.0000 0.98628  0.69000  0.39101  Biso   1.000  C
  C650     1.0000 0.38159  0.97146  0.71307  Biso   1.000  C
  C651     1.0000 0.66769  0.35698  0.99565  Biso   1.000  C
  C652     1.0000 0.48736  0.69611  0.09140  Biso   1.000  C
  C653     1.0000 0.87551  0.97867  0.79397  Biso   1.000  C
  C654     1.0000 0.17792  0.37398  0.51521  Biso   1.000  C
  C655     1.0000 0.47596  0.19453  0.41171  Biso   1.000  C
  C656     1.0000 0.07542  0.48076  0.71231  Biso   1.000  C
  C657     1.0000 0.77530  0.86016  0.00862  Biso   1.000  C
  C658     1.0000 0.94205  0.18854  0.10687  Biso   1.000  C
  C659     1.0000 0.56975  0.48222  0.79172  Biso   1.000  C
  C660     1.0000 0.27320  0.87055  0.49845  Biso   1.000  C
  C661     1.0000 0.97176  0.27692  0.61448  Biso   1.000  C
  C662     1.0000 0.57859  0.99782  0.29103  Biso   1.000  C
  C663     1.0000 0.27544  0.60954  0.01161  Biso   1.000  C
  C664     1.0000 0.44980  0.26776  0.91170  Biso   1.000  C
  C665     1.0000 0.07720  0.99282  0.21082  Biso   1.000  C
  C666     1.0000 0.77897  0.58750  0.51981  Biso   1.000  C
  C667     1.0000 0.47419  0.76998  0.59285  Biso   1.000  C
  C668     1.0000 0.88235  0.47770  0.28916  Biso   1.000  C
  C669     1.0000 0.17176  0.10626  0.01193  Biso   1.000  C
  C670     1.0000 0.00021  0.77714  0.89926  Biso   1.000  C
  C671     1.0000 0.38098  0.49359  0.21063  Biso   1.000  C
  C672     1.0000 0.67918  0.08964  0.48565  Biso   1.000  C
  C673     1.0000 0.17316  0.00071  0.80763  Biso   1.000  C
  C674     1.0000 0.75886  0.15736  0.00454  Biso   1.000  C
  C675     1.0000 0.97791  0.78324  0.19423  Biso   1.000  C
  C676     1.0000 0.67868  0.98761  0.68715  Biso   1.000  C
  C677     1.0000 0.27256  0.17332  0.49953  Biso   1.000  C
  C678     1.0000 0.49079  0.79365  0.29417  Biso   1.000  C
  C679     1.0000 0.27385  0.48570  0.81273  Biso   1.000  C
  C680     1.0000 0.68952  0.65511  0.01556  Biso   1.000  C
  C681     1.0000 0.46339  0.29353  0.20215  Biso   1.000  C
  C682     1.0000 0.77754  0.48244  0.69329  Biso   1.000  C
  C683     1.0000 0.18777  0.67113  0.48436  Biso   1.000  C
  C684     1.0000 0.95442  0.28113  0.31531  Biso   1.000  C
  C685     1.0000 0.77990  0.97586  0.19340  Biso   1.000  C
  C686     1.0000 0.18573  0.80739  0.99810  Biso   1.000  C
  C687     1.0000 0.97335  0.18195  0.81010  Biso   1.000  C
  C688     1.0000 0.28209  0.98847  0.31167  Biso   1.000  C
  C689     1.0000 0.68356  0.79181  0.49790  Biso   1.000  C
  C690     1.0000 0.46599  0.17285  0.70257  Biso   1.000  C
  C691     1.0000 0.67799  0.47138  0.18981  Biso   1.000  C
  C692     1.0000 0.25571  0.31005  0.03183  Biso   1.000  C
  C693     1.0000 0.47016  0.66987  0.79373  Biso   1.000  C
  C694     1.0000 0.17788  0.47978  0.31169  Biso   1.000  C
  C695     1.0000 0.77114  0.29270  0.50617  Biso   1.000  C
  C696     1.0000 0.98854  0.68475  0.68908  Biso   1.000  C
  C697     1.0000 0.67135  0.98685  0.29985  Biso   1.000  C
  C698     1.0000 0.29924  0.70035  0.99697  Biso   1.000  C
  C699     1.0000 0.97788  0.29533  0.70543  Biso   1.000  C
  C700     1.0000 0.17090  0.99162  0.20207  Biso   1.000  C
  C701     1.0000 0.79182  0.67846  0.50614  Biso   1.000  C
  C702     1.0000 0.46278  0.27765  0.81790  Biso   1.000  C
  C703     1.0000 0.78709  0.48157  0.30061  Biso   1.000  C
  C704     1.0000 0.14859  0.19839  0.01617  Biso   1.000  C
  C705     1.0000 0.46574  0.77909  0.68517  Biso   1.000  C
  C706     1.0000 0.28474  0.50061  0.20382  Biso   1.000  C
  C707     1.0000 0.66627  0.18110  0.50475  Biso   1.000  C
  C708     1.0000 0.98951  0.79032  0.80517  Biso   1.000  C
  C709     1.0000 0.28386  0.97451  0.70266  Biso   1.000  C
  C710     1.0000 0.64798  0.26539  0.00420  Biso   1.000  C
  C711     1.0000 0.97604  0.67470  0.29897  Biso   1.000  C
  C712     1.0000 0.78275  0.97267  0.80282  Biso   1.000  C
  C713     1.0000 0.16187  0.27929  0.51269  Biso   1.000  C
  C714     1.0000 0.48531  0.68453  0.18553  Biso   1.000  C
  C715     1.0000 0.16905  0.47269  0.70116  Biso   1.000  C
  C716     1.0000 0.79505  0.76780  0.01585  Biso   1.000  C
  C717     1.0000 0.46764  0.18801  0.31655  Biso   1.000  C
  C718     1.0000 0.66805  0.48489  0.80136  Biso   1.000  C
  C719     1.0000 0.29360  0.78012  0.47461  Biso   1.000  C
  C720     1.0000 0.95005  0.17520  0.20173  Biso   1.000  C
  C721     1.0000 0.47112  0.79592  0.26948  Biso   1.000  C
  C722     1.0000 0.27965  0.49683  0.78379  Biso   1.000  C
  C723     1.0000 0.77350  0.26552  0.48811  Biso   1.000  C
  C724     1.0000 0.95815  0.75936  0.18883  Biso   1.000  C
  C725     1.0000 0.78085  0.47093  0.72191  Biso   1.000  C
  C726     1.0000 0.22976  0.31609  0.01605  Biso   1.000  C
  C727     1.0000 0.96439  0.25204  0.31984  Biso   1.000  C
  C728     1.0000 0.17300  0.01472  0.77797  Biso   1.000  C
  C729     1.0000 0.71065  0.79564  0.51583  Biso   1.000  C
  C730     1.0000 0.45262  0.29962  0.23008  Biso   1.000  C
  C731     1.0000 0.70669  0.97497  0.68252  Biso   1.000  C
  C732     1.0000 0.18327  0.78243  0.97907  Biso   1.000  C
  C733     1.0000 0.45920  0.16434  0.73186  Biso   1.000  C
  C734     1.0000 0.67706  0.49695  0.21026  Biso   1.000  C
  C735     1.0000 0.18564  0.69872  0.50031  Biso   1.000  C
  C736     1.0000 0.95932  0.21088  0.81380  Biso   1.000  C
  C737     1.0000 0.17245  0.49897  0.28694  Biso   1.000  C
  C738     1.0000 0.68460  0.68062  0.03368  Biso   1.000  C
  C739     1.0000 0.00628  0.68104  0.71561  Biso   1.000  C
  C740     1.0000 0.75278  0.96026  0.19092  Biso   1.000  C
  C741     1.0000 0.24348  0.16888  0.48546  Biso   1.000  C
  C742     1.0000 0.47719  0.66297  0.76347  Biso   1.000  C
  C743     1.0000 0.28613  0.00625  0.28469  Biso   1.000  C
  C744     1.0000 0.75835  0.18143  0.02346  Biso   1.000  C
  C745     1.0000 0.98828  0.67161  0.26935  Biso   1.000  C
  C746     1.0000 0.25484  0.96008  0.70033  Biso   1.000  C
  C747     1.0000 0.67659  0.26914  0.01781  Biso   1.000  C
  C748     1.0000 0.50427  0.68225  0.21076  Biso   1.000  C
  C749     1.0000 0.78693  0.95483  0.77715  Biso   1.000  C
  C750     1.0000 0.18822  0.28261  0.49556  Biso   1.000  C
  C751     1.0000 0.48354  0.18357  0.29005  Biso   1.000  C
  C752     1.0000 0.16531  0.45730  0.72867  Biso   1.000  C
  C753     1.0000 0.76605  0.76981  0.00191  Biso   1.000  C
  C754     1.0000 0.96960  0.17313  0.22784  Biso   1.000  C
  C755     1.0000 0.69687  0.49795  0.80751  Biso   1.000  C
  C756     1.0000 0.26408  0.78475  0.46241  Biso   1.000  C
  C757     1.0000 0.96224  0.26775  0.70405  Biso   1.000  C
  C758     1.0000 0.66507  0.97240  0.27283  Biso   1.000  C
  C759     1.0000 0.30369  0.72786  0.00825  Biso   1.000  C
  C760     1.0000 0.47776  0.25054  0.82181  Biso   1.000  C
  C761     1.0000 0.16698  0.97407  0.22839  Biso   1.000  C
  C762     1.0000 0.76255  0.67419  0.49206  Biso   1.000  C
  C763     1.0000 0.44515  0.77877  0.70919  Biso   1.000  C
  C764     1.0000 0.75856  0.46818  0.30433  Biso   1.000  C
  C765     1.0000 0.17460  0.19490  0.03370  Biso   1.000  C
  C766     1.0000 0.97014  0.79063  0.78010  Biso   1.000  C
  C767     1.0000 0.29056  0.47908  0.22732  Biso   1.000  C
  C768     1.0000 0.69619  0.17588  0.51509  Biso   1.000  C
  C769     1.0000 0.46181  0.69987  0.79801  Biso   1.000  C
  C770     1.0000 0.75072  0.49729  0.68713  Biso   1.000  C
  C771     1.0000 0.67944  0.76494  0.48304  Biso   1.000  C
  C772     1.0000 0.97400  0.71325  0.68703  Biso   1.000  C
  C773     1.0000 0.24647  0.47155  0.81869  Biso   1.000  C
  C774     1.0000 0.21283  0.81037  0.01560  Biso   1.000  C
  C775     1.0000 0.99048  0.17836  0.78404  Biso   1.000  C
  C776     1.0000 0.67357  0.99604  0.71671  Biso   1.000  C
  C777     1.0000 0.74345  0.29589  0.52196  Biso   1.000  C
  C778     1.0000 0.47185  0.20313  0.69873  Biso   1.000  C
  C779     1.0000 0.19645  0.98112  0.81238  Biso   1.000  C
  C780     1.0000 0.25653  0.28281  0.04716  Biso   1.000  C
  C781     1.0000 0.47707  0.26541  0.19875  Biso   1.000  C
  C782     1.0000 0.20603  0.46515  0.31323  Biso   1.000  C
  C783     1.0000 0.27799  0.19969  0.51621  Biso   1.000  C
  C784     1.0000 0.93944  0.28554  0.28795  Biso   1.000  C
  C785     1.0000 0.70237  0.45204  0.19296  Biso   1.000  C
  C786     1.0000 0.73388  0.15456  0.98621  Biso   1.000  C
  C787     1.0000 0.98970  0.78436  0.22463  Biso   1.000  C
  C788     1.0000 0.25613  0.97075  0.31375  Biso   1.000  C
  C789     1.0000 0.21464  0.66591  0.46779  Biso   1.000  C
  C790     1.0000 0.51116  0.76895  0.29578  Biso   1.000  C
  C791     1.0000 0.78306  0.99660  0.21751  Biso   1.000  C
  C792     1.0000 0.71817  0.65217  0.99954  Biso   1.000  C
  C793     1.0000 0.45507  0.21651  0.31977  Biso   1.000  C
  C794     1.0000 0.25770  0.51594  0.20540  Biso   1.000  C
  C795     1.0000 0.15878  0.25062  0.52496  Biso   1.000  C
  C796     1.0000 0.92978  0.20137  0.20093  Biso   1.000  C
  C797     1.0000 0.79239  0.49429  0.27174  Biso   1.000  C
  C798     1.0000 0.64265  0.23691  0.99122  Biso   1.000  C
  C799     1.0000 0.95644  0.69861  0.30337  Biso   1.000  C
  C800     1.0000 0.19833  0.00773  0.19775  Biso   1.000  C
  C801     1.0000 0.30133  0.75238  0.48633  Biso   1.000  C
  C802     1.0000 0.46751  0.70999  0.18367  Biso   1.000  C
  C803     1.0000 0.69952  0.00290  0.30215  Biso   1.000  C
  C804     1.0000 0.80214  0.74011  0.02958  Biso   1.000  C
  C805     1.0000 0.48745  0.75404  0.68441  Biso   1.000  C
  C806     1.0000 0.66424  0.47239  0.77274  Biso   1.000  C
  C807     1.0000 0.79524  0.70589  0.51990  Biso   1.000  C
  C808     1.0000 0.00899  0.76513  0.80583  Biso   1.000  C
  C809     1.0000 0.19594  0.49020  0.69865  Biso   1.000  C
  C810     1.0000 0.27133  0.69600  0.97979  Biso   1.000  C
  C811     1.0000 0.99483  0.29910  0.73148  Biso   1.000  C
  C812     1.0000 0.75691  0.99137  0.80437  Biso   1.000  C
  C813     1.0000 0.65960  0.20993  0.49244  Biso   1.000  C
  C814     1.0000 0.44864  0.28286  0.79041  Biso   1.000  C
  C815     1.0000 0.28885  0.99069  0.73028  Biso   1.000  C
  C816     1.0000 0.14255  0.22749  0.00211  Biso   1.000  C
  C817     1.0000 0.96254  0.23261  0.79399  Biso   1.000  C
  C818     1.0000 0.73216  0.96404  0.21142  Biso   1.000  C
  C819     1.0000 0.20696  0.76258  0.97774  Biso   1.000  C
  C820     1.0000 0.45817  0.18404  0.75555  Biso   1.000  C
  C821     1.0000 0.26479  0.00349  0.26384  Biso   1.000  C
  C822     1.0000 0.73108  0.77251  0.51608  Biso   1.000  C
  C823     1.0000 0.47435  0.68396  0.74174  Biso   1.000  C
  C824     1.0000 0.69845  0.49912  0.23088  Biso   1.000  C
  C825     1.0000 0.20665  0.29647  0.01450  Biso   1.000  C
  C826     1.0000 0.00806  0.70254  0.73632  Biso   1.000  C
  C827     1.0000 0.19412  0.50299  0.26692  Biso   1.000  C
  C828     1.0000 0.75311  0.24439  0.49101  Biso   1.000  C
  C829     1.0000 0.95220  0.73812  0.20946  Biso   1.000  C
  C830     1.0000 0.19577  0.00953  0.75812  Biso   1.000  C
  C831     1.0000 0.73561  0.20138  0.02278  Biso   1.000  C
  C832     1.0000 0.46982  0.77428  0.24961  Biso   1.000  C
  C833     1.0000 0.72630  0.96867  0.70604  Biso   1.000  C
  C834     1.0000 0.22176  0.18900  0.49296  Biso   1.000  C
  C835     1.0000 0.45509  0.27809  0.25139  Biso   1.000  C
  C836     1.0000 0.25914  0.49172  0.76231  Biso   1.000  C
  C837     1.0000 0.70533  0.70281  0.03545  Biso   1.000  C
  C838     1.0000 0.95867  0.23109  0.29923  Biso   1.000  C
  C839     1.0000 0.75926  0.47484  0.74238  Biso   1.000  C
  C840     1.0000 0.20746  0.72062  0.49714  Biso   1.000  C
  C841     1.0000 0.21685  0.97570  0.79226  Biso   1.000  C
  C842     1.0000 0.71165  0.17459  0.98514  Biso   1.000  C
  C843     1.0000 0.98153  0.76416  0.24409  Biso   1.000  C
  C844     1.0000 0.69250  0.98825  0.73939  Biso   1.000  C
  C845     1.0000 0.25544  0.21868  0.52013  Biso   1.000  C
  C846     1.0000 0.51114  0.74923  0.27333  Biso   1.000  C
  C847     1.0000 0.22772  0.46661  0.79655  Biso   1.000  C
  C848     1.0000 0.73633  0.67529  0.00251  Biso   1.000  C
  C849     1.0000 0.48195  0.24573  0.22060  Biso   1.000  C
  C850     1.0000 0.73065  0.50369  0.70842  Biso   1.000  C
  C851     1.0000 0.23525  0.68756  0.46708  Biso   1.000  C
  C852     1.0000 0.93780  0.26556  0.26543  Biso   1.000  C
  C853     1.0000 0.76133  0.99989  0.23728  Biso   1.000  C
  C854     1.0000 0.23496  0.78973  0.01330  Biso   1.000  C
  C855     1.0000 0.99516  0.20187  0.76696  Biso   1.000  C
  C856     1.0000 0.23537  0.97291  0.29252  Biso   1.000  C
  C857     1.0000 0.70093  0.74424  0.48275  Biso   1.000  C
  C858     1.0000 0.47107  0.22226  0.72230  Biso   1.000  C
  C859     1.0000 0.72352  0.45550  0.21472  Biso   1.000  C
  C860     1.0000 0.23280  0.26421  0.04578  Biso   1.000  C
  C861     1.0000 0.45964  0.71970  0.77539  Biso   1.000  C
  C862     1.0000 0.22620  0.46941  0.29270  Biso   1.000  C
  C863     1.0000 0.72170  0.27506  0.52101  Biso   1.000  C
  C864     1.0000 0.97625  0.73344  0.70899  Biso   1.000  C
  C865     1.0000 0.71604  0.50286  0.78619  Biso   1.000  C
  C866     1.0000 0.74304  0.69634  0.49047  Biso   1.000  C
  C867     1.0000 0.44361  0.75337  0.72634  Biso   1.000  C
  C868     1.0000 0.18575  0.45918  0.75241  Biso   1.000  C
  C869     1.0000 0.28156  0.74862  0.00655  Biso   1.000  C
  C870     1.0000 0.97149  0.77018  0.75840  Biso   1.000  C
  C871     1.0000 0.76604  0.95719  0.75385  Biso   1.000  C
  C872     1.0000 0.71725  0.19819  0.51573  Biso   1.000  C
  C873     1.0000 0.96587  0.24608  0.72508  Biso   1.000  C
  C874     1.0000 0.23328  0.96673  0.72209  Biso   1.000  C
  C875     1.0000 0.19385  0.21818  0.03594  Biso   1.000  C
  C876     1.0000 0.47747  0.22938  0.80087  Biso   1.000  C
  C877     1.0000 0.26885  0.47423  0.24773  Biso   1.000  C
  C878     1.0000 0.21030  0.26198  0.49323  Biso   1.000  C
  C879     1.0000 0.48203  0.20411  0.26748  Biso   1.000  C
  C880     1.0000 0.73621  0.46912  0.28378  Biso   1.000  C
  C881     1.0000 0.69713  0.24795  0.01652  Biso   1.000  C
  C882     1.0000 0.96886  0.19292  0.24931  Biso   1.000  C
  C883     1.0000 0.18947  0.97422  0.24883  Biso   1.000  C
  C884     1.0000 0.24483  0.76203  0.46298  Biso   1.000  C
  C885     1.0000 0.97900  0.69128  0.24771  Biso   1.000  C
  C886     1.0000 0.68483  0.97345  0.25072  Biso   1.000  C
  C887     1.0000 0.74567  0.74678  0.00351  Biso   1.000  C
  C888     1.0000 0.50536  0.70362  0.23088  Biso   1.000  C
  C889     1.0000 0.71914  0.00407  0.27909  Biso   1.000  C
  C890     1.0000 0.24985  0.71584  0.97910  Biso   1.000  C
  C891     1.0000 0.99818  0.27697  0.75224  Biso   1.000  C
  C892     1.0000 0.22079  0.00293  0.21727  Biso   1.000  C
  C893     1.0000 0.77503  0.72751  0.51716  Biso   1.000  C
  C894     1.0000 0.44739  0.26014  0.76863  Biso   1.000  C
  C895     1.0000 0.77021  0.49493  0.25073  Biso   1.000  C
  C896     1.0000 0.16199  0.25164  0.00614  Biso   1.000  C
  C897     1.0000 0.48785  0.73350  0.70561  Biso   1.000  C
  C898     1.0000 0.23818  0.51301  0.22670  Biso   1.000  C
  C899     1.0000 0.68071  0.23044  0.49377  Biso   1.000  C
  C900     1.0000 0.00810  0.74490  0.78471  Biso   1.000  C
  C901     1.0000 0.26607  0.99564  0.74959  Biso   1.000  C
  C902     1.0000 0.66453  0.21631  0.99083  Biso   1.000  C
  C903     1.0000 0.94963  0.71869  0.28252  Biso   1.000  C
  C904     1.0000 0.73726  0.99248  0.78195  Biso   1.000  C
  C905     1.0000 0.18094  0.22983  0.52324  Biso   1.000  C
  C906     1.0000 0.46703  0.73069  0.20544  Biso   1.000  C
  C907     1.0000 0.21461  0.48986  0.72196  Biso   1.000  C
  C908     1.0000 0.78187  0.71644  0.03037  Biso   1.000  C
  C909     1.0000 0.45434  0.23585  0.29723  Biso   1.000  C
  C910     1.0000 0.68592  0.47697  0.75242  Biso   1.000  C
  C911     1.0000 0.28111  0.72986  0.48684  Biso   1.000  C
  C912     1.0000 0.92940  0.22143  0.22380  Biso   1.000  C
  C913     1.0000 0.73514  0.49245  0.73680  Biso   1.000  C
  C914     1.0000 0.72513  0.74812  0.49989  Biso   1.000  C
  C915     1.0000 0.46675  0.71283  0.74782  Biso   1.000  C
  C916     1.0000 0.23370  0.47536  0.76818  Biso   1.000  C
  C917     1.0000 0.23073  0.76522  0.99600  Biso   1.000  C
  C918     1.0000 0.99316  0.72856  0.73471  Biso   1.000  C
  C919     1.0000 0.71983  0.97840  0.73351  Biso   1.000  C
  C920     1.0000 0.72845  0.24878  0.50709  Biso   1.000  C
  C921     1.0000 0.98246  0.22801  0.77153  Biso   1.000  C
  C922     1.0000 0.21693  0.98991  0.76630  Biso   1.000  C
  C923     1.0000 0.20877  0.27000  0.02848  Biso   1.000  C
  C924     1.0000 0.46323  0.21341  0.74978  Biso   1.000  C
  C925     1.0000 0.22017  0.48770  0.26919  Biso   1.000  C
  C926     1.0000 0.22730  0.21280  0.51107  Biso   1.000  C
  C927     1.0000 0.46799  0.25141  0.24723  Biso   1.000  C
  C928     1.0000 0.72120  0.47956  0.23241  Biso   1.000  C
  C929     1.0000 0.71339  0.19889  0.00236  Biso   1.000  C
  C930     1.0000 0.94800  0.23757  0.27172  Biso   1.000  C
  C931     1.0000 0.23977  0.98754  0.26760  Biso   1.000  C
  C932     1.0000 0.23219  0.71401  0.48038  Biso   1.000  C
  C933     1.0000 0.96350  0.74121  0.23658  Biso   1.000  C
  C934     1.0000 0.73584  0.98352  0.23444  Biso   1.000  C
  C935     1.0000 0.73049  0.69856  0.01977  Biso   1.000  C
  C936     1.0000 0.49028  0.75106  0.25091  Biso   1.000  C
  C937     1.0000 0.69165  0.22284  0.00194  Biso   1.000  C
  C938     1.0000 0.96109  0.71510  0.25425  Biso   1.000  C
  C939     1.0000 0.23985  0.98217  0.74701  Biso   1.000  C
  C940     1.0000 0.20725  0.23628  0.51089  Biso   1.000  C
  C941     1.0000 0.48703  0.72808  0.22839  Biso   1.000  C
  C942     1.0000 0.74051  0.97454  0.75837  Biso   1.000  C
  C943     1.0000 0.75394  0.72143  0.01891  Biso   1.000  C
  C944     1.0000 0.46831  0.23037  0.27143  Biso   1.000  C
  C945     1.0000 0.20958  0.47585  0.74767  Biso   1.000  C
  C946     1.0000 0.25377  0.73621  0.47663  Biso   1.000  C
  C947     1.0000 0.94880  0.21632  0.24774  Biso   1.000  C
  C948     1.0000 0.71147  0.49327  0.75792  Biso   1.000  C
  C949     1.0000 0.25485  0.74266  0.99196  Biso   1.000  C
  C950     1.0000 0.98412  0.25051  0.74847  Biso   1.000  C
  C951     1.0000 0.71217  0.98841  0.25440  Biso   1.000  C
  C952     1.0000 0.74813  0.72349  0.50256  Biso   1.000  C
  C953     1.0000 0.46198  0.23397  0.77430  Biso   1.000  C
  C954     1.0000 0.21484  0.99024  0.24461  Biso   1.000  C
  C955     1.0000 0.18719  0.24581  0.02211  Biso   1.000  C
  C956     1.0000 0.46566  0.73304  0.72511  Biso   1.000  C
  C957     1.0000 0.74176  0.48190  0.25603  Biso   1.000  C
  C958     1.0000 0.70693  0.22576  0.50743  Biso   1.000  C
  C959     1.0000 0.98945  0.74655  0.76153  Biso   1.000  C
  C960     1.0000 0.24417  0.49216  0.24736  Biso   1.000  C
  Cu1      1.0000 0.97354  0.49040  0.65366  Biso   1.000  Cu
  Cu2      1.0000 0.63151  0.98603  0.49500  Biso   1.000  Cu
  Cu3      1.0000 0.48981  0.63757  0.99066  Biso   1.000  Cu
  Cu4      1.0000 0.47214  0.47345  0.85072  Biso   1.000  Cu
  Cu5      1.0000 0.12504  0.99800  0.00507  Biso   1.000  Cu
  Cu6      1.0000 0.99003  0.63890  0.49438  Biso   1.000  Cu
  Cu7      1.0000 0.47907  0.97748  0.65407  Biso   1.000  Cu
  Cu8      1.0000 0.82628  0.48229  0.49831  Biso   1.000  Cu
  Cu9      1.0000 0.96045  0.14029  0.00406  Biso   1.000  Cu
  Cu10     1.0000 0.97811  0.98437  0.85274  Biso   1.000  Cu
  Cu11     1.0000 0.31711  0.50196  0.00774  Biso   1.000  Cu
  Cu12     1.0000 0.46894  0.13932  0.50824  Biso   1.000  Cu
  Cu13     1.0000 0.98162  0.48042  0.34783  Biso   1.000  Cu
  Cu14     1.0000 0.32314  0.97743  0.50907  Biso   1.000  Cu
  Cu15     1.0000 0.45401  0.32819  0.00972  Biso   1.000  Cu
  Cu16     1.0000 0.47961  0.48892  0.14960  Biso   1.000  Cu
  Cu17     1.0000 0.82126  0.96781  0.99889  Biso   1.000  Cu
  Cu18     1.0000 0.96692  0.32788  0.50863  Biso   1.000  Cu
  Cu19     1.0000 0.47493  0.98848  0.34525  Biso   1.000  Cu
  Cu20     1.0000 0.12857  0.47880  0.50176  Biso   1.000  Cu
  Cu21     1.0000 0.98644  0.82881  0.00170  Biso   1.000  Cu
  Cu22     1.0000 0.97575  0.98089  0.15505  Biso   1.000  Cu
  Cu23     1.0000 0.62768  0.46342  0.99716  Biso   1.000  Cu
  Cu24     1.0000 0.48938  0.83126  0.49370  Biso   1.000  Cu
  Cu25     1.0000 0.17916  0.00198  0.00706  Biso   1.000  Cu
  Cu26     1.0000 0.95509  0.19414  0.00668  Biso   1.000  Cu
  Cu27     1.0000 0.97505  0.98008  0.20933  Biso   1.000  Cu
  Cu28     1.0000 0.68539  0.98960  0.49395  Biso   1.000  Cu
  Cu29     1.0000 0.47131  0.19290  0.51075  Biso   1.000  Cu
  Cu30     1.0000 0.47784  0.99508  0.29217  Biso   1.000  Cu
  Cu31     1.0000 0.26295  0.50685  0.00843  Biso   1.000  Cu
  Cu32     1.0000 0.49728  0.69106  0.98934  Biso   1.000  Cu
  Cu33     1.0000 0.48208  0.48788  0.20264  Biso   1.000  Cu
  Cu34     1.0000 0.77276  0.48857  0.49697  Biso   1.000  Cu
  Cu35     1.0000 0.98826  0.69266  0.49057  Biso   1.000  Cu
  Cu36     1.0000 0.98487  0.47584  0.29460  Biso   1.000  Cu
  Cu37     1.0000 0.76685  0.96354  0.99724  Biso   1.000  Cu
  Cu38     1.0000 0.99368  0.77363  0.00109  Biso   1.000  Cu
  Cu39     1.0000 0.97784  0.98612  0.79821  Biso   1.000  Cu
  Cu40     1.0000 0.26812  0.97449  0.50614  Biso   1.000  Cu
  Cu41     1.0000 0.49116  0.77737  0.49098  Biso   1.000  Cu
  Cu42     1.0000 0.48326  0.97512  0.70936  Biso   1.000  Cu
  Cu43     1.0000 0.68013  0.45889  0.99503  Biso   1.000  Cu
  Cu44     1.0000 0.44767  0.27475  0.01456  Biso   1.000  Cu
  Cu45     1.0000 0.46771  0.47248  0.79698  Biso   1.000  Cu
  Cu46     1.0000 0.18632  0.47448  0.50475  Biso   1.000  Cu
  Cu47     1.0000 0.96484  0.27435  0.50938  Biso   1.000  Cu
  Cu48     1.0000 0.97361  0.48937  0.70763  Biso   1.000  Cu
  H1       1.0000 0.22398  0.76426  0.45222  Biso   1.000  H
  H2       1.0000 0.48750  0.20801  0.80453  Biso   1.000  H
  H3       1.0000 0.71486  0.45983  0.28764  Biso   1.000  H
  H4       1.0000 0.72416  0.74849  0.99373  Biso   1.000  H
  H5       1.0000 0.95446  0.22545  0.72251  Biso   1.000  H
  H6       1.0000 0.27216  0.45803  0.26346  Biso   1.000  H
  H7       1.0000 0.22881  0.26777  0.47865  Biso   1.000  H
  H8       1.0000 0.95633  0.77356  0.74091  Biso   1.000  H
  H9       1.0000 0.67792  0.96440  0.23081  Biso   1.000  H
  H10      1.0000 0.71867  0.25088  0.02606  Biso   1.000  H
  H11      1.0000 0.42590  0.75328  0.74181  Biso   1.000  H
  H12      1.0000 0.18662  0.96163  0.26834  Biso   1.000  H
  H13      1.0000 0.74002  0.19433  0.52448  Biso   1.000  H
  H14      1.0000 0.52130  0.70039  0.24785  Biso   1.000  H
  H15      1.0000 0.18154  0.44795  0.77195  Biso   1.000  H
  H16      1.0000 0.21293  0.21468  0.04890  Biso   1.000  H
  H17      1.0000 0.98787  0.68720  0.22414  Biso   1.000  H
  H18      1.0000 0.73511  0.51620  0.79209  Biso   1.000  H
  H19      1.0000 0.72465  0.69085  0.47747  Biso   1.000  H
  H20      1.0000 0.98338  0.18828  0.26766  Biso   1.000  H
  H21      1.0000 0.21042  0.95979  0.72058  Biso   1.000  H
  H22      1.0000 0.28673  0.77084  0.01716  Biso   1.000  H
  H23      1.0000 0.49414  0.19820  0.24948  Biso   1.000  H
  H24      1.0000 0.77047  0.94395  0.73498  Biso   1.000  H
  H25      1.0000 0.19687  0.01955  0.73615  Biso   1.000  H
  H26      1.0000 0.73996  0.22000  0.03525  Biso   1.000  H
  H27      1.0000 0.93928  0.71883  0.20467  Biso   1.000  H
  H28      1.0000 0.74584  0.95759  0.70015  Biso   1.000  H
  H29      1.0000 0.20008  0.18375  0.48392  Biso   1.000  H
  H30      1.0000 0.45349  0.77505  0.23317  Biso   1.000  H
  H31      1.0000 0.26312  0.50065  0.74106  Biso   1.000  H
  H32      1.0000 0.70109  0.71839  0.05065  Biso   1.000  H
  H33      1.0000 0.44370  0.28308  0.27114  Biso   1.000  H
  H34      1.0000 0.76439  0.46135  0.76229  Biso   1.000  H
  H35      1.0000 0.20634  0.73962  0.51067  Biso   1.000  H
  H36      1.0000 0.96396  0.20712  0.30395  Biso   1.000  H
  H37      1.0000 0.71378  0.95134  0.21024  Biso   1.000  H
  H38      1.0000 0.20477  0.74458  0.96190  Biso   1.000  H
  H39      1.0000 0.94759  0.25186  0.79366  Biso   1.000  H
  H40      1.0000 0.27069  0.01596  0.24381  Biso   1.000  H
  H41      1.0000 0.75026  0.77418  0.52996  Biso   1.000  H
  H42      1.0000 0.45182  0.17549  0.77739  Biso   1.000  H
  H43      1.0000 0.69686  0.51654  0.24663  Biso   1.000  H
  H44      1.0000 0.18815  0.30418  0.00187  Biso   1.000  H
  H45      1.0000 0.48022  0.67588  0.71981  Biso   1.000  H
  H46      1.0000 0.19128  0.51941  0.25010  Biso   1.000  H
  H47      1.0000 0.75432  0.22402  0.47722  Biso   1.000  H
  H48      1.0000 0.02225  0.69809  0.75480  Biso   1.000  H
  H49      1.0000 0.24444  0.45394  0.29129  Biso   1.000  H
  H50      1.0000 0.25985  0.23910  0.53150  Biso   1.000  H
  H51      1.0000 0.49285  0.22404  0.21775  Biso   1.000  H
  H52      1.0000 0.74020  0.43961  0.21529  Biso   1.000  H
  H53      1.0000 0.69461  0.17279  0.96939  Biso   1.000  H
  H54      1.0000 0.92688  0.27071  0.24613  Biso   1.000  H
  H55      1.0000 0.21700  0.96020  0.29338  Biso   1.000  H
  H56      1.0000 0.25570  0.68153  0.45504  Biso   1.000  H
  H57      1.0000 0.98943  0.76443  0.26663  Biso   1.000  H
  H58      1.0000 0.76544  0.01601  0.25485  Biso   1.000  H
  H59      1.0000 0.75755  0.67575  0.99260  Biso   1.000  H
  H60      1.0000 0.52508  0.72992  0.27651  Biso   1.000  H
  H61      1.0000 0.71098  0.51794  0.70217  Biso   1.000  H
  H62      1.0000 0.69922  0.72439  0.46725  Biso   1.000  H
  H63      1.0000 0.45261  0.74243  0.78187  Biso   1.000  H
  H64      1.0000 0.20693  0.45461  0.80145  Biso   1.000  H
  H65      1.0000 0.25411  0.79647  0.02366  Biso   1.000  H
  H66      1.0000 0.96613  0.75556  0.70587  Biso   1.000  H
  H67      1.0000 0.68760  0.99218  0.76099  Biso   1.000  H
  H68      1.0000 0.70195  0.27960  0.53220  Biso   1.000  H
  H69      1.0000 0.00985  0.20092  0.74991  Biso   1.000  H
  H70      1.0000 0.23097  0.95724  0.79709  Biso   1.000  H
  H71      1.0000 0.23134  0.24660  0.06321  Biso   1.000  H
  H72      1.0000 0.47358  0.24551  0.71669  Biso   1.000  H
  H73      1.0000 0.68480  0.46820  0.73038  Biso   1.000  H
  H74      1.0000 0.78301  0.74724  0.52720  Biso   1.000  H
  H75      1.0000 0.50491  0.71698  0.70629  Biso   1.000  H
  H76      1.0000 0.23479  0.50212  0.71901  Biso   1.000  H
  H77      1.0000 0.22912  0.71120  0.96964  Biso   1.000  H
  H78      1.0000 0.02425  0.72627  0.78861  Biso   1.000  H
  H79      1.0000 0.71610  0.00579  0.78535  Biso   1.000  H
  H80      1.0000 0.67461  0.25234  0.48496  Biso   1.000  H
  H81      1.0000 0.01182  0.27903  0.77204  Biso   1.000  H
  H82      1.0000 0.26997  0.00891  0.76759  Biso   1.000  H
  H83      1.0000 0.15432  0.27301  0.99941  Biso   1.000  H
  H84      1.0000 0.43667  0.26442  0.74870  Biso   1.000  H
  H85      1.0000 0.21827  0.52735  0.22739  Biso   1.000  H
  H86      1.0000 0.17595  0.20890  0.53306  Biso   1.000  H
  H87      1.0000 0.44210  0.25472  0.30077  Biso   1.000  H
  H88      1.0000 0.77417  0.50662  0.23046  Biso   1.000  H
  H89      1.0000 0.65940  0.19518  0.98425  Biso   1.000  H
  H90      1.0000 0.91396  0.24004  0.22024  Biso   1.000  H
  H91      1.0000 0.24213  0.01208  0.21209  Biso   1.000  H
  H92      1.0000 0.28798  0.71027  0.49758  Biso   1.000  H
  H93      1.0000 0.93257  0.73506  0.28633  Biso   1.000  H
  H94      1.0000 0.74192  0.01195  0.28553  Biso   1.000  H
  H95      1.0000 0.78808  0.69533  0.04091  Biso   1.000  H
  H96      1.0000 0.45076  0.74968  0.20153  Biso   1.000  H
  H97      1.0000 0.84465  0.97741  0.90859  Biso   1.000  H
  H98      1.0000 0.89421  0.83965  0.99945  Biso   1.000  H
  H99      1.0000 0.98602  0.89401  0.87148  Biso   1.000  H
  H100     1.0000 0.34415  0.97275  0.59706  Biso   1.000  H
  H101     1.0000 0.39426  0.85098  0.48793  Biso   1.000  H
  H102     1.0000 0.48431  0.88607  0.62990  Biso   1.000  H
  H103     1.0000 0.60865  0.48220  0.90678  Biso   1.000  H
  H104     1.0000 0.55065  0.33853  0.00508  Biso   1.000  H
  H105     1.0000 0.46836  0.38507  0.87375  Biso   1.000  H
  H106     1.0000 0.10722  0.47834  0.59600  Biso   1.000  H
  H107     1.0000 0.05966  0.34969  0.50921  Biso   1.000  H
  H108     1.0000 0.96574  0.39740  0.63470  Biso   1.000  H
  H109     1.0000 0.11034  0.99070  0.09711  Biso   1.000  H
  H110     1.0000 0.05162  0.12647  0.01695  Biso   1.000  H
  H111     1.0000 0.95835  0.06843  0.13772  Biso   1.000  H
  H112     1.0000 0.61565  0.99003  0.40752  Biso   1.000  H
  H113     1.0000 0.56415  0.11455  0.51534  Biso   1.000  H
  H114     1.0000 0.47237  0.07635  0.36999  Biso   1.000  H
  H115     1.0000 0.33866  0.49851  0.09573  Biso   1.000  H
  H116     1.0000 0.39839  0.63133  0.00861  Biso   1.000  H
  H117     1.0000 0.48031  0.57712  0.12772  Biso   1.000  H
  H118     1.0000 0.85029  0.48943  0.40604  Biso   1.000  H
  H119     1.0000 0.89861  0.61518  0.49391  Biso   1.000  H
  H120     1.0000 0.98377  0.57019  0.36469  Biso   1.000  H
  H121     1.0000 0.07068  0.00940  0.86981  Biso   1.000  H
  H122     1.0000 0.83657  0.06110  0.00270  Biso   1.000  H
  H123     1.0000 0.98543  0.84706  0.08948  Biso   1.000  H
  H124     1.0000 0.56704  0.99449  0.63062  Biso   1.000  H
  H125     1.0000 0.33966  0.07203  0.51136  Biso   1.000  H
  H126     1.0000 0.50111  0.85223  0.40307  Biso   1.000  H
  H127     1.0000 0.38134  0.48277  0.87884  Biso   1.000  H
  H128     1.0000 0.61532  0.55701  0.99751  Biso   1.000  H
  H129     1.0000 0.45211  0.35274  0.09686  Biso   1.000  H
  H130     1.0000 0.88388  0.47980  0.63426  Biso   1.000  H
  H131     1.0000 0.11680  0.57325  0.50149  Biso   1.000  H
  H132     1.0000 0.96785  0.34889  0.41642  Biso   1.000  H
  H133     1.0000 0.88411  0.96346  0.13074  Biso   1.000  H
  H134     1.0000 0.11548  0.90151  0.01036  Biso   1.000  H
  H135     1.0000 0.95505  0.11765  0.91319  Biso   1.000  H
  H136     1.0000 0.38993  0.98226  0.36827  Biso   1.000  H
  H137     1.0000 0.62033  0.89343  0.51241  Biso   1.000  H
  H138     1.0000 0.46456  0.11530  0.59482  Biso   1.000  H
  H139     1.0000 0.56952  0.47652  0.12454  Biso   1.000  H
  H140     1.0000 0.32832  0.40652  0.01419  Biso   1.000  H
  H141     1.0000 0.47866  0.61186  0.90176  Biso   1.000  H
  H142     1.0000 0.07164  0.47069  0.37072  Biso   1.000  H
  H143     1.0000 0.83596  0.39309  0.49961  Biso   1.000  H
  H144     1.0000 0.99033  0.62179  0.58787  Biso   1.000  H
  H145     1.0000 0.56510  0.48004  0.86625  Biso   1.000  H
  H146     1.0000 0.85425  0.57362  0.50924  Biso   1.000  H
  H147     1.0000 0.48064  0.84624  0.58493  Biso   1.000  H
  H148     1.0000 0.06487  0.48092  0.63691  Biso   1.000  H
  H149     1.0000 0.35073  0.59312  0.01013  Biso   1.000  H
  H150     1.0000 0.99189  0.85123  0.91058  Biso   1.000  H
  H151     1.0000 0.88712  0.97862  0.86878  Biso   1.000  H
  H152     1.0000 0.60411  0.07724  0.50024  Biso   1.000  H
  H153     1.0000 0.95392  0.34825  0.59575  Biso   1.000  H
  H154     1.0000 0.38772  0.97242  0.63606  Biso   1.000  H
  H155     1.0000 0.09596  0.08717  0.01932  Biso   1.000  H
  H156     1.0000 0.45817  0.34379  0.92228  Biso   1.000  H
  H157     1.0000 0.38408  0.49175  0.13480  Biso   1.000  H
  H158     1.0000 0.10165  0.38757  0.50733  Biso   1.000  H
  H159     1.0000 0.47410  0.11890  0.41792  Biso   1.000  H
  H160     1.0000 0.89007  0.48606  0.36420  Biso   1.000  H
  H161     1.0000 0.59554  0.37757  0.00145  Biso   1.000  H
  H162     1.0000 0.95819  0.11392  0.09562  Biso   1.000  H
  H163     1.0000 0.06921  0.98811  0.13459  Biso   1.000  H
  H164     1.0000 0.34996  0.88521  0.49576  Biso   1.000  H
  H165     1.0000 0.98201  0.61355  0.40370  Biso   1.000  H
  H166     1.0000 0.56853  0.99714  0.36561  Biso   1.000  H
  H167     1.0000 0.84863  0.87666  0.99601  Biso   1.000  H
  H168     1.0000 0.47766  0.61972  0.08463  Biso   1.000  H
  H169     1.0000 0.97085  0.07546  0.87396  Biso   1.000  H
  H170     1.0000 0.84136  0.96318  0.09214  Biso   1.000  H
  H171     1.0000 0.07747  0.85740  0.01139  Biso   1.000  H
  H172     1.0000 0.47274  0.06978  0.63627  Biso   1.000  H
  H173     1.0000 0.34865  0.97976  0.41328  Biso   1.000  H
  H174     1.0000 0.57899  0.85353  0.50828  Biso   1.000  H
  H175     1.0000 0.48106  0.56986  0.86360  Biso   1.000  H
  H176     1.0000 0.61229  0.46186  0.08660  Biso   1.000  H
  H177     1.0000 0.36527  0.36185  0.02327  Biso   1.000  H
  H178     1.0000 0.98323  0.58196  0.62944  Biso   1.000  H
  H179     1.0000 0.11340  0.46609  0.41136  Biso   1.000  H
  H180     1.0000 0.87578  0.35049  0.51253  Biso   1.000  H
  H181     1.0000 0.98935  0.88996  0.13652  Biso   1.000  H
  H182     1.0000 0.10753  0.00828  0.91115  Biso   1.000  H
  H183     1.0000 0.87417  0.11211  0.00841  Biso   1.000  H
  H184     1.0000 0.49696  0.89620  0.36262  Biso   1.000  H
  H185     1.0000 0.61233  0.99423  0.58309  Biso   1.000  H
  H186     1.0000 0.38143  0.11755  0.50402  Biso   1.000  H
  H187     1.0000 0.47419  0.39517  0.13201  Biso   1.000  H
  H188     1.0000 0.33831  0.49393  0.91986  Biso   1.000  H
  H189     1.0000 0.57978  0.60488  0.98927  Biso   1.000  H
  H190     1.0000 0.97289  0.38602  0.37421  Biso   1.000  H
  H191     1.0000 0.84396  0.48254  0.59150  Biso   1.000  H
  H192     1.0000 0.07740  0.62021  0.50203  Biso   1.000  H
  H193     1.0000 0.25541  0.82722  0.49188  Biso   1.000  H
  H194     1.0000 0.44863  0.24627  0.86913  Biso   1.000  H
  H195     1.0000 0.83955  0.47418  0.26859  Biso   1.000  H
  H196     1.0000 0.75703  0.81791  0.01966  Biso   1.000  H
  H197     1.0000 0.98145  0.25917  0.65612  Biso   1.000  H
  H198     1.0000 0.34279  0.49803  0.23592  Biso   1.000  H
  H199     1.0000 0.19770  0.33025  0.52082  Biso   1.000  H
  H200     1.0000 0.99819  0.75544  0.85775  Biso   1.000  H
  H201     1.0000 0.62109  0.99928  0.26848  Biso   1.000  H
  H202     1.0000 0.68405  0.31256  0.99302  Biso   1.000  H
  H203     1.0000 0.46887  0.74865  0.63396  Biso   1.000  H
  H204     1.0000 0.11755  0.99809  0.23523  Biso   1.000  H
  H205     1.0000 0.69878  0.13405  0.48684  Biso   1.000  H
  H206     1.0000 0.48324  0.71673  0.13430  Biso   1.000  H
  H207     1.0000 0.11804  0.47244  0.73371  Biso   1.000  H
  H208     1.0000 0.19041  0.14804  0.01192  Biso   1.000  H
  H209     1.0000 0.98622  0.71068  0.34902  Biso   1.000  H
  H210     1.0000 0.61035  0.48686  0.76704  Biso   1.000  H
  H211     1.0000 0.75991  0.63146  0.52455  Biso   1.000  H
  H212     1.0000 0.93912  0.20983  0.14802  Biso   1.000  H
  H213     1.0000 0.34064  0.96740  0.73477  Biso   1.000  H
  H214     1.0000 0.26110  0.65516  0.01040  Biso   1.000  H
  H215     1.0000 0.47547  0.22119  0.37213  Biso   1.000  H
  H216     1.0000 0.83362  0.97665  0.77066  Biso   1.000  H
  H217     1.0000 0.21315  0.47419  0.36628  Biso   1.000  H
  H218     1.0000 0.32041  0.20791  0.49080  Biso   1.000  H
  H219     1.0000 0.48145  0.34630  0.23274  Biso   1.000  H
  H220     1.0000 0.71039  0.45827  0.13699  Biso   1.000  H
  H221     1.0000 0.80647  0.19912  0.99796  Biso   1.000  H
  H222     1.0000 0.96490  0.33211  0.27917  Biso   1.000  H
  H223     1.0000 0.24935  0.98840  0.36502  Biso   1.000  H
  H224     1.0000 0.13737  0.70687  0.47565  Biso   1.000  H
  H225     1.0000 0.97618  0.83400  0.23056  Biso   1.000  H
  H226     1.0000 0.74445  0.97216  0.14073  Biso   1.000  H
  H227     1.0000 0.64092  0.69681  0.00630  Biso   1.000  H
  H228     1.0000 0.49274  0.84726  0.26447  Biso   1.000  H
  H229     1.0000 0.74633  0.47313  0.64170  Biso   1.000  H
  H230     1.0000 0.63113  0.75501  0.50028  Biso   1.000  H
  H231     1.0000 0.45525  0.61438  0.76753  Biso   1.000  H
  H232     1.0000 0.23879  0.49925  0.86546  Biso   1.000  H
  H233     1.0000 0.14290  0.76945  0.01135  Biso   1.000  H
  H234     1.0000 0.97628  0.63765  0.72282  Biso   1.000  H
  H235     1.0000 0.71094  0.00694  0.63587  Biso   1.000  H
  H236     1.0000 0.81953  0.25607  0.51604  Biso   1.000  H
  H237     1.0000 0.97106  0.12962  0.77668  Biso   1.000  H
  H238     1.0000 0.20613  0.00876  0.86142  Biso   1.000  H
  H239     1.0000 0.30418  0.27099  0.03087  Biso   1.000  H
  H240     1.0000 0.48268  0.12149  0.73533  Biso   1.000  H
  H241     1.0000 0.70226  0.47091  0.85207  Biso   1.000  H
  H242     1.0000 0.84463  0.71132  0.50334  Biso   1.000  H
  H243     1.0000 0.46503  0.83264  0.72270  Biso   1.000  H
  H244     1.0000 0.20573  0.47541  0.64664  Biso   1.000  H
  H245     1.0000 0.35116  0.72988  0.98758  Biso   1.000  H
  H246     1.0000 0.97267  0.84323  0.77465  Biso   1.000  H
  H247     1.0000 0.74555  0.97004  0.85149  Biso   1.000  H
  H248     1.0000 0.61648  0.21386  0.52401  Biso   1.000  H
  H249     1.0000 0.97682  0.34971  0.73715  Biso   1.000  H
  H250     1.0000 0.24843  0.96860  0.65232  Biso   1.000  H
  H251     1.0000 0.09594  0.22575  0.01715  Biso   1.000  H
  H252     1.0000 0.47653  0.32601  0.78254  Biso   1.000  H
  H253     1.0000 0.24686  0.50657  0.15628  Biso   1.000  H
  H254     1.0000 0.10825  0.24904  0.51214  Biso   1.000  H
  H255     1.0000 0.45861  0.13865  0.28259  Biso   1.000  H
  H256     1.0000 0.75449  0.49406  0.35168  Biso   1.000  H
  H257     1.0000 0.58872  0.23509  0.99952  Biso   1.000  H
  H258     1.0000 0.95431  0.12359  0.23358  Biso   1.000  H
  H259     1.0000 0.20800  0.99322  0.14859  Biso   1.000  H
  H260     1.0000 0.34842  0.75070  0.46101  Biso   1.000  H
  H261     1.0000 0.98005  0.61760  0.26393  Biso   1.000  H
  H262     1.0000 0.71023  0.97389  0.35064  Biso   1.000  H
  H263     1.0000 0.85205  0.73686  0.01489  Biso   1.000  H
  H264     1.0000 0.48308  0.63468  0.22162  Biso   1.000  H
  H265     1.0000 0.97534  0.21362  0.86020  Biso   1.000  H
  H266     1.0000 0.82939  0.97472  0.22589  Biso   1.000  H
  H267     1.0000 0.22009  0.86325  0.00325  Biso   1.000  H
  H268     1.0000 0.44656  0.20561  0.65393  Biso   1.000  H
  H269     1.0000 0.32873  0.98379  0.27791  Biso   1.000  H
  H270     1.0000 0.71831  0.84758  0.49164  Biso   1.000  H
  H271     1.0000 0.48517  0.70784  0.84377  Biso   1.000  H
  H272     1.0000 0.62431  0.48966  0.22292  Biso   1.000  H
  H273     1.0000 0.22774  0.36622  0.03230  Biso   1.000  H
  H274     1.0000 0.99955  0.72018  0.63590  Biso   1.000  H
  H275     1.0000 0.12845  0.47390  0.27732  Biso   1.000  H
  H276     1.0000 0.73832  0.34336  0.49889  Biso   1.000  H
  H277     1.0000 0.97931  0.75151  0.14349  Biso   1.000  H
  H278     1.0000 0.12232  0.99886  0.77373  Biso   1.000  H
  H279     1.0000 0.73317  0.10411  0.00565  Biso   1.000  H
  H280     1.0000 0.48927  0.75909  0.34542  Biso   1.000  H
  H281     1.0000 0.62843  0.96930  0.71938  Biso   1.000  H
  H282     1.0000 0.24036  0.11646  0.49699  Biso   1.000  H
  H283     1.0000 0.44531  0.25908  0.15476  Biso   1.000  H
  H284     1.0000 0.32324  0.47023  0.78203  Biso   1.000  H
  H285     1.0000 0.71713  0.59830  0.02071  Biso   1.000  H
  H286     1.0000 0.94836  0.25106  0.36881  Biso   1.000  H
  H287     1.0000 0.82754  0.48974  0.72795  Biso   1.000  H
  H288     1.0000 0.21734  0.62167  0.49393  Biso   1.000  H
  H289     1.0000 0.04151  0.22278  0.01656  Biso   1.000  H
  H290     1.0000 0.95966  0.07249  0.23420  Biso   1.000  H
  H291     1.0000 0.20435  0.99696  0.09331  Biso   1.000  H
  H292     1.0000 0.56118  0.20966  0.53302  Biso   1.000  H
  H293     1.0000 0.45218  0.08428  0.28020  Biso   1.000  H
  H294     1.0000 0.70984  0.97121  0.40612  Biso   1.000  H
  H295     1.0000 0.40728  0.72394  0.98838  Biso   1.000  H
  H296     1.0000 0.47634  0.58056  0.22265  Biso   1.000  H
  H297     1.0000 0.24505  0.51029  0.10071  Biso   1.000  H
  H298     1.0000 0.89617  0.71169  0.49505  Biso   1.000  H
  H299     1.0000 0.98058  0.56729  0.26824  Biso   1.000  H
  H300     1.0000 0.75486  0.50062  0.40703  Biso   1.000  H
  H301     1.0000 0.90205  0.74207  0.00178  Biso   1.000  H
  H302     1.0000 0.96858  0.89440  0.77677  Biso   1.000  H
  H303     1.0000 0.74749  0.96547  0.91021  Biso   1.000  H
  H304     1.0000 0.40582  0.75971  0.46087  Biso   1.000  H
  H305     1.0000 0.46696  0.88553  0.72323  Biso   1.000  H
  H306     1.0000 0.24784  0.96797  0.60017  Biso   1.000  H
  H307     1.0000 0.53769  0.24372  0.00419  Biso   1.000  H
  H308     1.0000 0.47547  0.37963  0.77783  Biso   1.000  H
  H309     1.0000 0.70337  0.47106  0.90725  Biso   1.000  H
  H310     1.0000 0.05425  0.25436  0.50843  Biso   1.000  H
  H311     1.0000 0.97177  0.40530  0.72975  Biso   1.000  H
  H312     1.0000 0.20096  0.47310  0.59278  Biso   1.000  H
  H313     1.0000 0.20427  0.00275  0.91738  Biso   1.000  H
  H314     1.0000 0.86155  0.20776  0.00448  Biso   1.000  H
  H315     1.0000 0.98200  0.89176  0.22887  Biso   1.000  H
  H316     1.0000 0.70537  0.01135  0.58078  Biso   1.000  H
  H317     1.0000 0.37456  0.21050  0.48377  Biso   1.000  H
  H318     1.0000 0.49006  0.90419  0.26953  Biso   1.000  H
  H319     1.0000 0.24145  0.50695  0.91912  Biso   1.000  H
  H320     1.0000 0.58732  0.70027  0.99629  Biso   1.000  H
  H321     1.0000 0.48734  0.40349  0.22431  Biso   1.000  H
  H322     1.0000 0.74813  0.46943  0.58378  Biso   1.000  H
  H323     1.0000 0.08387  0.71324  0.48541  Biso   1.000  H
  H324     1.0000 0.97462  0.38638  0.27829  Biso   1.000  H
  H325     1.0000 0.74751  0.97332  0.08471  Biso   1.000  H
  H326     1.0000 0.08988  0.76272  0.01501  Biso   1.000  H
  H327     1.0000 0.97524  0.07820  0.77549  Biso   1.000  H
  H328     1.0000 0.25238  0.98800  0.41888  Biso   1.000  H
  H329     1.0000 0.57711  0.75882  0.50730  Biso   1.000  H
  H330     1.0000 0.49186  0.06841  0.73323  Biso   1.000  H
  H331     1.0000 0.70535  0.44803  0.08665  Biso   1.000  H
  H332     1.0000 0.35809  0.26579  0.02306  Biso   1.000  H
  H333     1.0000 0.45620  0.55938  0.77326  Biso   1.000  H
  H334     1.0000 0.20800  0.47305  0.41792  Biso   1.000  H
  H335     1.0000 0.87364  0.25668  0.52141  Biso   1.000  H
  H336     1.0000 0.97373  0.58651  0.72672  Biso   1.000  H
  H337     1.0000 0.96629  0.21447  0.91465  Biso   1.000  H
  H338     1.0000 0.88349  0.97400  0.22428  Biso   1.000  H
  H339     1.0000 0.21101  0.91548  0.99582  Biso   1.000  H
  H340     1.0000 0.43473  0.20549  0.60095  Biso   1.000  H
  H341     1.0000 0.38106  0.97882  0.27204  Biso   1.000  H
  H342     1.0000 0.71386  0.90010  0.49346  Biso   1.000  H
  H343     1.0000 0.49700  0.70728  0.89562  Biso   1.000  H
  H344     1.0000 0.56914  0.50327  0.21409  Biso   1.000  H
  H345     1.0000 0.23411  0.41929  0.02986  Biso   1.000  H
  H346     1.0000 0.00139  0.71564  0.58293  Biso   1.000  H
  H347     1.0000 0.07466  0.47517  0.27574  Biso   1.000  H
  H348     1.0000 0.74025  0.39949  0.49228  Biso   1.000  H
  H349     1.0000 0.98130  0.75047  0.09138  Biso   1.000  H
  H350     1.0000 0.06906  0.99266  0.77543  Biso   1.000  H
  H351     1.0000 0.74165  0.04889  0.99833  Biso   1.000  H
  H352     1.0000 0.49176  0.75658  0.40066  Biso   1.000  H
  H353     1.0000 0.57216  0.96943  0.72054  Biso   1.000  H
  H354     1.0000 0.24307  0.06418  0.50467  Biso   1.000  H
  H355     1.0000 0.43080  0.26160  0.09877  Biso   1.000  H
  H356     1.0000 0.37628  0.46798  0.78180  Biso   1.000  H
  H357     1.0000 0.71114  0.54463  0.01392  Biso   1.000  H
  H358     1.0000 0.94980  0.25216  0.42129  Biso   1.000  H
  H359     1.0000 0.87882  0.49746  0.72895  Biso   1.000  H
  H360     1.0000 0.21651  0.56764  0.49992  Biso   1.000  H
  H361     1.0000 0.98824  0.70969  0.40042  Biso   1.000  H
  H362     1.0000 0.39411  0.97315  0.73358  Biso   1.000  H
  H363     1.0000 0.68891  0.36805  0.99330  Biso   1.000  H
  H364     1.0000 0.48709  0.71608  0.08042  Biso   1.000  H
  H365     1.0000 0.88807  0.97977  0.77385  Biso   1.000  H
  H366     1.0000 0.19832  0.38391  0.51239  Biso   1.000  H
  H367     1.0000 0.48077  0.21472  0.42390  Biso   1.000  H
  H368     1.0000 0.06465  0.48329  0.73155  Biso   1.000  H
  H369     1.0000 0.75296  0.86997  0.00826  Biso   1.000  H
  H370     1.0000 0.93568  0.21043  0.09726  Biso   1.000  H
  H371     1.0000 0.55649  0.48299  0.77111  Biso   1.000  H
  H372     1.0000 0.25271  0.88258  0.50238  Biso   1.000  H
  H373     1.0000 0.97855  0.25762  0.60286  Biso   1.000  H
  H374     1.0000 0.56592  0.00043  0.27183  Biso   1.000  H
  H375     1.0000 0.25464  0.60085  0.01768  Biso   1.000  H
  H376     1.0000 0.44765  0.24871  0.92356  Biso   1.000  H
  H377     1.0000 0.06501  0.99672  0.22936  Biso   1.000  H
  H378     1.0000 0.75712  0.57786  0.52176  Biso   1.000  H
  H379     1.0000 0.47111  0.74953  0.58060  Biso   1.000  H
  H380     1.0000 0.89316  0.47881  0.26857  Biso   1.000  H
  H381     1.0000 0.19222  0.09494  0.00897  Biso   1.000  H
  H382     1.0000 0.00535  0.75562  0.90928  Biso   1.000  H
  H383     1.0000 0.39468  0.48996  0.22999  Biso   1.000  H
  H384     1.0000 0.69950  0.07920  0.48142  Biso   1.000  H
  H385     1.0000 0.15346  0.51343  0.28545  Biso   1.000  H
  H386     1.0000 0.24068  0.15095  0.47213  Biso   1.000  H
  H387     1.0000 0.44059  0.31862  0.23661  Biso   1.000  H
  H388     1.0000 0.66106  0.51394  0.21006  Biso   1.000  H
  H389     1.0000 0.77589  0.18499  0.03893  Biso   1.000  H
  H390     1.0000 0.97999  0.24520  0.33749  Biso   1.000  H
  H391     1.0000 0.30411  0.01951  0.28001  Biso   1.000  H
  H392     1.0000 0.16812  0.70295  0.51481  Biso   1.000  H
  H393     1.0000 0.94508  0.75741  0.16947  Biso   1.000  H
  H394     1.0000 0.75026  0.94442  0.17337  Biso   1.000  H
  H395     1.0000 0.66333  0.68217  0.04489  Biso   1.000  H
  H396     1.0000 0.45511  0.81291  0.26525  Biso   1.000  H
  H397     1.0000 0.79995  0.45696  0.72550  Biso   1.000  H
  H398     1.0000 0.71286  0.81449  0.52998  Biso   1.000  H
  H399     1.0000 0.48402  0.64192  0.75755  Biso   1.000  H
  H400     1.0000 0.29843  0.51011  0.77925  Biso   1.000  H
  H401     1.0000 0.16507  0.78004  0.96337  Biso   1.000  H
  H402     1.0000 0.01812  0.66065  0.72037  Biso   1.000  H
  H403     1.0000 0.71180  0.96855  0.66030  Biso   1.000  H
  H404     1.0000 0.79212  0.26375  0.47393  Biso   1.000  H
  H405     1.0000 0.94241  0.21157  0.83141  Biso   1.000  H
  H406     1.0000 0.15539  0.02993  0.77230  Biso   1.000  H
  H407     1.0000 0.22650  0.33741  0.00552  Biso   1.000  H
  H408     1.0000 0.45284  0.14123  0.73747  Biso   1.000  H
  H409     1.0000 0.25530  0.53396  0.19067  Biso   1.000  H
  H410     1.0000 0.13980  0.24610  0.53877  Biso   1.000  H
  H411     1.0000 0.44491  0.22653  0.33979  Biso   1.000  H
  H412     1.0000 0.81169  0.50502  0.26514  Biso   1.000  H
  H413     1.0000 0.62127  0.23075  0.98140  Biso   1.000  H
  H414     1.0000 0.91382  0.20064  0.18413  Biso   1.000  H
  H415     1.0000 0.20194  0.02094  0.17983  Biso   1.000  H
  H416     1.0000 0.32244  0.74899  0.49502  Biso   1.000  H
  H417     1.0000 0.94649  0.70182  0.32421  Biso   1.000  H
  H418     1.0000 0.70518  0.01243  0.32176  Biso   1.000  H
  H419     1.0000 0.82285  0.73660  0.04066  Biso   1.000  H
  H420     1.0000 0.45206  0.71260  0.16514  Biso   1.000  H
  H421     1.0000 0.64542  0.45875  0.76347  Biso   1.000  H
  H422     1.0000 0.81413  0.71056  0.53252  Biso   1.000  H
  H423     1.0000 0.50681  0.75292  0.66783  Biso   1.000  H
  H424     1.0000 0.20071  0.50317  0.68016  Biso   1.000  H
  H425     1.0000 0.26984  0.67448  0.97025  Biso   1.000  H
  H426     1.0000 0.02568  0.76349  0.82378  Biso   1.000  H
  H427     1.0000 0.75222  0.00498  0.82253  Biso   1.000  H
  H428     1.0000 0.63744  0.21497  0.48277  Biso   1.000  H
  H429     1.0000 0.00553  0.31944  0.73604  Biso   1.000  H
  H430     1.0000 0.30984  0.00314  0.73370  Biso   1.000  H
  H431     1.0000 0.12243  0.22936  0.98801  Biso   1.000  H
  H432     1.0000 0.43724  0.30375  0.78757  Biso   1.000  H
  H433     1.0000 0.25109  0.94580  0.68388  Biso   1.000  H
  H434     1.0000 0.68155  0.28913  0.02867  Biso   1.000  H
  H435     1.0000 0.00364  0.65395  0.26173  Biso   1.000  H
  H436     1.0000 0.80591  0.94090  0.77546  Biso   1.000  H
  H437     1.0000 0.19022  0.30138  0.48179  Biso   1.000  H
  H438     1.0000 0.51652  0.66204  0.21527  Biso   1.000  H
  H439     1.0000 0.14589  0.44273  0.73254  Biso   1.000  H
  H440     1.0000 0.75779  0.78769  0.98951  Biso   1.000  H
  H441     1.0000 0.49705  0.16428  0.28813  Biso   1.000  H
  H442     1.0000 0.70158  0.50776  0.82805  Biso   1.000  H
  H443     1.0000 0.25724  0.80412  0.45172  Biso   1.000  H
  H444     1.0000 0.98344  0.15416  0.23213  Biso   1.000  H
  H445     1.0000 0.64503  0.96152  0.26645  Biso   1.000  H
  H446     1.0000 0.32151  0.73130  0.02251  Biso   1.000  H
  H447     1.0000 0.94568  0.26281  0.68746  Biso   1.000  H
  H448     1.0000 0.14836  0.96021  0.23094  Biso   1.000  H
  H449     1.0000 0.75795  0.65253  0.48420  Biso   1.000  H
  H450     1.0000 0.48767  0.24566  0.84283  Biso   1.000  H
  H451     1.0000 0.75300  0.45757  0.32394  Biso   1.000  H
  H452     1.0000 0.17742  0.17443  0.04642  Biso   1.000  H
  H453     1.0000 0.42931  0.79642  0.71115  Biso   1.000  H
  H454     1.0000 0.31073  0.46707  0.23003  Biso   1.000  H
  H455     1.0000 0.70103  0.15537  0.52426  Biso   1.000  H
  H456     1.0000 0.95326  0.80699  0.78031  Biso   1.000  H
  H457     1.0000 0.66064  0.76303  0.46748  Biso   1.000  H
  H458     1.0000 0.45486  0.70910  0.81891  Biso   1.000  H
  H459     1.0000 0.74782  0.50770  0.66691  Biso   1.000  H
  H460     1.0000 0.21560  0.82980  0.02922  Biso   1.000  H
  H461     1.0000 0.96056  0.71754  0.66765  Biso   1.000  H
  H462     1.0000 0.23943  0.46050  0.83963  Biso   1.000  H
  H463     1.0000 0.74094  0.31512  0.53496  Biso   1.000  H
  H464     1.0000 0.00133  0.15737  0.77831  Biso   1.000  H
  H465     1.0000 0.65389  0.00632  0.72455  Biso   1.000  H
  H466     1.0000 0.27368  0.27954  0.06420  Biso   1.000  H
  H467     1.0000 0.47700  0.21390  0.67914  Biso   1.000  H
  H468     1.0000 0.19860  0.97101  0.83395  Biso   1.000  H
  H469     1.0000 0.29916  0.20548  0.52476  Biso   1.000  H
  H470     1.0000 0.48634  0.25855  0.17781  Biso   1.000  H
  H471     1.0000 0.21270  0.44991  0.32990  Biso   1.000  H
  H472     1.0000 0.73217  0.13535  0.97157  Biso   1.000  H
  H473     1.0000 0.92947  0.30620  0.28579  Biso   1.000  H
  H474     1.0000 0.70618  0.43349  0.17673  Biso   1.000  H
  H475     1.0000 0.21783  0.64653  0.45639  Biso   1.000  H
  H476     1.0000 0.00286  0.80263  0.23185  Biso   1.000  H
  H477     1.0000 0.25428  0.95377  0.32955  Biso   1.000  H
  H478     1.0000 0.72400  0.63328  0.98791  Biso   1.000  H
  H479     1.0000 0.52648  0.76631  0.31418  Biso   1.000  H
  H480     1.0000 0.80125  0.01192  0.22127  Biso   1.000  H
  N1       1.0000 0.64703  0.16130  0.50615  Biso   1.000  N
  N2       1.0000 0.48341  0.66646  0.16536  Biso   1.000  N
  N3       1.0000 0.14979  0.47253  0.68165  Biso   1.000  N
  N4       1.0000 0.13223  0.17644  0.01510  Biso   1.000  N
  N5       1.0000 0.97791  0.65564  0.31853  Biso   1.000  N
  N6       1.0000 0.64903  0.48154  0.82173  Biso   1.000  N
  N7       1.0000 0.81192  0.66013  0.50816  Biso   1.000  N
  N8       1.0000 0.95255  0.15649  0.18177  Biso   1.000  N
  N9       1.0000 0.30329  0.97280  0.68362  Biso   1.000  N
  N10      1.0000 0.31612  0.67921  0.99783  Biso   1.000  N
  N11      1.0000 0.46913  0.16825  0.33547  Biso   1.000  N
  N12      1.0000 0.80135  0.97205  0.82325  Biso   1.000  N
  N13      1.0000 0.31214  0.79992  0.47628  Biso   1.000  N
  N14      1.0000 0.46224  0.29765  0.83623  Biso   1.000  N
  N15      1.0000 0.80651  0.48281  0.31993  Biso   1.000  N
  N16      1.0000 0.81353  0.78866  0.01409  Biso   1.000  N
  N17      1.0000 0.97550  0.31400  0.68469  Biso   1.000  N
  N18      1.0000 0.30348  0.50373  0.18422  Biso   1.000  N
  N19      1.0000 0.14274  0.29919  0.51489  Biso   1.000  N
  N20      1.0000 0.98895  0.80998  0.82527  Biso   1.000  N
  N21      1.0000 0.65419  0.98621  0.32122  Biso   1.000  N
  N22      1.0000 0.63073  0.28576  0.00444  Biso   1.000  N
  N23      1.0000 0.46658  0.79922  0.66671  Biso   1.000  N
  N24      1.0000 0.15259  0.99147  0.18166  Biso   1.000  N
  N25      1.0000 0.79696  0.48037  0.67376  Biso   1.000  N
  N26      1.0000 0.66427  0.81156  0.49896  Biso   1.000  N
  N27      1.0000 0.47099  0.65180  0.81490  Biso   1.000  N
  N28      1.0000 0.29310  0.48643  0.83298  Biso   1.000  N
  N29      1.0000 0.16604  0.82592  0.00249  Biso   1.000  N
  N30      1.0000 0.98763  0.66596  0.66977  Biso   1.000  N
  N31      1.0000 0.65857  0.99218  0.66870  Biso   1.000  N
  N32      1.0000 0.79052  0.31189  0.50735  Biso   1.000  N
  N33      1.0000 0.96982  0.16324  0.82938  Biso   1.000  N
  N34      1.0000 0.15424  0.00260  0.82715  Biso   1.000  N
  N35      1.0000 0.27765  0.32723  0.03126  Biso   1.000  N
  N36      1.0000 0.46644  0.15341  0.68297  Biso   1.000  N
  N37      1.0000 0.15852  0.47545  0.33004  Biso   1.000  N
  N38      1.0000 0.29299  0.15366  0.49843  Biso   1.000  N
  N39      1.0000 0.46140  0.31219  0.18234  Biso   1.000  N
  N40      1.0000 0.65684  0.47114  0.17128  Biso   1.000  N
  N41      1.0000 0.78100  0.14071  0.00434  Biso   1.000  N
  N42      1.0000 0.95753  0.30089  0.33441  Biso   1.000  N
  N43      1.0000 0.30200  0.98591  0.33173  Biso   1.000  N
  N44      1.0000 0.16566  0.65379  0.48539  Biso   1.000  N
  N45      1.0000 0.98248  0.80362  0.17551  Biso   1.000  N
  N46      1.0000 0.79856  0.97347  0.17293  Biso   1.000  N
  N47      1.0000 0.66821  0.63784  0.01074  Biso   1.000  N
  N48      1.0000 0.49247  0.81271  0.31535  Biso   1.000  N
  O1       1.0000 0.31856  0.54464  0.00440  Biso   1.000  O
  O2       1.0000 0.96814  0.32720  0.55109  Biso   1.000  O
  O3       1.0000 0.51754  0.99047  0.34225  Biso   1.000  O
  O4       1.0000 0.82574  0.52517  0.50653  Biso   1.000  O
  O5       1.0000 0.45679  0.32524  0.96837  Biso   1.000  O
  O6       1.0000 0.01690  0.98962  0.15638  Biso   1.000  O
  O7       1.0000 0.12663  0.04182  0.00712  Biso   1.000  O
  O8       1.0000 0.48349  0.82533  0.53712  Biso   1.000  O
  O9       1.0000 0.93935  0.48810  0.34385  Biso   1.000  O
  O10      1.0000 0.62888  0.02737  0.49200  Biso   1.000  O
  O11      1.0000 0.98749  0.82769  0.95896  Biso   1.000  O
  O12      1.0000 0.43795  0.49188  0.15543  Biso   1.000  O
  O13      1.0000 0.62348  0.42355  0.99511  Biso   1.000  O
  O14      1.0000 0.99327  0.64028  0.45281  Biso   1.000  O
  O15      1.0000 0.43691  0.97925  0.65628  Biso   1.000  O
  O16      1.0000 0.13039  0.43778  0.50378  Biso   1.000  O
  O17      1.0000 0.49155  0.64031  0.03349  Biso   1.000  O
  O18      1.0000 0.93462  0.97819  0.84630  Biso   1.000  O
  O19      1.0000 0.82131  0.92560  0.99759  Biso   1.000  O
  O20      1.0000 0.47984  0.14243  0.46808  Biso   1.000  O
  O21      1.0000 0.01630  0.48887  0.65898  Biso   1.000  O
  O22      1.0000 0.32382  0.93471  0.50364  Biso   1.000  O
  O23      1.0000 0.95554  0.13996  0.04433  Biso   1.000  O
  O24      1.0000 0.51337  0.47441  0.84509  Biso   1.000  O
  O25      1.0000 0.93385  0.97509  0.15514  Biso   1.000  O
  O26      1.0000 0.13288  0.95621  0.00451  Biso   1.000  O
  O27      1.0000 0.96192  0.14321  0.96297  Biso   1.000  O
  O28      1.0000 0.43517  0.98342  0.34186  Biso   1.000  O
  O29      1.0000 0.63901  0.94455  0.49967  Biso   1.000  O
  O30      1.0000 0.45853  0.14005  0.54934  Biso   1.000  O
  O31      1.0000 0.52007  0.48803  0.14807  Biso   1.000  O
  O32      1.0000 0.31078  0.46036  0.01057  Biso   1.000  O
  O33      1.0000 0.48924  0.63699  0.94922  Biso   1.000  O
  O34      1.0000 0.02298  0.47385  0.34600  Biso   1.000  O
  O35      1.0000 0.81926  0.44058  0.49055  Biso   1.000  O
  O36      1.0000 0.98863  0.64218  0.53694  Biso   1.000  O
  O37      1.0000 0.01970  0.98893  0.84835  Biso   1.000  O
  O38      1.0000 0.81618  0.00855  0.99972  Biso   1.000  O
  O39      1.0000 0.98571  0.82452  0.04169  Biso   1.000  O
  O40      1.0000 0.52228  0.97932  0.65587  Biso   1.000  O
  O41      1.0000 0.31957  0.02047  0.51185  Biso   1.000  O
  O42      1.0000 0.49295  0.82771  0.45024  Biso   1.000  O
  O43      1.0000 0.43202  0.47431  0.84889  Biso   1.000  O
  O44      1.0000 0.63176  0.50536  0.00120  Biso   1.000  O
  O45      1.0000 0.45511  0.32519  0.05062  Biso   1.000  O
  O46      1.0000 0.93163  0.48947  0.65777  Biso   1.000  O
  O47      1.0000 0.13789  0.52108  0.50370  Biso   1.000  O
  O48      1.0000 0.96539  0.32598  0.46680  Biso   1.000  O
  O49      1.0000 0.98235  0.93859  0.15944  Biso   1.000  O
  O50      1.0000 0.12802  0.00239  0.96131  Biso   1.000  O
  O51      1.0000 0.91767  0.14131  0.99793  Biso   1.000  O
  O52      1.0000 0.47905  0.94722  0.34200  Biso   1.000  O
  O53      1.0000 0.63135  0.99211  0.53687  Biso   1.000  O
  O54      1.0000 0.42801  0.14160  0.49712  Biso   1.000  O
  O55      1.0000 0.48132  0.44730  0.14989  Biso   1.000  O
  O56      1.0000 0.30928  0.50019  0.96791  Biso   1.000  O
  O57      1.0000 0.53204  0.63236  0.99231  Biso   1.000  O
  O58      1.0000 0.97689  0.43686  0.34845  Biso   1.000  O
  O59      1.0000 0.82251  0.47313  0.53928  Biso   1.000  O
  O60      1.0000 0.03066  0.64485  0.49634  Biso   1.000  O
  O61      1.0000 0.97631  0.02670  0.84837  Biso   1.000  O
  O62      1.0000 0.81841  0.96585  0.04066  Biso   1.000  O
  O63      1.0000 0.02928  0.82911  0.00437  Biso   1.000  O
  O64      1.0000 0.48031  0.01934  0.65843  Biso   1.000  O
  O65      1.0000 0.32429  0.97982  0.46419  Biso   1.000  O
  O66      1.0000 0.52881  0.82866  0.49691  Biso   1.000  O
  O67      1.0000 0.46972  0.51850  0.84635  Biso   1.000  O
  O68      1.0000 0.63170  0.45862  0.03787  Biso   1.000  O
  O69      1.0000 0.41198  0.33154  0.01021  Biso   1.000  O
  O70      1.0000 0.97196  0.53341  0.65295  Biso   1.000  O
  O71      1.0000 0.13369  0.47606  0.46054  Biso   1.000  O
  O72      1.0000 0.92380  0.32722  0.50600  Biso   1.000  O
  O73      1.0000 0.97244  0.44633  0.65643  Biso   1.000  O
  O74      1.0000 0.63709  0.98144  0.45253  Biso   1.000  O
  O75      1.0000 0.44619  0.64602  0.99261  Biso   1.000  O
  O76      1.0000 0.47310  0.43245  0.84962  Biso   1.000  O
  O77      1.0000 0.13109  0.99849  0.04755  Biso   1.000  O
  O78      1.0000 0.94637  0.63879  0.49373  Biso   1.000  O
  O79      1.0000 0.47780  0.93632  0.65450  Biso   1.000  O
  O80      1.0000 0.82914  0.48711  0.45494  Biso   1.000  O
  O81      1.0000 0.00159  0.14516  0.00820  Biso   1.000  O
  O82      1.0000 0.98148  0.94326  0.84920  Biso   1.000  O
  O83      1.0000 0.31415  0.50383  0.04992  Biso   1.000  O
  O84      1.0000 0.51132  0.14051  0.52070  Biso   1.000  O
  O85      1.0000 0.98504  0.52127  0.34147  Biso   1.000  O
  O86      1.0000 0.31928  0.97344  0.55047  Biso   1.000  O
  O87      1.0000 0.49773  0.31993  0.00953  Biso   1.000  O
  O88      1.0000 0.47969  0.53065  0.14994  Biso   1.000  O
  O89      1.0000 0.81958  0.96778  0.95710  Biso   1.000  O
  O90      1.0000 0.00858  0.32638  0.50892  Biso   1.000  O
  O91      1.0000 0.47201  0.03120  0.34490  Biso   1.000  O
  O92      1.0000 0.12748  0.47810  0.54482  Biso   1.000  O
  O93      1.0000 0.94601  0.82077  0.00256  Biso   1.000  O
  O94      1.0000 0.97018  0.02213  0.16147  Biso   1.000  O
  O95      1.0000 0.63309  0.47217  0.95688  Biso   1.000  O
  O96      1.0000 0.44624  0.82910  0.48859  Biso   1.000  O
  O97      1.0000 0.42899  0.19032  0.49846  Biso   1.000  O
  O98      1.0000 0.48322  0.44778  0.19735  Biso   1.000  O
  O99      1.0000 0.18304  0.47672  0.46511  Biso   1.000  O
  O100     1.0000 0.91389  0.18932  0.00144  Biso   1.000  O
  O101     1.0000 0.98222  0.43426  0.29980  Biso   1.000  O
  O102     1.0000 0.68010  0.45249  0.03657  Biso   1.000  O
  O103     1.0000 0.02852  0.69267  0.49084  Biso   1.000  O
  O104     1.0000 0.98219  0.93771  0.20704  Biso   1.000  O
  O105     1.0000 0.27385  0.97130  0.46338  Biso   1.000  O
  O106     1.0000 0.53793  0.68031  0.99088  Biso   1.000  O
  O107     1.0000 0.48810  0.95235  0.29390  Biso   1.000  O
  O108     1.0000 0.76901  0.96977  0.04047  Biso   1.000  O
  O109     1.0000 0.53224  0.77891  0.49882  Biso   1.000  O
  O110     1.0000 0.47041  0.51435  0.79834  Biso   1.000  O
  O111     1.0000 0.77585  0.48377  0.53829  Biso   1.000  O
  O112     1.0000 0.03649  0.78120  0.00400  Biso   1.000  O
  O113     1.0000 0.97678  0.53161  0.70241  Biso   1.000  O
  O114     1.0000 0.26165  0.50989  0.96471  Biso   1.000  O
  O115     1.0000 0.92394  0.27928  0.51661  Biso   1.000  O
  O116     1.0000 0.97658  0.02805  0.79970  Biso   1.000  O
  O117     1.0000 0.68132  0.99537  0.53474  Biso   1.000  O
  O118     1.0000 0.40674  0.28313  0.01406  Biso   1.000  O
  O119     1.0000 0.48768  0.01908  0.70663  Biso   1.000  O
  O120     1.0000 0.17621  0.00361  0.96385  Biso   1.000  O
  O121     1.0000 0.01618  0.48929  0.70678  Biso   1.000  O
  O122     1.0000 0.67654  0.02850  0.48282  Biso   1.000  O
  O123     1.0000 0.49963  0.68910  0.03114  Biso   1.000  O
  O124     1.0000 0.50951  0.47293  0.79802  Biso   1.000  O
  O125     1.0000 0.17582  0.04503  0.00897  Biso   1.000  O
  O126     1.0000 0.99014  0.68781  0.45127  Biso   1.000  O
  O127     1.0000 0.44191  0.98002  0.70594  Biso   1.000  O
  O128     1.0000 0.77813  0.52912  0.50584  Biso   1.000  O
  O129     1.0000 0.95466  0.18922  0.04834  Biso   1.000  O
  O130     1.0000 0.93501  0.98537  0.79833  Biso   1.000  O
  O131     1.0000 0.27147  0.54897  0.01061  Biso   1.000  O
  O132     1.0000 0.47611  0.19037  0.47012  Biso   1.000  O
  O133     1.0000 0.94289  0.48062  0.29627  Biso   1.000  O
  O134     1.0000 0.27362  0.92907  0.50390  Biso   1.000  O
  O135     1.0000 0.45072  0.27620  0.97195  Biso   1.000  O
  O136     1.0000 0.43961  0.48676  0.20286  Biso   1.000  O
  O137     1.0000 0.77306  0.92201  0.00247  Biso   1.000  O
  O138     1.0000 0.96966  0.27882  0.55278  Biso   1.000  O
  O139     1.0000 0.51838  0.00579  0.29686  Biso   1.000  O
  O140     1.0000 0.17937  0.43314  0.50637  Biso   1.000  O
  O141     1.0000 0.99643  0.77912  0.95861  Biso   1.000  O
  O142     1.0000 0.01691  0.98996  0.20680  Biso   1.000  O
  O143     1.0000 0.67106  0.41792  0.99454  Biso   1.000  O
  O144     1.0000 0.48695  0.77623  0.53246  Biso   1.000  O
  O145     1.0000 0.52282  0.49060  0.19641  Biso   1.000  O
  O146     1.0000 0.18803  0.51812  0.50314  Biso   1.000  O
  O147     1.0000 0.45937  0.18891  0.55111  Biso   1.000  O
  O148     1.0000 0.02617  0.47328  0.29713  Biso   1.000  O
  O149     1.0000 0.67998  0.50022  0.99823  Biso   1.000  O
  O150     1.0000 0.95656  0.19205  0.96464  Biso   1.000  O
  O151     1.0000 0.93255  0.97175  0.20333  Biso   1.000  O
  O152     1.0000 0.26966  0.01681  0.50926  Biso   1.000  O
  O153     1.0000 0.98775  0.69070  0.53280  Biso   1.000  O
  O154     1.0000 0.43618  0.98787  0.29324  Biso   1.000  O
  O155     1.0000 0.76728  0.00514  0.99383  Biso   1.000  O
  O156     1.0000 0.49432  0.68641  0.94842  Biso   1.000  O
  O157     1.0000 0.42805  0.47207  0.80210  Biso   1.000  O
  O158     1.0000 0.76963  0.44731  0.49301  Biso   1.000  O
  O159     1.0000 0.49308  0.77866  0.44939  Biso   1.000  O
  O160     1.0000 0.93228  0.49636  0.70530  Biso   1.000  O
  O161     1.0000 0.26329  0.46457  0.00974  Biso   1.000  O
  O162     1.0000 0.99420  0.77584  0.04314  Biso   1.000  O
  O163     1.0000 0.01877  0.99167  0.79883  Biso   1.000  O
  O164     1.0000 0.68803  0.94726  0.50350  Biso   1.000  O
  O165     1.0000 0.96059  0.27665  0.46824  Biso   1.000  O
  O166     1.0000 0.52570  0.97184  0.70371  Biso   1.000  O
  O167     1.0000 0.18076  0.96216  0.00738  Biso   1.000  O
  O168     1.0000 0.44823  0.27629  0.05505  Biso   1.000  O
  O169     1.0000 0.96389  0.02205  0.20860  Biso   1.000  O
  O170     1.0000 0.17985  0.00092  0.04891  Biso   1.000  O
  O171     1.0000 0.99649  0.19410  0.00819  Biso   1.000  O
  O172     1.0000 0.46856  0.03689  0.29684  Biso   1.000  O
  O173     1.0000 0.68624  0.98197  0.45378  Biso   1.000  O
  O174     1.0000 0.51277  0.18904  0.51757  Biso   1.000  O
  O175     1.0000 0.48384  0.53082  0.19864  Biso   1.000  O
  O176     1.0000 0.26680  0.50582  0.05128  Biso   1.000  O
  O177     1.0000 0.45370  0.69402  0.98939  Biso   1.000  O
  O178     1.0000 0.98554  0.51827  0.29271  Biso   1.000  O
  O179     1.0000 0.77942  0.49279  0.45556  Biso   1.000  O
  O180     1.0000 0.94486  0.68736  0.48997  Biso   1.000  O
  O181     1.0000 0.97953  0.94361  0.80117  Biso   1.000  O
  O182     1.0000 0.77209  0.96039  0.95755  Biso   1.000  O
  O183     1.0000 0.95179  0.77149  0.99651  Biso   1.000  O
  O184     1.0000 0.48020  0.93223  0.70214  Biso   1.000  O
  O185     1.0000 0.26904  0.96949  0.54917  Biso   1.000  O
  O186     1.0000 0.44779  0.77988  0.48451  Biso   1.000  O
  O187     1.0000 0.46785  0.42966  0.80122  Biso   1.000  O
  O188     1.0000 0.68116  0.46044  0.95336  Biso   1.000  O
  O189     1.0000 0.49146  0.27089  0.00991  Biso   1.000  O
  O190     1.0000 0.96691  0.44755  0.70584  Biso   1.000  O
  O191     1.0000 0.17776  0.47286  0.54596  Biso   1.000  O
  O192     1.0000 0.00597  0.27692  0.50545  Biso   1.000  O
