data_image0
_cell_length_a       46.9149
_cell_length_b       46.7171
_cell_length_c       46.5217
_cell_angle_alpha    90
_cell_angle_beta     90
_cell_angle_gamma    90

_symmetry_space_group_name_H-M    "P 1"
_symmetry_int_tables_number       1

loop_
  _symmetry_equiv_pos_as_xyz
  'x, y, z'

loop_
  _atom_site_label
  _atom_site_occupancy
  _atom_site_fract_x
  _atom_site_fract_y
  _atom_site_fract_z
  _atom_site_thermal_displace_type
  _atom_site_B_iso_or_equiv
  _atom_site_type_symbol
  C1       1.0000 0.56304  0.97874  0.32104  Biso   1.000  C
  C2       1.0000 0.33756  0.52518  0.01085  Biso   1.000  C
  C3       1.0000 0.01878  0.28868  0.56282  Biso   1.000  C
  C4       1.0000 0.06700  0.95498  0.18675  Biso   1.000  C
  C5       1.0000 0.83544  0.51280  0.49522  Biso   1.000  C
  C6       1.0000 0.52162  0.29571  0.94736  Biso   1.000  C
  C7       1.0000 0.97687  0.46951  0.31576  Biso   1.000  C
  C8       1.0000 0.20053  0.01902  0.01185  Biso   1.000  C
  C9       1.0000 0.50658  0.79190  0.56238  Biso   1.000  C
  C10      1.0000 0.47123  0.47441  0.18634  Biso   1.000  C
  C11      1.0000 0.70026  0.01747  0.48746  Biso   1.000  C
  C12      1.0000 0.01778  0.78560  0.94289  Biso   1.000  C
  C13      1.0000 0.48011  0.96981  0.68803  Biso   1.000  C
  C14      1.0000 0.69471  0.41206  0.99410  Biso   1.000  C
  C15      1.0000 0.01664  0.64739  0.44160  Biso   1.000  C
  C16      1.0000 0.97774  0.96214  0.82085  Biso   1.000  C
  C17      1.0000 0.19657  0.41823  0.51567  Biso   1.000  C
  C18      1.0000 0.53078  0.65148  0.05997  Biso   1.000  C
  C19      1.0000 0.05617  0.46416  0.68749  Biso   1.000  C
  C20      1.0000 0.83976  0.91604  0.00113  Biso   1.000  C
  C21      1.0000 0.50718  0.14942  0.44440  Biso   1.000  C
  C22      1.0000 0.56023  0.47170  0.82186  Biso   1.000  C
  C23      1.0000 0.33671  0.91874  0.51058  Biso   1.000  C
  C24      1.0000 0.01548  0.14841  0.05978  Biso   1.000  C
  C25      1.0000 0.33634  0.02755  0.52430  Biso   1.000  C
  C26      1.0000 0.51329  0.29251  0.05481  Biso   1.000  C
  C27      1.0000 0.08609  0.46355  0.32501  Biso   1.000  C
  C28      1.0000 0.84094  0.02281  0.99165  Biso   1.000  C
  C29      1.0000 0.01658  0.29396  0.45226  Biso   1.000  C
  C30      1.0000 0.58048  0.47593  0.18368  Biso   1.000  C
  C31      1.0000 0.19481  0.52514  0.51704  Biso   1.000  C
  C32      1.0000 0.00919  0.78186  0.05045  Biso   1.000  C
  C33      1.0000 0.45473  0.96477  0.32750  Biso   1.000  C
  C34      1.0000 0.69692  0.52197  0.99545  Biso   1.000  C
  C35      1.0000 0.51755  0.79490  0.45457  Biso   1.000  C
  C36      1.0000 0.96052  0.97029  0.17911  Biso   1.000  C
  C37      1.0000 0.70158  0.91037  0.49705  Biso   1.000  C
  C38      1.0000 0.50827  0.65029  0.95418  Biso   1.000  C
  C39      1.0000 0.94846  0.46960  0.67810  Biso   1.000  C
  C40      1.0000 0.19824  0.90938  0.01460  Biso   1.000  C
  C41      1.0000 0.00142  0.64687  0.55189  Biso   1.000  C
  C42      1.0000 0.45151  0.47762  0.82349  Biso   1.000  C
  C43      1.0000 0.83640  0.40605  0.48274  Biso   1.000  C
  C44      1.0000 0.02677  0.14647  0.95187  Biso   1.000  C
  C45      1.0000 0.58924  0.97792  0.68262  Biso   1.000  C
  C46      1.0000 0.33571  0.41689  0.00705  Biso   1.000  C
  C47      1.0000 0.52309  0.15010  0.55119  Biso   1.000  C
  C48      1.0000 0.08568  0.96887  0.82627  Biso   1.000  C
  C49      1.0000 0.02696  0.01932  0.82332  Biso   1.000  C
  C50      1.0000 0.83843  0.96994  0.04767  Biso   1.000  C
  C51      1.0000 0.07112  0.78275  0.99990  Biso   1.000  C
  C52      1.0000 0.52943  0.03134  0.68538  Biso   1.000  C
  C53      1.0000 0.33557  0.97991  0.46200  Biso   1.000  C
  C54      1.0000 0.56544  0.79222  0.51397  Biso   1.000  C
  C55      1.0000 0.51102  0.52937  0.82354  Biso   1.000  C
  C56      1.0000 0.69953  0.46760  0.04917  Biso   1.000  C
  C57      1.0000 0.46214  0.29428  0.99309  Biso   1.000  C
  C58      1.0000 0.00336  0.52290  0.68057  Biso   1.000  C
  C59      1.0000 0.19884  0.47170  0.46272  Biso   1.000  C
  C60      1.0000 0.96086  0.28666  0.50901  Biso   1.000  C
  C61      1.0000 0.00841  0.90889  0.18163  Biso   1.000  C
  C62      1.0000 0.20536  0.96186  0.95774  Biso   1.000  C
  C63      1.0000 0.96710  0.14872  0.00060  Biso   1.000  C
  C64      1.0000 0.51843  0.91670  0.32538  Biso   1.000  C
  C65      1.0000 0.70820  0.97034  0.54992  Biso   1.000  C
  C66      1.0000 0.46105  0.15214  0.50322  Biso   1.000  C
  C67      1.0000 0.52095  0.41936  0.18363  Biso   1.000  C
  C68      1.0000 0.32905  0.47609  0.95757  Biso   1.000  C
  C69      1.0000 0.57494  0.64988  0.99658  Biso   1.000  C
  C70      1.0000 0.03435  0.41236  0.31960  Biso   1.000  C
  C71      1.0000 0.82879  0.45123  0.54331  Biso   1.000  C
  C72      1.0000 0.06499  0.64599  0.49955  Biso   1.000  C
  C73      1.0000 0.03237  0.52174  0.32052  Biso   1.000  C
  C74      1.0000 0.34184  0.96757  0.56927  Biso   1.000  C
  C75      1.0000 0.57048  0.28865  0.00686  Biso   1.000  C
  C76      1.0000 0.52687  0.52841  0.18960  Biso   1.000  C
  C77      1.0000 0.84248  0.96607  0.93902  Biso   1.000  C
  C78      1.0000 0.07306  0.29168  0.50766  Biso   1.000  C
  C79      1.0000 0.49964  0.02239  0.31949  Biso   1.000  C
  C80      1.0000 0.18926  0.47560  0.57139  Biso   1.000  C
  C81      1.0000 0.96076  0.78852  0.99556  Biso   1.000  C
  C82      1.0000 0.02333  0.01723  0.18052  Biso   1.000  C
  C83      1.0000 0.69537  0.47096  0.94158  Biso   1.000  C
  C84      1.0000 0.45639  0.79286  0.50151  Biso   1.000  C
  C85      1.0000 0.99949  0.41302  0.68727  Biso   1.000  C
  C86      1.0000 0.69285  0.96040  0.43823  Biso   1.000  C
  C87      1.0000 0.46679  0.64574  0.01755  Biso   1.000  C
  C88      1.0000 0.50282  0.42097  0.82226  Biso   1.000  C
  C89      1.0000 0.19788  0.96764  0.06529  Biso   1.000  C
  C90      1.0000 0.95460  0.64247  0.48908  Biso   1.000  C
  C91      1.0000 0.53524  0.92115  0.68634  Biso   1.000  C
  C92      1.0000 0.83815  0.46199  0.43525  Biso   1.000  C
  C93      1.0000 0.07537  0.14970  0.01180  Biso   1.000  C
  C94      1.0000 0.03551  0.91405  0.82027  Biso   1.000  C
  C95      1.0000 0.33672  0.46867  0.06610  Biso   1.000  C
  C96      1.0000 0.57014  0.14728  0.49183  Biso   1.000  C
  C97      1.0000 0.69935  0.04874  0.48350  Biso   1.000  C
  C98      1.0000 0.53537  0.65248  0.09265  Biso   1.000  C
  C99      1.0000 0.08718  0.45671  0.69089  Biso   1.000  C
  C100     1.0000 0.20149  0.05103  0.01419  Biso   1.000  C
  C101     1.0000 0.01938  0.65122  0.41094  Biso   1.000  C
  C102     1.0000 0.59153  0.47277  0.81858  Biso   1.000  C
  C103     1.0000 0.83395  0.54382  0.50041  Biso   1.000  C
  C104     1.0000 0.01219  0.14845  0.09227  Biso   1.000  C
  C105     1.0000 0.44852  0.96280  0.68931  Biso   1.000  C
  C106     1.0000 0.33774  0.55593  0.00469  Biso   1.000  C
  C107     1.0000 0.50513  0.15026  0.41218  Biso   1.000  C
  C108     1.0000 0.94644  0.96226  0.81831  Biso   1.000  C
  C109     1.0000 0.33385  0.88673  0.51137  Biso   1.000  C
  C110     1.0000 0.52121  0.29509  0.91541  Biso   1.000  C
  C111     1.0000 0.94452  0.47174  0.31347  Biso   1.000  C
  C112     1.0000 0.83921  0.88474  0.00715  Biso   1.000  C
  C113     1.0000 0.01643  0.28988  0.59483  Biso   1.000  C
  C114     1.0000 0.43993  0.46788  0.18812  Biso   1.000  C
  C115     1.0000 0.19871  0.38593  0.51482  Biso   1.000  C
  C116     1.0000 0.01769  0.78683  0.90947  Biso   1.000  C
  C117     1.0000 0.59465  0.98203  0.31739  Biso   1.000  C
  C118     1.0000 0.69586  0.38144  0.99602  Biso   1.000  C
  C119     1.0000 0.50717  0.79288  0.59542  Biso   1.000  C
  C120     1.0000 0.09827  0.95805  0.18915  Biso   1.000  C
  C121     1.0000 0.83778  0.97225  0.08031  Biso   1.000  C
  C122     1.0000 0.10284  0.78190  0.00404  Biso   1.000  C
  C123     1.0000 0.02379  0.05109  0.82321  Biso   1.000  C
  C124     1.0000 0.33462  0.98268  0.42984  Biso   1.000  C
  C125     1.0000 0.59823  0.78993  0.51548  Biso   1.000  C
  C126     1.0000 0.52611  0.06221  0.68464  Biso   1.000  C
  C127     1.0000 0.70142  0.46722  0.08156  Biso   1.000  C
  C128     1.0000 0.43170  0.29482  0.98455  Biso   1.000  C
  C129     1.0000 0.51632  0.56136  0.82229  Biso   1.000  C
  C130     1.0000 0.20156  0.47218  0.43091  Biso   1.000  C
  C131     1.0000 0.92808  0.28402  0.50644  Biso   1.000  C
  C132     1.0000 0.00257  0.55509  0.67936  Biso   1.000  C
  C133     1.0000 0.20752  0.95810  0.92514  Biso   1.000  C
  C134     1.0000 0.93524  0.14977  0.99981  Biso   1.000  C
  C135     1.0000 0.01328  0.87628  0.18124  Biso   1.000  C
  C136     1.0000 0.71138  0.97141  0.58039  Biso   1.000  C
  C137     1.0000 0.42963  0.15353  0.50322  Biso   1.000  C
  C138     1.0000 0.52328  0.88562  0.32617  Biso   1.000  C
  C139     1.0000 0.32865  0.47779  0.92572  Biso   1.000  C
  C140     1.0000 0.60733  0.64962  0.99337  Biso   1.000  C
  C141     1.0000 0.52024  0.38697  0.18407  Biso   1.000  C
  C142     1.0000 0.82553  0.44655  0.57512  Biso   1.000  C
  C143     1.0000 0.09802  0.64861  0.50180  Biso   1.000  C
  C144     1.0000 0.03096  0.38133  0.32006  Biso   1.000  C
  C145     1.0000 0.33933  0.46914  0.09836  Biso   1.000  C
  C146     1.0000 0.10487  0.29147  0.51547  Biso   1.000  C
  C147     1.0000 0.50244  0.05427  0.31865  Biso   1.000  C
  C148     1.0000 0.84004  0.45994  0.40322  Biso   1.000  C
  C149     1.0000 0.60141  0.28737  0.01415  Biso   1.000  C
  C150     1.0000 0.02627  0.04919  0.18166  Biso   1.000  C
  C151     1.0000 0.19662  0.96735  0.09813  Biso   1.000  C
  C152     1.0000 0.42530  0.79271  0.49616  Biso   1.000  C
  C153     1.0000 0.03194  0.55514  0.31975  Biso   1.000  C
  C154     1.0000 0.69257  0.96420  0.40453  Biso   1.000  C
  C155     1.0000 0.92885  0.78702  0.99744  Biso   1.000  C
  C156     1.0000 0.52420  0.55886  0.18867  Biso   1.000  C
  C157     1.0000 0.69548  0.47331  0.90895  Biso   1.000  C
  C158     1.0000 0.92279  0.64169  0.49072  Biso   1.000  C
  C159     1.0000 0.52677  0.89016  0.68686  Biso   1.000  C
  C160     1.0000 0.18591  0.47558  0.60327  Biso   1.000  C
  C161     1.0000 0.43599  0.64546  0.02271  Biso   1.000  C
  C162     1.0000 0.03025  0.88298  0.81730  Biso   1.000  C
  C163     1.0000 0.84505  0.96652  0.90669  Biso   1.000  C
  C164     1.0000 0.60156  0.14514  0.48870  Biso   1.000  C
  C165     1.0000 0.00106  0.38177  0.69056  Biso   1.000  C
  C166     1.0000 0.34557  0.96083  0.60089  Biso   1.000  C
  C167     1.0000 0.10775  0.14783  0.01086  Biso   1.000  C
  C168     1.0000 0.50310  0.38829  0.82193  Biso   1.000  C
  C169     1.0000 0.00704  0.78203  0.08312  Biso   1.000  C
  C170     1.0000 0.11727  0.96916  0.82679  Biso   1.000  C
  C171     1.0000 0.83955  0.05550  0.99209  Biso   1.000  C
  C172     1.0000 0.52002  0.79228  0.42190  Biso   1.000  C
  C173     1.0000 0.62168  0.97858  0.68039  Biso   1.000  C
  C174     1.0000 0.33729  0.05934  0.53170  Biso   1.000  C
  C175     1.0000 0.51241  0.29344  0.08744  Biso   1.000  C
  C176     1.0000 0.41874  0.47638  0.82431  Biso   1.000  C
  C177     1.0000 0.69790  0.55379  0.00133  Biso   1.000  C
  C178     1.0000 0.01816  0.29071  0.42015  Biso   1.000  C
  C179     1.0000 0.91636  0.46653  0.67525  Biso   1.000  C
  C180     1.0000 0.19345  0.55896  0.51908  Biso   1.000  C
  C181     1.0000 0.02460  0.14664  0.91988  Biso   1.000  C
  C182     1.0000 0.92802  0.96990  0.17685  Biso   1.000  C
  C183     1.0000 0.19684  0.87881  0.01727  Biso   1.000  C
  C184     1.0000 0.52581  0.15233  0.58371  Biso   1.000  C
  C185     1.0000 0.42259  0.96588  0.32956  Biso   1.000  C
  C186     1.0000 0.69938  0.87836  0.49593  Biso   1.000  C
  C187     1.0000 0.50241  0.65131  0.92324  Biso   1.000  C
  C188     1.0000 0.61232  0.48204  0.18182  Biso   1.000  C
  C189     1.0000 0.33539  0.38533  0.00482  Biso   1.000  C
  C190     1.0000 0.00124  0.64818  0.58378  Biso   1.000  C
  C191     1.0000 0.11880  0.45863  0.32679  Biso   1.000  C
  C192     1.0000 0.83540  0.37496  0.48097  Biso   1.000  C
  C193     1.0000 0.87194  0.96287  0.89270  Biso   1.000  C
  C194     1.0000 0.91394  0.81414  0.00181  Biso   1.000  C
  C195     1.0000 0.02896  0.86550  0.84458  Biso   1.000  C
  C196     1.0000 0.37544  0.96390  0.61452  Biso   1.000  C
  C197     1.0000 0.40880  0.81885  0.49799  Biso   1.000  C
  C198     1.0000 0.52383  0.87363  0.66067  Biso   1.000  C
  C199     1.0000 0.66708  0.47661  0.89433  Biso   1.000  C
  C200     1.0000 0.61877  0.31380  0.01156  Biso   1.000  C
  C201     1.0000 0.50710  0.37373  0.84814  Biso   1.000  C
  C202     1.0000 0.15870  0.47071  0.61756  Biso   1.000  C
  C203     1.0000 0.12217  0.31708  0.50928  Biso   1.000  C
  C204     1.0000 0.00172  0.36426  0.66323  Biso   1.000  C
  C205     1.0000 0.16969  0.96221  0.11257  Biso   1.000  C
  C206     1.0000 0.12313  0.11957  0.01051  Biso   1.000  C
  C207     1.0000 0.02146  0.06641  0.15487  Biso   1.000  C
  C208     1.0000 0.66543  0.96559  0.39098  Biso   1.000  C
  C209     1.0000 0.61782  0.11861  0.49046  Biso   1.000  C
  C210     1.0000 0.50400  0.07057  0.34660  Biso   1.000  C
  C211     1.0000 0.36827  0.46782  0.11177  Biso   1.000  C
  C212     1.0000 0.41964  0.62001  0.01714  Biso   1.000  C
  C213     1.0000 0.52659  0.57434  0.16068  Biso   1.000  C
  C214     1.0000 0.86832  0.46276  0.38843  Biso   1.000  C
  C215     1.0000 0.90621  0.61536  0.49435  Biso   1.000  C
  C216     1.0000 0.02952  0.57210  0.34538  Biso   1.000  C
  C217     1.0000 0.13259  0.96444  0.85441  Biso   1.000  C
  C218     1.0000 0.86586  0.07258  0.99514  Biso   1.000  C
  C219     1.0000 0.00997  0.80823  0.10069  Biso   1.000  C
  C220     1.0000 0.63502  0.97306  0.65306  Biso   1.000  C
  C221     1.0000 0.36370  0.07594  0.52710  Biso   1.000  C
  C222     1.0000 0.52109  0.81862  0.40466  Biso   1.000  C
  C223     1.0000 0.40392  0.47651  0.85293  Biso   1.000  C
  C224     1.0000 0.67177  0.57070  0.00028  Biso   1.000  C
  C225     1.0000 0.51493  0.32083  0.10391  Biso   1.000  C
  C226     1.0000 0.90185  0.45844  0.64790  Biso   1.000  C
  C227     1.0000 0.16632  0.57471  0.51524  Biso   1.000  C
  C228     1.0000 0.01923  0.31634  0.40241  Biso   1.000  C
  C229     1.0000 0.91215  0.97104  0.15004  Biso   1.000  C
  C230     1.0000 0.16886  0.86392  0.01431  Biso   1.000  C
  C231     1.0000 0.02330  0.11898  0.90414  Biso   1.000  C
  C232     1.0000 0.40808  0.97250  0.35609  Biso   1.000  C
  C233     1.0000 0.67158  0.86309  0.50129  Biso   1.000  C
  C234     1.0000 0.52524  0.12574  0.60056  Biso   1.000  C
  C235     1.0000 0.62657  0.47961  0.15274  Biso   1.000  C
  C236     1.0000 0.36258  0.36860  0.99629  Biso   1.000  C
  C237     1.0000 0.50939  0.62634  0.90480  Biso   1.000  C
  C238     1.0000 0.13215  0.46145  0.35574  Biso   1.000  C
  C239     1.0000 0.86076  0.35874  0.48995  Biso   1.000  C
  C240     1.0000 0.00288  0.62138  0.59885  Biso   1.000  C
  C241     1.0000 0.61038  0.47438  0.84573  Biso   1.000  C
  C242     1.0000 0.85994  0.56295  0.50171  Biso   1.000  C
  C243     1.0000 0.51236  0.82019  0.60828  Biso   1.000  C
  C244     1.0000 0.10578  0.45778  0.66512  Biso   1.000  C
  C245     1.0000 0.36603  0.57196  0.00529  Biso   1.000  C
  C246     1.0000 0.02189  0.81430  0.89416  Biso   1.000  C
  C247     1.0000 0.92732  0.96099  0.84432  Biso   1.000  C
  C248     1.0000 0.67195  0.06477  0.48409  Biso   1.000  C
  C249     1.0000 0.01042  0.31619  0.61081  Biso   1.000  C
  C250     1.0000 0.43044  0.96043  0.66302  Biso   1.000  C
  C251     1.0000 0.17484  0.06683  0.01165  Biso   1.000  C
  C252     1.0000 0.51481  0.32242  0.90086  Biso   1.000  C
  C253     1.0000 0.42223  0.46494  0.16121  Biso   1.000  C
  C254     1.0000 0.17172  0.36927  0.51496  Biso   1.000  C
  C255     1.0000 0.50440  0.12273  0.39672  Biso   1.000  C
  C256     1.0000 0.92553  0.47286  0.33895  Biso   1.000  C
  C257     1.0000 0.66935  0.36527  0.99974  Biso   1.000  C
  C258     1.0000 0.01556  0.12227  0.10681  Biso   1.000  C
  C259     1.0000 0.11563  0.95831  0.16135  Biso   1.000  C
  C260     1.0000 0.35927  0.86888  0.50687  Biso   1.000  C
  C261     1.0000 0.02292  0.62506  0.39452  Biso   1.000  C
  C262     1.0000 0.61295  0.97771  0.34253  Biso   1.000  C
  C263     1.0000 0.86564  0.86743  0.00924  Biso   1.000  C
  C264     1.0000 0.53262  0.62610  0.10846  Biso   1.000  C
  C265     1.0000 0.02216  0.06681  0.85165  Biso   1.000  C
  C266     1.0000 0.86413  0.97031  0.09776  Biso   1.000  C
  C267     1.0000 0.11739  0.80990  0.00869  Biso   1.000  C
  C268     1.0000 0.52394  0.07801  0.65673  Biso   1.000  C
  C269     1.0000 0.36072  0.97919  0.41125  Biso   1.000  C
  C270     1.0000 0.61724  0.81505  0.50962  Biso   1.000  C
  C271     1.0000 0.51359  0.57671  0.84902  Biso   1.000  C
  C272     1.0000 0.67513  0.47341  0.09915  Biso   1.000  C
  C273     1.0000 0.41395  0.32125  0.98391  Biso   1.000  C
  C274     1.0000 0.00526  0.57025  0.65116  Biso   1.000  C
  C275     1.0000 0.17699  0.46922  0.41286  Biso   1.000  C
  C276     1.0000 0.91281  0.31090  0.50112  Biso   1.000  C
  C277     1.0000 0.01594  0.86056  0.15464  Biso   1.000  C
  C278     1.0000 0.18110  0.95996  0.90859  Biso   1.000  C
  C279     1.0000 0.91778  0.12509  0.00394  Biso   1.000  C
  C280     1.0000 0.52295  0.86942  0.35280  Biso   1.000  C
  C281     1.0000 0.68467  0.97338  0.59696  Biso   1.000  C
  C282     1.0000 0.41389  0.12751  0.51096  Biso   1.000  C
  C283     1.0000 0.51699  0.37082  0.15690  Biso   1.000  C
  C284     1.0000 0.35519  0.47541  0.90869  Biso   1.000  C
  C285     1.0000 0.62383  0.62270  0.99536  Biso   1.000  C
  C286     1.0000 0.02656  0.36719  0.34729  Biso   1.000  C
  C287     1.0000 0.85124  0.44710  0.59322  Biso   1.000  C
  C288     1.0000 0.11533  0.62220  0.50373  Biso   1.000  C
  C289     1.0000 0.35666  0.83793  0.50471  Biso   1.000  C
  C290     1.0000 0.51523  0.32186  0.86954  Biso   1.000  C
  C291     1.0000 0.89402  0.46735  0.33718  Biso   1.000  C
  C292     1.0000 0.86228  0.83633  0.00802  Biso   1.000  C
  C293     1.0000 0.00889  0.31421  0.64189  Biso   1.000  C
  C294     1.0000 0.39163  0.46836  0.16333  Biso   1.000  C
  C295     1.0000 0.17334  0.33933  0.52146  Biso   1.000  C
  C296     1.0000 0.02303  0.81284  0.86329  Biso   1.000  C
  C297     1.0000 0.64324  0.97900  0.34012  Biso   1.000  C
  C298     1.0000 0.67209  0.33423  0.00540  Biso   1.000  C
  C299     1.0000 0.51190  0.82219  0.64012  Biso   1.000  C
  C300     1.0000 0.14596  0.96199  0.16422  Biso   1.000  C
  C301     1.0000 0.67136  0.09619  0.48245  Biso   1.000  C
  C302     1.0000 0.52990  0.62648  0.13883  Biso   1.000  C
  C303     1.0000 0.13747  0.46256  0.66819  Biso   1.000  C
  C304     1.0000 0.17521  0.09763  0.01046  Biso   1.000  C
  C305     1.0000 0.02139  0.62551  0.36315  Biso   1.000  C
  C306     1.0000 0.64261  0.47465  0.84199  Biso   1.000  C
  C307     1.0000 0.85662  0.59344  0.49772  Biso   1.000  C
  C308     1.0000 0.02033  0.12014  0.13909  Biso   1.000  C
  C309     1.0000 0.39780  0.95918  0.66650  Biso   1.000  C
  C310     1.0000 0.36503  0.60250  0.00988  Biso   1.000  C
  C311     1.0000 0.50433  0.12341  0.36601  Biso   1.000  C
  C312     1.0000 0.89564  0.96341  0.83947  Biso   1.000  C
  C313     1.0000 0.18079  0.46633  0.38146  Biso   1.000  C
  C314     1.0000 0.38376  0.12829  0.51759  Biso   1.000  C
  C315     1.0000 0.51434  0.33961  0.15847  Biso   1.000  C
  C316     1.0000 0.67895  0.47558  0.12963  Biso   1.000  C
  C317     1.0000 0.88598  0.12502  0.00168  Biso   1.000  C
  C318     1.0000 0.02521  0.33581  0.34797  Biso   1.000  C
  C319     1.0000 0.35839  0.97780  0.38028  Biso   1.000  C
  C320     1.0000 0.14608  0.62614  0.50820  Biso   1.000  C
  C321     1.0000 0.01065  0.82871  0.15377  Biso   1.000  C
  C322     1.0000 0.86032  0.97202  0.12873  Biso   1.000  C
  C323     1.0000 0.65491  0.62482  0.99838  Biso   1.000  C
  C324     1.0000 0.52441  0.83822  0.35191  Biso   1.000  C
  C325     1.0000 0.84923  0.45231  0.62444  Biso   1.000  C
  C326     1.0000 0.64975  0.81265  0.50918  Biso   1.000  C
  C327     1.0000 0.51349  0.60777  0.84942  Biso   1.000  C
  C328     1.0000 0.35252  0.47498  0.87608  Biso   1.000  C
  C329     1.0000 0.14841  0.80939  0.01211  Biso   1.000  C
  C330     1.0000 0.99861  0.60084  0.65143  Biso   1.000  C
  C331     1.0000 0.68801  0.97655  0.62846  Biso   1.000  C
  C332     1.0000 0.88220  0.30804  0.49463  Biso   1.000  C
  C333     1.0000 0.02044  0.09797  0.85080  Biso   1.000  C
  C334     1.0000 0.18487  0.96051  0.87661  Biso   1.000  C
  C335     1.0000 0.38369  0.31761  0.99097  Biso   1.000  C
  C336     1.0000 0.52490  0.10936  0.65647  Biso   1.000  C
  C337     1.0000 0.66495  0.47542  0.86338  Biso   1.000  C
  C338     1.0000 0.87631  0.61668  0.49483  Biso   1.000  C
  C339     1.0000 0.51628  0.84295  0.66308  Biso   1.000  C
  C340     1.0000 0.16001  0.46738  0.64812  Biso   1.000  C
  C341     1.0000 0.38766  0.62213  0.01314  Biso   1.000  C
  C342     1.0000 0.02419  0.83408  0.84228  Biso   1.000  C
  C343     1.0000 0.87201  0.96371  0.85977  Biso   1.000  C
  C344     1.0000 0.64944  0.11811  0.48397  Biso   1.000  C
  C345     1.0000 0.00566  0.33395  0.66436  Biso   1.000  C
  C346     1.0000 0.37631  0.95939  0.64538  Biso   1.000  C
  C347     1.0000 0.15453  0.12001  0.01024  Biso   1.000  C
  C348     1.0000 0.51157  0.34380  0.84788  Biso   1.000  C
  C349     1.0000 0.36905  0.46959  0.14391  Biso   1.000  C
  C350     1.0000 0.15304  0.31701  0.51875  Biso   1.000  C
  C351     1.0000 0.50511  0.10060  0.34404  Biso   1.000  C
  C352     1.0000 0.87099  0.46417  0.35751  Biso   1.000  C
  C353     1.0000 0.65103  0.31327  0.01108  Biso   1.000  C
  C354     1.0000 0.02242  0.09673  0.15843  Biso   1.000  C
  C355     1.0000 0.16953  0.96451  0.14254  Biso   1.000  C
  C356     1.0000 0.37750  0.81756  0.50073  Biso   1.000  C
  C357     1.0000 0.02532  0.60313  0.34329  Biso   1.000  C
  C358     1.0000 0.66543  0.97396  0.36049  Biso   1.000  C
  C359     1.0000 0.88246  0.81412  0.00600  Biso   1.000  C
  C360     1.0000 0.52751  0.60547  0.16099  Biso   1.000  C
  C361     1.0000 0.02145  0.12010  0.87280  Biso   1.000  C
  C362     1.0000 0.88093  0.97009  0.15022  Biso   1.000  C
  C363     1.0000 0.16974  0.83211  0.01461  Biso   1.000  C
  C364     1.0000 0.52465  0.12802  0.63261  Biso   1.000  C
  C365     1.0000 0.37822  0.97528  0.35716  Biso   1.000  C
  C366     1.0000 0.67124  0.83227  0.50501  Biso   1.000  C
  C367     1.0000 0.51046  0.62796  0.87332  Biso   1.000  C
  C368     1.0000 0.65758  0.47940  0.15272  Biso   1.000  C
  C369     1.0000 0.36195  0.33780  0.99490  Biso   1.000  C
  C370     1.0000 0.99890  0.62213  0.63031  Biso   1.000  C
  C371     1.0000 0.16280  0.46168  0.35857  Biso   1.000  C
  C372     1.0000 0.85975  0.32795  0.48924  Biso   1.000  C
  C373     1.0000 0.00814  0.80799  0.13226  Biso   1.000  C
  C374     1.0000 0.16390  0.96364  0.85570  Biso   1.000  C
  C375     1.0000 0.86363  0.10356  0.99823  Biso   1.000  C
  C376     1.0000 0.52392  0.81761  0.37420  Biso   1.000  C
  C377     1.0000 0.66680  0.97733  0.65047  Biso   1.000  C
  C378     1.0000 0.36311  0.10752  0.52595  Biso   1.000  C
  C379     1.0000 0.51453  0.31937  0.13597  Biso   1.000  C
  C380     1.0000 0.37261  0.47360  0.85361  Biso   1.000  C
  C381     1.0000 0.67492  0.60181  0.00211  Biso   1.000  C
  C382     1.0000 0.02211  0.31452  0.37143  Biso   1.000  C
  C383     1.0000 0.87085  0.45678  0.64754  Biso   1.000  C
  C384     1.0000 0.16759  0.60494  0.51229  Biso   1.000  C
  C385     1.0000 0.20350  0.11171  0.00914  Biso   1.000  C
  C386     1.0000 0.02085  0.14597  0.15642  Biso   1.000  C
  C387     1.0000 0.15934  0.96493  0.19176  Biso   1.000  C
  C388     1.0000 0.69802  0.11178  0.47606  Biso   1.000  C
  C389     1.0000 0.50563  0.14990  0.34971  Biso   1.000  C
  C390     1.0000 0.65592  0.98400  0.31190  Biso   1.000  C
  C391     1.0000 0.33949  0.61993  0.00951  Biso   1.000  C
  C392     1.0000 0.53040  0.65456  0.15410  Biso   1.000  C
  C393     1.0000 0.37671  0.46913  0.19074  Biso   1.000  C
  C394     1.0000 0.82852  0.60677  0.49669  Biso   1.000  C
  C395     1.0000 0.01996  0.65154  0.34725  Biso   1.000  C
  C396     1.0000 0.88116  0.46870  0.30961  Biso   1.000  C
  C397     1.0000 0.83435  0.82165  0.00692  Biso   1.000  C
  C398     1.0000 0.01841  0.78636  0.84766  Biso   1.000  C
  C399     1.0000 0.88205  0.96495  0.81175  Biso   1.000  C
  C400     1.0000 0.32931  0.82365  0.50882  Biso   1.000  C
  C401     1.0000 0.50436  0.79737  0.65838  Biso   1.000  C
  C402     1.0000 0.38335  0.95406  0.69433  Biso   1.000  C
  C403     1.0000 0.69855  0.31918  0.00421  Biso   1.000  C
  C404     1.0000 0.52130  0.29497  0.85343  Biso   1.000  C
  C405     1.0000 0.65625  0.47367  0.81408  Biso   1.000  C
  C406     1.0000 0.20025  0.32398  0.53116  Biso   1.000  C
  C407     1.0000 0.01339  0.28834  0.65685  Biso   1.000  C
  C408     1.0000 0.15060  0.46441  0.69712  Biso   1.000  C
  C409     1.0000 0.18245  0.96716  0.82922  Biso   1.000  C
  C410     1.0000 0.83734  0.11993  0.99544  Biso   1.000  C
  C411     1.0000 0.00455  0.78194  0.14740  Biso   1.000  C
  C412     1.0000 0.68276  0.98386  0.67676  Biso   1.000  C
  C413     1.0000 0.33745  0.12317  0.52895  Biso   1.000  C
  C414     1.0000 0.52457  0.79116  0.35858  Biso   1.000  C
  C415     1.0000 0.35663  0.47250  0.82752  Biso   1.000  C
  C416     1.0000 0.70203  0.61712  0.00744  Biso   1.000  C
  C417     1.0000 0.51372  0.29275  0.15205  Biso   1.000  C
  C418     1.0000 0.85217  0.46089  0.67346  Biso   1.000  C
  C419     1.0000 0.19379  0.62296  0.51726  Biso   1.000  C
  C420     1.0000 0.02429  0.28769  0.35551  Biso   1.000  C
  C421     1.0000 0.86482  0.97345  0.17716  Biso   1.000  C
  C422     1.0000 0.19684  0.81710  0.01618  Biso   1.000  C
  C423     1.0000 0.02207  0.14680  0.85761  Biso   1.000  C
  C424     1.0000 0.36104  0.97188  0.33226  Biso   1.000  C
  C425     1.0000 0.69688  0.81505  0.50360  Biso   1.000  C
  C426     1.0000 0.52452  0.15501  0.64793  Biso   1.000  C
  C427     1.0000 0.67443  0.48107  0.17838  Biso   1.000  C
  C428     1.0000 0.33571  0.32285  0.00260  Biso   1.000  C
  C429     1.0000 0.50650  0.65505  0.85769  Biso   1.000  C
  C430     1.0000 0.18076  0.46249  0.33269  Biso   1.000  C
  C431     1.0000 0.83393  0.31185  0.48414  Biso   1.000  C
  C432     1.0000 0.99665  0.64933  0.64480  Biso   1.000  C
  C433     1.0000 0.02287  0.11384  0.82340  Biso   1.000  C
  C434     1.0000 0.83366  0.97575  0.14360  Biso   1.000  C
  C435     1.0000 0.16403  0.78293  0.00971  Biso   1.000  C
  C436     1.0000 0.52413  0.12609  0.68275  Biso   1.000  C
  C437     1.0000 0.33090  0.97727  0.36630  Biso   1.000  C
  C438     1.0000 0.66298  0.78442  0.51490  Biso   1.000  C
  C439     1.0000 0.51399  0.62588  0.82322  Biso   1.000  C
  C440     1.0000 0.70691  0.47568  0.14374  Biso   1.000  C
  C441     1.0000 0.36846  0.29120  0.99575  Biso   1.000  C
  C442     1.0000 0.99660  0.61770  0.67789  Biso   1.000  C
  C443     1.0000 0.20983  0.46620  0.36892  Biso   1.000  C
  C444     1.0000 0.86781  0.28046  0.49409  Biso   1.000  C
  C445     1.0000 0.00833  0.81403  0.18068  Biso   1.000  C
  C446     1.0000 0.21368  0.95965  0.86203  Biso   1.000  C
  C447     1.0000 0.87114  0.15143  0.99799  Biso   1.000  C
  C448     1.0000 0.52621  0.82340  0.32500  Biso   1.000  C
  C449     1.0000 0.71478  0.98116  0.64236  Biso   1.000  C
  C450     1.0000 0.36879  0.15483  0.51676  Biso   1.000  C
  C451     1.0000 0.51627  0.32461  0.18564  Biso   1.000  C
  C452     1.0000 0.32592  0.47249  0.86180  Biso   1.000  C
  C453     1.0000 0.66960  0.65071  0.00150  Biso   1.000  C
  C454     1.0000 0.02872  0.31919  0.32241  Biso   1.000  C
  C455     1.0000 0.82156  0.45525  0.63837  Biso   1.000  C
  C456     1.0000 0.16115  0.65237  0.50780  Biso   1.000  C
  C457     1.0000 0.02311  0.61800  0.31533  Biso   1.000  C
  C458     1.0000 0.34988  0.95520  0.66274  Biso   1.000  C
  C459     1.0000 0.66648  0.28771  0.01470  Biso   1.000  C
  C460     1.0000 0.52755  0.62169  0.18768  Biso   1.000  C
  C461     1.0000 0.84712  0.96654  0.84316  Biso   1.000  C
  C462     1.0000 0.16613  0.29112  0.52880  Biso   1.000  C
  C463     1.0000 0.50778  0.11594  0.31673  Biso   1.000  C
  C464     1.0000 0.18614  0.46980  0.66625  Biso   1.000  C
  C465     1.0000 0.86574  0.78865  0.00358  Biso   1.000  C
  C466     1.0000 0.02599  0.11089  0.18601  Biso   1.000  C
  C467     1.0000 0.69040  0.47179  0.84565  Biso   1.000  C
  C468     1.0000 0.36241  0.79123  0.49798  Biso   1.000  C
  C469     1.0000 0.00601  0.31847  0.69044  Biso   1.000  C
  C470     1.0000 0.69151  0.97684  0.34283  Biso   1.000  C
  C471     1.0000 0.37227  0.64971  0.01433  Biso   1.000  C
  C472     1.0000 0.51264  0.32773  0.82116  Biso   1.000  C
  C473     1.0000 0.19481  0.96901  0.15972  Biso   1.000  C
  C474     1.0000 0.85929  0.64239  0.49354  Biso   1.000  C
  C475     1.0000 0.51176  0.82936  0.69060  Biso   1.000  C
  C476     1.0000 0.84629  0.46431  0.34026  Biso   1.000  C
  C477     1.0000 0.17128  0.14590  0.00691  Biso   1.000  C
  C478     1.0000 0.02162  0.81948  0.81448  Biso   1.000  C
  C479     1.0000 0.34289  0.47358  0.16106  Biso   1.000  C
  C480     1.0000 0.66429  0.14418  0.47887  Biso   1.000  C
  C481     1.0000 0.37781  0.76645  0.48913  Biso   1.000  C
  C482     1.0000 0.50709  0.34347  0.79425  Biso   1.000  C
  C483     1.0000 0.81693  0.45969  0.35372  Biso   1.000  C
  C484     1.0000 0.88088  0.76085  0.00055  Biso   1.000  C
  C485     1.0000 0.00381  0.33359  0.71842  Biso   1.000  C
  C486     1.0000 0.31426  0.47738  0.14776  Biso   1.000  C
  C487     1.0000 0.14866  0.26552  0.53446  Biso   1.000  C
  C488     1.0000 0.02476  0.83535  0.78674  Biso   1.000  C
  C489     1.0000 0.71871  0.97668  0.35693  Biso   1.000  C
  C490     1.0000 0.64941  0.26086  0.01993  Biso   1.000  C
  C491     1.0000 0.51532  0.84568  0.71747  Biso   1.000  C
  C492     1.0000 0.22295  0.97592  0.14570  Biso   1.000  C
  C493     1.0000 0.64729  0.17064  0.47929  Biso   1.000  C
  C494     1.0000 0.52532  0.60681  0.21468  Biso   1.000  C
  C495     1.0000 0.21289  0.47735  0.65068  Biso   1.000  C
  C496     1.0000 0.15624  0.17321  0.00660  Biso   1.000  C
  C497     1.0000 0.02617  0.59987  0.28988  Biso   1.000  C
  C498     1.0000 0.71849  0.46720  0.85892  Biso   1.000  C
  C499     1.0000 0.87511  0.66855  0.48874  Biso   1.000  C
  C500     1.0000 0.02986  0.09505  0.21205  Biso   1.000  C
  C501     1.0000 0.32104  0.95478  0.64943  Biso   1.000  C
  C502     1.0000 0.39038  0.67580  0.02222  Biso   1.000  C
  C503     1.0000 0.50520  0.09961  0.28893  Biso   1.000  C
  C504     1.0000 0.81908  0.96968  0.85747  Biso   1.000  C
  C505     1.0000 0.63794  0.47474  0.78722  Biso   1.000  C
  C506     1.0000 0.80329  0.58849  0.49671  Biso   1.000  C
  C507     1.0000 0.49867  0.76905  0.64395  Biso   1.000  C
  C508     1.0000 0.13235  0.45998  0.72301  Biso   1.000  C
  C509     1.0000 0.31195  0.60501  0.00512  Biso   1.000  C
  C510     1.0000 0.01345  0.75932  0.86348  Biso   1.000  C
  C511     1.0000 0.90095  0.96220  0.78678  Biso   1.000  C
  C512     1.0000 0.72621  0.09749  0.47308  Biso   1.000  C
  C513     1.0000 0.02246  0.26174  0.64180  Biso   1.000  C
  C514     1.0000 0.40257  0.95525  0.72008  Biso   1.000  C
  C515     1.0000 0.23048  0.09591  0.01174  Biso   1.000  C
  C516     1.0000 0.53004  0.26794  0.86739  Biso   1.000  C
  C517     1.0000 0.39404  0.46428  0.21720  Biso   1.000  C
  C518     1.0000 0.22668  0.34189  0.53040  Biso   1.000  C
  C519     1.0000 0.50865  0.17703  0.36499  Biso   1.000  C
  C520     1.0000 0.89845  0.47263  0.28396  Biso   1.000  C
  C521     1.0000 0.72438  0.33600  0.99604  Biso   1.000  C
  C522     1.0000 0.01524  0.17350  0.14181  Biso   1.000  C
  C523     1.0000 0.14357  0.96360  0.21820  Biso   1.000  C
  C524     1.0000 0.30259  0.84086  0.51597  Biso   1.000  C
  C525     1.0000 0.01805  0.67869  0.36332  Biso   1.000  C
  C526     1.0000 0.63852  0.98773  0.28602  Biso   1.000  C
  C527     1.0000 0.80821  0.83975  0.01082  Biso   1.000  C
  C528     1.0000 0.53191  0.68178  0.13813  Biso   1.000  C
  C529     1.0000 0.81084  0.10220  0.99029  Biso   1.000  C
  C530     1.0000 0.00161  0.75388  0.13075  Biso   1.000  C
  C531     1.0000 0.16736  0.97328  0.80244  Biso   1.000  C
  C532     1.0000 0.31133  0.10699  0.53788  Biso   1.000  C
  C533     1.0000 0.52236  0.76321  0.37462  Biso   1.000  C
  C534     1.0000 0.66934  0.98806  0.70642  Biso   1.000  C
  C535     1.0000 0.72776  0.59960  0.00954  Biso   1.000  C
  C536     1.0000 0.51041  0.26551  0.13605  Biso   1.000  C
  C537     1.0000 0.37106  0.46948  0.79952  Biso   1.000  C
  C538     1.0000 0.21958  0.60631  0.52151  Biso   1.000  C
  C539     1.0000 0.02614  0.26226  0.37321  Biso   1.000  C
  C540     1.0000 0.86653  0.46790  0.70096  Biso   1.000  C
  C541     1.0000 0.22428  0.83255  0.02053  Biso   1.000  C
  C542     1.0000 0.02666  0.17511  0.87314  Biso   1.000  C
  C543     1.0000 0.87986  0.96944  0.20342  Biso   1.000  C
  C544     1.0000 0.72442  0.82859  0.49599  Biso   1.000  C
  C545     1.0000 0.52355  0.18152  0.63086  Biso   1.000  C
  C546     1.0000 0.37427  0.96265  0.30360  Biso   1.000  C
  C547     1.0000 0.30839  0.33875  0.00995  Biso   1.000  C
  C548     1.0000 0.49835  0.67904  0.87671  Biso   1.000  C
  C549     1.0000 0.66057  0.49008  0.20569  Biso   1.000  C
  C550     1.0000 0.80803  0.32690  0.47404  Biso   1.000  C
  C551     1.0000 0.99560  0.67709  0.63007  Biso   1.000  C
  C552     1.0000 0.16826  0.45691  0.30474  Biso   1.000  C
  C553     1.0000 0.02372  0.09653  0.79601  Biso   1.000  C
  C554     1.0000 0.80734  0.97942  0.12710  Biso   1.000  C
  C555     1.0000 0.15095  0.75509  0.00448  Biso   1.000  C
  C556     1.0000 0.52534  0.11087  0.71061  Biso   1.000  C
  C557     1.0000 0.30404  0.98182  0.38367  Biso   1.000  C
  C558     1.0000 0.64563  0.75910  0.52353  Biso   1.000  C
  C559     1.0000 0.51857  0.60917  0.79657  Biso   1.000  C
  C560     1.0000 0.73334  0.46685  0.12722  Biso   1.000  C
  C561     1.0000 0.38603  0.26467  0.98888  Biso   1.000  C
  C562     1.0000 0.99509  0.60307  0.70568  Biso   1.000  C
  C563     1.0000 0.23509  0.47016  0.38740  Biso   1.000  C
  C564     1.0000 0.88426  0.25441  0.50107  Biso   1.000  C
  C565     1.0000 0.01030  0.82949  0.20873  Biso   1.000  C
  C566     1.0000 0.24035  0.95290  0.88045  Biso   1.000  C
  C567     1.0000 0.88724  0.17918  0.99795  Biso   1.000  C
  C568     1.0000 0.53093  0.83867  0.29786  Biso   1.000  C
  C569     1.0000 0.74244  0.98070  0.62610  Biso   1.000  C
  C570     1.0000 0.38393  0.18215  0.50791  Biso   1.000  C
  C571     1.0000 0.52230  0.34042  0.21071  Biso   1.000  C
  C572     1.0000 0.29943  0.47507  0.87947  Biso   1.000  C
  C573     1.0000 0.65484  0.67868  0.99743  Biso   1.000  C
  C574     1.0000 0.03089  0.33354  0.29447  Biso   1.000  C
  C575     1.0000 0.79563  0.45260  0.62140  Biso   1.000  C
  C576     1.0000 0.14369  0.67935  0.50615  Biso   1.000  C
  C577     1.0000 0.31347  0.47298  0.11660  Biso   1.000  C
  C578     1.0000 0.11777  0.26412  0.52679  Biso   1.000  C
  C579     1.0000 0.50328  0.06895  0.28972  Biso   1.000  C
  C580     1.0000 0.81501  0.45785  0.38538  Biso   1.000  C
  C581     1.0000 0.61728  0.26083  0.02069  Biso   1.000  C
  C582     1.0000 0.03162  0.06324  0.21010  Biso   1.000  C
  C583     1.0000 0.22223  0.97290  0.11475  Biso   1.000  C
  C584     1.0000 0.40985  0.76697  0.48959  Biso   1.000  C
  C585     1.0000 0.02843  0.56994  0.29209  Biso   1.000  C
  C586     1.0000 0.72001  0.96945  0.38722  Biso   1.000  C
  C587     1.0000 0.91188  0.75987  0.99840  Biso   1.000  C
  C588     1.0000 0.52370  0.57580  0.21576  Biso   1.000  C
  C589     1.0000 0.72133  0.46857  0.89094  Biso   1.000  C
  C590     1.0000 0.90752  0.66839  0.48766  Biso   1.000  C
  C591     1.0000 0.52117  0.87616  0.71469  Biso   1.000  C
  C592     1.0000 0.21316  0.48063  0.61944  Biso   1.000  C
  C593     1.0000 0.42115  0.67318  0.02818  Biso   1.000  C
  C594     1.0000 0.02882  0.86648  0.78904  Biso   1.000  C
  C595     1.0000 0.81885  0.96949  0.88946  Biso   1.000  C
  C596     1.0000 0.61657  0.17224  0.48413  Biso   1.000  C
  C597     1.0000 0.00250  0.36659  0.71933  Biso   1.000  C
  C598     1.0000 0.31954  0.95730  0.61844  Biso   1.000  C
  C599     1.0000 0.12445  0.17380  0.01008  Biso   1.000  C
  C600     1.0000 0.50043  0.37320  0.79498  Biso   1.000  C
  C601     1.0000 0.23597  0.95140  0.91231  Biso   1.000  C
  C602     1.0000 0.91908  0.17668  0.99818  Biso   1.000  C
  C603     1.0000 0.01277  0.86006  0.20914  Biso   1.000  C
  C604     1.0000 0.73956  0.97580  0.59354  Biso   1.000  C
  C605     1.0000 0.41418  0.18126  0.49960  Biso   1.000  C
  C606     1.0000 0.52719  0.87031  0.29840  Biso   1.000  C
  C607     1.0000 0.30006  0.47863  0.91110  Biso   1.000  C
  C608     1.0000 0.62310  0.67895  0.99292  Biso   1.000  C
  C609     1.0000 0.52302  0.37153  0.21109  Biso   1.000  C
  C610     1.0000 0.79675  0.44970  0.58878  Biso   1.000  C
  C611     1.0000 0.11226  0.67798  0.50167  Biso   1.000  C
  C612     1.0000 0.03191  0.36424  0.29303  Biso   1.000  C
  C613     1.0000 0.81000  0.97825  0.09530  Biso   1.000  C
  C614     1.0000 0.11992  0.75393  0.00279  Biso   1.000  C
  C615     1.0000 0.02391  0.06491  0.79570  Biso   1.000  C
  C616     1.0000 0.30630  0.98309  0.41548  Biso   1.000  C
  C617     1.0000 0.61316  0.76229  0.52506  Biso   1.000  C
  C618     1.0000 0.52523  0.07954  0.71157  Biso   1.000  C
  C619     1.0000 0.73057  0.46292  0.09522  Biso   1.000  C
  C620     1.0000 0.41661  0.26650  0.98251  Biso   1.000  C
  C621     1.0000 0.52039  0.57803  0.79533  Biso   1.000  C
  C622     1.0000 0.23089  0.47204  0.41842  Biso   1.000  C
  C623     1.0000 0.91338  0.25651  0.50712  Biso   1.000  C
  C624     1.0000 0.99945  0.57244  0.70673  Biso   1.000  C
  C625     1.0000 0.02610  0.17392  0.90505  Biso   1.000  C
  C626     1.0000 0.91137  0.96543  0.20344  Biso   1.000  C
  C627     1.0000 0.22370  0.86296  0.01920  Biso   1.000  C
  C628     1.0000 0.52418  0.17926  0.59964  Biso   1.000  C
  C629     1.0000 0.40605  0.96201  0.30169  Biso   1.000  C
  C630     1.0000 0.72600  0.85977  0.49284  Biso   1.000  C
  C631     1.0000 0.49763  0.67914  0.90792  Biso   1.000  C
  C632     1.0000 0.62907  0.49044  0.20668  Biso   1.000  C
  C633     1.0000 0.30867  0.37002  0.01013  Biso   1.000  C
  C634     1.0000 0.99854  0.67625  0.59850  Biso   1.000  C
  C635     1.0000 0.13608  0.45523  0.30115  Biso   1.000  C
  C636     1.0000 0.80960  0.35872  0.47236  Biso   1.000  C
  C637     1.0000 0.00254  0.75406  0.09875  Biso   1.000  C
  C638     1.0000 0.13486  0.97257  0.80134  Biso   1.000  C
  C639     1.0000 0.81212  0.07055  0.99003  Biso   1.000  C
  C640     1.0000 0.51984  0.76420  0.40749  Biso   1.000  C
  C641     1.0000 0.63651  0.98648  0.70583  Biso   1.000  C
  C642     1.0000 0.31143  0.07530  0.53920  Biso   1.000  C
  C643     1.0000 0.51156  0.26580  0.10456  Biso   1.000  C
  C644     1.0000 0.40271  0.47108  0.79833  Biso   1.000  C
  C645     1.0000 0.72510  0.56853  0.00616  Biso   1.000  C
  C646     1.0000 0.02420  0.26299  0.40468  Biso   1.000  C
  C647     1.0000 0.89818  0.47294  0.70081  Biso   1.000  C
  C648     1.0000 0.21885  0.57479  0.52163  Biso   1.000  C
  C649     1.0000 0.01686  0.67878  0.39550  Biso   1.000  C
  C650     1.0000 0.43524  0.95936  0.71732  Biso   1.000  C
  C651     1.0000 0.72387  0.36663  0.99292  Biso   1.000  C
  C652     1.0000 0.53549  0.68222  0.10747  Biso   1.000  C
  C653     1.0000 0.93234  0.96103  0.78905  Biso   1.000  C
  C654     1.0000 0.22581  0.37246  0.52109  Biso   1.000  C
  C655     1.0000 0.50478  0.17789  0.39717  Biso   1.000  C
  C656     1.0000 0.10150  0.45608  0.71991  Biso   1.000  C
  C657     1.0000 0.81146  0.87119  0.01110  Biso   1.000  C
  C658     1.0000 0.00891  0.17379  0.11094  Biso   1.000  C
  C659     1.0000 0.60670  0.47282  0.78997  Biso   1.000  C
  C660     1.0000 0.30473  0.87316  0.51535  Biso   1.000  C
  C661     1.0000 0.02260  0.26323  0.61013  Biso   1.000  C
  C662     1.0000 0.60735  0.98750  0.28943  Biso   1.000  C
  C663     1.0000 0.31125  0.57251  0.00317  Biso   1.000  C
  C664     1.0000 0.52928  0.26843  0.89886  Biso   1.000  C
  C665     1.0000 0.11284  0.96114  0.21725  Biso   1.000  C
  C666     1.0000 0.80575  0.55748  0.49697  Biso   1.000  C
  C667     1.0000 0.50055  0.76730  0.61285  Biso   1.000  C
  C668     1.0000 0.93053  0.47165  0.28516  Biso   1.000  C
  C669     1.0000 0.23064  0.06483  0.01368  Biso   1.000  C
  C670     1.0000 0.01404  0.75979  0.89468  Biso   1.000  C
  C671     1.0000 0.42628  0.46729  0.21732  Biso   1.000  C
  C672     1.0000 0.72635  0.06562  0.47806  Biso   1.000  C
  C673     1.0000 0.22937  0.96047  0.81531  Biso   1.000  C
  C674     1.0000 0.82476  0.16738  0.99519  Biso   1.000  C
  C675     1.0000 0.00654  0.76873  0.19389  Biso   1.000  C
  C676     1.0000 0.73115  0.98476  0.68851  Biso   1.000  C
  C677     1.0000 0.32284  0.16997  0.52715  Biso   1.000  C
  C678     1.0000 0.52621  0.77623  0.31250  Biso   1.000  C
  C679     1.0000 0.31142  0.46991  0.81372  Biso   1.000  C
  C680     1.0000 0.71741  0.66161  0.00885  Biso   1.000  C
  C681     1.0000 0.51727  0.27852  0.19832  Biso   1.000  C
  C682     1.0000 0.80453  0.46458  0.68346  Biso   1.000  C
  C683     1.0000 0.20707  0.66880  0.50921  Biso   1.000  C
  C684     1.0000 0.02859  0.27023  0.30909  Biso   1.000  C
  C685     1.0000 0.81629  0.97603  0.18983  Biso   1.000  C
  C686     1.0000 0.21149  0.77181  0.01430  Biso   1.000  C
  C687     1.0000 0.02254  0.16165  0.81139  Biso   1.000  C
  C688     1.0000 0.31294  0.97830  0.31980  Biso   1.000  C
  C689     1.0000 0.70808  0.76875  0.51067  Biso   1.000  C
  C690     1.0000 0.52275  0.17303  0.69572  Biso   1.000  C
  C691     1.0000 0.72304  0.48069  0.18931  Biso   1.000  C
  C692     1.0000 0.32151  0.27588  0.00791  Biso   1.000  C
  C693     1.0000 0.50748  0.67425  0.81097  Biso   1.000  C
  C694     1.0000 0.22771  0.46896  0.32241  Biso   1.000  C
  C695     1.0000 0.82331  0.26387  0.48494  Biso   1.000  C
  C696     1.0000 0.99749  0.66463  0.69092  Biso   1.000  C
  C697     1.0000 0.70363  0.98251  0.29655  Biso   1.000  C
  C698     1.0000 0.32757  0.66651  0.01296  Biso   1.000  C
  C699     1.0000 0.01165  0.27386  0.70528  Biso   1.000  C
  C700     1.0000 0.20568  0.97521  0.20767  Biso   1.000  C
  C701     1.0000 0.81212  0.65370  0.49635  Biso   1.000  C
  C702     1.0000 0.51951  0.28194  0.80603  Biso   1.000  C
  C703     1.0000 0.83497  0.46892  0.29346  Biso   1.000  C
  C704     1.0000 0.21634  0.15992  0.00587  Biso   1.000  C
  C705     1.0000 0.50423  0.78319  0.70447  Biso   1.000  C
  C706     1.0000 0.33359  0.47318  0.21175  Biso   1.000  C
  C707     1.0000 0.71199  0.15709  0.47419  Biso   1.000  C
  C708     1.0000 0.01425  0.77371  0.79974  Biso   1.000  C
  C709     1.0000 0.33674  0.94945  0.70991  Biso   1.000  C
  C710     1.0000 0.71253  0.27231  0.00947  Biso   1.000  C
  C711     1.0000 0.01997  0.66242  0.29908  Biso   1.000  C
  C712     1.0000 0.83725  0.96969  0.79521  Biso   1.000  C
  C713     1.0000 0.21177  0.27726  0.53947  Biso   1.000  C
  C714     1.0000 0.53027  0.66792  0.20155  Biso   1.000  C
  C715     1.0000 0.19761  0.46671  0.71408  Biso   1.000  C
  C716     1.0000 0.81787  0.77647  0.01021  Biso   1.000  C
  C717     1.0000 0.50984  0.16295  0.30341  Biso   1.000  C
  C718     1.0000 0.70048  0.47388  0.79626  Biso   1.000  C
  C719     1.0000 0.31326  0.78035  0.50225  Biso   1.000  C
  C720     1.0000 0.02712  0.15705  0.20298  Biso   1.000  C
  C721     1.0000 0.50781  0.77783  0.28585  Biso   1.000  C
  C722     1.0000 0.31337  0.48291  0.78534  Biso   1.000  C
  C723     1.0000 0.79447  0.26749  0.49560  Biso   1.000  C
  C724     1.0000 0.02460  0.74305  0.18986  Biso   1.000  C
  C725     1.0000 0.77867  0.48297  0.67778  Biso   1.000  C
  C726     1.0000 0.29073  0.27806  0.99744  Biso   1.000  C
  C727     1.0000 0.00908  0.24541  0.31189  Biso   1.000  C
  C728     1.0000 0.25997  0.96776  0.82065  Biso   1.000  C
  C729     1.0000 0.73895  0.77062  0.51994  Biso   1.000  C
  C730     1.0000 0.50063  0.28256  0.22527  Biso   1.000  C
  C731     1.0000 0.75598  0.96431  0.68569  Biso   1.000  C
  C732     1.0000 0.23978  0.77721  0.99709  Biso   1.000  C
  C733     1.0000 0.50592  0.16861  0.72278  Biso   1.000  C
  C734     1.0000 0.72037  0.47243  0.21993  Biso   1.000  C
  C735     1.0000 0.20497  0.69053  0.48776  Biso   1.000  C
  C736     1.0000 0.03920  0.16023  0.78378  Biso   1.000  C
  C737     1.0000 0.25878  0.46148  0.33031  Biso   1.000  C
  C738     1.0000 0.74021  0.66066  0.03053  Biso   1.000  C
  C739     1.0000 0.01564  0.66314  0.71530  Biso   1.000  C
  C740     1.0000 0.78811  0.95994  0.18582  Biso   1.000  C
  C741     1.0000 0.29261  0.16473  0.52034  Biso   1.000  C
  C742     1.0000 0.49890  0.66884  0.78069  Biso   1.000  C
  C743     1.0000 0.28327  0.96664  0.32184  Biso   1.000  C
  C744     1.0000 0.82710  0.19370  0.01463  Biso   1.000  C
  C745     1.0000 0.03471  0.68863  0.30354  Biso   1.000  C
  C746     1.0000 0.30981  0.96437  0.70652  Biso   1.000  C
  C747     1.0000 0.74269  0.27769  0.01850  Biso   1.000  C
  C748     1.0000 0.54855  0.69427  0.20156  Biso   1.000  C
  C749     1.0000 0.80752  0.95658  0.79506  Biso   1.000  C
  C750     1.0000 0.23816  0.27858  0.55718  Biso   1.000  C
  C751     1.0000 0.52676  0.16074  0.27637  Biso   1.000  C
  C752     1.0000 0.22579  0.45228  0.70689  Biso   1.000  C
  C753     1.0000 0.78852  0.78072  0.99891  Biso   1.000  C
  C754     1.0000 0.04099  0.18499  0.19539  Biso   1.000  C
  C755     1.0000 0.69387  0.46145  0.76883  Biso   1.000  C
  C756     1.0000 0.32039  0.75134  0.51120  Biso   1.000  C
  C757     1.0000 0.00083  0.24523  0.70013  Biso   1.000  C
  C758     1.0000 0.70417  0.00039  0.27087  Biso   1.000  C
  C759     1.0000 0.29890  0.66215  0.02720  Biso   1.000  C
  C760     1.0000 0.53337  0.28726  0.77916  Biso   1.000  C
  C761     1.0000 0.23604  0.96701  0.20401  Biso   1.000  C
  C762     1.0000 0.81333  0.67924  0.47765  Biso   1.000  C
  C763     1.0000 0.48000  0.76125  0.70804  Biso   1.000  C
  C764     1.0000 0.80837  0.48564  0.29732  Biso   1.000  C
  C765     1.0000 0.23654  0.16354  0.02990  Biso   1.000  C
  C766     1.0000 0.99600  0.78038  0.77481  Biso   1.000  C
  C767     1.0000 0.34085  0.48942  0.23765  Biso   1.000  C
  C768     1.0000 0.70843  0.18395  0.45761  Biso   1.000  C
  C769     1.0000 0.51616  0.70266  0.82019  Biso   1.000  C
  C770     1.0000 0.80668  0.45039  0.71202  Biso   1.000  C
  C771     1.0000 0.69929  0.73992  0.49968  Biso   1.000  C
  C772     1.0000 0.97971  0.69129  0.68882  Biso   1.000  C
  C773     1.0000 0.28434  0.45435  0.81873  Biso   1.000  C
  C774     1.0000 0.20886  0.74328  0.02831  Biso   1.000  C
  C775     1.0000 0.00385  0.18806  0.81634  Biso   1.000  C
  C776     1.0000 0.73180  0.00715  0.71145  Biso   1.000  C
  C777     1.0000 0.82860  0.23699  0.46841  Biso   1.000  C
  C778     1.0000 0.53996  0.19930  0.69237  Biso   1.000  C
  C779     1.0000 0.22180  0.94359  0.78868  Biso   1.000  C
  C780     1.0000 0.32931  0.24747  0.01885  Biso   1.000  C
  C781     1.0000 0.53236  0.25051  0.19424  Biso   1.000  C
  C782     1.0000 0.22196  0.47952  0.29389  Biso   1.000  C
  C783     1.0000 0.32900  0.19996  0.53754  Biso   1.000  C
  C784     1.0000 0.04726  0.27193  0.28277  Biso   1.000  C
  C785     1.0000 0.75099  0.49004  0.17969  Biso   1.000  C
  C786     1.0000 0.79890  0.16530  0.97695  Biso   1.000  C
  C787     1.0000 0.99055  0.77115  0.22047  Biso   1.000  C
  C788     1.0000 0.31904  0.99438  0.29213  Biso   1.000  C
  C789     1.0000 0.23162  0.67094  0.52917  Biso   1.000  C
  C790     1.0000 0.54773  0.75250  0.31522  Biso   1.000  C
  C791     1.0000 0.81872  0.99358  0.21513  Biso   1.000  C
  C792     1.0000 0.71711  0.68460  0.98829  Biso   1.000  C
  C793     1.0000 0.49489  0.19065  0.30724  Biso   1.000  C
  C794     1.0000 0.30620  0.45792  0.21130  Biso   1.000  C
  C795     1.0000 0.20860  0.25037  0.52346  Biso   1.000  C
  C796     1.0000 0.01252  0.15392  0.23143  Biso   1.000  C
  C797     1.0000 0.84125  0.45626  0.26477  Biso   1.000  C
  C798     1.0000 0.70746  0.24484  0.99531  Biso   1.000  C
  C799     1.0000 0.00522  0.65701  0.27167  Biso   1.000  C
  C800     1.0000 0.19642  0.99045  0.23386  Biso   1.000  C
  C801     1.0000 0.28352  0.78553  0.49235  Biso   1.000  C
  C802     1.0000 0.51082  0.66668  0.22793  Biso   1.000  C
  C803     1.0000 0.72756  0.96055  0.29771  Biso   1.000  C
  C804     1.0000 0.82607  0.75093  0.02536  Biso   1.000  C
  C805     1.0000 0.52830  0.78201  0.72577  Biso   1.000  C
  C806     1.0000 0.72745  0.49121  0.79734  Biso   1.000  C
  C807     1.0000 0.78643  0.65119  0.51674  Biso   1.000  C
  C808     1.0000 0.02622  0.74541  0.80306  Biso   1.000  C
  C809     1.0000 0.19170  0.48084  0.74045  Biso   1.000  C
  C810     1.0000 0.33282  0.69447  0.99896  Biso   1.000  C
  C811     1.0000 0.02938  0.27802  0.73106  Biso   1.000  C
  C812     1.0000 0.84464  0.98947  0.77198  Biso   1.000  C
  C813     1.0000 0.73926  0.15468  0.48965  Biso   1.000  C
  C814     1.0000 0.50606  0.25439  0.81255  Biso   1.000  C
  C815     1.0000 0.34175  0.93258  0.73598  Biso   1.000  C
  C816     1.0000 0.21610  0.18314  0.98518  Biso   1.000  C
  C817     1.0000 0.03701  0.18251  0.76424  Biso   1.000  C
  C818     1.0000 0.76751  0.96077  0.20783  Biso   1.000  C
  C819     1.0000 0.26056  0.75523  0.99539  Biso   1.000  C
  C820     1.0000 0.50824  0.18912  0.74432  Biso   1.000  C
  C821     1.0000 0.26139  0.96991  0.30063  Biso   1.000  C
  C822     1.0000 0.75746  0.74731  0.51707  Biso   1.000  C
  C823     1.0000 0.49920  0.69102  0.76124  Biso   1.000  C
  C824     1.0000 0.74401  0.47061  0.23717  Biso   1.000  C
  C825     1.0000 0.27110  0.25571  0.99743  Biso   1.000  C
  C826     1.0000 0.01862  0.68460  0.73573  Biso   1.000  C
  C827     1.0000 0.28108  0.46472  0.30954  Biso   1.000  C
  C828     1.0000 0.77248  0.24780  0.49248  Biso   1.000  C
  C829     1.0000 0.02788  0.72236  0.21089  Biso   1.000  C
  C830     1.0000 0.28077  0.96234  0.79949  Biso   1.000  C
  C831     1.0000 0.80670  0.21555  0.01250  Biso   1.000  C
  C832     1.0000 0.50909  0.75568  0.26597  Biso   1.000  C
  C833     1.0000 0.77808  0.96630  0.70467  Biso   1.000  C
  C834     1.0000 0.27114  0.18389  0.52579  Biso   1.000  C
  C835     1.0000 0.49989  0.25986  0.24574  Biso   1.000  C
  C836     1.0000 0.29050  0.48161  0.76574  Biso   1.000  C
  C837     1.0000 0.76006  0.68179  0.03287  Biso   1.000  C
  C838     1.0000 0.00902  0.22396  0.29025  Biso   1.000  C
  C839     1.0000 0.75836  0.48451  0.69958  Biso   1.000  C
  C840     1.0000 0.22635  0.71225  0.48567  Biso   1.000  C
  C841     1.0000 0.24426  0.93932  0.76838  Biso   1.000  C
  C842     1.0000 0.77802  0.18718  0.97844  Biso   1.000  C
  C843     1.0000 0.99529  0.75117  0.24286  Biso   1.000  C
  C844     1.0000 0.75545  0.00763  0.72864  Biso   1.000  C
  C845     1.0000 0.30650  0.21879  0.54207  Biso   1.000  C
  C846     1.0000 0.54616  0.73021  0.29413  Biso   1.000  C
  C847     1.0000 0.26149  0.45407  0.80029  Biso   1.000  C
  C848     1.0000 0.73832  0.70603  0.99042  Biso   1.000  C
  C849     1.0000 0.52936  0.23014  0.21515  Biso   1.000  C
  C850     1.0000 0.78474  0.45273  0.73268  Biso   1.000  C
  C851     1.0000 0.25118  0.69385  0.52892  Biso   1.000  C
  C852     1.0000 0.04725  0.24911  0.26260  Biso   1.000  C
  C853     1.0000 0.79901  0.99209  0.23734  Biso   1.000  C
  C854     1.0000 0.23305  0.72481  0.02732  Biso   1.000  C
  C855     1.0000 0.00388  0.20995  0.79546  Biso   1.000  C
  C856     1.0000 0.29598  0.99579  0.27145  Biso   1.000  C
  C857     1.0000 0.71888  0.71751  0.49709  Biso   1.000  C
  C858     1.0000 0.53851  0.21978  0.71529  Biso   1.000  C
  C859     1.0000 0.77467  0.49026  0.19949  Biso   1.000  C
  C860     1.0000 0.30696  0.22642  0.01908  Biso   1.000  C
  C861     1.0000 0.51573  0.72397  0.79925  Biso   1.000  C
  C862     1.0000 0.24380  0.48038  0.27347  Biso   1.000  C
  C863     1.0000 0.80673  0.21688  0.46544  Biso   1.000  C
  C864     1.0000 0.98207  0.71283  0.70969  Biso   1.000  C
  C865     1.0000 0.71382  0.46127  0.74632  Biso   1.000  C
  C866     1.0000 0.79296  0.70150  0.47923  Biso   1.000  C
  C867     1.0000 0.47959  0.74327  0.73108  Biso   1.000  C
  C868     1.0000 0.24651  0.45263  0.72984  Biso   1.000  C
  C869     1.0000 0.27788  0.68301  0.02709  Biso   1.000  C
  C870     1.0000 0.99161  0.76067  0.75241  Biso   1.000  C
  C871     1.0000 0.78852  0.96112  0.77344  Biso   1.000  C
  C872     1.0000 0.73114  0.20475  0.45919  Biso   1.000  C
  C873     1.0000 0.00326  0.22357  0.72099  Biso   1.000  C
  C874     1.0000 0.28953  0.96239  0.72865  Biso   1.000  C
  C875     1.0000 0.25499  0.18677  0.03156  Biso   1.000  C
  C876     1.0000 0.53452  0.26457  0.75824  Biso   1.000  C
  C877     1.0000 0.32183  0.48737  0.26277  Biso   1.000  C
  C878     1.0000 0.25852  0.25688  0.55523  Biso   1.000  C
  C879     1.0000 0.52547  0.18324  0.25583  Biso   1.000  C
  C880     1.0000 0.78758  0.48658  0.27613  Biso   1.000  C
  C881     1.0000 0.76406  0.25710  0.01425  Biso   1.000  C
  C882     1.0000 0.04053  0.20774  0.21516  Biso   1.000  C
  C883     1.0000 0.25529  0.96982  0.22639  Biso   1.000  C
  C884     1.0000 0.29854  0.72969  0.51057  Biso   1.000  C
  C885     1.0000 0.03179  0.71073  0.28346  Biso   1.000  C
  C886     1.0000 0.72620  0.99855  0.25065  Biso   1.000  C
  C887     1.0000 0.76939  0.75739  0.00168  Biso   1.000  C
  C888     1.0000 0.54943  0.71330  0.22543  Biso   1.000  C
  C889     1.0000 0.74985  0.95885  0.27624  Biso   1.000  C
  C890     1.0000 0.31032  0.71619  0.00245  Biso   1.000  C
  C891     1.0000 0.02993  0.25596  0.75285  Biso   1.000  C
  C892     1.0000 0.21675  0.99317  0.25614  Biso   1.000  C
  C893     1.0000 0.76542  0.67325  0.51613  Biso   1.000  C
  C894     1.0000 0.50652  0.23431  0.79065  Biso   1.000  C
  C895     1.0000 0.82243  0.46281  0.24221  Biso   1.000  C
  C896     1.0000 0.23580  0.20536  0.98737  Biso   1.000  C
  C897     1.0000 0.52689  0.76163  0.74962  Biso   1.000  C
  C898     1.0000 0.28809  0.45920  0.23455  Biso   1.000  C
  C899     1.0000 0.76331  0.17385  0.48825  Biso   1.000  C
  C900     1.0000 0.02005  0.72640  0.78136  Biso   1.000  C
  C901     1.0000 0.31981  0.92998  0.75606  Biso   1.000  C
  C902     1.0000 0.72855  0.22357  0.99345  Biso   1.000  C
  C903     1.0000 0.00185  0.67787  0.25185  Biso   1.000  C
  C904     1.0000 0.82354  0.99358  0.74966  Biso   1.000  C
  C905     1.0000 0.22864  0.22903  0.52260  Biso   1.000  C
  C906     1.0000 0.51142  0.68677  0.25138  Biso   1.000  C
  C907     1.0000 0.21276  0.48055  0.76282  Biso   1.000  C
  C908     1.0000 0.80583  0.73001  0.02697  Biso   1.000  C
  C909     1.0000 0.49683  0.21327  0.28746  Biso   1.000  C
  C910     1.0000 0.74675  0.49080  0.77321  Biso   1.000  C
  C911     1.0000 0.26161  0.76387  0.49350  Biso   1.000  C
  C912     1.0000 0.01509  0.17535  0.25171  Biso   1.000  C
  C913     1.0000 0.76069  0.46971  0.72567  Biso   1.000  C
  C914     1.0000 0.74823  0.72210  0.50386  Biso   1.000  C
  C915     1.0000 0.50611  0.71827  0.77076  Biso   1.000  C
  C916     1.0000 0.26465  0.46886  0.77442  Biso   1.000  C
  C917     1.0000 0.25862  0.73060  0.01214  Biso   1.000  C
  C918     1.0000 0.00270  0.71154  0.73240  Biso   1.000  C
  C919     1.0000 0.77684  0.98645  0.72719  Biso   1.000  C
  C920     1.0000 0.77830  0.22298  0.47645  Biso   1.000  C
  C921     1.0000 0.01980  0.20719  0.76876  Biso   1.000  C
  C922     1.0000 0.27292  0.94742  0.77457  Biso   1.000  C
  C923     1.0000 0.27853  0.22989  0.00960  Biso   1.000  C
  C924     1.0000 0.52177  0.21631  0.74103  Biso   1.000  C
  C925     1.0000 0.27231  0.47409  0.28231  Biso   1.000  C
  C926     1.0000 0.27752  0.21065  0.53568  Biso   1.000  C
  C927     1.0000 0.51307  0.23307  0.23988  Biso   1.000  C
  C928     1.0000 0.77145  0.47862  0.22717  Biso   1.000  C
  C929     1.0000 0.78194  0.21235  0.99433  Biso   1.000  C
  C930     1.0000 0.02826  0.22538  0.26583  Biso   1.000  C
  C931     1.0000 0.26749  0.98442  0.27545  Biso   1.000  C
  C932     1.0000 0.24908  0.71373  0.50563  Biso   1.000  C
  C933     1.0000 0.01190  0.72657  0.23656  Biso   1.000  C
  C934     1.0000 0.77337  0.97639  0.23265  Biso   1.000  C
  C935     1.0000 0.75938  0.70611  0.01253  Biso   1.000  C
  C936     1.0000 0.52785  0.73240  0.27145  Biso   1.000  C
  C937     1.0000 0.75674  0.22977  0.00417  Biso   1.000  C
  C938     1.0000 0.01366  0.70536  0.25892  Biso   1.000  C
  C939     1.0000 0.29303  0.94270  0.75078  Biso   1.000  C
  C940     1.0000 0.25458  0.23265  0.53784  Biso   1.000  C
  C941     1.0000 0.53135  0.70913  0.25019  Biso   1.000  C
  C942     1.0000 0.79693  0.98011  0.75081  Biso   1.000  C
  C943     1.0000 0.77787  0.73228  0.01484  Biso   1.000  C
  C944     1.0000 0.51091  0.20959  0.26118  Biso   1.000  C
  C945     1.0000 0.24070  0.46737  0.75480  Biso   1.000  C
  C946     1.0000 0.26968  0.73644  0.50242  Biso   1.000  C
  C947     1.0000 0.03080  0.20021  0.24397  Biso   1.000  C
  C948     1.0000 0.73951  0.47510  0.74872  Biso   1.000  C
  C949     1.0000 0.28310  0.70908  0.01349  Biso   1.000  C
  C950     1.0000 0.01854  0.22969  0.74626  Biso   1.000  C
  C951     1.0000 0.74837  0.97737  0.25250  Biso   1.000  C
  C952     1.0000 0.76891  0.69779  0.49842  Biso   1.000  C
  C953     1.0000 0.51979  0.23911  0.76334  Biso   1.000  C
  C954     1.0000 0.24554  0.98395  0.25136  Biso   1.000  C
  C955     1.0000 0.25568  0.20705  0.00966  Biso   1.000  C
  C956     1.0000 0.50338  0.74165  0.74911  Biso   1.000  C
  C957     1.0000 0.79545  0.47566  0.24934  Biso   1.000  C
  C958     1.0000 0.75757  0.20009  0.47315  Biso   1.000  C
  C959     1.0000 0.00396  0.73276  0.75565  Biso   1.000  C
  C960     1.0000 0.29496  0.47356  0.26079  Biso   1.000  C
  Cu1      1.0000 0.00365  0.46731  0.65506  Biso   1.000  Cu
  Cu2      1.0000 0.67342  0.96360  0.49698  Biso   1.000  Cu
  Cu3      1.0000 0.52057  0.62270  0.00607  Biso   1.000  Cu
  Cu4      1.0000 0.50693  0.47381  0.84871  Biso   1.000  Cu
  Cu5      1.0000 0.17548  0.96476  0.01117  Biso   1.000  Cu
  Cu6      1.0000 0.00959  0.61863  0.49298  Biso   1.000  Cu
  Cu7      1.0000 0.53314  0.97603  0.65844  Biso   1.000  Cu
  Cu8      1.0000 0.85961  0.45858  0.49273  Biso   1.000  Cu
  Cu9      1.0000 0.01876  0.12142  0.00512  Biso   1.000  Cu
  Cu10     1.0000 0.02929  0.96428  0.85004  Biso   1.000  Cu
  Cu11     1.0000 0.36231  0.46968  0.00923  Biso   1.000  Cu
  Cu12     1.0000 0.51624  0.12260  0.50016  Biso   1.000  Cu
  Cu13     1.0000 0.02865  0.46746  0.34764  Biso   1.000  Cu
  Cu14     1.0000 0.36449  0.97562  0.51509  Biso   1.000  Cu
  Cu15     1.0000 0.51566  0.32044  0.99995  Biso   1.000  Cu
  Cu16     1.0000 0.52700  0.47508  0.15874  Biso   1.000  Cu
  Cu17     1.0000 0.86749  0.96751  0.99394  Biso   1.000  Cu
  Cu18     1.0000 0.01535  0.31655  0.50791  Biso   1.000  Cu
  Cu19     1.0000 0.50964  0.97193  0.35216  Biso   1.000  Cu
  Cu20     1.0000 0.16807  0.46882  0.51336  Biso   1.000  Cu
  Cu21     1.0000 0.01554  0.81087  0.99840  Biso   1.000  Cu
  Cu22     1.0000 0.01739  0.96118  0.15323  Biso   1.000  Cu
  Cu23     1.0000 0.66936  0.46847  0.99686  Biso   1.000  Cu
  Cu24     1.0000 0.51239  0.82249  0.50998  Biso   1.000  Cu
  Cu25     1.0000 0.22924  0.96193  0.01273  Biso   1.000  Cu
  Cu26     1.0000 0.02157  0.17522  0.00585  Biso   1.000  Cu
  Cu27     1.0000 0.01110  0.96238  0.20758  Biso   1.000  Cu
  Cu28     1.0000 0.72691  0.96459  0.49041  Biso   1.000  Cu
  Cu29     1.0000 0.51732  0.17619  0.49542  Biso   1.000  Cu
  Cu30     1.0000 0.50617  0.96747  0.29852  Biso   1.000  Cu
  Cu31     1.0000 0.30794  0.47015  0.01529  Biso   1.000  Cu
  Cu32     1.0000 0.52071  0.67646  0.00650  Biso   1.000  Cu
  Cu33     1.0000 0.52527  0.47348  0.21243  Biso   1.000  Cu
  Cu34     1.0000 0.80633  0.45830  0.48731  Biso   1.000  Cu
  Cu35     1.0000 0.00694  0.67230  0.49766  Biso   1.000  Cu
  Cu36     1.0000 0.03450  0.46619  0.29358  Biso   1.000  Cu
  Cu37     1.0000 0.81213  0.97085  0.99141  Biso   1.000  Cu
  Cu38     1.0000 0.01569  0.75782  0.99767  Biso   1.000  Cu
  Cu39     1.0000 0.03344  0.96613  0.79630  Biso   1.000  Cu
  Cu40     1.0000 0.30960  0.97506  0.51706  Biso   1.000  Cu
  Cu41     1.0000 0.51062  0.76712  0.50954  Biso   1.000  Cu
  Cu42     1.0000 0.53708  0.97625  0.71340  Biso   1.000  Cu
  Cu43     1.0000 0.72609  0.46781  0.99300  Biso   1.000  Cu
  Cu44     1.0000 0.51635  0.26821  0.99935  Biso   1.000  Cu
  Cu45     1.0000 0.50580  0.47723  0.79592  Biso   1.000  Cu
  Cu46     1.0000 0.22084  0.47245  0.51889  Biso   1.000  Cu
  Cu47     1.0000 0.01769  0.26283  0.50716  Biso   1.000  Cu
  Cu48     1.0000 0.00025  0.46818  0.70923  Biso   1.000  Cu
  H1       1.0000 0.30202  0.70721  0.51563  Biso   1.000  H
  H2       1.0000 0.54605  0.26900  0.73823  Biso   1.000  H
  H3       1.0000 0.76768  0.49855  0.28219  Biso   1.000  H
  H4       1.0000 0.74718  0.76136  0.99502  Biso   1.000  H
  H5       1.0000 0.99886  0.20131  0.71514  Biso   1.000  H
  H6       1.0000 0.33023  0.49945  0.28143  Biso   1.000  H
  H7       1.0000 0.27957  0.26009  0.56779  Biso   1.000  H
  H8       1.0000 0.97909  0.76871  0.73139  Biso   1.000  H
  H9       1.0000 0.72718  0.01495  0.23457  Biso   1.000  H
  H10      1.0000 0.78688  0.26519  0.02087  Biso   1.000  H
  H11      1.0000 0.46238  0.72640  0.73279  Biso   1.000  H
  H12      1.0000 0.27743  0.96204  0.22249  Biso   1.000  H
  H13      1.0000 0.72848  0.22350  0.44770  Biso   1.000  H
  H14      1.0000 0.56600  0.72941  0.22708  Biso   1.000  H
  H15      1.0000 0.26882  0.44330  0.72417  Biso   1.000  H
  H16      1.0000 0.26819  0.19014  0.05077  Biso   1.000  H
  H17      1.0000 0.04011  0.73344  0.28792  Biso   1.000  H
  H18      1.0000 0.70761  0.44922  0.72791  Biso   1.000  H
  H19      1.0000 0.79395  0.72136  0.46632  Biso   1.000  H
  H20      1.0000 0.04783  0.22880  0.21018  Biso   1.000  H
  H21      1.0000 0.26931  0.97400  0.72547  Biso   1.000  H
  H22      1.0000 0.26085  0.68056  0.04231  Biso   1.000  H
  H23      1.0000 0.53620  0.17667  0.23495  Biso   1.000  H
  H24      1.0000 0.76697  0.95125  0.77514  Biso   1.000  H
  H25      1.0000 0.30288  0.97040  0.80151  Biso   1.000  H
  H26      1.0000 0.80850  0.23126  0.02953  Biso   1.000  H
  H27      1.0000 0.03957  0.70380  0.20674  Biso   1.000  H
  H28      1.0000 0.79576  0.94970  0.70530  Biso   1.000  H
  H29      1.0000 0.25020  0.17433  0.52246  Biso   1.000  H
  H30      1.0000 0.49228  0.75469  0.24739  Biso   1.000  H
  H31      1.0000 0.29076  0.48981  0.74329  Biso   1.000  H
  H32      1.0000 0.77797  0.67934  0.04966  Biso   1.000  H
  H33      1.0000 0.48682  0.26295  0.26674  Biso   1.000  H
  H34      1.0000 0.73869  0.49715  0.69651  Biso   1.000  H
  H35      1.0000 0.22165  0.72893  0.46966  Biso   1.000  H
  H36      1.0000 0.99458  0.20455  0.29272  Biso   1.000  H
  H37      1.0000 0.74701  0.94826  0.20641  Biso   1.000  H
  H38      1.0000 0.27628  0.76009  0.97874  Biso   1.000  H
  H39      1.0000 0.04605  0.18044  0.74338  Biso   1.000  H
  H40      1.0000 0.24022  0.96148  0.30220  Biso   1.000  H
  H41      1.0000 0.78073  0.74823  0.52082  Biso   1.000  H
  H42      1.0000 0.49639  0.18517  0.76443  Biso   1.000  H
  H43      1.0000 0.74094  0.46091  0.25894  Biso   1.000  H
  H44      1.0000 0.25018  0.25806  0.98650  Biso   1.000  H
  H45      1.0000 0.49338  0.68857  0.73898  Biso   1.000  H
  H46      1.0000 0.30378  0.45644  0.31332  Biso   1.000  H
  H47      1.0000 0.74970  0.25250  0.49866  Biso   1.000  H
  H48      1.0000 0.03460  0.68120  0.75288  Biso   1.000  H
  H49      1.0000 0.23840  0.48584  0.25056  Biso   1.000  H
  H50      1.0000 0.31397  0.24045  0.54826  Biso   1.000  H
  H51      1.0000 0.54332  0.21098  0.21038  Biso   1.000  H
  H52      1.0000 0.79615  0.49581  0.19183  Biso   1.000  H
  H53      1.0000 0.76050  0.18753  0.96268  Biso   1.000  H
  H54      1.0000 0.06380  0.24985  0.24516  Biso   1.000  H
  H55      1.0000 0.29973  0.00373  0.25034  Biso   1.000  H
  H56      1.0000 0.26934  0.69426  0.54503  Biso   1.000  H
  H57      1.0000 0.99041  0.75443  0.26573  Biso   1.000  H
  H58      1.0000 0.80077  0.00763  0.25656  Biso   1.000  H
  H59      1.0000 0.74014  0.72274  0.97312  Biso   1.000  H
  H60      1.0000 0.56132  0.71255  0.29657  Biso   1.000  H
  H61      1.0000 0.78606  0.44287  0.75448  Biso   1.000  H
  H62      1.0000 0.71059  0.69570  0.48968  Biso   1.000  H
  H63      1.0000 0.52473  0.74448  0.80540  Biso   1.000  H
  H64      1.0000 0.24248  0.44140  0.80667  Biso   1.000  H
  H65      1.0000 0.23107  0.70517  0.04048  Biso   1.000  H
  H66      1.0000 0.96691  0.73012  0.70821  Biso   1.000  H
  H67      1.0000 0.75648  0.02491  0.74442  Biso   1.000  H
  H68      1.0000 0.81230  0.19425  0.45690  Biso   1.000  H
  H69      1.0000 0.98984  0.22900  0.80013  Biso   1.000  H
  H70      1.0000 0.23999  0.92960  0.74719  Biso   1.000  H
  H71      1.0000 0.31362  0.20417  0.02290  Biso   1.000  H
  H72      1.0000 0.55322  0.23844  0.71042  Biso   1.000  H
  H73      1.0000 0.76624  0.50169  0.77165  Biso   1.000  H
  H74      1.0000 0.74545  0.67128  0.53019  Biso   1.000  H
  H75      1.0000 0.54160  0.75973  0.76696  Biso   1.000  H
  H76      1.0000 0.21142  0.49230  0.78355  Biso   1.000  H
  H77      1.0000 0.31624  0.73834  0.99445  Biso   1.000  H
  H78      1.0000 0.02624  0.70350  0.78485  Biso   1.000  H
  H79      1.0000 0.82957  0.00589  0.73041  Biso   1.000  H
  H80      1.0000 0.78296  0.16888  0.50103  Biso   1.000  H
  H81      1.0000 0.04077  0.25918  0.77547  Biso   1.000  H
  H82      1.0000 0.32359  0.91604  0.77344  Biso   1.000  H
  H83      1.0000 0.23576  0.22256  0.97125  Biso   1.000  H
  H84      1.0000 0.49603  0.21330  0.79720  Biso   1.000  H
  H85      1.0000 0.26696  0.44719  0.23145  Biso   1.000  H
  H86      1.0000 0.22257  0.20828  0.51143  Biso   1.000  H
  H87      1.0000 0.48620  0.23330  0.29571  Biso   1.000  H
  H88      1.0000 0.82932  0.45556  0.22139  Biso   1.000  H
  H89      1.0000 0.72273  0.20271  0.98444  Biso   1.000  H
  H90      1.0000 0.00564  0.17100  0.27321  Biso   1.000  H
  H91      1.0000 0.21152  0.00494  0.27626  Biso   1.000  H
  H92      1.0000 0.24097  0.76659  0.48495  Biso   1.000  H
  H93      1.0000 0.98830  0.67576  0.23251  Biso   1.000  H
  H94      1.0000 0.76559  0.94099  0.27729  Biso   1.000  H
  H95      1.0000 0.81016  0.71044  0.04097  Biso   1.000  H
  H96      1.0000 0.49713  0.68394  0.27096  Biso   1.000  H
  H97      1.0000 0.89145  0.95968  0.90484  Biso   1.000  H
  H98      1.0000 0.92606  0.83402  0.00230  Biso   1.000  H
  H99      1.0000 0.03195  0.87358  0.86537  Biso   1.000  H
  H100     1.0000 0.39467  0.97160  0.60260  Biso   1.000  H
  H101     1.0000 0.42068  0.83871  0.49769  Biso   1.000  H
  H102     1.0000 0.52772  0.88251  0.63935  Biso   1.000  H
  H103     1.0000 0.64664  0.47871  0.90644  Biso   1.000  H
  H104     1.0000 0.60801  0.33429  0.00553  Biso   1.000  H
  H105     1.0000 0.50791  0.38660  0.86843  Biso   1.000  H
  H106     1.0000 0.13831  0.46954  0.60654  Biso   1.000  H
  H107     1.0000 0.11339  0.33742  0.49881  Biso   1.000  H
  H108     1.0000 0.99956  0.37304  0.64149  Biso   1.000  H
  H109     1.0000 0.14866  0.95723  0.10189  Biso   1.000  H
  H110     1.0000 0.11177  0.09884  0.01287  Biso   1.000  H
  H111     1.0000 0.01713  0.05809  0.13210  Biso   1.000  H
  H112     1.0000 0.64371  0.96287  0.40229  Biso   1.000  H
  H113     1.0000 0.60596  0.09967  0.49536  Biso   1.000  H
  H114     1.0000 0.50543  0.05952  0.36851  Biso   1.000  H
  H115     1.0000 0.38920  0.46845  0.09839  Biso   1.000  H
  H116     1.0000 0.43043  0.59799  0.02165  Biso   1.000  H
  H117     1.0000 0.52559  0.56290  0.13949  Biso   1.000  H
  H118     1.0000 0.88759  0.46252  0.40078  Biso   1.000  H
  H119     1.0000 0.91820  0.59594  0.49777  Biso   1.000  H
  H120     1.0000 0.02975  0.56533  0.36794  Biso   1.000  H
  H121     1.0000 0.12155  0.96200  0.87583  Biso   1.000  H
  H122     1.0000 0.88731  0.06217  0.99735  Biso   1.000  H
  H123     1.0000 0.01569  0.82764  0.08855  Biso   1.000  H
  H124     1.0000 0.62265  0.96669  0.63397  Biso   1.000  H
  H125     1.0000 0.38557  0.06653  0.52343  Biso   1.000  H
  H126     1.0000 0.52238  0.84019  0.41582  Biso   1.000  H
  H127     1.0000 0.41588  0.47616  0.87315  Biso   1.000  H
  H128     1.0000 0.65064  0.56044  0.99643  Biso   1.000  H
  H129     1.0000 0.51754  0.34089  0.09390  Biso   1.000  H
  H130     1.0000 0.91543  0.45472  0.62775  Biso   1.000  H
  H131     1.0000 0.14494  0.56404  0.51583  Biso   1.000  H
  H132     1.0000 0.01701  0.33826  0.41233  Biso   1.000  H
  H133     1.0000 0.92342  0.97076  0.12876  Biso   1.000  H
  H134     1.0000 0.14716  0.87234  0.01227  Biso   1.000  H
  H135     1.0000 0.02484  0.09921  0.91607  Biso   1.000  H
  H136     1.0000 0.41965  0.97721  0.37588  Biso   1.000  H
  H137     1.0000 0.65137  0.87547  0.50269  Biso   1.000  H
  H138     1.0000 0.52530  0.10586  0.58816  Biso   1.000  H
  H139     1.0000 0.61580  0.47502  0.13261  Biso   1.000  H
  H140     1.0000 0.38364  0.38047  0.99253  Biso   1.000  H
  H141     1.0000 0.51268  0.60697  0.91639  Biso   1.000  H
  H142     1.0000 0.11733  0.46835  0.37432  Biso   1.000  H
  H143     1.0000 0.88053  0.36982  0.49650  Biso   1.000  H
  H144     1.0000 0.00417  0.60071  0.58718  Biso   1.000  H
  H145     1.0000 0.60108  0.47633  0.86795  Biso   1.000  H
  H146     1.0000 0.88325  0.55448  0.50428  Biso   1.000  H
  H147     1.0000 0.51365  0.83841  0.59388  Biso   1.000  H
  H148     1.0000 0.09742  0.45142  0.64379  Biso   1.000  H
  H149     1.0000 0.38661  0.56095  0.00427  Biso   1.000  H
  H150     1.0000 0.02373  0.83320  0.90599  Biso   1.000  H
  H151     1.0000 0.93519  0.95908  0.86808  Biso   1.000  H
  H152     1.0000 0.65088  0.05474  0.48995  Biso   1.000  H
  H153     1.0000 0.00535  0.33680  0.59970  Biso   1.000  H
  H154     1.0000 0.43936  0.96243  0.64043  Biso   1.000  H
  H155     1.0000 0.15420  0.05678  0.01249  Biso   1.000  H
  H156     1.0000 0.51022  0.34074  0.91461  Biso   1.000  H
  H157     1.0000 0.43311  0.46131  0.13998  Biso   1.000  H
  H158     1.0000 0.15227  0.37990  0.50714  Biso   1.000  H
  H159     1.0000 0.50376  0.10260  0.40697  Biso   1.000  H
  H160     1.0000 0.93441  0.47588  0.36002  Biso   1.000  H
  H161     1.0000 0.64933  0.37696  0.99907  Biso   1.000  H
  H162     1.0000 0.01580  0.10156  0.09520  Biso   1.000  H
  H163     1.0000 0.10442  0.95624  0.14072  Biso   1.000  H
  H164     1.0000 0.38178  0.87788  0.50437  Biso   1.000  H
  H165     1.0000 0.02540  0.60453  0.40486  Biso   1.000  H
  H166     1.0000 0.60360  0.97492  0.36467  Biso   1.000  H
  H167     1.0000 0.88728  0.87720  0.00952  Biso   1.000  H
  H168     1.0000 0.53252  0.60567  0.09700  Biso   1.000  H
  H169     1.0000 0.02385  0.05467  0.87250  Biso   1.000  H
  H170     1.0000 0.88536  0.96345  0.09079  Biso   1.000  H
  H171     1.0000 0.10540  0.82945  0.00903  Biso   1.000  H
  H172     1.0000 0.52486  0.06662  0.63457  Biso   1.000  H
  H173     1.0000 0.38209  0.97811  0.41986  Biso   1.000  H
  H174     1.0000 0.60873  0.83677  0.50857  Biso   1.000  H
  H175     1.0000 0.50984  0.56473  0.87053  Biso   1.000  H
  H176     1.0000 0.65394  0.47188  0.08920  Biso   1.000  H
  H177     1.0000 0.42394  0.34303  0.97931  Biso   1.000  H
  H178     1.0000 0.00979  0.55860  0.63275  Biso   1.000  H
  H179     1.0000 0.15629  0.46263  0.42314  Biso   1.000  H
  H180     1.0000 0.92051  0.33255  0.50146  Biso   1.000  H
  H181     1.0000 0.01901  0.87233  0.13368  Biso   1.000  H
  H182     1.0000 0.16021  0.96192  0.91770  Biso   1.000  H
  H183     1.0000 0.93084  0.10582  0.00717  Biso   1.000  H
  H184     1.0000 0.52094  0.88128  0.37267  Biso   1.000  H
  H185     1.0000 0.66193  0.97026  0.59041  Biso   1.000  H
  H186     1.0000 0.42563  0.10792  0.51261  Biso   1.000  H
  H187     1.0000 0.51863  0.38133  0.13598  Biso   1.000  H
  H188     1.0000 0.37615  0.47664  0.91932  Biso   1.000  H
  H189     1.0000 0.61118  0.60251  0.99427  Biso   1.000  H
  H190     1.0000 0.02691  0.38036  0.36757  Biso   1.000  H
  H191     1.0000 0.87300  0.44807  0.58372  Biso   1.000  H
  H192     1.0000 0.10631  0.60073  0.50212  Biso   1.000  H
  H193     1.0000 0.28332  0.82940  0.52350  Biso   1.000  H
  H194     1.0000 0.53684  0.24882  0.85516  Biso   1.000  H
  H195     1.0000 0.89002  0.47589  0.26190  Biso   1.000  H
  H196     1.0000 0.78587  0.83073  0.01246  Biso   1.000  H
  H197     1.0000 0.02940  0.24324  0.65288  Biso   1.000  H
  H198     1.0000 0.38114  0.46078  0.23679  Biso   1.000  H
  H199     1.0000 0.24751  0.33307  0.53536  Biso   1.000  H
  H200     1.0000 0.00850  0.73923  0.85241  Biso   1.000  H
  H201     1.0000 0.64837  0.98925  0.26507  Biso   1.000  H
  H202     1.0000 0.74413  0.32524  0.99164  Biso   1.000  H
  H203     1.0000 0.49661  0.74963  0.65840  Biso   1.000  H
  H204     1.0000 0.15538  0.96280  0.23819  Biso   1.000  H
  H205     1.0000 0.74650  0.10916  0.46721  Biso   1.000  H
  H206     1.0000 0.52996  0.70320  0.14878  Biso   1.000  H
  H207     1.0000 0.14376  0.45782  0.74478  Biso   1.000  H
  H208     1.0000 0.25202  0.10516  0.01293  Biso   1.000  H
  H209     1.0000 0.01580  0.69881  0.35221  Biso   1.000  H
  H210     1.0000 0.64797  0.47640  0.76657  Biso   1.000  H
  H211     1.0000 0.78116  0.59509  0.49686  Biso   1.000  H
  H212     1.0000 0.01578  0.19277  0.15524  Biso   1.000  H
  H213     1.0000 0.39509  0.95478  0.74217  Biso   1.000  H
  H214     1.0000 0.29060  0.61554  0.00135  Biso   1.000  H
  H215     1.0000 0.51205  0.19698  0.35312  Biso   1.000  H
  H216     1.0000 0.89295  0.96200  0.76519  Biso   1.000  H
  H217     1.0000 0.25735  0.47117  0.38093  Biso   1.000  H
  H218     1.0000 0.37155  0.20185  0.50355  Biso   1.000  H
  H219     1.0000 0.52848  0.32838  0.23021  Biso   1.000  H
  H220     1.0000 0.75499  0.46698  0.13723  Biso   1.000  H
  H221     1.0000 0.87861  0.19982  0.99241  Biso   1.000  H
  H222     1.0000 0.02895  0.32361  0.27393  Biso   1.000  H
  H223     1.0000 0.28309  0.98620  0.37363  Biso   1.000  H
  H224     1.0000 0.15309  0.70144  0.50916  Biso   1.000  H
  H225     1.0000 0.01200  0.81906  0.23081  Biso   1.000  H
  H226     1.0000 0.78755  0.98264  0.13941  Biso   1.000  H
  H227     1.0000 0.66596  0.69980  0.99633  Biso   1.000  H
  H228     1.0000 0.53645  0.82977  0.27629  Biso   1.000  H
  H229     1.0000 0.77289  0.45094  0.63001  Biso   1.000  H
  H230     1.0000 0.65350  0.73733  0.53135  Biso   1.000  H
  H231     1.0000 0.51659  0.61903  0.77501  Biso   1.000  H
  H232     1.0000 0.27881  0.47865  0.86955  Biso   1.000  H
  H233     1.0000 0.16405  0.73723  0.00214  Biso   1.000  H
  H234     1.0000 0.99124  0.61456  0.72712  Biso   1.000  H
  H235     1.0000 0.76347  0.98529  0.63543  Biso   1.000  H
  H236     1.0000 0.87567  0.23382  0.50329  Biso   1.000  H
  H237     1.0000 0.02531  0.10706  0.77578  Biso   1.000  H
  H238     1.0000 0.26139  0.94842  0.87202  Biso   1.000  H
  H239     1.0000 0.37676  0.24350  0.98749  Biso   1.000  H
  H240     1.0000 0.52727  0.12356  0.73001  Biso   1.000  H
  H241     1.0000 0.73697  0.46163  0.84475  Biso   1.000  H
  H242     1.0000 0.86317  0.68803  0.49027  Biso   1.000  H
  H243     1.0000 0.51148  0.83477  0.73873  Biso   1.000  H
  H244     1.0000 0.23226  0.48278  0.66252  Biso   1.000  H
  H245     1.0000 0.38239  0.69700  0.02519  Biso   1.000  H
  H246     1.0000 0.02389  0.82579  0.76482  Biso   1.000  H
  H247     1.0000 0.79715  0.97270  0.84660  Biso   1.000  H
  H248     1.0000 0.66080  0.19110  0.47724  Biso   1.000  H
  H249     1.0000 0.00141  0.32087  0.73918  Biso   1.000  H
  H250     1.0000 0.29951  0.95292  0.66148  Biso   1.000  H
  H251     1.0000 0.16572  0.19436  0.00405  Biso   1.000  H
  H252     1.0000 0.50458  0.32974  0.77411  Biso   1.000  H
  H253     1.0000 0.29457  0.48014  0.15881  Biso   1.000  H
  H254     1.0000 0.15904  0.24734  0.54556  Biso   1.000  H
  H255     1.0000 0.50065  0.11095  0.26838  Biso   1.000  H
  H256     1.0000 0.79684  0.45876  0.34225  Biso   1.000  H
  H257     1.0000 0.66106  0.24112  0.02107  Biso   1.000  H
  H258     1.0000 0.03293  0.10342  0.23262  Biso   1.000  H
  H259     1.0000 0.24284  0.98385  0.15524  Biso   1.000  H
  H260     1.0000 0.36602  0.74665  0.48338  Biso   1.000  H
  H261     1.0000 0.02518  0.60965  0.26907  Biso   1.000  H
  H262     1.0000 0.73819  0.98371  0.34515  Biso   1.000  H
  H263     1.0000 0.86722  0.74238  0.99895  Biso   1.000  H
  H264     1.0000 0.52652  0.62125  0.23339  Biso   1.000  H
  H265     1.0000 0.02830  0.19573  0.86256  Biso   1.000  H
  H266     1.0000 0.86558  0.97070  0.22287  Biso   1.000  H
  H267     1.0000 0.24537  0.82128  0.01909  Biso   1.000  H
  H268     1.0000 0.51874  0.20383  0.64001  Biso   1.000  H
  H269     1.0000 0.36062  0.95842  0.28461  Biso   1.000  H
  H270     1.0000 0.74276  0.81494  0.49130  Biso   1.000  H
  H271     1.0000 0.49305  0.69997  0.86596  Biso   1.000  H
  H272     1.0000 0.67315  0.49779  0.22478  Biso   1.000  H
  H273     1.0000 0.28799  0.32736  0.01623  Biso   1.000  H
  H274     1.0000 0.99450  0.69728  0.64276  Biso   1.000  H
  H275     1.0000 0.18154  0.45483  0.28489  Biso   1.000  H
  H276     1.0000 0.79010  0.31404  0.46535  Biso   1.000  H
  H277     1.0000 0.99788  0.73388  0.14309  Biso   1.000  H
  H278     1.0000 0.17990  0.97684  0.78143  Biso   1.000  H
  H279     1.0000 0.79079  0.11452  0.98793  Biso   1.000  H
  H280     1.0000 0.52178  0.74250  0.36357  Biso   1.000  H
  H281     1.0000 0.68277  0.98935  0.72431  Biso   1.000  H
  H282     1.0000 0.28992  0.11661  0.53871  Biso   1.000  H
  H283     1.0000 0.51040  0.24379  0.14545  Biso   1.000  H
  H284     1.0000 0.35916  0.46633  0.77916  Biso   1.000  H
  H285     1.0000 0.74900  0.61078  0.01300  Biso   1.000  H
  H286     1.0000 0.02920  0.24282  0.36243  Biso   1.000  H
  H287     1.0000 0.85440  0.47361  0.72071  Biso   1.000  H
  H288     1.0000 0.23916  0.61922  0.52321  Biso   1.000  H
  H289     1.0000 0.11166  0.19463  0.01016  Biso   1.000  H
  H290     1.0000 0.03592  0.05073  0.22917  Biso   1.000  H
  H291     1.0000 0.24181  0.97769  0.10266  Biso   1.000  H
  H292     1.0000 0.60403  0.19087  0.48674  Biso   1.000  H
  H293     1.0000 0.49925  0.05495  0.27032  Biso   1.000  H
  H294     1.0000 0.74132  0.96835  0.39731  Biso   1.000  H
  H295     1.0000 0.43212  0.69308  0.03276  Biso   1.000  H
  H296     1.0000 0.52057  0.56524  0.23667  Biso   1.000  H
  H297     1.0000 0.29296  0.47583  0.10669  Biso   1.000  H
  H298     1.0000 0.92011  0.68793  0.48867  Biso   1.000  H
  H299     1.0000 0.02706  0.55664  0.27198  Biso   1.000  H
  H300     1.0000 0.79322  0.45387  0.39322  Biso   1.000  H
  H301     1.0000 0.92404  0.74051  0.99581  Biso   1.000  H
  H302     1.0000 0.03019  0.87752  0.76867  Biso   1.000  H
  H303     1.0000 0.79691  0.97003  0.89796  Biso   1.000  H
  H304     1.0000 0.42165  0.74901  0.47988  Biso   1.000  H
  H305     1.0000 0.52344  0.88953  0.73474  Biso   1.000  H
  H306     1.0000 0.29735  0.96165  0.60822  Biso   1.000  H
  H307     1.0000 0.60617  0.24063  0.02297  Biso   1.000  H
  H308     1.0000 0.49684  0.38568  0.77375  Biso   1.000  H
  H309     1.0000 0.74202  0.46694  0.90127  Biso   1.000  H
  H310     1.0000 0.10616  0.24409  0.52976  Biso   1.000  H
  H311     1.0000 0.00257  0.37870  0.74050  Biso   1.000  H
  H312     1.0000 0.23234  0.48523  0.60651  Biso   1.000  H
  H313     1.0000 0.25446  0.94454  0.92468  Biso   1.000  H
  H314     1.0000 0.93291  0.19471  0.99856  Biso   1.000  H
  H315     1.0000 0.01499  0.87492  0.22804  Biso   1.000  H
  H316     1.0000 0.75982  0.97755  0.58131  Biso   1.000  H
  H317     1.0000 0.42720  0.20017  0.49163  Biso   1.000  H
  H318     1.0000 0.52672  0.88118  0.27697  Biso   1.000  H
  H319     1.0000 0.28080  0.48543  0.92181  Biso   1.000  H
  H320     1.0000 0.60878  0.69788  0.99395  Biso   1.000  H
  H321     1.0000 0.52985  0.38179  0.23159  Biso   1.000  H
  H322     1.0000 0.77540  0.44870  0.57708  Biso   1.000  H
  H323     1.0000 0.09819  0.69671  0.49977  Biso   1.000  H
  H324     1.0000 0.02905  0.37387  0.27173  Biso   1.000  H
  H325     1.0000 0.78989  0.98116  0.08297  Biso   1.000  H
  H326     1.0000 0.10815  0.73398  0.99986  Biso   1.000  H
  H327     1.0000 0.02938  0.05527  0.77563  Biso   1.000  H
  H328     1.0000 0.28605  0.98741  0.42794  Biso   1.000  H
  H329     1.0000 0.59967  0.74451  0.53404  Biso   1.000  H
  H330     1.0000 0.52924  0.06923  0.73273  Biso   1.000  H
  H331     1.0000 0.75123  0.45411  0.08481  Biso   1.000  H
  H332     1.0000 0.43054  0.24756  0.97875  Biso   1.000  H
  H333     1.0000 0.52401  0.56685  0.77459  Biso   1.000  H
  H334     1.0000 0.24848  0.47268  0.43356  Biso   1.000  H
  H335     1.0000 0.92534  0.23689  0.51383  Biso   1.000  H
  H336     1.0000 0.99817  0.56228  0.72830  Biso   1.000  H
  H337     1.0000 0.02981  0.19589  0.91653  Biso   1.000  H
  H338     1.0000 0.92060  0.96196  0.22550  Biso   1.000  H
  H339     1.0000 0.24477  0.87405  0.01749  Biso   1.000  H
  H340     1.0000 0.52309  0.20046  0.58888  Biso   1.000  H
  H341     1.0000 0.41753  0.95486  0.28248  Biso   1.000  H
  H342     1.0000 0.74607  0.87099  0.48439  Biso   1.000  H
  H343     1.0000 0.49370  0.69729  0.92292  Biso   1.000  H
  H344     1.0000 0.61776  0.49295  0.22731  Biso   1.000  H
  H345     1.0000 0.28936  0.38366  0.01540  Biso   1.000  H
  H346     1.0000 0.99992  0.69634  0.58576  Biso   1.000  H
  H347     1.0000 0.12846  0.45206  0.27853  Biso   1.000  H
  H348     1.0000 0.78931  0.36983  0.46524  Biso   1.000  H
  H349     1.0000 0.99949  0.73419  0.08613  Biso   1.000  H
  H350     1.0000 0.12564  0.97888  0.77941  Biso   1.000  H
  H351     1.0000 0.79009  0.06060  0.98831  Biso   1.000  H
  H352     1.0000 0.51966  0.74493  0.42027  Biso   1.000  H
  H353     1.0000 0.62584  0.99204  0.72732  Biso   1.000  H
  H354     1.0000 0.29003  0.06665  0.54253  Biso   1.000  H
  H355     1.0000 0.51106  0.24465  0.09599  Biso   1.000  H
  H356     1.0000 0.41482  0.46734  0.77860  Biso   1.000  H
  H357     1.0000 0.74637  0.55741  0.00416  Biso   1.000  H
  H358     1.0000 0.02388  0.24383  0.41870  Biso   1.000  H
  H359     1.0000 0.90848  0.47689  0.72258  Biso   1.000  H
  H360     1.0000 0.24003  0.56361  0.52499  Biso   1.000  H
  H361     1.0000 0.01267  0.69883  0.40651  Biso   1.000  H
  H362     1.0000 0.44878  0.95713  0.73757  Biso   1.000  H
  H363     1.0000 0.74332  0.37937  0.99125  Biso   1.000  H
  H364     1.0000 0.53743  0.70149  0.09472  Biso   1.000  H
  H365     1.0000 0.94525  0.96139  0.76862  Biso   1.000  H
  H366     1.0000 0.24549  0.38483  0.51752  Biso   1.000  H
  H367     1.0000 0.51112  0.19802  0.40957  Biso   1.000  H
  H368     1.0000 0.08582  0.45625  0.73919  Biso   1.000  H
  H369     1.0000 0.79102  0.88326  0.01406  Biso   1.000  H
  H370     1.0000 0.00529  0.19583  0.10265  Biso   1.000  H
  H371     1.0000 0.59366  0.47387  0.77019  Biso   1.000  H
  H372     1.0000 0.28717  0.88816  0.51541  Biso   1.000  H
  H373     1.0000 0.03280  0.24382  0.60043  Biso   1.000  H
  H374     1.0000 0.59511  0.99027  0.27033  Biso   1.000  H
  H375     1.0000 0.29047  0.56199  0.00073  Biso   1.000  H
  H376     1.0000 0.53481  0.24985  0.91219  Biso   1.000  H
  H377     1.0000 0.10077  0.95629  0.23739  Biso   1.000  H
  H378     1.0000 0.78566  0.54655  0.49294  Biso   1.000  H
  H379     1.0000 0.49878  0.74676  0.60122  Biso   1.000  H
  H380     1.0000 0.94383  0.47295  0.26520  Biso   1.000  H
  H381     1.0000 0.25134  0.05319  0.01305  Biso   1.000  H
  H382     1.0000 0.01205  0.73989  0.90388  Biso   1.000  H
  H383     1.0000 0.43810  0.47014  0.23750  Biso   1.000  H
  H384     1.0000 0.74725  0.05547  0.47870  Biso   1.000  H
  H385     1.0000 0.26345  0.44832  0.34939  Biso   1.000  H
  H386     1.0000 0.28502  0.14499  0.50679  Biso   1.000  H
  H387     1.0000 0.48902  0.30186  0.22963  Biso   1.000  H
  H388     1.0000 0.69944  0.46526  0.22836  Biso   1.000  H
  H389     1.0000 0.84427  0.19440  0.02898  Biso   1.000  H
  H390     1.0000 0.99178  0.24565  0.32822  Biso   1.000  H
  H391     1.0000 0.27563  0.95657  0.34121  Biso   1.000  H
  H392     1.0000 0.18601  0.69126  0.47258  Biso   1.000  H
  H393     1.0000 0.04102  0.74077  0.17044  Biso   1.000  H
  H394     1.0000 0.78478  0.94573  0.16680  Biso   1.000  H
  H395     1.0000 0.74059  0.64273  0.04448  Biso   1.000  H
  H396     1.0000 0.49126  0.79468  0.28363  Biso   1.000  H
  H397     1.0000 0.77595  0.49500  0.65724  Biso   1.000  H
  H398     1.0000 0.74809  0.79165  0.52985  Biso   1.000  H
  H399     1.0000 0.49049  0.64860  0.77073  Biso   1.000  H
  H400     1.0000 0.33209  0.49706  0.78015  Biso   1.000  H
  H401     1.0000 0.24404  0.79555  0.98263  Biso   1.000  H
  H402     1.0000 0.02789  0.64291  0.72054  Biso   1.000  H
  H403     1.0000 0.75515  0.94583  0.67022  Biso   1.000  H
  H404     1.0000 0.78742  0.28854  0.50314  Biso   1.000  H
  H405     1.0000 0.05248  0.14283  0.77760  Biso   1.000  H
  H406     1.0000 0.26663  0.97814  0.84070  Biso   1.000  H
  H407     1.0000 0.28513  0.29864  0.98748  Biso   1.000  H
  H408     1.0000 0.49291  0.14888  0.72840  Biso   1.000  H
  H409     1.0000 0.30038  0.44575  0.19226  Biso   1.000  H
  H410     1.0000 0.18852  0.24477  0.51021  Biso   1.000  H
  H411     1.0000 0.48085  0.19213  0.32668  Biso   1.000  H
  H412     1.0000 0.86126  0.44324  0.26197  Biso   1.000  H
  H413     1.0000 0.68727  0.23936  0.98565  Biso   1.000  H
  H414     1.0000 0.99980  0.13554  0.23675  Biso   1.000  H
  H415     1.0000 0.17540  0.00059  0.23497  Biso   1.000  H
  H416     1.0000 0.27703  0.80699  0.48445  Biso   1.000  H
  H417     1.0000 0.99259  0.63741  0.27138  Biso   1.000  H
  H418     1.0000 0.72770  0.94337  0.31224  Biso   1.000  H
  H419     1.0000 0.84569  0.74621  0.03785  Biso   1.000  H
  H420     1.0000 0.49339  0.65004  0.23072  Biso   1.000  H
  H421     1.0000 0.73267  0.50134  0.81680  Biso   1.000  H
  H422     1.0000 0.78165  0.63354  0.53143  Biso   1.000  H
  H423     1.0000 0.54615  0.79595  0.72384  Biso   1.000  H
  H424     1.0000 0.17171  0.49077  0.74548  Biso   1.000  H
  H425     1.0000 0.35493  0.69742  0.99193  Biso   1.000  H
  H426     1.0000 0.04120  0.73718  0.81859  Biso   1.000  H
  H427     1.0000 0.86458  0.00151  0.77179  Biso   1.000  H
  H428     1.0000 0.74006  0.13812  0.50665  Biso   1.000  H
  H429     1.0000 0.04116  0.29802  0.73557  Biso   1.000  H
  H430     1.0000 0.36146  0.92078  0.74043  Biso   1.000  H
  H431     1.0000 0.20344  0.18119  0.96545  Biso   1.000  H
  H432     1.0000 0.49466  0.25050  0.83206  Biso   1.000  H
  H433     1.0000 0.30546  0.97901  0.68829  Biso   1.000  H
  H434     1.0000 0.74860  0.29902  0.02768  Biso   1.000  H
  H435     1.0000 0.04953  0.69086  0.32263  Biso   1.000  H
  H436     1.0000 0.80169  0.94182  0.81301  Biso   1.000  H
  H437     1.0000 0.24241  0.29652  0.57052  Biso   1.000  H
  H438     1.0000 0.56365  0.69612  0.18374  Biso   1.000  H
  H439     1.0000 0.22923  0.44000  0.68760  Biso   1.000  H
  H440     1.0000 0.78175  0.80004  0.98693  Biso   1.000  H
  H441     1.0000 0.54123  0.14072  0.27212  Biso   1.000  H
  H442     1.0000 0.67473  0.44599  0.76857  Biso   1.000  H
  H443     1.0000 0.34157  0.74461  0.51920  Biso   1.000  H
  H444     1.0000 0.05228  0.18774  0.17376  Biso   1.000  H
  H445     1.0000 0.68730  0.01664  0.26593  Biso   1.000  H
  H446     1.0000 0.29181  0.64561  0.04102  Biso   1.000  H
  H447     1.0000 0.98938  0.24108  0.67926  Biso   1.000  H
  H448     1.0000 0.24340  0.95363  0.18626  Biso   1.000  H
  H449     1.0000 0.83143  0.68544  0.46357  Biso   1.000  H
  H450     1.0000 0.54159  0.30847  0.77623  Biso   1.000  H
  H451     1.0000 0.80391  0.49897  0.31783  Biso   1.000  H
  H452     1.0000 0.23757  0.14995  0.04861  Biso   1.000  H
  H453     1.0000 0.46209  0.76416  0.69270  Biso   1.000  H
  H454     1.0000 0.36059  0.50040  0.23760  Biso   1.000  H
  H455     1.0000 0.68938  0.18900  0.44375  Biso   1.000  H
  H456     1.0000 0.98555  0.80120  0.77621  Biso   1.000  H
  H457     1.0000 0.67812  0.73569  0.48834  Biso   1.000  H
  H458     1.0000 0.52480  0.70428  0.84182  Biso   1.000  H
  H459     1.0000 0.82542  0.43588  0.71580  Biso   1.000  H
  H460     1.0000 0.19056  0.73721  0.04229  Biso   1.000  H
  H461     1.0000 0.96280  0.69511  0.67198  Biso   1.000  H
  H462     1.0000 0.28410  0.43988  0.83798  Biso   1.000  H
  H463     1.0000 0.84983  0.23262  0.45784  Biso   1.000  H
  H464     1.0000 0.98807  0.18829  0.83286  Biso   1.000  H
  H465     1.0000 0.71591  0.02491  0.71142  Biso   1.000  H
  H466     1.0000 0.35019  0.24101  0.02493  Biso   1.000  H
  H467     1.0000 0.55426  0.20225  0.67312  Biso   1.000  H
  H468     1.0000 0.20098  0.93277  0.78466  Biso   1.000  H
  H469     1.0000 0.35080  0.20595  0.54061  Biso   1.000  H
  H470     1.0000 0.54690  0.24431  0.17669  Biso   1.000  H
  H471     1.0000 0.20227  0.49231  0.28975  Biso   1.000  H
  H472     1.0000 0.79229  0.14816  0.96296  Biso   1.000  H
  H473     1.0000 0.06197  0.28956  0.28234  Biso   1.000  H
  H474     1.0000 0.75585  0.49960  0.15923  Biso   1.000  H
  H475     1.0000 0.23473  0.65695  0.54671  Biso   1.000  H
  H476     1.0000 0.97774  0.78950  0.22484  Biso   1.000  H
  H477     1.0000 0.33919  0.00547  0.28605  Biso   1.000  H
  H478     1.0000 0.70454  0.68502  0.96890  Biso   1.000  H
  H479     1.0000 0.56749  0.75364  0.32965  Biso   1.000  H
  H480     1.0000 0.83671  0.00787  0.21896  Biso   1.000  H
  N1       1.0000 0.69181  0.13869  0.47534  Biso   1.000  N
  N2       1.0000 0.52898  0.64927  0.18142  Biso   1.000  N
  N3       1.0000 0.17878  0.46696  0.69371  Biso   1.000  N
  N4       1.0000 0.19873  0.13923  0.00684  Biso   1.000  N
  N5       1.0000 0.02017  0.64522  0.31988  Biso   1.000  N
  N6       1.0000 0.68402  0.47426  0.81835  Biso   1.000  N
  N7       1.0000 0.83212  0.63467  0.49562  Biso   1.000  N
  N8       1.0000 0.02489  0.13801  0.18322  Biso   1.000  N
  N9       1.0000 0.35647  0.95137  0.69034  Biso   1.000  N
  N10      1.0000 0.34466  0.64646  0.01179  Biso   1.000  N
  N11      1.0000 0.50826  0.14299  0.32239  Biso   1.000  N
  N12      1.0000 0.85447  0.96574  0.81668  Biso   1.000  N
  N13      1.0000 0.33523  0.79765  0.50335  Biso   1.000  N
  N14      1.0000 0.51744  0.30118  0.82596  Biso   1.000  N
  N15      1.0000 0.85347  0.46678  0.31338  Biso   1.000  N
  N16      1.0000 0.83863  0.79466  0.00607  Biso   1.000  N
  N17      1.0000 0.01054  0.29241  0.68458  Biso   1.000  N
  N18      1.0000 0.34967  0.47166  0.18859  Biso   1.000  N
  N19      1.0000 0.19297  0.29630  0.53434  Biso   1.000  N
  N20      1.0000 0.01877  0.79212  0.81944  Biso   1.000  N
  N21      1.0000 0.68346  0.98213  0.31599  Biso   1.000  N
  N22      1.0000 0.69324  0.29253  0.00966  Biso   1.000  N
  N23      1.0000 0.50466  0.80329  0.68597  Biso   1.000  N
  N24      1.0000 0.18718  0.96887  0.18669  Biso   1.000  N
  N25      1.0000 0.82485  0.45929  0.66549  Biso   1.000  N
  N26      1.0000 0.68968  0.78941  0.50983  Biso   1.000  N
  N27      1.0000 0.50947  0.65267  0.82949  Biso   1.000  N
  N28      1.0000 0.32934  0.47276  0.83387  Biso   1.000  N
  N29      1.0000 0.19096  0.79058  0.01284  Biso   1.000  N
  N30      1.0000 0.99639  0.64451  0.67157  Biso   1.000  N
  N31      1.0000 0.71004  0.98395  0.67005  Biso   1.000  N
  N32      1.0000 0.84082  0.28459  0.48728  Biso   1.000  N
  N33      1.0000 0.02194  0.14069  0.82941  Biso   1.000  N
  N34      1.0000 0.20930  0.96334  0.83445  Biso   1.000  N
  N35      1.0000 0.34125  0.29569  0.00175  Biso   1.000  N
  N36      1.0000 0.52413  0.15312  0.67616  Biso   1.000  N
  N37      1.0000 0.20808  0.46442  0.34111  Biso   1.000  N
  N38      1.0000 0.34222  0.15024  0.52327  Biso   1.000  N
  N39      1.0000 0.51599  0.29808  0.17975  Biso   1.000  N
  N40      1.0000 0.70214  0.47965  0.17184  Biso   1.000  N
  N41      1.0000 0.84369  0.14664  0.99689  Biso   1.000  N
  N42      1.0000 0.02719  0.29242  0.32729  Biso   1.000  N
  N43      1.0000 0.33431  0.97680  0.33833  Biso   1.000  N
  N44      1.0000 0.18812  0.64908  0.51144  Biso   1.000  N
  N45      1.0000 0.00671  0.78729  0.17422  Biso   1.000  N
  N46      1.0000 0.83748  0.97442  0.17146  Biso   1.000  N
  N47      1.0000 0.69692  0.64400  0.00611  Biso   1.000  N
  N48      1.0000 0.52605  0.79634  0.33109  Biso   1.000  N
  O1       1.0000 0.36159  0.51144  0.01000  Biso   1.000  O
  O2       1.0000 0.01909  0.31205  0.54953  Biso   1.000  O
  O3       1.0000 0.55131  0.97765  0.34536  Biso   1.000  O
  O4       1.0000 0.86007  0.50137  0.49383  Biso   1.000  O
  O5       1.0000 0.51965  0.32076  0.95866  Biso   1.000  O
  O6       1.0000 0.05697  0.95574  0.16133  Biso   1.000  O
  O7       1.0000 0.17618  0.00727  0.01211  Biso   1.000  O
  O8       1.0000 0.50967  0.81626  0.55207  Biso   1.000  O
  O9       1.0000 0.98798  0.46648  0.34125  Biso   1.000  O
  O10      1.0000 0.67604  0.00482  0.49262  Biso   1.000  O
  O11      1.0000 0.01689  0.80961  0.95645  Biso   1.000  O
  O12      1.0000 0.48375  0.47537  0.16142  Biso   1.000  O
  O13      1.0000 0.67058  0.42434  0.99296  Biso   1.000  O
  O14      1.0000 0.01431  0.62067  0.45150  Biso   1.000  O
  O15      1.0000 0.49150  0.97378  0.66347  Biso   1.000  O
  O16      1.0000 0.17143  0.42954  0.51310  Biso   1.000  O
  O17      1.0000 0.52789  0.62646  0.04936  Biso   1.000  O
  O18      1.0000 0.98800  0.96274  0.84586  Biso   1.000  O
  O19      1.0000 0.86429  0.92834  0.99918  Biso   1.000  O
  O20      1.0000 0.50935  0.12611  0.45770  Biso   1.000  O
  O21      1.0000 0.04565  0.46603  0.66349  Biso   1.000  O
  O22      1.0000 0.36063  0.93311  0.50919  Biso   1.000  O
  O23      1.0000 0.01827  0.12482  0.04640  Biso   1.000  O
  O24      1.0000 0.54941  0.47401  0.84745  Biso   1.000  O
  O25      1.0000 0.97580  0.97009  0.15567  Biso   1.000  O
  O26      1.0000 0.17550  0.92373  0.01431  Biso   1.000  O
  O27      1.0000 0.02576  0.12173  0.96368  Biso   1.000  O
  O28      1.0000 0.46856  0.96817  0.35191  Biso   1.000  O
  O29      1.0000 0.67738  0.92242  0.50344  Biso   1.000  O
  O30      1.0000 0.52099  0.12532  0.53972  Biso   1.000  O
  O31      1.0000 0.56929  0.47619  0.15892  Biso   1.000  O
  O32      1.0000 0.35974  0.42992  0.00689  Biso   1.000  O
  O33      1.0000 0.51032  0.62545  0.96564  Biso   1.000  O
  O34      1.0000 0.07307  0.46406  0.34944  Biso   1.000  O
  O35      1.0000 0.86143  0.41821  0.48664  Biso   1.000  O
  O36      1.0000 0.00511  0.62315  0.53783  Biso   1.000  O
  O37      1.0000 0.07121  0.96858  0.84877  Biso   1.000  O
  O38      1.0000 0.86558  0.00894  0.99530  Biso   1.000  O
  O39      1.0000 0.01133  0.80652  0.03985  Biso   1.000  O
  O40      1.0000 0.57494  0.98084  0.65973  Biso   1.000  O
  O41      1.0000 0.36094  0.01523  0.52212  Biso   1.000  O
  O42      1.0000 0.51938  0.81928  0.46744  Biso   1.000  O
  O43      1.0000 0.46343  0.47477  0.84766  Biso   1.000  O
  O44      1.0000 0.67161  0.50991  0.99647  Biso   1.000  O
  O45      1.0000 0.50996  0.31770  0.04284  Biso   1.000  O
  O46      1.0000 0.96333  0.47101  0.65565  Biso   1.000  O
  O47      1.0000 0.17074  0.51129  0.51353  Biso   1.000  O
  O48      1.0000 0.01554  0.31855  0.46630  Biso   1.000  O
  O49      1.0000 0.00943  0.92084  0.15576  Biso   1.000  O
  O50      1.0000 0.18025  0.96262  0.96953  Biso   1.000  O
  O51      1.0000 0.97860  0.12438  0.99983  Biso   1.000  O
  O52      1.0000 0.51530  0.93084  0.34936  Biso   1.000  O
  O53      1.0000 0.68278  0.96820  0.54003  Biso   1.000  O
  O54      1.0000 0.47195  0.12721  0.50431  Biso   1.000  O
  O55      1.0000 0.52530  0.43239  0.16026  Biso   1.000  O
  O56      1.0000 0.35440  0.47335  0.96724  Biso   1.000  O
  O57      1.0000 0.56204  0.62533  0.00052  Biso   1.000  O
  O58      1.0000 0.03411  0.42558  0.34396  Biso   1.000  O
  O59      1.0000 0.85460  0.45232  0.53391  Biso   1.000  O
  O60      1.0000 0.05286  0.62181  0.49542  Biso   1.000  O
  O61      1.0000 0.02543  0.00485  0.84716  Biso   1.000  O
  O62      1.0000 0.86342  0.96803  0.03657  Biso   1.000  O
  O63      1.0000 0.05837  0.80701  0.00134  Biso   1.000  O
  O64      1.0000 0.52965  0.01846  0.66183  Biso   1.000  O
  O65      1.0000 0.35939  0.98275  0.47446  Biso   1.000  O
  O66      1.0000 0.55457  0.81646  0.51053  Biso   1.000  O
  O67      1.0000 0.50640  0.51580  0.84754  Biso   1.000  O
  O68      1.0000 0.67443  0.46626  0.03815  Biso   1.000  O
  O69      1.0000 0.47338  0.31871  0.99693  Biso   1.000  O
  O70      1.0000 0.00461  0.50924  0.65632  Biso   1.000  O
  O71      1.0000 0.17307  0.46855  0.47363  Biso   1.000  O
  O72      1.0000 0.97309  0.31123  0.51019  Biso   1.000  O
  O73      1.0000 0.00119  0.42458  0.66258  Biso   1.000  O
  O74      1.0000 0.66873  0.95919  0.45278  Biso   1.000  O
  O75      1.0000 0.48064  0.62270  0.01481  Biso   1.000  O
  O76      1.0000 0.50743  0.43183  0.84673  Biso   1.000  O
  O77      1.0000 0.17351  0.96696  0.05306  Biso   1.000  O
  O78      1.0000 0.96902  0.61961  0.48689  Biso   1.000  O
  O79      1.0000 0.53839  0.93197  0.66158  Biso   1.000  O
  O80      1.0000 0.86140  0.45962  0.45089  Biso   1.000  O
  O81      1.0000 0.06148  0.12630  0.01069  Biso   1.000  O
  O82      1.0000 0.03192  0.92378  0.84481  Biso   1.000  O
  O83      1.0000 0.36014  0.46963  0.05135  Biso   1.000  O
  O84      1.0000 0.55796  0.12407  0.49866  Biso   1.000  O
  O85      1.0000 0.02849  0.50930  0.34447  Biso   1.000  O
  O86      1.0000 0.36570  0.97198  0.55637  Biso   1.000  O
  O87      1.0000 0.56028  0.31483  0.00479  Biso   1.000  O
  O88      1.0000 0.52536  0.51821  0.16481  Biso   1.000  O
  O89      1.0000 0.86567  0.96536  0.95277  Biso   1.000  O
  O90      1.0000 0.06108  0.31592  0.50478  Biso   1.000  O
  O91      1.0000 0.50555  0.01126  0.34392  Biso   1.000  O
  O92      1.0000 0.16730  0.46995  0.55556  Biso   1.000  O
  O93      1.0000 0.97367  0.81254  0.99748  Biso   1.000  O
  O94      1.0000 0.02398  0.00551  0.15557  Biso   1.000  O
  O95      1.0000 0.67101  0.47095  0.95522  Biso   1.000  O
  O96      1.0000 0.46859  0.81729  0.50368  Biso   1.000  O
  O97      1.0000 0.47457  0.17491  0.49998  Biso   1.000  O
  O98      1.0000 0.52070  0.43095  0.20871  Biso   1.000  O
  O99      1.0000 0.22148  0.47257  0.47816  Biso   1.000  O
  O100     1.0000 0.97955  0.17265  0.00117  Biso   1.000  O
  O101     1.0000 0.03291  0.42519  0.29524  Biso   1.000  O
  O102     1.0000 0.72405  0.46819  0.03579  Biso   1.000  O
  O103     1.0000 0.05075  0.66940  0.50331  Biso   1.000  O
  O104     1.0000 0.00259  0.92064  0.20518  Biso   1.000  O
  O105     1.0000 0.31118  0.97924  0.47532  Biso   1.000  O
  O106     1.0000 0.56277  0.67379  0.99585  Biso   1.000  O
  O107     1.0000 0.51666  0.92660  0.30012  Biso   1.000  O
  O108     1.0000 0.81422  0.97264  0.03549  Biso   1.000  O
  O109     1.0000 0.55166  0.76850  0.51709  Biso   1.000  O
  O110     1.0000 0.51158  0.51689  0.79831  Biso   1.000  O
  O111     1.0000 0.80513  0.45398  0.52830  Biso   1.000  O
  O112     1.0000 0.05751  0.75871  0.00134  Biso   1.000  O
  O113     1.0000 0.00165  0.51009  0.70505  Biso   1.000  O
  O114     1.0000 0.30647  0.47593  0.97343  Biso   1.000  O
  O115     1.0000 0.97460  0.26300  0.51106  Biso   1.000  O
  O116     1.0000 0.02865  0.00746  0.79858  Biso   1.000  O
  O117     1.0000 0.72976  0.96888  0.53262  Biso   1.000  O
  O118     1.0000 0.47471  0.26967  0.99483  Biso   1.000  O
  O119     1.0000 0.53591  0.02004  0.70962  Biso   1.000  O
  O120     1.0000 0.22997  0.96002  0.96982  Biso   1.000  O
  O121     1.0000 0.04267  0.46483  0.71096  Biso   1.000  O
  O122     1.0000 0.72523  0.00592  0.48590  Biso   1.000  O
  O123     1.0000 0.53056  0.67583  0.04734  Biso   1.000  O
  O124     1.0000 0.54642  0.46835  0.79891  Biso   1.000  O
  O125     1.0000 0.22558  0.00593  0.01076  Biso   1.000  O
  O126     1.0000 0.01399  0.67038  0.45684  Biso   1.000  O
  O127     1.0000 0.49366  0.97225  0.71147  Biso   1.000  O
  O128     1.0000 0.81119  0.49901  0.49350  Biso   1.000  O
  O129     1.0000 0.01684  0.17282  0.04761  Biso   1.000  O
  O130     1.0000 0.99136  0.96152  0.79716  Biso   1.000  O
  O131     1.0000 0.31219  0.51280  0.01505  Biso   1.000  O
  O132     1.0000 0.51031  0.17385  0.45582  Biso   1.000  O
  O133     1.0000 0.98881  0.47006  0.29120  Biso   1.000  O
  O134     1.0000 0.31250  0.93211  0.50932  Biso   1.000  O
  O135     1.0000 0.52192  0.27133  0.95889  Biso   1.000  O
  O136     1.0000 0.48473  0.47648  0.21062  Biso   1.000  O
  O137     1.0000 0.81640  0.93042  0.99664  Biso   1.000  O
  O138     1.0000 0.01825  0.26377  0.55141  Biso   1.000  O
  O139     1.0000 0.54957  0.97849  0.29666  Biso   1.000  O
  O140     1.0000 0.21986  0.43171  0.51982  Biso   1.000  O
  O141     1.0000 0.01977  0.76138  0.95607  Biso   1.000  O
  O142     1.0000 0.05239  0.95478  0.20956  Biso   1.000  O
  O143     1.0000 0.71871  0.42506  0.99492  Biso   1.000  O
  O144     1.0000 0.50511  0.76711  0.55108  Biso   1.000  O
  O145     1.0000 0.56720  0.47401  0.20764  Biso   1.000  O
  O146     1.0000 0.22043  0.51517  0.51866  Biso   1.000  O
  O147     1.0000 0.52323  0.17379  0.53681  Biso   1.000  O
  O148     1.0000 0.07532  0.46523  0.30023  Biso   1.000  O
  O149     1.0000 0.72026  0.50913  0.99481  Biso   1.000  O
  O150     1.0000 0.02484  0.17060  0.96385  Biso   1.000  O
  O151     1.0000 0.97038  0.97047  0.20423  Biso   1.000  O
  O152     1.0000 0.31243  0.01354  0.52489  Biso   1.000  O
  O153     1.0000 0.99960  0.67016  0.53846  Biso   1.000  O
  O154     1.0000 0.46665  0.96122  0.30427  Biso   1.000  O
  O155     1.0000 0.81638  0.01081  0.98800  Biso   1.000  O
  O156     1.0000 0.51021  0.67507  0.96609  Biso   1.000  O
  O157     1.0000 0.46408  0.48247  0.79957  Biso   1.000  O
  O158     1.0000 0.81221  0.41825  0.48075  Biso   1.000  O
  O159     1.0000 0.51623  0.77165  0.46788  Biso   1.000  O
  O160     1.0000 0.95839  0.47123  0.70365  Biso   1.000  O
  O161     1.0000 0.30997  0.42773  0.01013  Biso   1.000  O
  O162     1.0000 0.00817  0.75719  0.03761  Biso   1.000  O
  O163     1.0000 0.07458  0.97214  0.80121  Biso   1.000  O
  O164     1.0000 0.72482  0.92429  0.49240  Biso   1.000  O
  O165     1.0000 0.01593  0.26922  0.46489  Biso   1.000  O
  O166     1.0000 0.57853  0.97695  0.70792  Biso   1.000  O
  O167     1.0000 0.22290  0.92095  0.01284  Biso   1.000  O
  O168     1.0000 0.51536  0.26862  0.04198  Biso   1.000  O
  O169     1.0000 0.02042  0.00374  0.20577  Biso   1.000  O
  O170     1.0000 0.22397  0.96689  0.05381  Biso   1.000  O
  O171     1.0000 0.06314  0.17330  0.00997  Biso   1.000  O
  O172     1.0000 0.49365  0.00813  0.29696  Biso   1.000  O
  O173     1.0000 0.71791  0.96188  0.44892  Biso   1.000  O
  O174     1.0000 0.55831  0.17112  0.48694  Biso   1.000  O
  O175     1.0000 0.52737  0.51510  0.21327  Biso   1.000  O
  O176     1.0000 0.31172  0.46710  0.05684  Biso   1.000  O
  O177     1.0000 0.47762  0.67171  0.01402  Biso   1.000  O
  O178     1.0000 0.03467  0.50986  0.29684  Biso   1.000  O
  O179     1.0000 0.81271  0.46154  0.44678  Biso   1.000  O
  O180     1.0000 0.96433  0.66723  0.49394  Biso   1.000  O
  O181     1.0000 0.03958  0.92778  0.79672  Biso   1.000  O
  O182     1.0000 0.81845  0.96492  0.95004  Biso   1.000  O
  O183     1.0000 0.97469  0.76523  0.99381  Biso   1.000  O
  O184     1.0000 0.53489  0.93485  0.70974  Biso   1.000  O
  O185     1.0000 0.31689  0.96958  0.55824  Biso   1.000  O
  O186     1.0000 0.46932  0.76868  0.50246  Biso   1.000  O
  O187     1.0000 0.49990  0.43378  0.79885  Biso   1.000  O
  O188     1.0000 0.72076  0.46895  0.95299  Biso   1.000  O
  O189     1.0000 0.55739  0.26431  0.00334  Biso   1.000  O
  O190     1.0000 0.99558  0.42699  0.71098  Biso   1.000  O
  O191     1.0000 0.21444  0.47699  0.56123  Biso   1.000  O
  O192     1.0000 0.05980  0.26840  0.50528  Biso   1.000  O
