data_image0
_cell_length_a       47.2342
_cell_length_b       46.952
_cell_length_c       46.6262
_cell_angle_alpha    90
_cell_angle_beta     90
_cell_angle_gamma    90

_symmetry_space_group_name_H-M    "P 1"
_symmetry_int_tables_number       1

loop_
  _symmetry_equiv_pos_as_xyz
  'x, y, z'

loop_
  _atom_site_label
  _atom_site_occupancy
  _atom_site_fract_x
  _atom_site_fract_y
  _atom_site_fract_z
  _atom_site_thermal_displace_type
  _atom_site_B_iso_or_equiv
  _atom_site_type_symbol
  C1       1.0000 0.56082  0.96224  0.36046  Biso   1.000  C
  C2       1.0000 0.32583  0.51295  0.04553  Biso   1.000  C
  C3       1.0000 0.00801  0.29837  0.58847  Biso   1.000  C
  C4       1.0000 0.05283  0.97162  0.22183  Biso   1.000  C
  C5       1.0000 0.82729  0.54229  0.53148  Biso   1.000  C
  C6       1.0000 0.51503  0.29540  0.96948  Biso   1.000  C
  C7       1.0000 0.95671  0.47877  0.35853  Biso   1.000  C
  C8       1.0000 0.18305  0.01121  0.04041  Biso   1.000  C
  C9       1.0000 0.50718  0.79379  0.60003  Biso   1.000  C
  C10      1.0000 0.45940  0.45370  0.21672  Biso   1.000  C
  C11      1.0000 0.68747  0.04386  0.53297  Biso   1.000  C
  C12      1.0000 0.99346  0.78481  0.98690  Biso   1.000  C
  C13      1.0000 0.45615  0.98116  0.71386  Biso   1.000  C
  C14      1.0000 0.69418  0.42708  0.03065  Biso   1.000  C
  C15      1.0000 0.02351  0.65214  0.47923  Biso   1.000  C
  C16      1.0000 0.95867  0.96543  0.85469  Biso   1.000  C
  C17      1.0000 0.18817  0.40908  0.53799  Biso   1.000  C
  C18      1.0000 0.49815  0.65170  0.09835  Biso   1.000  C
  C19      1.0000 0.06589  0.48039  0.71582  Biso   1.000  C
  C20      1.0000 0.82342  0.92167  0.04834  Biso   1.000  C
  C21      1.0000 0.50299  0.14781  0.46858  Biso   1.000  C
  C22      1.0000 0.56512  0.48561  0.85475  Biso   1.000  C
  C23      1.0000 0.33896  0.90355  0.52639  Biso   1.000  C
  C24      1.0000 0.00838  0.14917  0.08636  Biso   1.000  C
  C25      1.0000 0.32695  0.01511  0.53592  Biso   1.000  C
  C26      1.0000 0.50919  0.29197  0.08065  Biso   1.000  C
  C27      1.0000 0.06289  0.45599  0.35620  Biso   1.000  C
  C28      1.0000 0.82645  0.02511  0.02483  Biso   1.000  C
  C29      1.0000 0.00701  0.29071  0.48284  Biso   1.000  C
  C30      1.0000 0.56651  0.46563  0.21457  Biso   1.000  C
  C31      1.0000 0.18809  0.51667  0.52156  Biso   1.000  C
  C32      1.0000 0.00110  0.79045  0.09405  Biso   1.000  C
  C33      1.0000 0.45398  0.95190  0.35147  Biso   1.000  C
  C34      1.0000 0.68410  0.53609  0.04020  Biso   1.000  C
  C35      1.0000 0.52992  0.78253  0.49159  Biso   1.000  C
  C36      1.0000 0.94284  0.97481  0.22061  Biso   1.000  C
  C37      1.0000 0.68918  0.93396  0.53986  Biso   1.000  C
  C38      1.0000 0.49204  0.65260  0.98913  Biso   1.000  C
  C39      1.0000 0.95907  0.47346  0.71486  Biso   1.000  C
  C40      1.0000 0.18036  0.90173  0.03362  Biso   1.000  C
  C41      1.0000 0.01334  0.65427  0.58948  Biso   1.000  C
  C42      1.0000 0.45521  0.47665  0.84781  Biso   1.000  C
  C43      1.0000 0.82778  0.43453  0.53503  Biso   1.000  C
  C44      1.0000 0.01258  0.14941  0.97738  Biso   1.000  C
  C45      1.0000 0.56418  0.97664  0.71984  Biso   1.000  C
  C46      1.0000 0.33118  0.40635  0.02569  Biso   1.000  C
  C47      1.0000 0.49960  0.15348  0.57762  Biso   1.000  C
  C48      1.0000 0.06841  0.96984  0.86053  Biso   1.000  C
  C49      1.0000 0.01155  0.02206  0.84886  Biso   1.000  C
  C50      1.0000 0.82151  0.98102  0.09083  Biso   1.000  C
  C51      1.0000 0.04946  0.77767  0.03907  Biso   1.000  C
  C52      1.0000 0.51347  0.03425  0.71455  Biso   1.000  C
  C53      1.0000 0.32971  0.96093  0.47712  Biso   1.000  C
  C54      1.0000 0.57216  0.79746  0.54912  Biso   1.000  C
  C55      1.0000 0.50754  0.53500  0.84990  Biso   1.000  C
  C56      1.0000 0.69171  0.47827  0.08788  Biso   1.000  C
  C57      1.0000 0.46130  0.28676  0.02909  Biso   1.000  C
  C58      1.0000 0.00852  0.52934  0.71390  Biso   1.000  C
  C59      1.0000 0.18767  0.45625  0.47666  Biso   1.000  C
  C60      1.0000 0.94810  0.29456  0.53517  Biso   1.000  C
  C61      1.0000 0.99915  0.91689  0.22227  Biso   1.000  C
  C62      1.0000 0.18817  0.96239  0.98390  Biso   1.000  C
  C63      1.0000 0.95567  0.15404  0.03125  Biso   1.000  C
  C64      1.0000 0.50913  0.90491  0.35943  Biso   1.000  C
  C65      1.0000 0.69057  0.98882  0.59267  Biso   1.000  C
  C66      1.0000 0.44599  0.14874  0.51907  Biso   1.000  C
  C67      1.0000 0.51940  0.40732  0.21587  Biso   1.000  C
  C68      1.0000 0.33173  0.46926  0.98054  Biso   1.000  C
  C69      1.0000 0.54720  0.65314  0.04437  Biso   1.000  C
  C70      1.0000 0.00193  0.41621  0.35606  Biso   1.000  C
  C71      1.0000 0.82858  0.48615  0.59026  Biso   1.000  C
  C72      1.0000 0.07195  0.65147  0.53493  Biso   1.000  C
  C73      1.0000 0.02494  0.52116  0.35647  Biso   1.000  C
  C74      1.0000 0.33529  0.95284  0.58614  Biso   1.000  C
  C75      1.0000 0.56796  0.29712  0.02220  Biso   1.000  C
  C76      1.0000 0.50690  0.51702  0.21572  Biso   1.000  C
  C77      1.0000 0.82876  0.95992  0.98305  Biso   1.000  C
  C78      1.0000 0.05836  0.28726  0.53765  Biso   1.000  C
  C79      1.0000 0.50122  0.01074  0.35299  Biso   1.000  C
  C80      1.0000 0.18886  0.47259  0.58473  Biso   1.000  C
  C81      1.0000 0.94293  0.79031  0.04468  Biso   1.000  C
  C82      1.0000 0.99747  0.02742  0.22117  Biso   1.000  C
  C83      1.0000 0.68982  0.48553  0.98190  Biso   1.000  C
  C84      1.0000 0.46605  0.77899  0.53801  Biso   1.000  C
  C85      1.0000 0.01942  0.41892  0.71969  Biso   1.000  C
  C86      1.0000 0.68718  0.99345  0.48144  Biso   1.000  C
  C87      1.0000 0.44009  0.64629  0.04633  Biso   1.000  C
  C88      1.0000 0.51330  0.42800  0.84478  Biso   1.000  C
  C89      1.0000 0.18299  0.95198  0.09412  Biso   1.000  C
  C90      1.0000 0.96276  0.65697  0.53256  Biso   1.000  C
  C91      1.0000 0.50606  0.92640  0.72074  Biso   1.000  C
  C92      1.0000 0.82044  0.48395  0.47979  Biso   1.000  C
  C93      1.0000 0.06439  0.15133  0.03075  Biso   1.000  C
  C94      1.0000 0.01067  0.91467  0.86244  Biso   1.000  C
  C95      1.0000 0.33726  0.45104  0.08937  Biso   1.000  C
  C96      1.0000 0.55424  0.15921  0.52413  Biso   1.000  C
  C97      1.0000 0.68569  0.07507  0.52741  Biso   1.000  C
  C98      1.0000 0.50060  0.65209  0.13057  Biso   1.000  C
  C99      1.0000 0.09835  0.48115  0.71735  Biso   1.000  C
  C100     1.0000 0.18512  0.04411  0.03740  Biso   1.000  C
  C101     1.0000 0.03044  0.65189  0.44668  Biso   1.000  C
  C102     1.0000 0.59763  0.48579  0.85393  Biso   1.000  C
  C103     1.0000 0.82822  0.57383  0.52752  Biso   1.000  C
  C104     1.0000 0.00617  0.15022  0.11950  Biso   1.000  C
  C105     1.0000 0.42553  0.97580  0.71412  Biso   1.000  C
  C106     1.0000 0.32208  0.54368  0.05118  Biso   1.000  C
  C107     1.0000 0.49997  0.14756  0.43622  Biso   1.000  C
  C108     1.0000 0.92659  0.95933  0.85441  Biso   1.000  C
  C109     1.0000 0.34010  0.87095  0.52236  Biso   1.000  C
  C110     1.0000 0.51450  0.29847  0.93718  Biso   1.000  C
  C111     1.0000 0.92373  0.47446  0.35709  Biso   1.000  C
  C112     1.0000 0.82210  0.88995  0.05396  Biso   1.000  C
  C113     1.0000 0.02011  0.29569  0.61866  Biso   1.000  C
  C114     1.0000 0.42645  0.45146  0.21902  Biso   1.000  C
  C115     1.0000 0.18618  0.37604  0.53780  Biso   1.000  C
  C116     1.0000 0.99034  0.78463  0.95419  Biso   1.000  C
  C117     1.0000 0.59306  0.96498  0.36074  Biso   1.000  C
  C118     1.0000 0.69584  0.39455  0.03182  Biso   1.000  C
  C119     1.0000 0.50828  0.79563  0.63195  Biso   1.000  C
  C120     1.0000 0.08438  0.97153  0.22007  Biso   1.000  C
  C121     1.0000 0.81999  0.98281  0.12289  Biso   1.000  C
  C122     1.0000 0.08271  0.77733  0.04004  Biso   1.000  C
  C123     1.0000 0.01058  0.05454  0.84815  Biso   1.000  C
  C124     1.0000 0.32786  0.95762  0.44473  Biso   1.000  C
  C125     1.0000 0.60472  0.79950  0.54803  Biso   1.000  C
  C126     1.0000 0.51511  0.06748  0.70898  Biso   1.000  C
  C127     1.0000 0.69214  0.47491  0.12036  Biso   1.000  C
  C128     1.0000 0.42953  0.28295  0.03402  Biso   1.000  C
  C129     1.0000 0.51328  0.56603  0.85573  Biso   1.000  C
  C130     1.0000 0.18801  0.45368  0.44498  Biso   1.000  C
  C131     1.0000 0.91638  0.30011  0.53183  Biso   1.000  C
  C132     1.0000 0.00344  0.55991  0.71470  Biso   1.000  C
  C133     1.0000 0.19191  0.96313  0.95223  Biso   1.000  C
  C134     1.0000 0.92339  0.15570  0.02565  Biso   1.000  C
  C135     1.0000 0.00167  0.88611  0.22342  Biso   1.000  C
  C136     1.0000 0.69072  0.99463  0.62470  Biso   1.000  C
  C137     1.0000 0.41388  0.14662  0.51854  Biso   1.000  C
  C138     1.0000 0.50502  0.87304  0.36183  Biso   1.000  C
  C139     1.0000 0.33081  0.46851  0.94814  Biso   1.000  C
  C140     1.0000 0.57843  0.65504  0.04976  Biso   1.000  C
  C141     1.0000 0.51992  0.37496  0.21377  Biso   1.000  C
  C142     1.0000 0.83032  0.47904  0.62108  Biso   1.000  C
  C143     1.0000 0.10390  0.64962  0.53352  Biso   1.000  C
  C144     1.0000 0.00613  0.38421  0.35674  Biso   1.000  C
  C145     1.0000 0.33684  0.45274  0.12116  Biso   1.000  C
  C146     1.0000 0.08987  0.28408  0.54165  Biso   1.000  C
  C147     1.0000 0.50129  0.04308  0.34991  Biso   1.000  C
  C148     1.0000 0.82203  0.48175  0.44789  Biso   1.000  C
  C149     1.0000 0.59984  0.30024  0.02902  Biso   1.000  C
  C150     1.0000 0.99511  0.05927  0.21978  Biso   1.000  C
  C151     1.0000 0.18117  0.95172  0.12621  Biso   1.000  C
  C152     1.0000 0.43361  0.77651  0.53656  Biso   1.000  C
  C153     1.0000 0.02966  0.55266  0.35632  Biso   1.000  C
  C154     1.0000 0.68519  0.99351  0.44933  Biso   1.000  C
  C155     1.0000 0.91104  0.79187  0.05443  Biso   1.000  C
  C156     1.0000 0.50668  0.54914  0.21655  Biso   1.000  C
  C157     1.0000 0.69103  0.48629  0.94952  Biso   1.000  C
  C158     1.0000 0.93040  0.66105  0.53303  Biso   1.000  C
  C159     1.0000 0.50578  0.89515  0.72231  Biso   1.000  C
  C160     1.0000 0.18964  0.47368  0.61737  Biso   1.000  C
  C161     1.0000 0.40833  0.64483  0.04738  Biso   1.000  C
  C162     1.0000 0.00969  0.88249  0.86244  Biso   1.000  C
  C163     1.0000 0.83135  0.95317  0.95164  Biso   1.000  C
  C164     1.0000 0.58621  0.16298  0.51850  Biso   1.000  C
  C165     1.0000 0.02438  0.38510  0.72071  Biso   1.000  C
  C166     1.0000 0.33438  0.95112  0.61929  Biso   1.000  C
  C167     1.0000 0.09607  0.14845  0.03059  Biso   1.000  C
  C168     1.0000 0.51303  0.39545  0.84417  Biso   1.000  C
  C169     1.0000 0.00556  0.79026  0.12570  Biso   1.000  C
  C170     1.0000 0.10033  0.96929  0.86045  Biso   1.000  C
  C171     1.0000 0.82777  0.05780  0.02132  Biso   1.000  C
  C172     1.0000 0.52944  0.78074  0.45880  Biso   1.000  C
  C173     1.0000 0.59641  0.97876  0.72014  Biso   1.000  C
  C174     1.0000 0.32340  0.04696  0.53663  Biso   1.000  C
  C175     1.0000 0.50347  0.29192  0.11240  Biso   1.000  C
  C176     1.0000 0.42358  0.47879  0.84745  Biso   1.000  C
  C177     1.0000 0.68232  0.56825  0.04526  Biso   1.000  C
  C178     1.0000 0.01143  0.28967  0.45042  Biso   1.000  C
  C179     1.0000 0.92725  0.47538  0.71572  Biso   1.000  C
  C180     1.0000 0.18698  0.54806  0.51289  Biso   1.000  C
  C181     1.0000 0.01398  0.14990  0.94552  Biso   1.000  C
  C182     1.0000 0.91056  0.97460  0.21978  Biso   1.000  C
  C183     1.0000 0.18198  0.86956  0.03794  Biso   1.000  C
  C184     1.0000 0.50794  0.15525  0.60797  Biso   1.000  C
  C185     1.0000 0.42178  0.95524  0.35121  Biso   1.000  C
  C186     1.0000 0.69174  0.90153  0.54383  Biso   1.000  C
  C187     1.0000 0.49364  0.65520  0.95739  Biso   1.000  C
  C188     1.0000 0.59759  0.46697  0.21427  Biso   1.000  C
  C189     1.0000 0.33213  0.37447  0.02717  Biso   1.000  C
  C190     1.0000 0.01079  0.65549  0.62166  Biso   1.000  C
  C191     1.0000 0.09405  0.45032  0.35334  Biso   1.000  C
  C192     1.0000 0.82804  0.40309  0.52955  Biso   1.000  C
  C193     1.0000 0.85820  0.95365  0.93446  Biso   1.000  C
  C194     1.0000 0.89859  0.81962  0.05696  Biso   1.000  C
  C195     1.0000 0.00365  0.86647  0.88788  Biso   1.000  C
  C196     1.0000 0.36077  0.95437  0.63550  Biso   1.000  C
  C197     1.0000 0.41769  0.80380  0.53451  Biso   1.000  C
  C198     1.0000 0.50592  0.87817  0.69542  Biso   1.000  C
  C199     1.0000 0.66535  0.48843  0.93194  Biso   1.000  C
  C200     1.0000 0.61561  0.32841  0.02783  Biso   1.000  C
  C201     1.0000 0.51604  0.37890  0.87048  Biso   1.000  C
  C202     1.0000 0.16236  0.47463  0.63591  Biso   1.000  C
  C203     1.0000 0.10632  0.31015  0.54030  Biso   1.000  C
  C204     1.0000 0.02554  0.36916  0.69360  Biso   1.000  C
  C205     1.0000 0.15291  0.95789  0.14002  Biso   1.000  C
  C206     1.0000 0.10900  0.11852  0.03040  Biso   1.000  C
  C207     1.0000 0.99234  0.07454  0.19154  Biso   1.000  C
  C208     1.0000 0.65718  0.98950  0.43587  Biso   1.000  C
  C209     1.0000 0.60406  0.13773  0.51748  Biso   1.000  C
  C210     1.0000 0.50062  0.06100  0.37584  Biso   1.000  C
  C211     1.0000 0.36339  0.44739  0.13894  Biso   1.000  C
  C212     1.0000 0.39449  0.61570  0.04970  Biso   1.000  C
  C213     1.0000 0.50392  0.56723  0.18973  Biso   1.000  C
  C214     1.0000 0.85019  0.48067  0.43422  Biso   1.000  C
  C215     1.0000 0.91109  0.63658  0.52878  Biso   1.000  C
  C216     1.0000 0.02558  0.57097  0.38381  Biso   1.000  C
  C217     1.0000 0.11887  0.97166  0.88688  Biso   1.000  C
  C218     1.0000 0.85466  0.07523  0.02107  Biso   1.000  C
  C219     1.0000 0.00240  0.81763  0.14127  Biso   1.000  C
  C220     1.0000 0.61329  0.97825  0.69335  Biso   1.000  C
  C221     1.0000 0.35009  0.06462  0.53281  Biso   1.000  C
  C222     1.0000 0.52330  0.80896  0.44385  Biso   1.000  C
  C223     1.0000 0.40697  0.47919  0.87521  Biso   1.000  C
  C224     1.0000 0.65467  0.58214  0.04713  Biso   1.000  C
  C225     1.0000 0.51104  0.31568  0.12992  Biso   1.000  C
  C226     1.0000 0.91124  0.47636  0.68751  Biso   1.000  C
  C227     1.0000 0.16307  0.56627  0.51815  Biso   1.000  C
  C228     1.0000 0.01118  0.31569  0.43377  Biso   1.000  C
  C229     1.0000 0.89660  0.97676  0.19199  Biso   1.000  C
  C230     1.0000 0.15431  0.85357  0.03760  Biso   1.000  C
  C231     1.0000 0.01294  0.12192  0.92964  Biso   1.000  C
  C232     1.0000 0.40579  0.95946  0.37777  Biso   1.000  C
  C233     1.0000 0.66608  0.88201  0.54832  Biso   1.000  C
  C234     1.0000 0.50932  0.12949  0.62565  Biso   1.000  C
  C235     1.0000 0.61460  0.46549  0.18749  Biso   1.000  C
  C236     1.0000 0.35937  0.35932  0.02981  Biso   1.000  C
  C237     1.0000 0.49945  0.62925  0.94090  Biso   1.000  C
  C238     1.0000 0.11045  0.45403  0.37985  Biso   1.000  C
  C239     1.0000 0.85366  0.38562  0.53012  Biso   1.000  C
  C240     1.0000 0.01333  0.62796  0.63868  Biso   1.000  C
  C241     1.0000 0.61504  0.48961  0.87875  Biso   1.000  C
  C242     1.0000 0.85635  0.58996  0.52569  Biso   1.000  C
  C243     1.0000 0.50971  0.82254  0.64578  Biso   1.000  C
  C244     1.0000 0.11363  0.48097  0.68982  Biso   1.000  C
  C245     1.0000 0.34802  0.56063  0.05219  Biso   1.000  C
  C246     1.0000 0.99603  0.81172  0.93848  Biso   1.000  C
  C247     1.0000 0.90888  0.95804  0.88265  Biso   1.000  C
  C248     1.0000 0.65835  0.09063  0.52613  Biso   1.000  C
  C249     1.0000 0.02416  0.32147  0.63732  Biso   1.000  C
  C250     1.0000 0.41045  0.97373  0.68693  Biso   1.000  C
  C251     1.0000 0.15729  0.06128  0.03832  Biso   1.000  C
  C252     1.0000 0.51560  0.32448  0.92224  Biso   1.000  C
  C253     1.0000 0.41052  0.45297  0.19304  Biso   1.000  C
  C254     1.0000 0.15860  0.36159  0.53661  Biso   1.000  C
  C255     1.0000 0.49875  0.11844  0.42409  Biso   1.000  C
  C256     1.0000 0.90631  0.47778  0.38404  Biso   1.000  C
  C257     1.0000 0.66900  0.37830  0.03158  Biso   1.000  C
  C258     1.0000 0.00127  0.12434  0.13765  Biso   1.000  C
  C259     1.0000 0.10011  0.96820  0.19335  Biso   1.000  C
  C260     1.0000 0.36611  0.85550  0.53042  Biso   1.000  C
  C261     1.0000 0.03072  0.62477  0.43228  Biso   1.000  C
  C262     1.0000 0.60796  0.97147  0.38601  Biso   1.000  C
  C263     1.0000 0.84959  0.87200  0.05276  Biso   1.000  C
  C264     1.0000 0.50471  0.62377  0.14364  Biso   1.000  C
  C265     1.0000 0.00807  0.06962  0.87636  Biso   1.000  C
  C266     1.0000 0.84647  0.98203  0.13949  Biso   1.000  C
  C267     1.0000 0.09929  0.80465  0.03711  Biso   1.000  C
  C268     1.0000 0.51210  0.08156  0.68170  Biso   1.000  C
  C269     1.0000 0.35467  0.95876  0.42852  Biso   1.000  C
  C270     1.0000 0.61846  0.82643  0.55277  Biso   1.000  C
  C271     1.0000 0.50832  0.57841  0.88478  Biso   1.000  C
  C272     1.0000 0.66580  0.47227  0.13657  Biso   1.000  C
  C273     1.0000 0.41172  0.30864  0.03533  Biso   1.000  C
  C274     1.0000 0.01050  0.57768  0.68898  Biso   1.000  C
  C275     1.0000 0.16082  0.45114  0.43047  Biso   1.000  C
  C276     1.0000 0.90390  0.32823  0.53255  Biso   1.000  C
  C277     1.0000 0.00454  0.87055  0.19498  Biso   1.000  C
  C278     1.0000 0.16765  0.97064  0.93449  Biso   1.000  C
  C279     1.0000 0.90746  0.12843  0.02498  Biso   1.000  C
  C280     1.0000 0.51059  0.85925  0.38892  Biso   1.000  C
  C281     1.0000 0.66412  0.99227  0.64260  Biso   1.000  C
  C282     1.0000 0.39927  0.11822  0.52234  Biso   1.000  C
  C283     1.0000 0.51977  0.36158  0.18566  Biso   1.000  C
  C284     1.0000 0.35800  0.47186  0.93199  Biso   1.000  C
  C285     1.0000 0.59712  0.62905  0.05017  Biso   1.000  C
  C286     1.0000 0.00889  0.36855  0.38237  Biso   1.000  C
  C287     1.0000 0.85797  0.47791  0.63625  Biso   1.000  C
  C288     1.0000 0.11675  0.62086  0.53122  Biso   1.000  C
  C289     1.0000 0.36496  0.82438  0.52890  Biso   1.000  C
  C290     1.0000 0.51637  0.32532  0.89112  Biso   1.000  C
  C291     1.0000 0.87414  0.47832  0.38256  Biso   1.000  C
  C292     1.0000 0.84658  0.84173  0.05939  Biso   1.000  C
  C293     1.0000 0.02269  0.31815  0.66804  Biso   1.000  C
  C294     1.0000 0.37972  0.45040  0.19283  Biso   1.000  C
  C295     1.0000 0.15873  0.32895  0.54019  Biso   1.000  C
  C296     1.0000 0.99540  0.81279  0.90708  Biso   1.000  C
  C297     1.0000 0.63815  0.97920  0.38445  Biso   1.000  C
  C298     1.0000 0.66947  0.34581  0.03158  Biso   1.000  C
  C299     1.0000 0.50828  0.82337  0.67689  Biso   1.000  C
  C300     1.0000 0.13054  0.96452  0.19364  Biso   1.000  C
  C301     1.0000 0.65896  0.12193  0.51940  Biso   1.000  C
  C302     1.0000 0.50381  0.62108  0.17480  Biso   1.000  C
  C303     1.0000 0.14471  0.47809  0.68991  Biso   1.000  C
  C304     1.0000 0.15946  0.09304  0.03668  Biso   1.000  C
  C305     1.0000 0.03102  0.62500  0.40164  Biso   1.000  C
  C306     1.0000 0.64653  0.48718  0.87858  Biso   1.000  C
  C307     1.0000 0.85785  0.62190  0.53090  Biso   1.000  C
  C308     1.0000 0.00163  0.12626  0.16828  Biso   1.000  C
  C309     1.0000 0.38057  0.96382  0.68715  Biso   1.000  C
  C310     1.0000 0.34367  0.59123  0.04825  Biso   1.000  C
  C311     1.0000 0.49731  0.11583  0.39236  Biso   1.000  C
  C312     1.0000 0.87794  0.95710  0.88061  Biso   1.000  C
  C313     1.0000 0.16406  0.44633  0.39925  Biso   1.000  C
  C314     1.0000 0.36822  0.11793  0.52764  Biso   1.000  C
  C315     1.0000 0.51461  0.33036  0.18381  Biso   1.000  C
  C316     1.0000 0.66727  0.47203  0.16732  Biso   1.000  C
  C317     1.0000 0.87657  0.12955  0.02222  Biso   1.000  C
  C318     1.0000 0.01031  0.33794  0.38107  Biso   1.000  C
  C319     1.0000 0.35418  0.96152  0.39627  Biso   1.000  C
  C320     1.0000 0.14698  0.61985  0.52553  Biso   1.000  C
  C321     1.0000 0.00330  0.83839  0.19430  Biso   1.000  C
  C322     1.0000 0.84391  0.97808  0.17051  Biso   1.000  C
  C323     1.0000 0.62767  0.63158  0.05653  Biso   1.000  C
  C324     1.0000 0.51464  0.82727  0.38941  Biso   1.000  C
  C325     1.0000 0.85834  0.47574  0.66730  Biso   1.000  C
  C326     1.0000 0.64990  0.82814  0.55024  Biso   1.000  C
  C327     1.0000 0.50686  0.61057  0.88684  Biso   1.000  C
  C328     1.0000 0.35580  0.47441  0.89935  Biso   1.000  C
  C329     1.0000 0.12990  0.80215  0.03466  Biso   1.000  C
  C330     1.0000 0.00956  0.60852  0.69185  Biso   1.000  C
  C331     1.0000 0.66473  0.98956  0.67325  Biso   1.000  C
  C332     1.0000 0.87214  0.33147  0.52758  Biso   1.000  C
  C333     1.0000 0.00933  0.10104  0.87580  Biso   1.000  C
  C334     1.0000 0.17124  0.96770  0.90508  Biso   1.000  C
  C335     1.0000 0.38057  0.30668  0.03434  Biso   1.000  C
  C336     1.0000 0.51358  0.11279  0.67960  Biso   1.000  C
  C337     1.0000 0.66716  0.48717  0.90098  Biso   1.000  C
  C338     1.0000 0.88117  0.64183  0.53274  Biso   1.000  C
  C339     1.0000 0.50668  0.84579  0.69754  Biso   1.000  C
  C340     1.0000 0.16637  0.47542  0.66664  Biso   1.000  C
  C341     1.0000 0.36375  0.61441  0.04699  Biso   1.000  C
  C342     1.0000 0.00041  0.83505  0.88651  Biso   1.000  C
  C343     1.0000 0.85693  0.95463  0.90263  Biso   1.000  C
  C344     1.0000 0.63516  0.14101  0.51477  Biso   1.000  C
  C345     1.0000 0.02377  0.33822  0.69054  Biso   1.000  C
  C346     1.0000 0.35924  0.95542  0.66649  Biso   1.000  C
  C347     1.0000 0.13978  0.11613  0.03385  Biso   1.000  C
  C348     1.0000 0.51646  0.34788  0.86955  Biso   1.000  C
  C349     1.0000 0.36032  0.45045  0.17038  Biso   1.000  C
  C350     1.0000 0.13687  0.30775  0.53960  Biso   1.000  C
  C351     1.0000 0.49811  0.09275  0.37299  Biso   1.000  C
  C352     1.0000 0.85152  0.47945  0.40256  Biso   1.000  C
  C353     1.0000 0.64726  0.32520  0.02950  Biso   1.000  C
  C354     1.0000 0.99817  0.10559  0.18968  Biso   1.000  C
  C355     1.0000 0.15184  0.96035  0.17198  Biso   1.000  C
  C356     1.0000 0.38626  0.80292  0.53163  Biso   1.000  C
  C357     1.0000 0.02941  0.60258  0.38098  Biso   1.000  C
  C358     1.0000 0.65855  0.98685  0.40447  Biso   1.000  C
  C359     1.0000 0.86697  0.82053  0.06006  Biso   1.000  C
  C360     1.0000 0.50424  0.59852  0.19452  Biso   1.000  C
  C361     1.0000 0.01182  0.12277  0.89864  Biso   1.000  C
  C362     1.0000 0.86546  0.97676  0.19215  Biso   1.000  C
  C363     1.0000 0.15385  0.82221  0.03433  Biso   1.000  C
  C364     1.0000 0.51310  0.13272  0.65661  Biso   1.000  C
  C365     1.0000 0.37542  0.95978  0.37560  Biso   1.000  C
  C366     1.0000 0.66989  0.85099  0.54864  Biso   1.000  C
  C367     1.0000 0.50362  0.63087  0.90934  Biso   1.000  C
  C368     1.0000 0.64584  0.47004  0.18909  Biso   1.000  C
  C369     1.0000 0.35902  0.32687  0.03246  Biso   1.000  C
  C370     1.0000 0.01164  0.63037  0.67046  Biso   1.000  C
  C371     1.0000 0.14237  0.44797  0.37779  Biso   1.000  C
  C372     1.0000 0.85214  0.35490  0.52677  Biso   1.000  C
  C373     1.0000 0.00312  0.81766  0.17225  Biso   1.000  C
  C374     1.0000 0.14953  0.96964  0.88362  Biso   1.000  C
  C375     1.0000 0.85560  0.10683  0.02097  Biso   1.000  C
  C376     1.0000 0.51990  0.80725  0.41230  Biso   1.000  C
  C377     1.0000 0.64359  0.98517  0.69426  Biso   1.000  C
  C378     1.0000 0.34678  0.09609  0.53151  Biso   1.000  C
  C379     1.0000 0.51066  0.31138  0.16069  Biso   1.000  C
  C380     1.0000 0.37536  0.47689  0.87566  Biso   1.000  C
  C381     1.0000 0.65061  0.61218  0.05462  Biso   1.000  C
  C382     1.0000 0.01060  0.31459  0.40167  Biso   1.000  C
  C383     1.0000 0.88044  0.47375  0.68841  Biso   1.000  C
  C384     1.0000 0.16712  0.59667  0.52058  Biso   1.000  C
  C385     1.0000 0.18772  0.10794  0.03793  Biso   1.000  C
  C386     1.0000 0.00714  0.15245  0.18304  Biso   1.000  C
  C387     1.0000 0.14636  0.96381  0.22054  Biso   1.000  C
  C388     1.0000 0.68512  0.14008  0.51768  Biso   1.000  C
  C389     1.0000 0.49494  0.14130  0.37431  Biso   1.000  C
  C390     1.0000 0.65333  0.97826  0.35648  Biso   1.000  C
  C391     1.0000 0.31596  0.60424  0.04485  Biso   1.000  C
  C392     1.0000 0.50120  0.64683  0.19233  Biso   1.000  C
  C393     1.0000 0.36328  0.44716  0.21998  Biso   1.000  C
  C394     1.0000 0.83192  0.63890  0.53377  Biso   1.000  C
  C395     1.0000 0.03452  0.65030  0.38453  Biso   1.000  C
  C396     1.0000 0.85963  0.47590  0.35567  Biso   1.000  C
  C397     1.0000 0.81971  0.82766  0.06542  Biso   1.000  C
  C398     1.0000 0.99352  0.78768  0.88927  Biso   1.000  C
  C399     1.0000 0.86353  0.95891  0.85397  Biso   1.000  C
  C400     1.0000 0.33813  0.80814  0.52703  Biso   1.000  C
  C401     1.0000 0.50669  0.79710  0.69401  Biso   1.000  C
  C402     1.0000 0.36464  0.96066  0.71392  Biso   1.000  C
  C403     1.0000 0.69547  0.32886  0.03235  Biso   1.000  C
  C404     1.0000 0.51580  0.29895  0.87461  Biso   1.000  C
  C405     1.0000 0.66119  0.48376  0.85221  Biso   1.000  C
  C406     1.0000 0.18501  0.31125  0.54246  Biso   1.000  C
  C407     1.0000 0.02199  0.28995  0.68273  Biso   1.000  C
  C408     1.0000 0.16208  0.47863  0.71528  Biso   1.000  C
  C409     1.0000 0.16590  0.96585  0.85650  Biso   1.000  C
  C410     1.0000 0.82924  0.12192  0.01890  Biso   1.000  C
  C411     1.0000 0.00467  0.78971  0.18782  Biso   1.000  C
  C412     1.0000 0.65908  0.98658  0.72044  Biso   1.000  C
  C413     1.0000 0.32074  0.11142  0.53848  Biso   1.000  C
  C414     1.0000 0.52233  0.77998  0.39727  Biso   1.000  C
  C415     1.0000 0.35853  0.47809  0.85039  Biso   1.000  C
  C416     1.0000 0.67543  0.62972  0.06292  Biso   1.000  C
  C417     1.0000 0.50537  0.28389  0.17462  Biso   1.000  C
  C418     1.0000 0.86497  0.47046  0.71476  Biso   1.000  C
  C419     1.0000 0.19468  0.61034  0.51609  Biso   1.000  C
  C420     1.0000 0.01241  0.28797  0.38664  Biso   1.000  C
  C421     1.0000 0.84926  0.97202  0.21865  Biso   1.000  C
  C422     1.0000 0.17903  0.80647  0.03188  Biso   1.000  C
  C423     1.0000 0.01040  0.15101  0.88170  Biso   1.000  C
  C424     1.0000 0.35970  0.95766  0.34866  Biso   1.000  C
  C425     1.0000 0.69774  0.83760  0.54611  Biso   1.000  C
  C426     1.0000 0.51368  0.16081  0.67069  Biso   1.000  C
  C427     1.0000 0.66127  0.47099  0.21632  Biso   1.000  C
  C428     1.0000 0.33305  0.31096  0.03144  Biso   1.000  C
  C429     1.0000 0.50213  0.65897  0.89502  Biso   1.000  C
  C430     1.0000 0.15746  0.44395  0.35090  Biso   1.000  C
  C431     1.0000 0.82483  0.33961  0.52005  Biso   1.000  C
  C432     1.0000 0.00587  0.65678  0.68476  Biso   1.000  C
  C433     1.0000 0.00926  0.11880  0.84922  Biso   1.000  C
  C434     1.0000 0.81698  0.97485  0.18382  Biso   1.000  C
  C435     1.0000 0.14272  0.77413  0.03474  Biso   1.000  C
  C436     1.0000 0.51564  0.12982  0.70495  Biso   1.000  C
  C437     1.0000 0.32655  0.95891  0.38110  Biso   1.000  C
  C438     1.0000 0.66622  0.80264  0.54683  Biso   1.000  C
  C439     1.0000 0.50960  0.62809  0.86119  Biso   1.000  C
  C440     1.0000 0.69419  0.47445  0.18218  Biso   1.000  C
  C441     1.0000 0.36591  0.27824  0.03422  Biso   1.000  C
  C442     1.0000 0.00126  0.62391  0.71716  Biso   1.000  C
  C443     1.0000 0.19110  0.44423  0.38270  Biso   1.000  C
  C444     1.0000 0.85520  0.30526  0.52297  Biso   1.000  C
  C445     1.0000 0.00428  0.82223  0.22092  Biso   1.000  C
  C446     1.0000 0.19876  0.96142  0.88978  Biso   1.000  C
  C447     1.0000 0.86175  0.15551  0.02102  Biso   1.000  C
  C448     1.0000 0.51317  0.81143  0.36377  Biso   1.000  C
  C449     1.0000 0.69292  0.99005  0.68777  Biso   1.000  C
  C450     1.0000 0.35268  0.14471  0.53096  Biso   1.000  C
  C451     1.0000 0.50972  0.31153  0.20956  Biso   1.000  C
  C452     1.0000 0.32766  0.47195  0.88538  Biso   1.000  C
  C453     1.0000 0.64066  0.66005  0.06281  Biso   1.000  C
  C454     1.0000 0.00779  0.32231  0.35437  Biso   1.000  C
  C455     1.0000 0.83105  0.47468  0.68441  Biso   1.000  C
  C456     1.0000 0.16504  0.64613  0.52284  Biso   1.000  C
  C457     1.0000 0.03477  0.61654  0.35329  Biso   1.000  C
  C458     1.0000 0.33339  0.94927  0.68236  Biso   1.000  C
  C459     1.0000 0.66195  0.29800  0.03008  Biso   1.000  C
  C460     1.0000 0.50303  0.61143  0.22316  Biso   1.000  C
  C461     1.0000 0.82869  0.95496  0.88737  Biso   1.000  C
  C462     1.0000 0.15085  0.27940  0.54072  Biso   1.000  C
  C463     1.0000 0.49563  0.10607  0.34437  Biso   1.000  C
  C464     1.0000 0.19337  0.47413  0.68098  Biso   1.000  C
  C465     1.0000 0.84881  0.79343  0.06413  Biso   1.000  C
  C466     1.0000 0.00430  0.12051  0.21664  Biso   1.000  C
  C467     1.0000 0.69501  0.48419  0.88450  Biso   1.000  C
  C468     1.0000 0.37113  0.77612  0.53060  Biso   1.000  C
  C469     1.0000 0.02174  0.32117  0.71640  Biso   1.000  C
  C470     1.0000 0.68450  0.98909  0.38865  Biso   1.000  C
  C471     1.0000 0.34666  0.63989  0.03916  Biso   1.000  C
  C472     1.0000 0.51522  0.33303  0.84265  Biso   1.000  C
  C473     1.0000 0.17774  0.95826  0.18829  Biso   1.000  C
  C474     1.0000 0.86670  0.66936  0.53766  Biso   1.000  C
  C475     1.0000 0.50634  0.83192  0.72465  Biso   1.000  C
  C476     1.0000 0.82488  0.48109  0.38530  Biso   1.000  C
  C477     1.0000 0.15790  0.14196  0.03569  Biso   1.000  C
  C478     1.0000 0.00307  0.82106  0.85879  Biso   1.000  C
  C479     1.0000 0.33212  0.45097  0.18467  Biso   1.000  C
  C480     1.0000 0.64933  0.16882  0.51248  Biso   1.000  C
  C481     1.0000 0.38652  0.74762  0.53593  Biso   1.000  C
  C482     1.0000 0.51550  0.34944  0.81633  Biso   1.000  C
  C483     1.0000 0.79712  0.48527  0.39987  Biso   1.000  C
  C484     1.0000 0.86296  0.76539  0.06578  Biso   1.000  C
  C485     1.0000 0.01956  0.33619  0.74466  Biso   1.000  C
  C486     1.0000 0.30648  0.45570  0.16805  Biso   1.000  C
  C487     1.0000 0.13414  0.25224  0.54056  Biso   1.000  C
  C488     1.0000 0.00984  0.83715  0.83226  Biso   1.000  C
  C489     1.0000 0.71119  0.99552  0.40227  Biso   1.000  C
  C490     1.0000 0.64640  0.26986  0.03223  Biso   1.000  C
  C491     1.0000 0.50369  0.84692  0.75148  Biso   1.000  C
  C492     1.0000 0.20606  0.95204  0.17384  Biso   1.000  C
  C493     1.0000 0.63074  0.19456  0.51345  Biso   1.000  C
  C494     1.0000 0.50704  0.59440  0.24919  Biso   1.000  C
  C495     1.0000 0.21997  0.47203  0.66270  Biso   1.000  C
  C496     1.0000 0.14647  0.17086  0.03534  Biso   1.000  C
  C497     1.0000 0.03921  0.59984  0.32775  Biso   1.000  C
  C498     1.0000 0.72123  0.48089  0.90348  Biso   1.000  C
  C499     1.0000 0.88701  0.69337  0.54182  Biso   1.000  C
  C500     1.0000 0.00302  0.10743  0.24395  Biso   1.000  C
  C501     1.0000 0.30634  0.94485  0.66662  Biso   1.000  C
  C502     1.0000 0.36067  0.66765  0.03780  Biso   1.000  C
  C503     1.0000 0.49482  0.08703  0.31868  Biso   1.000  C
  C504     1.0000 0.80229  0.95180  0.90414  Biso   1.000  C
  C505     1.0000 0.64417  0.48149  0.82530  Biso   1.000  C
  C506     1.0000 0.80293  0.62371  0.53245  Biso   1.000  C
  C507     1.0000 0.50621  0.76990  0.68099  Biso   1.000  C
  C508     1.0000 0.14546  0.48121  0.74379  Biso   1.000  C
  C509     1.0000 0.29059  0.58684  0.04233  Biso   1.000  C
  C510     1.0000 0.98780  0.75972  0.90556  Biso   1.000  C
  C511     1.0000 0.88047  0.96285  0.82658  Biso   1.000  C
  C512     1.0000 0.71148  0.12389  0.51820  Biso   1.000  C
  C513     1.0000 0.02346  0.26416  0.66353  Biso   1.000  C
  C514     1.0000 0.37807  0.96614  0.74080  Biso   1.000  C
  C515     1.0000 0.21486  0.09055  0.03822  Biso   1.000  C
  C516     1.0000 0.51757  0.27207  0.89046  Biso   1.000  C
  C517     1.0000 0.37789  0.44371  0.24729  Biso   1.000  C
  C518     1.0000 0.21212  0.32662  0.54227  Biso   1.000  C
  C519     1.0000 0.49927  0.16982  0.38706  Biso   1.000  C
  C520     1.0000 0.87741  0.47304  0.32878  Biso   1.000  C
  C521     1.0000 0.72472  0.34540  0.03360  Biso   1.000  C
  C522     1.0000 0.01316  0.17871  0.16529  Biso   1.000  C
  C523     1.0000 0.13013  0.96785  0.24752  Biso   1.000  C
  C524     1.0000 0.31084  0.82498  0.52149  Biso   1.000  C
  C525     1.0000 0.03327  0.67823  0.39814  Biso   1.000  C
  C526     1.0000 0.63938  0.96504  0.33091  Biso   1.000  C
  C527     1.0000 0.79424  0.84502  0.06891  Biso   1.000  C
  C528     1.0000 0.49703  0.67499  0.17791  Biso   1.000  C
  C529     1.0000 0.80121  0.10618  0.02002  Biso   1.000  C
  C530     1.0000 0.00955  0.76300  0.17232  Biso   1.000  C
  C531     1.0000 0.14900  0.96768  0.82866  Biso   1.000  C
  C532     1.0000 0.29489  0.09448  0.54413  Biso   1.000  C
  C533     1.0000 0.52902  0.75228  0.41359  Biso   1.000  C
  C534     1.0000 0.64237  0.98315  0.74762  Biso   1.000  C
  C535     1.0000 0.70514  0.61687  0.06172  Biso   1.000  C
  C536     1.0000 0.49327  0.26111  0.15615  Biso   1.000  C
  C537     1.0000 0.37398  0.47914  0.82267  Biso   1.000  C
  C538     1.0000 0.21883  0.59314  0.50602  Biso   1.000  C
  C539     1.0000 0.01534  0.26077  0.40365  Biso   1.000  C
  C540     1.0000 0.87944  0.47047  0.74169  Biso   1.000  C
  C541     1.0000 0.20660  0.82193  0.03286  Biso   1.000  C
  C542     1.0000 0.01333  0.17720  0.89741  Biso   1.000  C
  C543     1.0000 0.86250  0.97088  0.24730  Biso   1.000  C
  C544     1.0000 0.72362  0.85550  0.54165  Biso   1.000  C
  C545     1.0000 0.51171  0.18702  0.65194  Biso   1.000  C
  C546     1.0000 0.37573  0.95708  0.32126  Biso   1.000  C
  C547     1.0000 0.30567  0.32577  0.03066  Biso   1.000  C
  C548     1.0000 0.49500  0.68632  0.91233  Biso   1.000  C
  C549     1.0000 0.64421  0.46952  0.24338  Biso   1.000  C
  C550     1.0000 0.79999  0.35805  0.51591  Biso   1.000  C
  C551     1.0000 0.00679  0.68422  0.66691  Biso   1.000  C
  C552     1.0000 0.13984  0.44082  0.32483  Biso   1.000  C
  C553     1.0000 0.00785  0.10250  0.82107  Biso   1.000  C
  C554     1.0000 0.78953  0.97554  0.16772  Biso   1.000  C
  C555     1.0000 0.12719  0.74723  0.03767  Biso   1.000  C
  C556     1.0000 0.52397  0.11559  0.73165  Biso   1.000  C
  C557     1.0000 0.29927  0.95456  0.39836  Biso   1.000  C
  C558     1.0000 0.65203  0.77443  0.54785  Biso   1.000  C
  C559     1.0000 0.51940  0.61593  0.83316  Biso   1.000  C
  C560     1.0000 0.72133  0.47638  0.16585  Biso   1.000  C
  C561     1.0000 0.38339  0.25158  0.03648  Biso   1.000  C
  C562     1.0000 0.99455  0.60762  0.74317  Biso   1.000  C
  C563     1.0000 0.21723  0.44546  0.40025  Biso   1.000  C
  C564     1.0000 0.86808  0.27603  0.52584  Biso   1.000  C
  C565     1.0000 0.99970  0.83665  0.24939  Biso   1.000  C
  C566     1.0000 0.22452  0.95629  0.90670  Biso   1.000  C
  C567     1.0000 0.87775  0.18312  0.02063  Biso   1.000  C
  C568     1.0000 0.50699  0.82518  0.33708  Biso   1.000  C
  C569     1.0000 0.71930  0.99465  0.67051  Biso   1.000  C
  C570     1.0000 0.36727  0.17213  0.52544  Biso   1.000  C
  C571     1.0000 0.51414  0.32506  0.23784  Biso   1.000  C
  C572     1.0000 0.30130  0.46734  0.90081  Biso   1.000  C
  C573     1.0000 0.62173  0.68606  0.06441  Biso   1.000  C
  C574     1.0000 0.00772  0.33834  0.32742  Biso   1.000  C
  C575     1.0000 0.80329  0.47338  0.66953  Biso   1.000  C
  C576     1.0000 0.15092  0.67474  0.52513  Biso   1.000  C
  C577     1.0000 0.30926  0.45762  0.13588  Biso   1.000  C
  C578     1.0000 0.10389  0.25562  0.54103  Biso   1.000  C
  C579     1.0000 0.49641  0.05615  0.32214  Biso   1.000  C
  C580     1.0000 0.79504  0.48575  0.43145  Biso   1.000  C
  C581     1.0000 0.61451  0.27191  0.03168  Biso   1.000  C
  C582     1.0000 0.99818  0.07591  0.24540  Biso   1.000  C
  C583     1.0000 0.20682  0.94885  0.14327  Biso   1.000  C
  C584     1.0000 0.41830  0.74806  0.53743  Biso   1.000  C
  C585     1.0000 0.03797  0.56812  0.32906  Biso   1.000  C
  C586     1.0000 0.71107  0.99814  0.43216  Biso   1.000  C
  C587     1.0000 0.89432  0.76459  0.06114  Biso   1.000  C
  C588     1.0000 0.50912  0.56364  0.24404  Biso   1.000  C
  C589     1.0000 0.71801  0.48283  0.93533  Biso   1.000  C
  C590     1.0000 0.91835  0.68890  0.54116  Biso   1.000  C
  C591     1.0000 0.50423  0.88004  0.75011  Biso   1.000  C
  C592     1.0000 0.21790  0.47177  0.63071  Biso   1.000  C
  C593     1.0000 0.39176  0.67122  0.04348  Biso   1.000  C
  C594     1.0000 0.01251  0.86779  0.83393  Biso   1.000  C
  C595     1.0000 0.80371  0.95173  0.93636  Biso   1.000  C
  C596     1.0000 0.59911  0.19152  0.51669  Biso   1.000  C
  C597     1.0000 0.02246  0.36768  0.74651  Biso   1.000  C
  C598     1.0000 0.30762  0.94451  0.63404  Biso   1.000  C
  C599     1.0000 0.11569  0.17484  0.03307  Biso   1.000  C
  C600     1.0000 0.51340  0.38089  0.81654  Biso   1.000  C
  C601     1.0000 0.21965  0.95464  0.93847  Biso   1.000  C
  C602     1.0000 0.90944  0.18380  0.02524  Biso   1.000  C
  C603     1.0000 0.99875  0.86728  0.24987  Biso   1.000  C
  C604     1.0000 0.71853  0.99871  0.63991  Biso   1.000  C
  C605     1.0000 0.39817  0.17393  0.51901  Biso   1.000  C
  C606     1.0000 0.50285  0.85684  0.33502  Biso   1.000  C
  C607     1.0000 0.30305  0.46434  0.93280  Biso   1.000  C
  C608     1.0000 0.59140  0.68265  0.05682  Biso   1.000  C
  C609     1.0000 0.51737  0.35658  0.23967  Biso   1.000  C
  C610     1.0000 0.80306  0.47546  0.63768  Biso   1.000  C
  C611     1.0000 0.12034  0.67698  0.53015  Biso   1.000  C
  C612     1.0000 0.00449  0.37030  0.32869  Biso   1.000  C
  C613     1.0000 0.79182  0.98095  0.13627  Biso   1.000  C
  C614     1.0000 0.09600  0.74834  0.04039  Biso   1.000  C
  C615     1.0000 0.00933  0.07065  0.82150  Biso   1.000  C
  C616     1.0000 0.30096  0.95584  0.42932  Biso   1.000  C
  C617     1.0000 0.62115  0.77357  0.54590  Biso   1.000  C
  C618     1.0000 0.52337  0.08448  0.73416  Biso   1.000  C
  C619     1.0000 0.72005  0.47601  0.13480  Biso   1.000  C
  C620     1.0000 0.41525  0.25335  0.03627  Biso   1.000  C
  C621     1.0000 0.51932  0.58423  0.83010  Biso   1.000  C
  C622     1.0000 0.21596  0.44953  0.43131  Biso   1.000  C
  C623     1.0000 0.89820  0.27426  0.52985  Biso   1.000  C
  C624     1.0000 0.99763  0.57547  0.74228  Biso   1.000  C
  C625     1.0000 0.01553  0.17813  0.92978  Biso   1.000  C
  C626     1.0000 0.89421  0.97203  0.24675  Biso   1.000  C
  C627     1.0000 0.20889  0.85305  0.03535  Biso   1.000  C
  C628     1.0000 0.50883  0.18245  0.62146  Biso   1.000  C
  C629     1.0000 0.40678  0.95263  0.32380  Biso   1.000  C
  C630     1.0000 0.71976  0.88692  0.53951  Biso   1.000  C
  C631     1.0000 0.49164  0.68387  0.94377  Biso   1.000  C
  C632     1.0000 0.61277  0.46778  0.24276  Biso   1.000  C
  C633     1.0000 0.30523  0.35703  0.02736  Biso   1.000  C
  C634     1.0000 0.01094  0.68430  0.63585  Biso   1.000  C
  C635     1.0000 0.10842  0.44030  0.32679  Biso   1.000  C
  C636     1.0000 0.80134  0.38932  0.52255  Biso   1.000  C
  C637     1.0000 0.01188  0.76463  0.14086  Biso   1.000  C
  C638     1.0000 0.11638  0.96995  0.83056  Biso   1.000  C
  C639     1.0000 0.80080  0.07495  0.02103  Biso   1.000  C
  C640     1.0000 0.53334  0.75337  0.44353  Biso   1.000  C
  C641     1.0000 0.61052  0.97947  0.74758  Biso   1.000  C
  C642     1.0000 0.29569  0.06180  0.54074  Biso   1.000  C
  C643     1.0000 0.49356  0.26419  0.12448  Biso   1.000  C
  C644     1.0000 0.40567  0.47966  0.82176  Biso   1.000  C
  C645     1.0000 0.70863  0.58491  0.05277  Biso   1.000  C
  C646     1.0000 0.01501  0.26231  0.43584  Biso   1.000  C
  C647     1.0000 0.91017  0.47330  0.74333  Biso   1.000  C
  C648     1.0000 0.21572  0.56050  0.50545  Biso   1.000  C
  C649     1.0000 0.03331  0.67883  0.43046  Biso   1.000  C
  C650     1.0000 0.40904  0.97260  0.74154  Biso   1.000  C
  C651     1.0000 0.72263  0.37870  0.03223  Biso   1.000  C
  C652     1.0000 0.49828  0.67827  0.14664  Biso   1.000  C
  C653     1.0000 0.91163  0.95992  0.82700  Biso   1.000  C
  C654     1.0000 0.21332  0.35820  0.53990  Biso   1.000  C
  C655     1.0000 0.49998  0.17371  0.41816  Biso   1.000  C
  C656     1.0000 0.11374  0.48095  0.74389  Biso   1.000  C
  C657     1.0000 0.79492  0.87570  0.06369  Biso   1.000  C
  C658     1.0000 0.01123  0.17783  0.13303  Biso   1.000  C
  C659     1.0000 0.61252  0.48237  0.82715  Biso   1.000  C
  C660     1.0000 0.31209  0.85604  0.51743  Biso   1.000  C
  C661     1.0000 0.02187  0.26741  0.63194  Biso   1.000  C
  C662     1.0000 0.60876  0.96015  0.33307  Biso   1.000  C
  C663     1.0000 0.29328  0.55586  0.04603  Biso   1.000  C
  C664     1.0000 0.51628  0.27032  0.92199  Biso   1.000  C
  C665     1.0000 0.09856  0.97189  0.24688  Biso   1.000  C
  C666     1.0000 0.80102  0.59190  0.53077  Biso   1.000  C
  C667     1.0000 0.50679  0.76938  0.64965  Biso   1.000  C
  C668     1.0000 0.90902  0.47273  0.32905  Biso   1.000  C
  C669     1.0000 0.21311  0.05944  0.03774  Biso   1.000  C
  C670     1.0000 0.98459  0.75879  0.93760  Biso   1.000  C
  C671     1.0000 0.41060  0.44542  0.24565  Biso   1.000  C
  C672     1.0000 0.71215  0.09150  0.52437  Biso   1.000  C
  C673     1.0000 0.21139  0.95660  0.84233  Biso   1.000  C
  C674     1.0000 0.81537  0.16852  0.02123  Biso   1.000  C
  C675     1.0000 0.01081  0.77685  0.23475  Biso   1.000  C
  C676     1.0000 0.70659  0.98584  0.73444  Biso   1.000  C
  C677     1.0000 0.30451  0.15655  0.53760  Biso   1.000  C
  C678     1.0000 0.51971  0.76431  0.35128  Biso   1.000  C
  C679     1.0000 0.31236  0.47488  0.83874  Biso   1.000  C
  C680     1.0000 0.68591  0.67879  0.07081  Biso   1.000  C
  C681     1.0000 0.50146  0.26423  0.21959  Biso   1.000  C
  C682     1.0000 0.81719  0.47381  0.73195  Biso   1.000  C
  C683     1.0000 0.21338  0.65583  0.52121  Biso   1.000  C
  C684     1.0000 0.01162  0.27600  0.33889  Biso   1.000  C
  C685     1.0000 0.80201  0.97117  0.22878  Biso   1.000  C
  C686     1.0000 0.18811  0.76079  0.03108  Biso   1.000  C
  C687     1.0000 0.00893  0.16690  0.83501  Biso   1.000  C
  C688     1.0000 0.31077  0.95870  0.33444  Biso   1.000  C
  C689     1.0000 0.71367  0.79217  0.54672  Biso   1.000  C
  C690     1.0000 0.51474  0.17758  0.71568  Biso   1.000  C
  C691     1.0000 0.70859  0.47768  0.22877  Biso   1.000  C
  C692     1.0000 0.31845  0.26286  0.03223  Biso   1.000  C
  C693     1.0000 0.50434  0.67565  0.84869  Biso   1.000  C
  C694     1.0000 0.20418  0.43691  0.33618  Biso   1.000  C
  C695     1.0000 0.80700  0.29350  0.51658  Biso   1.000  C
  C696     1.0000 0.99958  0.67034  0.73114  Biso   1.000  C
  C697     1.0000 0.69826  0.98244  0.34051  Biso   1.000  C
  C698     1.0000 0.29995  0.65126  0.03727  Biso   1.000  C
  C699     1.0000 0.01894  0.27444  0.72811  Biso   1.000  C
  C700     1.0000 0.19373  0.96254  0.23453  Biso   1.000  C
  C701     1.0000 0.81907  0.68517  0.53818  Biso   1.000  C
  C702     1.0000 0.51808  0.28720  0.82747  Biso   1.000  C
  C703     1.0000 0.81547  0.47852  0.33784  Biso   1.000  C
  C704     1.0000 0.20530  0.15331  0.03676  Biso   1.000  C
  C705     1.0000 0.50374  0.78659  0.74156  Biso   1.000  C
  C706     1.0000 0.31664  0.44733  0.23163  Biso   1.000  C
  C707     1.0000 0.69604  0.18656  0.51407  Biso   1.000  C
  C708     1.0000 0.99800  0.77596  0.84079  Biso   1.000  C
  C709     1.0000 0.31934  0.95017  0.72893  Biso   1.000  C
  C710     1.0000 0.70875  0.28156  0.02668  Biso   1.000  C
  C711     1.0000 0.03483  0.66414  0.33781  Biso   1.000  C
  C712     1.0000 0.81627  0.96147  0.83976  Biso   1.000  C
  C713     1.0000 0.19603  0.26461  0.54322  Biso   1.000  C
  C714     1.0000 0.50297  0.65825  0.23864  Biso   1.000  C
  C715     1.0000 0.20960  0.47653  0.72703  Biso   1.000  C
  C716     1.0000 0.80135  0.78336  0.07021  Biso   1.000  C
  C717     1.0000 0.49070  0.15028  0.32625  Biso   1.000  C
  C718     1.0000 0.70715  0.47876  0.83696  Biso   1.000  C
  C719     1.0000 0.32499  0.76174  0.52636  Biso   1.000  C
  C720     1.0000 0.01366  0.16828  0.22827  Biso   1.000  C
  C721     1.0000 0.53276  0.76945  0.32171  Biso   1.000  C
  C722     1.0000 0.31366  0.49640  0.81439  Biso   1.000  C
  C723     1.0000 0.77760  0.30105  0.52468  Biso   1.000  C
  C724     1.0000 0.99559  0.74893  0.23393  Biso   1.000  C
  C725     1.0000 0.78816  0.48647  0.72813  Biso   1.000  C
  C726     1.0000 0.29103  0.26580  0.01614  Biso   1.000  C
  C727     1.0000 0.99826  0.24804  0.34129  Biso   1.000  C
  C728     1.0000 0.24018  0.96911  0.84364  Biso   1.000  C
  C729     1.0000 0.74118  0.79659  0.56227  Biso   1.000  C
  C730     1.0000 0.48612  0.26751  0.24728  Biso   1.000  C
  C731     1.0000 0.72741  0.96090  0.73297  Biso   1.000  C
  C732     1.0000 0.21279  0.76126  0.00946  Biso   1.000  C
  C733     1.0000 0.49992  0.17423  0.74391  Biso   1.000  C
  C734     1.0000 0.70898  0.45860  0.25452  Biso   1.000  C
  C735     1.0000 0.20928  0.68592  0.50901  Biso   1.000  C
  C736     1.0000 0.99469  0.19701  0.84176  Biso   1.000  C
  C737     1.0000 0.23252  0.42167  0.34057  Biso   1.000  C
  C738     1.0000 0.71169  0.67550  0.08806  Biso   1.000  C
  C739     1.0000 0.01771  0.66811  0.75728  Biso   1.000  C
  C740     1.0000 0.80274  0.94880  0.25289  Biso   1.000  C
  C741     1.0000 0.27555  0.15053  0.52769  Biso   1.000  C
  C742     1.0000 0.49236  0.67124  0.81927  Biso   1.000  C
  C743     1.0000 0.31228  0.94432  0.30652  Biso   1.000  C
  C744     1.0000 0.81572  0.19170  0.04092  Biso   1.000  C
  C745     1.0000 0.05143  0.69098  0.33873  Biso   1.000  C
  C746     1.0000 0.29969  0.92421  0.73214  Biso   1.000  C
  C747     1.0000 0.73498  0.28171  0.04401  Biso   1.000  C
  C748     1.0000 0.52262  0.68324  0.23545  Biso   1.000  C
  C749     1.0000 0.82119  0.95358  0.80860  Biso   1.000  C
  C750     1.0000 0.21943  0.26384  0.56377  Biso   1.000  C
  C751     1.0000 0.50507  0.14445  0.29903  Biso   1.000  C
  C752     1.0000 0.23458  0.45812  0.72568  Biso   1.000  C
  C753     1.0000 0.77420  0.78775  0.05522  Biso   1.000  C
  C754     1.0000 0.02814  0.16190  0.25496  Biso   1.000  C
  C755     1.0000 0.70275  0.45952  0.81177  Biso   1.000  C
  C756     1.0000 0.29647  0.76686  0.53882  Biso   1.000  C
  C757     1.0000 0.99926  0.24974  0.72267  Biso   1.000  C
  C758     1.0000 0.69027  0.98909  0.31029  Biso   1.000  C
  C759     1.0000 0.27367  0.65046  0.05575  Biso   1.000  C
  C760     1.0000 0.53636  0.29049  0.80085  Biso   1.000  C
  C761     1.0000 0.22133  0.97575  0.22997  Biso   1.000  C
  C762     1.0000 0.82383  0.71256  0.52217  Biso   1.000  C
  C763     1.0000 0.52230  0.78851  0.76578  Biso   1.000  C
  C764     1.0000 0.79448  0.50164  0.33551  Biso   1.000  C
  C765     1.0000 0.22996  0.15438  0.05721  Biso   1.000  C
  C766     1.0000 0.98971  0.78440  0.81074  Biso   1.000  C
  C767     1.0000 0.31854  0.46059  0.26116  Biso   1.000  C
  C768     1.0000 0.69293  0.21350  0.49707  Biso   1.000  C
  C769     1.0000 0.51424  0.70615  0.85674  Biso   1.000  C
  C770     1.0000 0.82048  0.45735  0.75943  Biso   1.000  C
  C771     1.0000 0.71030  0.76709  0.52794  Biso   1.000  C
  C772     1.0000 0.98289  0.69679  0.72742  Biso   1.000  C
  C773     1.0000 0.28943  0.45268  0.83508  Biso   1.000  C
  C774     1.0000 0.18812  0.73736  0.05260  Biso   1.000  C
  C775     1.0000 0.02160  0.16241  0.80681  Biso   1.000  C
  C776     1.0000 0.71041  0.00599  0.75856  Biso   1.000  C
  C777     1.0000 0.80971  0.26557  0.50167  Biso   1.000  C
  C778     1.0000 0.52979  0.20763  0.71133  Biso   1.000  C
  C779     1.0000 0.20725  0.93879  0.81698  Biso   1.000  C
  C780     1.0000 0.32045  0.23513  0.04702  Biso   1.000  C
  C781     1.0000 0.50966  0.23419  0.21411  Biso   1.000  C
  C782     1.0000 0.19974  0.45326  0.30897  Biso   1.000  C
  C783     1.0000 0.30915  0.18432  0.55078  Biso   1.000  C
  C784     1.0000 0.03010  0.28134  0.31273  Biso   1.000  C
  C785     1.0000 0.73292  0.49928  0.22635  Biso   1.000  C
  C786     1.0000 0.79109  0.16982  0.00063  Biso   1.000  C
  C787     1.0000 0.03075  0.78253  0.26042  Biso   1.000  C
  C788     1.0000 0.28255  0.97309  0.34109  Biso   1.000  C
  C789     1.0000 0.24272  0.64728  0.53316  Biso   1.000  C
  C790     1.0000 0.50383  0.73755  0.35611  Biso   1.000  C
  C791     1.0000 0.77819  0.99115  0.22681  Biso   1.000  C
  C792     1.0000 0.68449  0.70693  0.05497  Biso   1.000  C
  C793     1.0000 0.47535  0.17751  0.33094  Biso   1.000  C
  C794     1.0000 0.28866  0.43348  0.22449  Biso   1.000  C
  C795     1.0000 0.19471  0.23934  0.52389  Biso   1.000  C
  C796     1.0000 0.00412  0.19821  0.22650  Biso   1.000  C
  C797     1.0000 0.81823  0.45725  0.31428  Biso   1.000  C
  C798     1.0000 0.70548  0.25765  0.00730  Biso   1.000  C
  C799     1.0000 0.01457  0.66044  0.31371  Biso   1.000  C
  C800     1.0000 0.19081  0.94595  0.26227  Biso   1.000  C
  C801     1.0000 0.32855  0.73508  0.50988  Biso   1.000  C
  C802     1.0000 0.48735  0.65538  0.26691  Biso   1.000  C
  C803     1.0000 0.72745  0.97301  0.34688  Biso   1.000  C
  C804     1.0000 0.80347  0.75806  0.08975  Biso   1.000  C
  C805     1.0000 0.48230  0.76379  0.73997  Biso   1.000  C
  C806     1.0000 0.73578  0.49294  0.84171  Biso   1.000  C
  C807     1.0000 0.79424  0.68015  0.55593  Biso   1.000  C
  C808     1.0000 0.00829  0.74725  0.84431  Biso   1.000  C
  C809     1.0000 0.20890  0.49819  0.75021  Biso   1.000  C
  C810     1.0000 0.30216  0.67387  0.01616  Biso   1.000  C
  C811     1.0000 0.03416  0.27570  0.75548  Biso   1.000  C
  C812     1.0000 0.79031  0.97695  0.84612  Biso   1.000  C
  C813     1.0000 0.72225  0.18480  0.53215  Biso   1.000  C
  C814     1.0000 0.50166  0.25996  0.83322  Biso   1.000  C
  C815     1.0000 0.31621  0.97383  0.74925  Biso   1.000  C
  C816     1.0000 0.20740  0.17440  0.01237  Biso   1.000  C
  C817     1.0000 0.99292  0.21799  0.81924  Biso   1.000  C
  C818     1.0000 0.77996  0.94872  0.27392  Biso   1.000  C
  C819     1.0000 0.23378  0.73976  0.01012  Biso   1.000  C
  C820     1.0000 0.50142  0.19460  0.76667  Biso   1.000  C
  C821     1.0000 0.28982  0.94444  0.28629  Biso   1.000  C
  C822     1.0000 0.76201  0.77483  0.56136  Biso   1.000  C
  C823     1.0000 0.48962  0.69470  0.80033  Biso   1.000  C
  C824     1.0000 0.73266  0.45860  0.27318  Biso   1.000  C
  C825     1.0000 0.27087  0.24329  0.01509  Biso   1.000  C
  C826     1.0000 0.02009  0.69084  0.77604  Biso   1.000  C
  C827     1.0000 0.25309  0.42416  0.31945  Biso   1.000  C
  C828     1.0000 0.75486  0.28059  0.52171  Biso   1.000  C
  C829     1.0000 0.99882  0.72823  0.25460  Biso   1.000  C
  C830     1.0000 0.26027  0.96785  0.82123  Biso   1.000  C
  C831     1.0000 0.79343  0.21256  0.04412  Biso   1.000  C
  C832     1.0000 0.52938  0.74906  0.30078  Biso   1.000  C
  C833     1.0000 0.74736  0.95644  0.75450  Biso   1.000  C
  C834     1.0000 0.25286  0.16995  0.53225  Biso   1.000  C
  C835     1.0000 0.48147  0.24438  0.26644  Biso   1.000  C
  C836     1.0000 0.29249  0.49826  0.79427  Biso   1.000  C
  C837     1.0000 0.73270  0.69648  0.09060  Biso   1.000  C
  C838     1.0000 0.00414  0.22713  0.31915  Biso   1.000  C
  C839     1.0000 0.76720  0.48334  0.74996  Biso   1.000  C
  C840     1.0000 0.23187  0.70546  0.51095  Biso   1.000  C
  C841     1.0000 0.22810  0.93660  0.79524  Biso   1.000  C
  C842     1.0000 0.76940  0.19063  0.00424  Biso   1.000  C
  C843     1.0000 0.03425  0.75911  0.28035  Biso   1.000  C
  C844     1.0000 0.73367  0.00290  0.77777  Biso   1.000  C
  C845     1.0000 0.28615  0.20389  0.55378  Biso   1.000  C
  C846     1.0000 0.50286  0.71682  0.33457  Biso   1.000  C
  C847     1.0000 0.27023  0.45379  0.81382  Biso   1.000  C
  C848     1.0000 0.70557  0.72833  0.05965  Biso   1.000  C
  C849     1.0000 0.50387  0.21157  0.23357  Biso   1.000  C
  C850     1.0000 0.80071  0.45760  0.78157  Biso   1.000  C
  C851     1.0000 0.26500  0.66938  0.53328  Biso   1.000  C
  C852     1.0000 0.03517  0.25968  0.29204  Biso   1.000  C
  C853     1.0000 0.75731  0.99055  0.24827  Biso   1.000  C
  C854     1.0000 0.20927  0.71694  0.05078  Biso   1.000  C
  C855     1.0000 0.01974  0.18379  0.78498  Biso   1.000  C
  C856     1.0000 0.25954  0.97051  0.32266  Biso   1.000  C
  C857     1.0000 0.73163  0.74669  0.52944  Biso   1.000  C
  C858     1.0000 0.52881  0.22653  0.73460  Biso   1.000  C
  C859     1.0000 0.75476  0.49934  0.24646  Biso   1.000  C
  C860     1.0000 0.29761  0.21546  0.04721  Biso   1.000  C
  C861     1.0000 0.51285  0.72675  0.83545  Biso   1.000  C
  C862     1.0000 0.22146  0.45345  0.28818  Biso   1.000  C
  C863     1.0000 0.78771  0.24496  0.50113  Biso   1.000  C
  C864     1.0000 0.98606  0.71898  0.74706  Biso   1.000  C
  C865     1.0000 0.72631  0.45567  0.79288  Biso   1.000  C
  C866     1.0000 0.80184  0.73398  0.52475  Biso   1.000  C
  C867     1.0000 0.52190  0.76705  0.78638  Biso   1.000  C
  C868     1.0000 0.25389  0.45946  0.74861  Biso   1.000  C
  C869     1.0000 0.25334  0.67233  0.05378  Biso   1.000  C
  C870     1.0000 0.99200  0.76506  0.78792  Biso   1.000  C
  C871     1.0000 0.79887  0.96053  0.78999  Biso   1.000  C
  C872     1.0000 0.71342  0.23550  0.49968  Biso   1.000  C
  C873     1.0000 0.99172  0.22945  0.74493  Biso   1.000  C
  C874     1.0000 0.27822  0.92463  0.75473  Biso   1.000  C
  C875     1.0000 0.24925  0.17593  0.05379  Biso   1.000  C
  C876     1.0000 0.53461  0.26691  0.78099  Biso   1.000  C
  C877     1.0000 0.29644  0.45630  0.28053  Biso   1.000  C
  C878     1.0000 0.23865  0.24071  0.56486  Biso   1.000  C
  C879     1.0000 0.50243  0.16551  0.27811  Biso   1.000  C
  C880     1.0000 0.77543  0.49992  0.31246  Biso   1.000  C
  C881     1.0000 0.75488  0.25968  0.04156  Biso   1.000  C
  C882     1.0000 0.03114  0.18266  0.27766  Biso   1.000  C
  C883     1.0000 0.24229  0.97325  0.25042  Biso   1.000  C
  C884     1.0000 0.27513  0.74474  0.53834  Biso   1.000  C
  C885     1.0000 0.04729  0.71178  0.31734  Biso   1.000  C
  C886     1.0000 0.71018  0.98338  0.28863  Biso   1.000  C
  C887     1.0000 0.75204  0.76783  0.05663  Biso   1.000  C
  C888     1.0000 0.52566  0.70246  0.25878  Biso   1.000  C
  C889     1.0000 0.74651  0.96945  0.32414  Biso   1.000  C
  C890     1.0000 0.27997  0.69437  0.01323  Biso   1.000  C
  C891     1.0000 0.02812  0.25444  0.77600  Biso   1.000  C
  C892     1.0000 0.21178  0.94486  0.28389  Biso   1.000  C
  C893     1.0000 0.77387  0.70264  0.55707  Biso   1.000  C
  C894     1.0000 0.50158  0.23790  0.81269  Biso   1.000  C
  C895     1.0000 0.79883  0.45792  0.29158  Biso   1.000  C
  C896     1.0000 0.22950  0.19521  0.00979  Biso   1.000  C
  C897     1.0000 0.47975  0.74394  0.76207  Biso   1.000  C
  C898     1.0000 0.26621  0.43184  0.24477  Biso   1.000  C
  C899     1.0000 0.74240  0.20684  0.53296  Biso   1.000  C
  C900     1.0000 0.00854  0.72862  0.82107  Biso   1.000  C
  C901     1.0000 0.29834  0.97088  0.77372  Biso   1.000  C
  C902     1.0000 0.72627  0.23703  0.00771  Biso   1.000  C
  C903     1.0000 0.00813  0.68294  0.29547  Biso   1.000  C
  C904     1.0000 0.76765  0.97899  0.82665  Biso   1.000  C
  C905     1.0000 0.21427  0.21663  0.52577  Biso   1.000  C
  C906     1.0000 0.49193  0.67640  0.28794  Biso   1.000  C
  C907     1.0000 0.22909  0.49785  0.77344  Biso   1.000  C
  C908     1.0000 0.78044  0.73953  0.09091  Biso   1.000  C
  C909     1.0000 0.47385  0.19662  0.30789  Biso   1.000  C
  C910     1.0000 0.75804  0.48728  0.82249  Biso   1.000  C
  C911     1.0000 0.30625  0.71464  0.50932  Biso   1.000  C
  C912     1.0000 0.00756  0.21886  0.24778  Biso   1.000  C
  C913     1.0000 0.77431  0.46798  0.77469  Biso   1.000  C
  C914     1.0000 0.75620  0.75038  0.54634  Biso   1.000  C
  C915     1.0000 0.50109  0.72148  0.80712  Biso   1.000  C
  C916     1.0000 0.27207  0.47642  0.79315  Biso   1.000  C
  C917     1.0000 0.23182  0.71674  0.02990  Biso   1.000  C
  C918     1.0000 0.00280  0.71496  0.77127  Biso   1.000  C
  C919     1.0000 0.74963  0.97783  0.77534  Biso   1.000  C
  C920     1.0000 0.76193  0.25210  0.51266  Biso   1.000  C
  C921     1.0000 0.00450  0.20989  0.79219  Biso   1.000  C
  C922     1.0000 0.25482  0.95096  0.79718  Biso   1.000  C
  C923     1.0000 0.27342  0.21831  0.03142  Biso   1.000  C
  C924     1.0000 0.51521  0.22037  0.76175  Biso   1.000  C
  C925     1.0000 0.24737  0.43889  0.29364  Biso   1.000  C
  C926     1.0000 0.25795  0.19606  0.54510  Biso   1.000  C
  C927     1.0000 0.49199  0.21652  0.26002  Biso   1.000  C
  C928     1.0000 0.75539  0.47863  0.26836  Biso   1.000  C
  C929     1.0000 0.77038  0.21149  0.02475  Biso   1.000  C
  C930     1.0000 0.02194  0.23247  0.29565  Biso   1.000  C
  C931     1.0000 0.26262  0.95579  0.29598  Biso   1.000  C
  C932     1.0000 0.25815  0.69686  0.52120  Biso   1.000  C
  C933     1.0000 0.01807  0.73283  0.27788  Biso   1.000  C
  C934     1.0000 0.75845  0.97079  0.27160  Biso   1.000  C
  C935     1.0000 0.72940  0.72372  0.07685  Biso   1.000  C
  C936     1.0000 0.51541  0.72226  0.30751  Biso   1.000  C
  C937     1.0000 0.75144  0.23740  0.02303  Biso   1.000  C
  C938     1.0000 0.02550  0.70800  0.29670  Biso   1.000  C
  C939     1.0000 0.27804  0.94752  0.77471  Biso   1.000  C
  C940     1.0000 0.23587  0.21820  0.54595  Biso   1.000  C
  C941     1.0000 0.50879  0.70062  0.28380  Biso   1.000  C
  C942     1.0000 0.77257  0.97392  0.79759  Biso   1.000  C
  C943     1.0000 0.75516  0.74299  0.07382  Biso   1.000  C
  C944     1.0000 0.48755  0.19151  0.28220  Biso   1.000  C
  C945     1.0000 0.25120  0.47806  0.77101  Biso   1.000  C
  C946     1.0000 0.28033  0.71972  0.52256  Biso   1.000  C
  C947     1.0000 0.02222  0.21140  0.27274  Biso   1.000  C
  C948     1.0000 0.75354  0.46759  0.79978  Biso   1.000  C
  C949     1.0000 0.25626  0.69502  0.03295  Biso   1.000  C
  C950     1.0000 0.00735  0.23278  0.77081  Biso   1.000  C
  C951     1.0000 0.73790  0.97398  0.29523  Biso   1.000  C
  C952     1.0000 0.77840  0.72899  0.54292  Biso   1.000  C
  C953     1.0000 0.51757  0.24160  0.78569  Biso   1.000  C
  C954     1.0000 0.23770  0.95798  0.27644  Biso   1.000  C
  C955     1.0000 0.24981  0.19657  0.03247  Biso   1.000  C
  C956     1.0000 0.50101  0.74461  0.78530  Biso   1.000  C
  C957     1.0000 0.77745  0.47959  0.29042  Biso   1.000  C
  C958     1.0000 0.73902  0.23184  0.51536  Biso   1.000  C
  C959     1.0000 0.99959  0.73657  0.79395  Biso   1.000  C
  C960     1.0000 0.26974  0.44294  0.27204  Biso   1.000  C
  Cu1      1.0000 0.01379  0.47248  0.69022  Biso   1.000  Cu
  Cu2      1.0000 0.66253  0.98869  0.53885  Biso   1.000  Cu
  Cu3      1.0000 0.49444  0.62226  0.04307  Biso   1.000  Cu
  Cu4      1.0000 0.50784  0.47925  0.87660  Biso   1.000  Cu
  Cu5      1.0000 0.15716  0.95459  0.03617  Biso   1.000  Cu
  Cu6      1.0000 0.01428  0.62683  0.53507  Biso   1.000  Cu
  Cu7      1.0000 0.51237  0.97941  0.68848  Biso   1.000  Cu
  Cu8      1.0000 0.85420  0.48977  0.53237  Biso   1.000  Cu
  Cu9      1.0000 0.00983  0.12362  0.03251  Biso   1.000  Cu
  Cu10     1.0000 0.01261  0.97040  0.88395  Biso   1.000  Cu
  Cu11     1.0000 0.35879  0.46104  0.03253  Biso   1.000  Cu
  Cu12     1.0000 0.50096  0.12494  0.52478  Biso   1.000  Cu
  Cu13     1.0000 0.00954  0.46802  0.38646  Biso   1.000  Cu
  Cu14     1.0000 0.36104  0.96508  0.53063  Biso   1.000  Cu
  Cu15     1.0000 0.51301  0.32093  0.02502  Biso   1.000  Cu
  Cu16     1.0000 0.51070  0.46266  0.18750  Biso   1.000  Cu
  Cu17     1.0000 0.85418  0.97156  0.03753  Biso   1.000  Cu
  Cu18     1.0000 0.00681  0.31996  0.53529  Biso   1.000  Cu
  Cu19     1.0000 0.50440  0.95816  0.38196  Biso   1.000  Cu
  Cu20     1.0000 0.16101  0.46377  0.53171  Biso   1.000  Cu
  Cu21     1.0000 0.99901  0.81475  0.03988  Biso   1.000  Cu
  Cu22     1.0000 0.99719  0.97272  0.19603  Biso   1.000  Cu
  Cu23     1.0000 0.66336  0.48002  0.03584  Biso   1.000  Cu
  Cu24     1.0000 0.51635  0.81517  0.54317  Biso   1.000  Cu
  Cu25     1.0000 0.21038  0.95561  0.03892  Biso   1.000  Cu
  Cu26     1.0000 0.01069  0.17705  0.03240  Biso   1.000  Cu
  Cu27     1.0000 0.99551  0.97167  0.24898  Biso   1.000  Cu
  Cu28     1.0000 0.71556  0.98974  0.53626  Biso   1.000  Cu
  Cu29     1.0000 0.49843  0.17845  0.52355  Biso   1.000  Cu
  Cu30     1.0000 0.51035  0.95627  0.32796  Biso   1.000  Cu
  Cu31     1.0000 0.30522  0.45883  0.03533  Biso   1.000  Cu
  Cu32     1.0000 0.49470  0.67805  0.04418  Biso   1.000  Cu
  Cu33     1.0000 0.51449  0.46095  0.24132  Biso   1.000  Cu
  Cu34     1.0000 0.79930  0.48738  0.53876  Biso   1.000  Cu
  Cu35     1.0000 0.02145  0.68029  0.53315  Biso   1.000  Cu
  Cu36     1.0000 0.01090  0.46875  0.32922  Biso   1.000  Cu
  Cu37     1.0000 0.80064  0.97524  0.03458  Biso   1.000  Cu
  Cu38     1.0000 0.99560  0.75984  0.04193  Biso   1.000  Cu
  Cu39     1.0000 0.01391  0.96611  0.82927  Biso   1.000  Cu
  Cu40     1.0000 0.30619  0.95605  0.53263  Biso   1.000  Cu
  Cu41     1.0000 0.52188  0.76332  0.54984  Biso   1.000  Cu
  Cu42     1.0000 0.50866  0.98120  0.74246  Biso   1.000  Cu
  Cu43     1.0000 0.71791  0.48505  0.03419  Biso   1.000  Cu
  Cu44     1.0000 0.51649  0.26689  0.02164  Biso   1.000  Cu
  Cu45     1.0000 0.50974  0.48387  0.82272  Biso   1.000  Cu
  Cu46     1.0000 0.21548  0.46305  0.52938  Biso   1.000  Cu
  Cu47     1.0000 0.00053  0.26451  0.53712  Biso   1.000  Cu
  Cu48     1.0000 0.01199  0.47440  0.74527  Biso   1.000  Cu
  H1       1.0000 0.25514  0.74658  0.55069  Biso   1.000  H
  H2       1.0000 0.54835  0.26842  0.76267  Biso   1.000  H
  H3       1.0000 0.76136  0.51887  0.31050  Biso   1.000  H
  H4       1.0000 0.73480  0.77310  0.04232  Biso   1.000  H
  H5       1.0000 0.97662  0.21176  0.74087  Biso   1.000  H
  H6       1.0000 0.30027  0.46383  0.30242  Biso   1.000  H
  H7       1.0000 0.25462  0.24018  0.58337  Biso   1.000  H
  H8       1.0000 0.98604  0.77398  0.76651  Biso   1.000  H
  H9       1.0000 0.70580  0.98735  0.26639  Biso   1.000  H
  H10      1.0000 0.77289  0.26336  0.05705  Biso   1.000  H
  H11      1.0000 0.53930  0.76668  0.80195  Biso   1.000  H
  H12      1.0000 0.26303  0.98511  0.24332  Biso   1.000  H
  H13      1.0000 0.70963  0.25566  0.48942  Biso   1.000  H
  H14      1.0000 0.54192  0.71907  0.25605  Biso   1.000  H
  H15      1.0000 0.27035  0.44253  0.75095  Biso   1.000  H
  H16      1.0000 0.26569  0.17702  0.07001  Biso   1.000  H
  H17      1.0000 0.06244  0.72908  0.31657  Biso   1.000  H
  H18      1.0000 0.72240  0.44292  0.77329  Biso   1.000  H
  H19      1.0000 0.80398  0.75529  0.51410  Biso   1.000  H
  H20      1.0000 0.04126  0.17571  0.29740  Biso   1.000  H
  H21      1.0000 0.26477  0.90548  0.75568  Biso   1.000  H
  H22      1.0000 0.23527  0.66887  0.07038  Biso   1.000  H
  H23      1.0000 0.51593  0.16361  0.25807  Biso   1.000  H
  H24      1.0000 0.80324  0.95687  0.76718  Biso   1.000  H
  H25      1.0000 0.28069  0.98111  0.82417  Biso   1.000  H
  H26      1.0000 0.79783  0.23093  0.05914  Biso   1.000  H
  H27      1.0000 0.98668  0.70939  0.25472  Biso   1.000  H
  H28      1.0000 0.75932  0.93592  0.75598  Biso   1.000  H
  H29      1.0000 0.23215  0.16156  0.52470  Biso   1.000  H
  H30      1.0000 0.54045  0.75213  0.27994  Biso   1.000  H
  H31      1.0000 0.29285  0.51494  0.77743  Biso   1.000  H
  H32      1.0000 0.74926  0.69398  0.10657  Biso   1.000  H
  H33      1.0000 0.46954  0.24789  0.28683  Biso   1.000  H
  H34      1.0000 0.74529  0.48977  0.74545  Biso   1.000  H
  H35      1.0000 0.22770  0.72689  0.50125  Biso   1.000  H
  H36      1.0000 0.99289  0.20625  0.31988  Biso   1.000  H
  H37      1.0000 0.77821  0.93227  0.29115  Biso   1.000  H
  H38      1.0000 0.25238  0.74040  0.99611  Biso   1.000  H
  H39      1.0000 0.98385  0.23954  0.82171  Biso   1.000  H
  H40      1.0000 0.29127  0.93369  0.26478  Biso   1.000  H
  H41      1.0000 0.78249  0.77689  0.57203  Biso   1.000  H
  H42      1.0000 0.49179  0.18856  0.78666  Biso   1.000  H
  H43      1.0000 0.73380  0.44548  0.29167  Biso   1.000  H
  H44      1.0000 0.25464  0.24560  0.99875  Biso   1.000  H
  H45      1.0000 0.47931  0.69046  0.77941  Biso   1.000  H
  H46      1.0000 0.27392  0.41501  0.32132  Biso   1.000  H
  H47      1.0000 0.73362  0.28338  0.53044  Biso   1.000  H
  H48      1.0000 0.03613  0.68858  0.79314  Biso   1.000  H
  H49      1.0000 0.22108  0.46869  0.26946  Biso   1.000  H
  H50      1.0000 0.29175  0.22579  0.56151  Biso   1.000  H
  H51      1.0000 0.50677  0.18937  0.22512  Biso   1.000  H
  H52      1.0000 0.77197  0.51505  0.24223  Biso   1.000  H
  H53      1.0000 0.74990  0.18734  0.99002  Biso   1.000  H
  H54      1.0000 0.04847  0.26365  0.27356  Biso   1.000  H
  H55      1.0000 0.23985  0.98222  0.32757  Biso   1.000  H
  H56      1.0000 0.28617  0.66497  0.54224  Biso   1.000  H
  H57      1.0000 0.04898  0.76085  0.29857  Biso   1.000  H
  H58      1.0000 0.74039  0.00718  0.24802  Biso   1.000  H
  H59      1.0000 0.69965  0.74889  0.04820  Biso   1.000  H
  H60      1.0000 0.49099  0.69756  0.33843  Biso   1.000  H
  H61      1.0000 0.80258  0.44830  0.80288  Biso   1.000  H
  H62      1.0000 0.72986  0.72701  0.51497  Biso   1.000  H
  H63      1.0000 0.51715  0.74836  0.84312  Biso   1.000  H
  H64      1.0000 0.25218  0.43812  0.81442  Biso   1.000  H
  H65      1.0000 0.20657  0.70068  0.06858  Biso   1.000  H
  H66      1.0000 0.97513  0.73847  0.74156  Biso   1.000  H
  H67      1.0000 0.73923  0.01953  0.79330  Biso   1.000  H
  H68      1.0000 0.79025  0.22364  0.49113  Biso   1.000  H
  H69      1.0000 0.02952  0.18278  0.76472  Biso   1.000  H
  H70      1.0000 0.22440  0.92327  0.77655  Biso   1.000  H
  H71      1.0000 0.30152  0.19650  0.06073  Biso   1.000  H
  H72      1.0000 0.53937  0.24596  0.72938  Biso   1.000  H
  H73      1.0000 0.77809  0.49803  0.82487  Biso   1.000  H
  H74      1.0000 0.75423  0.69969  0.56995  Biso   1.000  H
  H75      1.0000 0.46372  0.72623  0.75906  Biso   1.000  H
  H76      1.0000 0.22885  0.51631  0.78814  Biso   1.000  H
  H77      1.0000 0.28232  0.70929  0.99435  Biso   1.000  H
  H78      1.0000 0.01448  0.70627  0.82808  Biso   1.000  H
  H79      1.0000 0.74578  0.98621  0.83247  Biso   1.000  H
  H80      1.0000 0.76180  0.20520  0.54459  Biso   1.000  H
  H81      1.0000 0.03936  0.25557  0.79653  Biso   1.000  H
  H82      1.0000 0.30130  0.98834  0.78907  Biso   1.000  H
  H83      1.0000 0.22598  0.20945  0.99099  Biso   1.000  H
  H84      1.0000 0.48848  0.21905  0.81582  Biso   1.000  H
  H85      1.0000 0.24592  0.42117  0.23913  Biso   1.000  H
  H86      1.0000 0.21282  0.19923  0.51061  Biso   1.000  H
  H87      1.0000 0.45878  0.21461  0.30961  Biso   1.000  H
  H88      1.0000 0.80111  0.44099  0.27505  Biso   1.000  H
  H89      1.0000 0.72236  0.21767  0.99391  Biso   1.000  H
  H90      1.0000 0.99880  0.24087  0.24380  Biso   1.000  H
  H91      1.0000 0.20756  0.93139  0.30248  Biso   1.000  H
  H92      1.0000 0.30815  0.69339  0.49893  Biso   1.000  H
  H93      1.0000 0.98931  0.68009  0.28246  Biso   1.000  H
  H94      1.0000 0.76830  0.96115  0.33020  Biso   1.000  H
  H95      1.0000 0.78144  0.72396  0.10744  Biso   1.000  H
  H96      1.0000 0.48065  0.67290  0.30900  Biso   1.000  H
  H97      1.0000 0.87891  0.95717  0.94472  Biso   1.000  H
  H98      1.0000 0.90921  0.84054  0.05375  Biso   1.000  H
  H99      1.0000 0.99895  0.87720  0.90701  Biso   1.000  H
  H100     1.0000 0.38209  0.95897  0.62739  Biso   1.000  H
  H101     1.0000 0.42875  0.82462  0.53519  Biso   1.000  H
  H102     1.0000 0.50639  0.88753  0.67374  Biso   1.000  H
  H103     1.0000 0.64550  0.49017  0.94434  Biso   1.000  H
  H104     1.0000 0.60454  0.34982  0.02912  Biso   1.000  H
  H105     1.0000 0.51261  0.38798  0.89190  Biso   1.000  H
  H106     1.0000 0.14147  0.47296  0.62548  Biso   1.000  H
  H107     1.0000 0.09476  0.33177  0.54168  Biso   1.000  H
  H108     1.0000 0.02401  0.38128  0.67227  Biso   1.000  H
  H109     1.0000 0.13252  0.96333  0.12737  Biso   1.000  H
  H110     1.0000 0.09526  0.09933  0.02981  Biso   1.000  H
  H111     1.0000 0.98752  0.06152  0.17260  Biso   1.000  H
  H112     1.0000 0.63881  0.98800  0.45099  Biso   1.000  H
  H113     1.0000 0.59472  0.11701  0.51975  Biso   1.000  H
  H114     1.0000 0.50543  0.05131  0.39601  Biso   1.000  H
  H115     1.0000 0.38597  0.44385  0.12931  Biso   1.000  H
  H116     1.0000 0.40636  0.59578  0.05470  Biso   1.000  H
  H117     1.0000 0.50608  0.55915  0.16936  Biso   1.000  H
  H118     1.0000 0.87047  0.47926  0.44670  Biso   1.000  H
  H119     1.0000 0.91820  0.61420  0.52412  Biso   1.000  H
  H120     1.0000 0.01987  0.55963  0.40482  Biso   1.000  H
  H121     1.0000 0.10757  0.97140  0.90695  Biso   1.000  H
  H122     1.0000 0.87752  0.06532  0.02038  Biso   1.000  H
  H123     1.0000 0.00045  0.83780  0.12889  Biso   1.000  H
  H124     1.0000 0.60274  0.97522  0.67258  Biso   1.000  H
  H125     1.0000 0.37200  0.05588  0.52930  Biso   1.000  H
  H126     1.0000 0.52474  0.82859  0.45593  Biso   1.000  H
  H127     1.0000 0.42112  0.48044  0.89463  Biso   1.000  H
  H128     1.0000 0.63549  0.57002  0.04063  Biso   1.000  H
  H129     1.0000 0.51776  0.33626  0.12052  Biso   1.000  H
  H130     1.0000 0.92322  0.48145  0.66719  Biso   1.000  H
  H131     1.0000 0.14124  0.55573  0.52114  Biso   1.000  H
  H132     1.0000 0.01178  0.33676  0.44406  Biso   1.000  H
  H133     1.0000 0.90813  0.97691  0.17159  Biso   1.000  H
  H134     1.0000 0.13595  0.86622  0.04003  Biso   1.000  H
  H135     1.0000 0.00827  0.10297  0.94260  Biso   1.000  H
  H136     1.0000 0.41446  0.95873  0.39816  Biso   1.000  H
  H137     1.0000 0.64520  0.89304  0.55090  Biso   1.000  H
  H138     1.0000 0.50996  0.10654  0.61734  Biso   1.000  H
  H139     1.0000 0.60266  0.46500  0.16712  Biso   1.000  H
  H140     1.0000 0.37982  0.37133  0.03071  Biso   1.000  H
  H141     1.0000 0.50054  0.60752  0.95039  Biso   1.000  H
  H142     1.0000 0.09892  0.45645  0.40018  Biso   1.000  H
  H143     1.0000 0.87402  0.39494  0.53481  Biso   1.000  H
  H144     1.0000 0.01417  0.60743  0.62902  Biso   1.000  H
  H145     1.0000 0.60757  0.49464  0.90060  Biso   1.000  H
  H146     1.0000 0.87620  0.57682  0.52014  Biso   1.000  H
  H147     1.0000 0.51404  0.84121  0.63308  Biso   1.000  H
  H148     1.0000 0.10263  0.48456  0.67068  Biso   1.000  H
  H149     1.0000 0.36940  0.55124  0.05868  Biso   1.000  H
  H150     1.0000 0.00110  0.83151  0.95082  Biso   1.000  H
  H151     1.0000 0.91844  0.95894  0.90408  Biso   1.000  H
  H152     1.0000 0.63745  0.07952  0.52582  Biso   1.000  H
  H153     1.0000 0.02017  0.34387  0.62793  Biso   1.000  H
  H154     1.0000 0.42275  0.97819  0.66752  Biso   1.000  H
  H155     1.0000 0.13557  0.05215  0.03771  Biso   1.000  H
  H156     1.0000 0.52387  0.34405  0.93322  Biso   1.000  H
  H157     1.0000 0.42172  0.45478  0.17217  Biso   1.000  H
  H158     1.0000 0.13823  0.37329  0.53941  Biso   1.000  H
  H159     1.0000 0.49796  0.09776  0.43745  Biso   1.000  H
  H160     1.0000 0.91590  0.47804  0.40497  Biso   1.000  H
  H161     1.0000 0.64805  0.38974  0.02645  Biso   1.000  H
  H162     1.0000 0.00152  0.10313  0.12806  Biso   1.000  H
  H163     1.0000 0.08965  0.96726  0.17299  Biso   1.000  H
  H164     1.0000 0.38597  0.86626  0.53714  Biso   1.000  H
  H165     1.0000 0.03032  0.60415  0.44419  Biso   1.000  H
  H166     1.0000 0.59866  0.97253  0.40816  Biso   1.000  H
  H167     1.0000 0.87039  0.87987  0.04451  Biso   1.000  H
  H168     1.0000 0.50769  0.60390  0.13000  Biso   1.000  H
  H169     1.0000 0.00585  0.05807  0.89666  Biso   1.000  H
  H170     1.0000 0.86651  0.98614  0.12612  Biso   1.000  H
  H171     1.0000 0.08728  0.82444  0.03773  Biso   1.000  H
  H172     1.0000 0.50932  0.06684  0.66285  Biso   1.000  H
  H173     1.0000 0.37734  0.95846  0.43955  Biso   1.000  H
  H174     1.0000 0.60445  0.84560  0.55678  Biso   1.000  H
  H175     1.0000 0.50337  0.56707  0.90483  Biso   1.000  H
  H176     1.0000 0.64381  0.47373  0.12861  Biso   1.000  H
  H177     1.0000 0.42104  0.33034  0.03473  Biso   1.000  H
  H178     1.0000 0.01588  0.56756  0.66758  Biso   1.000  H
  H179     1.0000 0.13970  0.45379  0.43941  Biso   1.000  H
  H180     1.0000 0.91558  0.34765  0.53517  Biso   1.000  H
  H181     1.0000 0.00527  0.88388  0.17419  Biso   1.000  H
  H182     1.0000 0.14698  0.97975  0.94661  Biso   1.000  H
  H183     1.0000 0.91873  0.10783  0.02358  Biso   1.000  H
  H184     1.0000 0.50987  0.86929  0.41155  Biso   1.000  H
  H185     1.0000 0.64282  0.99141  0.63091  Biso   1.000  H
  H186     1.0000 0.40910  0.09745  0.52089  Biso   1.000  H
  H187     1.0000 0.52345  0.37458  0.16574  Biso   1.000  H
  H188     1.0000 0.37860  0.47445  0.94174  Biso   1.000  H
  H189     1.0000 0.58742  0.60720  0.04555  Biso   1.000  H
  H190     1.0000 0.00644  0.37617  0.40459  Biso   1.000  H
  H191     1.0000 0.88038  0.47629  0.62466  Biso   1.000  H
  H192     1.0000 0.10422  0.60063  0.53210  Biso   1.000  H
  H193     1.0000 0.29009  0.81424  0.52087  Biso   1.000  H
  H194     1.0000 0.51909  0.25234  0.87800  Biso   1.000  H
  H195     1.0000 0.86579  0.47160  0.30895  Biso   1.000  H
  H196     1.0000 0.77330  0.83734  0.07517  Biso   1.000  H
  H197     1.0000 0.02598  0.24281  0.67220  Biso   1.000  H
  H198     1.0000 0.36700  0.43841  0.26761  Biso   1.000  H
  H199     1.0000 0.23193  0.31462  0.54062  Biso   1.000  H
  H200     1.0000 0.98432  0.73985  0.89411  Biso   1.000  H
  H201     1.0000 0.64894  0.96096  0.30960  Biso   1.000  H
  H202     1.0000 0.74569  0.33396  0.03403  Biso   1.000  H
  H203     1.0000 0.50639  0.74891  0.69204  Biso   1.000  H
  H204     1.0000 0.14247  0.97191  0.26684  Biso   1.000  H
  H205     1.0000 0.73386  0.13393  0.51680  Biso   1.000  H
  H206     1.0000 0.49304  0.69489  0.19016  Biso   1.000  H
  H207     1.0000 0.15843  0.48363  0.76395  Biso   1.000  H
  H208     1.0000 0.23657  0.09959  0.03832  Biso   1.000  H
  H209     1.0000 0.03405  0.69734  0.38487  Biso   1.000  H
  H210     1.0000 0.65212  0.48220  0.80339  Biso   1.000  H
  H211     1.0000 0.78243  0.63493  0.53424  Biso   1.000  H
  H212     1.0000 0.01832  0.19944  0.17546  Biso   1.000  H
  H213     1.0000 0.36670  0.96134  0.76070  Biso   1.000  H
  H214     1.0000 0.27082  0.59776  0.03699  Biso   1.000  H
  H215     1.0000 0.50514  0.18952  0.37447  Biso   1.000  H
  H216     1.0000 0.87176  0.96569  0.80495  Biso   1.000  H
  H217     1.0000 0.23916  0.44650  0.39073  Biso   1.000  H
  H218     1.0000 0.35765  0.19338  0.52219  Biso   1.000  H
  H219     1.0000 0.51422  0.31039  0.25768  Biso   1.000  H
  H220     1.0000 0.74048  0.47464  0.17723  Biso   1.000  H
  H221     1.0000 0.86632  0.20381  0.02222  Biso   1.000  H
  H222     1.0000 0.01025  0.32905  0.30580  Biso   1.000  H
  H223     1.0000 0.27970  0.95376  0.38632  Biso   1.000  H
  H224     1.0000 0.16189  0.69690  0.52589  Biso   1.000  H
  H225     1.0000 0.99651  0.82451  0.26894  Biso   1.000  H
  H226     1.0000 0.76760  0.97501  0.17839  Biso   1.000  H
  H227     1.0000 0.63212  0.70709  0.06982  Biso   1.000  H
  H228     1.0000 0.50336  0.81348  0.31670  Biso   1.000  H
  H229     1.0000 0.78355  0.46851  0.68194  Biso   1.000  H
  H230     1.0000 0.66339  0.75403  0.55117  Biso   1.000  H
  H231     1.0000 0.52488  0.62805  0.81445  Biso   1.000  H
  H232     1.0000 0.28111  0.46628  0.88958  Biso   1.000  H
  H233     1.0000 0.13688  0.72598  0.03642  Biso   1.000  H
  H234     1.0000 0.98736  0.61728  0.76405  Biso   1.000  H
  H235     1.0000 0.74194  0.99936  0.68003  Biso   1.000  H
  H236     1.0000 0.85407  0.25624  0.52539  Biso   1.000  H
  H237     1.0000 0.00454  0.11405  0.80045  Biso   1.000  H
  H238     1.0000 0.24651  0.94864  0.89872  Biso   1.000  H
  H239     1.0000 0.37494  0.22961  0.03761  Biso   1.000  H
  H240     1.0000 0.53056  0.12898  0.74957  Biso   1.000  H
  H241     1.0000 0.74227  0.47767  0.89389  Biso   1.000  H
  H242     1.0000 0.87880  0.71482  0.54707  Biso   1.000  H
  H243     1.0000 0.49912  0.83784  0.77269  Biso   1.000  H
  H244     1.0000 0.24104  0.47275  0.67152  Biso   1.000  H
  H245     1.0000 0.34962  0.68729  0.02975  Biso   1.000  H
  H246     1.0000 0.02054  0.82562  0.81321  Biso   1.000  H
  H247     1.0000 0.78231  0.94983  0.89230  Biso   1.000  H
  H248     1.0000 0.63662  0.21695  0.50910  Biso   1.000  H
  H249     1.0000 0.01530  0.32447  0.76421  Biso   1.000  H
  H250     1.0000 0.28570  0.93953  0.67649  Biso   1.000  H
  H251     1.0000 0.16103  0.19017  0.03616  Biso   1.000  H
  H252     1.0000 0.51745  0.33677  0.79596  Biso   1.000  H
  H253     1.0000 0.28579  0.45962  0.17811  Biso   1.000  H
  H254     1.0000 0.14489  0.23034  0.54175  Biso   1.000  H
  H255     1.0000 0.49121  0.09651  0.29768  Biso   1.000  H
  H256     1.0000 0.77833  0.48781  0.38688  Biso   1.000  H
  H257     1.0000 0.65642  0.24698  0.03613  Biso   1.000  H
  H258     1.0000 0.00466  0.11914  0.26520  Biso   1.000  H
  H259     1.0000 0.22657  0.95022  0.18567  Biso   1.000  H
  H260     1.0000 0.37494  0.72694  0.54073  Biso   1.000  H
  H261     1.0000 0.04484  0.61055  0.30670  Biso   1.000  H
  H262     1.0000 0.73173  0.99921  0.39176  Biso   1.000  H
  H263     1.0000 0.85435  0.74403  0.06925  Biso   1.000  H
  H264     1.0000 0.50796  0.60559  0.26922  Biso   1.000  H
  H265     1.0000 0.01807  0.19768  0.88794  Biso   1.000  H
  H266     1.0000 0.85012  0.97037  0.26786  Biso   1.000  H
  H267     1.0000 0.22642  0.80890  0.03301  Biso   1.000  H
  H268     1.0000 0.51263  0.20938  0.65813  Biso   1.000  H
  H269     1.0000 0.36472  0.95768  0.29952  Biso   1.000  H
  H270     1.0000 0.74506  0.84640  0.53801  Biso   1.000  H
  H271     1.0000 0.49176  0.70676  0.90237  Biso   1.000  H
  H272     1.0000 0.65389  0.47340  0.26412  Biso   1.000  H
  H273     1.0000 0.28509  0.31383  0.03366  Biso   1.000  H
  H274     1.0000 0.00050  0.70586  0.67730  Biso   1.000  H
  H275     1.0000 0.14768  0.43471  0.30370  Biso   1.000  H
  H276     1.0000 0.78003  0.35034  0.50704  Biso   1.000  H
  H277     1.0000 0.01413  0.74171  0.18127  Biso   1.000  H
  H278     1.0000 0.15993  0.97033  0.80807  Biso   1.000  H
  H279     1.0000 0.78042  0.11887  0.02203  Biso   1.000  H
  H280     1.0000 0.53311  0.73184  0.40253  Biso   1.000  H
  H281     1.0000 0.65529  0.98508  0.76768  Biso   1.000  H
  H282     1.0000 0.27651  0.10439  0.55536  Biso   1.000  H
  H283     1.0000 0.48750  0.24134  0.16608  Biso   1.000  H
  H284     1.0000 0.36385  0.47587  0.80237  Biso   1.000  H
  H285     1.0000 0.72629  0.62763  0.06581  Biso   1.000  H
  H286     1.0000 0.01773  0.24015  0.39208  Biso   1.000  H
  H287     1.0000 0.86689  0.46976  0.76097  Biso   1.000  H
  H288     1.0000 0.23849  0.60718  0.50295  Biso   1.000  H
  H289     1.0000 0.10718  0.19762  0.03349  Biso   1.000  H
  H290     1.0000 0.99652  0.06439  0.26538  Biso   1.000  H
  H291     1.0000 0.22695  0.94280  0.13308  Biso   1.000  H
  H292     1.0000 0.58657  0.21045  0.51557  Biso   1.000  H
  H293     1.0000 0.49225  0.04147  0.30448  Biso   1.000  H
  H294     1.0000 0.73207  0.99972  0.44232  Biso   1.000  H
  H295     1.0000 0.40325  0.69034  0.04420  Biso   1.000  H
  H296     1.0000 0.51127  0.54923  0.26298  Biso   1.000  H
  H297     1.0000 0.29112  0.46587  0.12298  Biso   1.000  H
  H298     1.0000 0.93223  0.70716  0.54392  Biso   1.000  H
  H299     1.0000 0.04407  0.55803  0.30936  Biso   1.000  H
  H300     1.0000 0.77523  0.49093  0.44402  Biso   1.000  H
  H301     1.0000 0.90368  0.74340  0.05977  Biso   1.000  H
  H302     1.0000 0.01708  0.87825  0.81343  Biso   1.000  H
  H303     1.0000 0.78272  0.94981  0.94844  Biso   1.000  H
  H304     1.0000 0.43113  0.72932  0.54243  Biso   1.000  H
  H305     1.0000 0.50151  0.89164  0.76995  Biso   1.000  H
  H306     1.0000 0.28765  0.94160  0.62158  Biso   1.000  H
  H307     1.0000 0.60322  0.25106  0.02806  Biso   1.000  H
  H308     1.0000 0.51332  0.39079  0.79553  Biso   1.000  H
  H309     1.0000 0.73574  0.48185  0.95102  Biso   1.000  H
  H310     1.0000 0.08952  0.23679  0.54017  Biso   1.000  H
  H311     1.0000 0.01887  0.37855  0.76666  Biso   1.000  H
  H312     1.0000 0.23879  0.47189  0.61728  Biso   1.000  H
  H313     1.0000 0.23831  0.94603  0.94987  Biso   1.000  H
  H314     1.0000 0.92244  0.20457  0.02690  Biso   1.000  H
  H315     1.0000 0.99557  0.87859  0.27050  Biso   1.000  H
  H316     1.0000 0.73881  0.00140  0.62793  Biso   1.000  H
  H317     1.0000 0.40901  0.19598  0.51537  Biso   1.000  H
  H318     1.0000 0.49760  0.86624  0.31411  Biso   1.000  H
  H319     1.0000 0.28331  0.46092  0.94497  Biso   1.000  H
  H320     1.0000 0.57908  0.70226  0.05545  Biso   1.000  H
  H321     1.0000 0.51889  0.36311  0.26235  Biso   1.000  H
  H322     1.0000 0.78190  0.47518  0.62787  Biso   1.000  H
  H323     1.0000 0.10988  0.69720  0.53053  Biso   1.000  H
  H324     1.0000 0.00215  0.38332  0.30798  Biso   1.000  H
  H325     1.0000 0.77231  0.98328  0.12405  Biso   1.000  H
  H326     1.0000 0.08215  0.72975  0.04091  Biso   1.000  H
  H327     1.0000 0.00810  0.05663  0.80126  Biso   1.000  H
  H328     1.0000 0.28102  0.95780  0.44145  Biso   1.000  H
  H329     1.0000 0.61204  0.75267  0.54080  Biso   1.000  H
  H330     1.0000 0.53017  0.07422  0.75525  Biso   1.000  H
  H331     1.0000 0.73914  0.47566  0.12299  Biso   1.000  H
  H332     1.0000 0.42799  0.23369  0.03473  Biso   1.000  H
  H333     1.0000 0.52554  0.57515  0.80885  Biso   1.000  H
  H334     1.0000 0.23674  0.45571  0.44283  Biso   1.000  H
  H335     1.0000 0.90577  0.25247  0.53123  Biso   1.000  H
  H336     1.0000 0.99418  0.56214  0.76081  Biso   1.000  H
  H337     1.0000 0.01932  0.19862  0.94001  Biso   1.000  H
  H338     1.0000 0.90471  0.96814  0.26842  Biso   1.000  H
  H339     1.0000 0.23009  0.86383  0.03648  Biso   1.000  H
  H340     1.0000 0.50909  0.20151  0.60854  Biso   1.000  H
  H341     1.0000 0.42041  0.95250  0.30450  Biso   1.000  H
  H342     1.0000 0.73951  0.90102  0.53783  Biso   1.000  H
  H343     1.0000 0.48929  0.70539  0.95371  Biso   1.000  H
  H344     1.0000 0.59748  0.46830  0.26201  Biso   1.000  H
  H345     1.0000 0.28312  0.36699  0.02713  Biso   1.000  H
  H346     1.0000 0.01131  0.70481  0.62554  Biso   1.000  H
  H347     1.0000 0.09666  0.43323  0.30628  Biso   1.000  H
  H348     1.0000 0.78205  0.40412  0.51826  Biso   1.000  H
  H349     1.0000 0.01687  0.74427  0.13052  Biso   1.000  H
  H350     1.0000 0.10521  0.97454  0.81047  Biso   1.000  H
  H351     1.0000 0.78209  0.06120  0.02025  Biso   1.000  H
  H352     1.0000 0.54067  0.73331  0.45578  Biso   1.000  H
  H353     1.0000 0.60026  0.97900  0.76928  Biso   1.000  H
  H354     1.0000 0.27615  0.04924  0.54517  Biso   1.000  H
  H355     1.0000 0.48635  0.24683  0.11096  Biso   1.000  H
  H356     1.0000 0.41543  0.47981  0.80050  Biso   1.000  H
  H357     1.0000 0.73065  0.57527  0.04919  Biso   1.000  H
  H358     1.0000 0.01217  0.24228  0.44671  Biso   1.000  H
  H359     1.0000 0.91956  0.47646  0.76429  Biso   1.000  H
  H360     1.0000 0.23513  0.54777  0.50175  Biso   1.000  H
  H361     1.0000 0.02967  0.70060  0.43878  Biso   1.000  H
  H362     1.0000 0.41844  0.97116  0.76359  Biso   1.000  H
  H363     1.0000 0.74294  0.39125  0.03096  Biso   1.000  H
  H364     1.0000 0.49442  0.69893  0.13272  Biso   1.000  H
  H365     1.0000 0.92388  0.96542  0.80708  Biso   1.000  H
  H366     1.0000 0.23632  0.36709  0.53972  Biso   1.000  H
  H367     1.0000 0.50490  0.19661  0.42407  Biso   1.000  H
  H368     1.0000 0.10130  0.47873  0.76312  Biso   1.000  H
  H369     1.0000 0.77641  0.88885  0.06573  Biso   1.000  H
  H370     1.0000 0.01327  0.19751  0.12133  Biso   1.000  H
  H371     1.0000 0.60133  0.47885  0.80631  Biso   1.000  H
  H372     1.0000 0.29415  0.86824  0.51016  Biso   1.000  H
  H373     1.0000 0.02045  0.24734  0.61990  Biso   1.000  H
  H374     1.0000 0.59795  0.95723  0.31271  Biso   1.000  H
  H375     1.0000 0.27514  0.54089  0.04065  Biso   1.000  H
  H376     1.0000 0.51583  0.24927  0.93253  Biso   1.000  H
  H377     1.0000 0.08625  0.97359  0.26614  Biso   1.000  H
  H378     1.0000 0.78043  0.58048  0.53011  Biso   1.000  H
  H379     1.0000 0.50850  0.74802  0.64069  Biso   1.000  H
  H380     1.0000 0.91955  0.47214  0.30854  Biso   1.000  H
  H381     1.0000 0.23281  0.04595  0.03677  Biso   1.000  H
  H382     1.0000 0.97733  0.73844  0.94732  Biso   1.000  H
  H383     1.0000 0.42356  0.44251  0.26490  Biso   1.000  H
  H384     1.0000 0.73283  0.08104  0.52746  Biso   1.000  H
  H385     1.0000 0.23679  0.40900  0.36075  Biso   1.000  H
  H386     1.0000 0.26966  0.13134  0.51576  Biso   1.000  H
  H387     1.0000 0.47485  0.28779  0.25449  Biso   1.000  H
  H388     1.0000 0.69294  0.44033  0.25773  Biso   1.000  H
  H389     1.0000 0.83437  0.19353  0.05584  Biso   1.000  H
  H390     1.0000 0.98485  0.24197  0.35965  Biso   1.000  H
  H391     1.0000 0.33292  0.93534  0.30013  Biso   1.000  H
  H392     1.0000 0.18927  0.69092  0.49673  Biso   1.000  H
  H393     1.0000 0.98144  0.74325  0.21544  Biso   1.000  H
  H394     1.0000 0.81899  0.93174  0.25440  Biso   1.000  H
  H395     1.0000 0.71510  0.65467  0.09789  Biso   1.000  H
  H396     1.0000 0.54612  0.78812  0.31612  Biso   1.000  H
  H397     1.0000 0.78292  0.49937  0.71039  Biso   1.000  H
  H398     1.0000 0.74680  0.81529  0.57702  Biso   1.000  H
  H399     1.0000 0.48578  0.64982  0.81395  Biso   1.000  H
  H400     1.0000 0.32916  0.51412  0.81378  Biso   1.000  H
  H401     1.0000 0.21824  0.77868  0.99507  Biso   1.000  H
  H402     1.0000 0.03203  0.64968  0.76051  Biso   1.000  H
  H403     1.0000 0.72527  0.94496  0.71632  Biso   1.000  H
  H404     1.0000 0.77264  0.32047  0.53737  Biso   1.000  H
  H405     1.0000 0.98549  0.20216  0.86282  Biso   1.000  H
  H406     1.0000 0.24607  0.98249  0.86232  Biso   1.000  H
  H407     1.0000 0.28816  0.28401  0.00316  Biso   1.000  H
  H408     1.0000 0.48525  0.15607  0.74747  Biso   1.000  H
  H409     1.0000 0.28209  0.42454  0.20346  Biso   1.000  H
  H410     1.0000 0.17936  0.23961  0.50659  Biso   1.000  H
  H411     1.0000 0.46274  0.18351  0.34965  Biso   1.000  H
  H412     1.0000 0.83498  0.44041  0.31269  Biso   1.000  H
  H413     1.0000 0.68819  0.25927  0.99304  Biso   1.000  H
  H414     1.0000 0.99078  0.20460  0.20768  Biso   1.000  H
  H415     1.0000 0.17062  0.93390  0.26527  Biso   1.000  H
  H416     1.0000 0.34707  0.73332  0.49493  Biso   1.000  H
  H417     1.0000 0.00073  0.64045  0.31401  Biso   1.000  H
  H418     1.0000 0.73261  0.96662  0.36897  Biso   1.000  H
  H419     1.0000 0.82219  0.75327  0.10578  Biso   1.000  H
  H420     1.0000 0.47454  0.63672  0.27108  Biso   1.000  H
  H421     1.0000 0.74206  0.50800  0.85959  Biso   1.000  H
  H422     1.0000 0.78928  0.66177  0.56921  Biso   1.000  H
  H423     1.0000 0.46660  0.76412  0.72109  Biso   1.000  H
  H424     1.0000 0.19026  0.51341  0.75013  Biso   1.000  H
  H425     1.0000 0.31999  0.67864  0.00056  Biso   1.000  H
  H426     1.0000 0.01972  0.73733  0.86299  Biso   1.000  H
  H427     1.0000 0.78805  0.98578  0.86859  Biso   1.000  H
  H428     1.0000 0.72298  0.16774  0.54762  Biso   1.000  H
  H429     1.0000 0.04908  0.29221  0.76215  Biso   1.000  H
  H430     1.0000 0.32939  0.99296  0.74715  Biso   1.000  H
  H431     1.0000 0.19181  0.17551  0.99526  Biso   1.000  H
  H432     1.0000 0.48708  0.25851  0.85146  Biso   1.000  H
  H433     1.0000 0.30187  0.90706  0.71747  Biso   1.000  H
  H434     1.0000 0.73813  0.29895  0.06199  Biso   1.000  H
  H435     1.0000 0.06678  0.69521  0.35534  Biso   1.000  H
  H436     1.0000 0.83973  0.94025  0.79912  Biso   1.000  H
  H437     1.0000 0.22188  0.28143  0.57770  Biso   1.000  H
  H438     1.0000 0.53772  0.68830  0.21811  Biso   1.000  H
  H439     1.0000 0.23507  0.44038  0.71019  Biso   1.000  H
  H440     1.0000 0.77236  0.80670  0.04200  Biso   1.000  H
  H441     1.0000 0.52042  0.12729  0.29621  Biso   1.000  H
  H442     1.0000 0.68087  0.44933  0.80690  Biso   1.000  H
  H443     1.0000 0.29437  0.78536  0.55278  Biso   1.000  H
  H444     1.0000 0.03836  0.13943  0.25829  Biso   1.000  H
  H445     1.0000 0.67232  0.00052  0.30456  Biso   1.000  H
  H446     1.0000 0.27026  0.63278  0.07159  Biso   1.000  H
  H447     1.0000 0.98698  0.24796  0.70271  Biso   1.000  H
  H448     1.0000 0.22837  0.98808  0.21138  Biso   1.000  H
  H449     1.0000 0.84429  0.71532  0.51022  Biso   1.000  H
  H450     1.0000 0.55063  0.30917  0.79503  Biso   1.000  H
  H451     1.0000 0.79499  0.51843  0.35041  Biso   1.000  H
  H452     1.0000 0.22971  0.14015  0.07638  Biso   1.000  H
  H453     1.0000 0.53826  0.80597  0.76784  Biso   1.000  H
  H454     1.0000 0.33991  0.46855  0.26833  Biso   1.000  H
  H455     1.0000 0.67344  0.21685  0.48351  Biso   1.000  H
  H456     1.0000 0.98079  0.80692  0.80607  Biso   1.000  H
  H457     1.0000 0.69273  0.76081  0.51414  Biso   1.000  H
  H458     1.0000 0.52525  0.71325  0.87537  Biso   1.000  H
  H459     1.0000 0.83807  0.44274  0.76396  Biso   1.000  H
  H460     1.0000 0.17034  0.73613  0.06809  Biso   1.000  H
  H461     1.0000 0.97129  0.69771  0.70705  Biso   1.000  H
  H462     1.0000 0.28701  0.43522  0.85004  Biso   1.000  H
  H463     1.0000 0.82956  0.25850  0.49070  Biso   1.000  H
  H464     1.0000 0.03345  0.14329  0.80094  Biso   1.000  H
  H465     1.0000 0.69488  0.02456  0.75823  Biso   1.000  H
  H466     1.0000 0.33975  0.23277  0.05892  Biso   1.000  H
  H467     1.0000 0.54200  0.21123  0.69195  Biso   1.000  H
  H468     1.0000 0.18618  0.92847  0.81339  Biso   1.000  H
  H469     1.0000 0.33049  0.18974  0.56027  Biso   1.000  H
  H470     1.0000 0.51998  0.22803  0.19390  Biso   1.000  H
  H471     1.0000 0.18090  0.46507  0.30218  Biso   1.000  H
  H472     1.0000 0.78791  0.15432  0.98359  Biso   1.000  H
  H473     1.0000 0.04382  0.30072  0.31385  Biso   1.000  H
  H474     1.0000 0.73714  0.51441  0.20804  Biso   1.000  H
  H475     1.0000 0.24745  0.62577  0.54327  Biso   1.000  H
  H476     1.0000 0.04308  0.80314  0.26317  Biso   1.000  H
  H477     1.0000 0.28072  0.98469  0.36117  Biso   1.000  H
  H478     1.0000 0.66799  0.71018  0.03765  Biso   1.000  H
  H479     1.0000 0.48821  0.73172  0.37338  Biso   1.000  H
  H480     1.0000 0.77667  0.01040  0.21204  Biso   1.000  H
  N1       1.0000 0.67685  0.16700  0.51462  Biso   1.000  N
  N2       1.0000 0.50192  0.63880  0.21928  Biso   1.000  N
  N3       1.0000 0.18923  0.47588  0.70837  Biso   1.000  N
  N4       1.0000 0.18443  0.13525  0.03727  Biso   1.000  N
  N5       1.0000 0.03538  0.64423  0.35681  Biso   1.000  N
  N6       1.0000 0.68822  0.48327  0.85725  Biso   1.000  N
  N7       1.0000 0.83892  0.66568  0.53643  Biso   1.000  N
  N8       1.0000 0.00702  0.14842  0.21125  Biso   1.000  N
  N9       1.0000 0.33865  0.95340  0.70866  Biso   1.000  N
  N10      1.0000 0.31998  0.63259  0.03918  Biso   1.000  N
  N11      1.0000 0.49470  0.13319  0.34742  Biso   1.000  N
  N12      1.0000 0.83530  0.95872  0.85957  Biso   1.000  N
  N13      1.0000 0.34447  0.78127  0.52639  Biso   1.000  N
  N14      1.0000 0.51622  0.30567  0.84767  Biso   1.000  N
  N15      1.0000 0.83262  0.47874  0.35858  Biso   1.000  N
  N16      1.0000 0.82249  0.79983  0.06618  Biso   1.000  N
  N17      1.0000 0.02105  0.29482  0.70941  Biso   1.000  N
  N18      1.0000 0.33659  0.44893  0.21201  Biso   1.000  N
  N19      1.0000 0.17792  0.28486  0.54112  Biso   1.000  N
  N20      1.0000 0.99814  0.79324  0.86236  Biso   1.000  N
  N21      1.0000 0.68013  0.98399  0.36126  Biso   1.000  N
  N22      1.0000 0.68994  0.30176  0.02954  Biso   1.000  N
  N23      1.0000 0.50529  0.80443  0.72094  Biso   1.000  N
  N24      1.0000 0.17391  0.96109  0.21625  Biso   1.000  N
  N25      1.0000 0.83748  0.47301  0.71095  Biso   1.000  N
  N26      1.0000 0.69383  0.81042  0.54656  Biso   1.000  N
  N27      1.0000 0.50667  0.65521  0.86772  Biso   1.000  N
  N28      1.0000 0.33182  0.47590  0.85785  Biso   1.000  N
  N29      1.0000 0.16936  0.78011  0.03055  Biso   1.000  N
  N30      1.0000 0.00236  0.65093  0.71134  Biso   1.000  N
  N31      1.0000 0.68727  0.98833  0.71495  Biso   1.000  N
  N32      1.0000 0.82787  0.31197  0.51939  Biso   1.000  N
  N33      1.0000 0.00949  0.14665  0.85461  Biso   1.000  N
  N34      1.0000 0.19261  0.96264  0.86270  Biso   1.000  N
  N35      1.0000 0.33849  0.28291  0.03278  Biso   1.000  N
  N36      1.0000 0.51471  0.15713  0.69821  Biso   1.000  N
  N37      1.0000 0.18510  0.44214  0.35546  Biso   1.000  N
  N38      1.0000 0.32557  0.13870  0.53808  Biso   1.000  N
  N39      1.0000 0.50615  0.28505  0.20186  Biso   1.000  N
  N40      1.0000 0.68961  0.47478  0.20961  Biso   1.000  N
  N41      1.0000 0.83423  0.14947  0.02022  Biso   1.000  N
  N42      1.0000 0.00966  0.29465  0.35936  Biso   1.000  N
  N43      1.0000 0.33107  0.95772  0.35288  Biso   1.000  N
  N44      1.0000 0.19162  0.63819  0.51938  Biso   1.000  N
  N45      1.0000 0.00605  0.79508  0.21560  Biso   1.000  N
  N46      1.0000 0.82250  0.97257  0.21139  Biso   1.000  N
  N47      1.0000 0.66827  0.65691  0.06644  Biso   1.000  N
  N48      1.0000 0.51721  0.78452  0.37060  Biso   1.000  N
  O1       1.0000 0.35063  0.50258  0.03950  Biso   1.000  O
  O2       1.0000 0.01080  0.32164  0.57491  Biso   1.000  O
  O3       1.0000 0.54558  0.96147  0.38409  Biso   1.000  O
  O4       1.0000 0.85205  0.53057  0.52994  Biso   1.000  O
  O5       1.0000 0.51228  0.31896  0.98293  Biso   1.000  O
  O6       1.0000 0.04042  0.97346  0.19771  Biso   1.000  O
  O7       1.0000 0.15869  0.99845  0.03698  Biso   1.000  O
  O8       1.0000 0.50499  0.81648  0.58447  Biso   1.000  O
  O9       1.0000 0.96818  0.48001  0.38424  Biso   1.000  O
  O10      1.0000 0.66479  0.02978  0.54019  Biso   1.000  O
  O11      1.0000 0.99564  0.81023  0.99732  Biso   1.000  O
  O12      1.0000 0.47097  0.45630  0.19240  Biso   1.000  O
  O13      1.0000 0.66793  0.43772  0.03261  Biso   1.000  O
  O14      1.0000 0.01768  0.62830  0.49226  Biso   1.000  O
  O15      1.0000 0.46981  0.98564  0.68988  Biso   1.000  O
  O16      1.0000 0.16390  0.42292  0.53954  Biso   1.000  O
  O17      1.0000 0.49529  0.62706  0.08573  Biso   1.000  O
  O18      1.0000 0.97146  0.96850  0.87843  Biso   1.000  O
  O19      1.0000 0.84930  0.93251  0.04882  Biso   1.000  O
  O20      1.0000 0.50235  0.12451  0.48219  Biso   1.000  O
  O21      1.0000 0.05529  0.47913  0.69142  Biso   1.000  O
  O22      1.0000 0.36181  0.91941  0.52730  Biso   1.000  O
  O23      1.0000 0.01062  0.12485  0.07519  Biso   1.000  O
  O24      1.0000 0.55067  0.48499  0.87780  Biso   1.000  O
  O25      1.0000 0.95745  0.97583  0.19706  Biso   1.000  O
  O26      1.0000 0.15475  0.91221  0.03464  Biso   1.000  O
  O27      1.0000 0.01049  0.12419  0.99079  Biso   1.000  O
  O28      1.0000 0.46469  0.95444  0.37647  Biso   1.000  O
  O29      1.0000 0.66422  0.94604  0.54025  Biso   1.000  O
  O30      1.0000 0.49958  0.12869  0.56680  Biso   1.000  O
  O31      1.0000 0.55461  0.46590  0.19045  Biso   1.000  O
  O32      1.0000 0.35534  0.42032  0.02611  Biso   1.000  O
  O33      1.0000 0.49511  0.62719  0.99998  Biso   1.000  O
  O34      1.0000 0.05032  0.45769  0.38082  Biso   1.000  O
  O35      1.0000 0.85240  0.44701  0.53566  Biso   1.000  O
  O36      1.0000 0.00587  0.63060  0.57658  Biso   1.000  O
  O37      1.0000 0.05628  0.96869  0.88451  Biso   1.000  O
  O38      1.0000 0.85049  0.01172  0.02401  Biso   1.000  O
  O39      1.0000 0.00077  0.81487  0.08131  Biso   1.000  O
  O40      1.0000 0.55272  0.97550  0.69578  Biso   1.000  O
  O41      1.0000 0.35226  0.00625  0.53468  Biso   1.000  O
  O42      1.0000 0.52771  0.80775  0.50287  Biso   1.000  O
  O43      1.0000 0.46795  0.47342  0.87188  Biso   1.000  O
  O44      1.0000 0.66150  0.52237  0.03846  Biso   1.000  O
  O45      1.0000 0.51389  0.31678  0.06885  Biso   1.000  O
  O46      1.0000 0.97226  0.47405  0.69127  Biso   1.000  O
  O47      1.0000 0.16372  0.50313  0.52333  Biso   1.000  O
  O48      1.0000 0.00367  0.31692  0.49428  Biso   1.000  O
  O49      1.0000 0.99978  0.92985  0.19864  Biso   1.000  O
  O50      1.0000 0.16230  0.96213  0.99422  Biso   1.000  O
  O51      1.0000 0.96698  0.12943  0.03396  Biso   1.000  O
  O52      1.0000 0.50907  0.91863  0.38275  Biso   1.000  O
  O53      1.0000 0.66673  0.98521  0.58106  Biso   1.000  O
  O54      1.0000 0.46015  0.12551  0.51959  Biso   1.000  O
  O55      1.0000 0.51319  0.42104  0.19240  Biso   1.000  O
  O56      1.0000 0.35589  0.46988  0.99194  Biso   1.000  O
  O57      1.0000 0.53549  0.62846  0.04480  Biso   1.000  O
  O58      1.0000 0.00074  0.42825  0.38058  Biso   1.000  O
  O59      1.0000 0.85275  0.49048  0.57721  Biso   1.000  O
  O60      1.0000 0.05890  0.62772  0.53454  Biso   1.000  O
  O61      1.0000 0.01077  0.01192  0.87426  Biso   1.000  O
  O62      1.0000 0.84677  0.98002  0.07954  Biso   1.000  O
  O63      1.0000 0.03922  0.80305  0.03561  Biso   1.000  O
  O64      1.0000 0.51315  0.02064  0.69075  Biso   1.000  O
  O65      1.0000 0.35537  0.96497  0.48834  Biso   1.000  O
  O66      1.0000 0.55702  0.82019  0.55075  Biso   1.000  O
  O67      1.0000 0.50192  0.52087  0.87267  Biso   1.000  O
  O68      1.0000 0.66616  0.47711  0.07776  Biso   1.000  O
  O69      1.0000 0.47087  0.31279  0.02791  Biso   1.000  O
  O70      1.0000 0.01178  0.51668  0.68994  Biso   1.000  O
  O71      1.0000 0.16364  0.45720  0.49049  Biso   1.000  O
  O72      1.0000 0.96264  0.31826  0.53807  Biso   1.000  O
  O73      1.0000 0.01342  0.43102  0.69610  Biso   1.000  O
  O74      1.0000 0.66327  0.99494  0.49479  Biso   1.000  O
  O75      1.0000 0.45325  0.62326  0.04195  Biso   1.000  O
  O76      1.0000 0.51506  0.43801  0.86959  Biso   1.000  O
  O77      1.0000 0.16045  0.95480  0.07900  Biso   1.000  O
  O78      1.0000 0.97204  0.63165  0.52893  Biso   1.000  O
  O79      1.0000 0.51115  0.93677  0.69519  Biso   1.000  O
  O80      1.0000 0.84502  0.48420  0.49095  Biso   1.000  O
  O81      1.0000 0.05200  0.12695  0.03056  Biso   1.000  O
  O82      1.0000 0.00644  0.92866  0.88521  Biso   1.000  O
  O83      1.0000 0.36072  0.45474  0.07601  Biso   1.000  O
  O84      1.0000 0.54387  0.13361  0.52514  Biso   1.000  O
  O85      1.0000 0.02168  0.50777  0.38050  Biso   1.000  O
  O86      1.0000 0.35865  0.95943  0.57330  Biso   1.000  O
  O87      1.0000 0.55419  0.31998  0.01718  Biso   1.000  O
  O88      1.0000 0.50557  0.50569  0.19028  Biso   1.000  O
  O89      1.0000 0.85039  0.95642  0.99764  Biso   1.000  O
  O90      1.0000 0.04904  0.31340  0.53156  Biso   1.000  O
  O91      1.0000 0.50222  0.99952  0.37793  Biso   1.000  O
  O92      1.0000 0.16450  0.47450  0.57159  Biso   1.000  O
  O93      1.0000 0.95636  0.81450  0.04246  Biso   1.000  O
  O94      1.0000 0.99731  0.01444  0.19753  Biso   1.000  O
  O95      1.0000 0.66507  0.48352  0.99384  Biso   1.000  O
  O96      1.0000 0.47620  0.80421  0.53438  Biso   1.000  O
  O97      1.0000 0.45672  0.17419  0.52179  Biso   1.000  O
  O98      1.0000 0.52564  0.41997  0.23964  Biso   1.000  O
  O99      1.0000 0.21260  0.45809  0.48813  Biso   1.000  O
  O100     1.0000 0.96963  0.17724  0.03412  Biso   1.000  O
  O101     1.0000 0.00240  0.42802  0.33215  Biso   1.000  O
  O102     1.0000 0.71558  0.48017  0.07391  Biso   1.000  O
  O103     1.0000 0.06127  0.67671  0.53688  Biso   1.000  O
  O104     1.0000 0.99558  0.92871  0.24707  Biso   1.000  O
  O105     1.0000 0.30649  0.96088  0.49229  Biso   1.000  O
  O106     1.0000 0.53434  0.67725  0.04088  Biso   1.000  O
  O107     1.0000 0.51359  0.91494  0.33383  Biso   1.000  O
  O108     1.0000 0.79719  0.97976  0.07742  Biso   1.000  O
  O109     1.0000 0.56174  0.77148  0.55017  Biso   1.000  O
  O110     1.0000 0.51148  0.52410  0.82573  Biso   1.000  O
  O111     1.0000 0.80534  0.48845  0.57886  Biso   1.000  O
  O112     1.0000 0.03695  0.75457  0.04239  Biso   1.000  O
  O113     1.0000 0.01076  0.51694  0.73814  Biso   1.000  O
  O114     1.0000 0.30720  0.46719  0.99387  Biso   1.000  O
  O115     1.0000 0.95869  0.26820  0.53634  Biso   1.000  O
  O116     1.0000 0.01359  0.00697  0.82622  Biso   1.000  O
  O117     1.0000 0.71524  0.98968  0.57945  Biso   1.000  O
  O118     1.0000 0.47558  0.26332  0.02634  Biso   1.000  O
  O119     1.0000 0.51251  0.02447  0.74012  Biso   1.000  O
  O120     1.0000 0.20982  0.95733  0.99911  Biso   1.000  O
  O121     1.0000 0.05185  0.48196  0.73924  Biso   1.000  O
  O122     1.0000 0.71297  0.03211  0.53424  Biso   1.000  O
  O123     1.0000 0.49940  0.67559  0.08521  Biso   1.000  O
  O124     1.0000 0.55314  0.48490  0.83026  Biso   1.000  O
  O125     1.0000 0.20624  0.99801  0.04471  Biso   1.000  O
  O126     1.0000 0.02157  0.67513  0.49334  Biso   1.000  O
  O127     1.0000 0.46809  0.98194  0.73748  Biso   1.000  O
  O128     1.0000 0.80335  0.53047  0.53569  Biso   1.000  O
  O129     1.0000 0.00964  0.17370  0.07334  Biso   1.000  O
  O130     1.0000 0.97170  0.96637  0.82929  Biso   1.000  O
  O131     1.0000 0.30375  0.49781  0.04559  Biso   1.000  O
  O132     1.0000 0.50284  0.17273  0.47994  Biso   1.000  O
  O133     1.0000 0.97084  0.48128  0.33419  Biso   1.000  O
  O134     1.0000 0.31397  0.91470  0.52627  Biso   1.000  O
  O135     1.0000 0.51717  0.27047  0.97955  Biso   1.000  O
  O136     1.0000 0.47206  0.45248  0.24119  Biso   1.000  O
  O137     1.0000 0.79937  0.93489  0.04460  Biso   1.000  O
  O138     1.0000 0.99964  0.27445  0.57813  Biso   1.000  O
  O139     1.0000 0.55151  0.96116  0.33430  Biso   1.000  O
  O140     1.0000 0.21263  0.42023  0.53374  Biso   1.000  O
  O141     1.0000 0.99547  0.76165  0.00087  Biso   1.000  O
  O142     1.0000 0.03913  0.97319  0.24563  Biso   1.000  O
  O143     1.0000 0.71724  0.44238  0.02964  Biso   1.000  O
  O144     1.0000 0.51216  0.76940  0.59067  Biso   1.000  O
  O145     1.0000 0.55584  0.46592  0.23903  Biso   1.000  O
  O146     1.0000 0.21355  0.50543  0.52594  Biso   1.000  O
  O147     1.0000 0.49472  0.17721  0.56501  Biso   1.000  O
  O148     1.0000 0.05103  0.45938  0.33156  Biso   1.000  O
  O149     1.0000 0.71028  0.52625  0.03904  Biso   1.000  O
  O150     1.0000 0.01402  0.17304  0.99063  Biso   1.000  O
  O151     1.0000 0.95288  0.97350  0.24515  Biso   1.000  O
  O152     1.0000 0.30541  0.99863  0.53840  Biso   1.000  O
  O153     1.0000 0.02021  0.67719  0.57530  Biso   1.000  O
  O154     1.0000 0.46863  0.95129  0.32731  Biso   1.000  O
  O155     1.0000 0.80165  0.01364  0.02615  Biso   1.000  O
  O156     1.0000 0.49026  0.67678  0.00320  Biso   1.000  O
  O157     1.0000 0.46798  0.47920  0.82278  Biso   1.000  O
  O158     1.0000 0.80336  0.44651  0.53991  Biso   1.000  O
  O159     1.0000 0.53071  0.75986  0.50775  Biso   1.000  O
  O160     1.0000 0.97018  0.47194  0.74029  Biso   1.000  O
  O161     1.0000 0.30650  0.41724  0.02541  Biso   1.000  O
  O162     1.0000 0.99643  0.76591  0.08235  Biso   1.000  O
  O163     1.0000 0.05549  0.96747  0.83764  Biso   1.000  O
  O164     1.0000 0.71243  0.94735  0.53542  Biso   1.000  O
  O165     1.0000 0.00479  0.26632  0.49445  Biso   1.000  O
  O166     1.0000 0.55083  0.97613  0.74431  Biso   1.000  O
  O167     1.0000 0.20526  0.91512  0.03392  Biso   1.000  O
  O168     1.0000 0.50902  0.26859  0.06745  Biso   1.000  O
  O169     1.0000 0.99904  0.01465  0.24573  Biso   1.000  O
  O170     1.0000 0.20754  0.94784  0.08354  Biso   1.000  O
  O171     1.0000 0.05269  0.17543  0.03348  Biso   1.000  O
  O172     1.0000 0.50085  0.99768  0.32928  Biso   1.000  O
  O173     1.0000 0.71087  0.99186  0.49332  Biso   1.000  O
  O174     1.0000 0.54053  0.18344  0.52339  Biso   1.000  O
  O175     1.0000 0.50824  0.50336  0.23931  Biso   1.000  O
  O176     1.0000 0.31317  0.45043  0.07703  Biso   1.000  O
  O177     1.0000 0.45159  0.67134  0.04729  Biso   1.000  O
  O178     1.0000 0.02188  0.50936  0.33146  Biso   1.000  O
  O179     1.0000 0.79636  0.48479  0.49344  Biso   1.000  O
  O180     1.0000 0.97855  0.67934  0.53469  Biso   1.000  O
  O181     1.0000 0.01354  0.92634  0.83860  Biso   1.000  O
  O182     1.0000 0.80551  0.96924  0.99343  Biso   1.000  O
  O183     1.0000 0.95398  0.76554  0.04354  Biso   1.000  O
  O184     1.0000 0.50315  0.94127  0.74276  Biso   1.000  O
  O185     1.0000 0.31096  0.94799  0.57442  Biso   1.000  O
  O186     1.0000 0.48075  0.75687  0.54244  Biso   1.000  O
  O187     1.0000 0.50898  0.44180  0.82198  Biso   1.000  O
  O188     1.0000 0.71417  0.48876  0.99478  Biso   1.000  O
  O189     1.0000 0.55640  0.27148  0.02560  Biso   1.000  O
  O190     1.0000 0.01924  0.43171  0.74365  Biso   1.000  O
  O191     1.0000 0.21245  0.47044  0.57143  Biso   1.000  O
  O192     1.0000 0.04351  0.26483  0.53992  Biso   1.000  O
