data_image0
_cell_length_a       47.0069
_cell_length_b       46.6197
_cell_length_c       46.5548
_cell_angle_alpha    90
_cell_angle_beta     90
_cell_angle_gamma    90

_symmetry_space_group_name_H-M    "P 1"
_symmetry_int_tables_number       1

loop_
  _symmetry_equiv_pos_as_xyz
  'x, y, z'

loop_
  _atom_site_label
  _atom_site_occupancy
  _atom_site_fract_x
  _atom_site_fract_y
  _atom_site_fract_z
  _atom_site_thermal_displace_type
  _atom_site_B_iso_or_equiv
  _atom_site_type_symbol
  C1       1.0000 0.57319  0.95750  0.33928  Biso   1.000  C
  C2       1.0000 0.34484  0.53847  0.03785  Biso   1.000  C
  C3       1.0000 0.01583  0.28610  0.57088  Biso   1.000  C
  C4       1.0000 0.07504  0.98632  0.20696  Biso   1.000  C
  C5       1.0000 0.84188  0.52159  0.51697  Biso   1.000  C
  C6       1.0000 0.51473  0.29751  0.96645  Biso   1.000  C
  C7       1.0000 0.97329  0.47463  0.33574  Biso   1.000  C
  C8       1.0000 0.20019  0.04055  0.02170  Biso   1.000  C
  C9       1.0000 0.52244  0.79284  0.57518  Biso   1.000  C
  C10      1.0000 0.47208  0.45641  0.20472  Biso   1.000  C
  C11      1.0000 0.70367  0.02320  0.51561  Biso   1.000  C
  C12      1.0000 0.04067  0.79784  0.98152  Biso   1.000  C
  C13      1.0000 0.47346  0.96678  0.70538  Biso   1.000  C
  C14      1.0000 0.69940  0.40803  0.00885  Biso   1.000  C
  C15      1.0000 0.00979  0.64644  0.48274  Biso   1.000  C
  C16      1.0000 0.96615  0.96228  0.84191  Biso   1.000  C
  C17      1.0000 0.19825  0.42161  0.53579  Biso   1.000  C
  C18      1.0000 0.52926  0.64927  0.07735  Biso   1.000  C
  C19      1.0000 0.06767  0.46362  0.70728  Biso   1.000  C
  C20      1.0000 0.84524  0.91274  0.02696  Biso   1.000  C
  C21      1.0000 0.51431  0.15060  0.46388  Biso   1.000  C
  C22      1.0000 0.57138  0.48458  0.83905  Biso   1.000  C
  C23      1.0000 0.34272  0.91778  0.52019  Biso   1.000  C
  C24      1.0000 0.01226  0.15720  0.06885  Biso   1.000  C
  C25      1.0000 0.33968  0.02524  0.54190  Biso   1.000  C
  C26      1.0000 0.50405  0.29105  0.07828  Biso   1.000  C
  C27      1.0000 0.07954  0.47718  0.34589  Biso   1.000  C
  C28      1.0000 0.83657  0.01809  0.01427  Biso   1.000  C
  C29      1.0000 0.02151  0.29229  0.45989  Biso   1.000  C
  C30      1.0000 0.58153  0.47567  0.19609  Biso   1.000  C
  C31      1.0000 0.20024  0.52984  0.52032  Biso   1.000  C
  C32      1.0000 0.02663  0.79811  0.09086  Biso   1.000  C
  C33      1.0000 0.46315  0.95873  0.34550  Biso   1.000  C
  C34      1.0000 0.70804  0.51786  0.01047  Biso   1.000  C
  C35      1.0000 0.52967  0.78930  0.46921  Biso   1.000  C
  C36      1.0000 0.96835  0.97462  0.20708  Biso   1.000  C
  C37      1.0000 0.70595  0.91497  0.52662  Biso   1.000  C
  C38      1.0000 0.53650  0.65935  0.96997  Biso   1.000  C
  C39      1.0000 0.95895  0.46630  0.70083  Biso   1.000  C
  C40      1.0000 0.21037  0.93334  0.03409  Biso   1.000  C
  C41      1.0000 0.03299  0.65098  0.58802  Biso   1.000  C
  C42      1.0000 0.46116  0.47954  0.84619  Biso   1.000  C
  C43      1.0000 0.83984  0.41408  0.51502  Biso   1.000  C
  C44      1.0000 0.00436  0.15805  0.95811  Biso   1.000  C
  C45      1.0000 0.57938  0.98139  0.70794  Biso   1.000  C
  C46      1.0000 0.33651  0.43037  0.02643  Biso   1.000  C
  C47      1.0000 0.52129  0.15365  0.57381  Biso   1.000  C
  C48      1.0000 0.07712  0.96984  0.84354  Biso   1.000  C
  C49      1.0000 0.01321  0.02090  0.84274  Biso   1.000  C
  C50      1.0000 0.83815  0.97017  0.07684  Biso   1.000  C
  C51      1.0000 0.09018  0.80236  0.04424  Biso   1.000  C
  C52      1.0000 0.51896  0.02842  0.70428  Biso   1.000  C
  C53      1.0000 0.34051  0.98270  0.47588  Biso   1.000  C
  C54      1.0000 0.58142  0.78871  0.52777  Biso   1.000  C
  C55      1.0000 0.51353  0.53293  0.84370  Biso   1.000  C
  C56      1.0000 0.70475  0.46021  0.06655  Biso   1.000  C
  C57      1.0000 0.45148  0.29259  0.01476  Biso   1.000  C
  C58      1.0000 0.01458  0.51928  0.70821  Biso   1.000  C
  C59      1.0000 0.19828  0.46295  0.47370  Biso   1.000  C
  C60      1.0000 0.96504  0.28913  0.51291  Biso   1.000  C
  C61      1.0000 0.02429  0.92455  0.20734  Biso   1.000  C
  C62      1.0000 0.20304  0.97811  0.97196  Biso   1.000  C
  C63      1.0000 0.95650  0.15067  0.01874  Biso   1.000  C
  C64      1.0000 0.51353  0.90646  0.33609  Biso   1.000  C
  C65      1.0000 0.70105  0.97426  0.57433  Biso   1.000  C
  C66      1.0000 0.46476  0.15501  0.52495  Biso   1.000  C
  C67      1.0000 0.53886  0.41220  0.20650  Biso   1.000  C
  C68      1.0000 0.33734  0.48774  0.97675  Biso   1.000  C
  C69      1.0000 0.59062  0.65368  0.02585  Biso   1.000  C
  C70      1.0000 0.02555  0.42505  0.34098  Biso   1.000  C
  C71      1.0000 0.84163  0.46443  0.56914  Biso   1.000  C
  C72      1.0000 0.07434  0.65701  0.52201  Biso   1.000  C
  C73      1.0000 0.02519  0.53315  0.34364  Biso   1.000  C
  C74      1.0000 0.34221  0.95991  0.58247  Biso   1.000  C
  C75      1.0000 0.56162  0.29347  0.02639  Biso   1.000  C
  C76      1.0000 0.51883  0.52013  0.19776  Biso   1.000  C
  C77      1.0000 0.84504  0.95438  0.96936  Biso   1.000  C
  C78      1.0000 0.07374  0.29230  0.51700  Biso   1.000  C
  C79      1.0000 0.52103  0.01587  0.33961  Biso   1.000  C
  C80      1.0000 0.19927  0.48146  0.58234  Biso   1.000  C
  C81      1.0000 0.98335  0.79652  0.03390  Biso   1.000  C
  C82      1.0000 0.01287  0.03349  0.20559  Biso   1.000  C
  C83      1.0000 0.70123  0.46455  0.95743  Biso   1.000  C
  C84      1.0000 0.47200  0.79092  0.51645  Biso   1.000  C
  C85      1.0000 0.00835  0.41042  0.70250  Biso   1.000  C
  C86      1.0000 0.69863  0.96492  0.46676  Biso   1.000  C
  C87      1.0000 0.47994  0.65682  0.01796  Biso   1.000  C
  C88      1.0000 0.51600  0.42488  0.84098  Biso   1.000  C
  C89      1.0000 0.20490  0.98983  0.07997  Biso   1.000  C
  C90      1.0000 0.96800  0.64531  0.54921  Biso   1.000  C
  C91      1.0000 0.52998  0.92109  0.70473  Biso   1.000  C
  C92      1.0000 0.84694  0.47311  0.46124  Biso   1.000  C
  C93      1.0000 0.06493  0.15758  0.01174  Biso   1.000  C
  C94      1.0000 0.02525  0.91117  0.84516  Biso   1.000  C
  C95      1.0000 0.34306  0.47796  0.08514  Biso   1.000  C
  C96      1.0000 0.57409  0.15086  0.51162  Biso   1.000  C
  C97      1.0000 0.70230  0.05493  0.51194  Biso   1.000  C
  C98      1.0000 0.53061  0.64623  0.10968  Biso   1.000  C
  C99      1.0000 0.09988  0.46683  0.70663  Biso   1.000  C
  C100     1.0000 0.19928  0.07276  0.01932  Biso   1.000  C
  C101     1.0000 0.00858  0.64956  0.44926  Biso   1.000  C
  C102     1.0000 0.60226  0.48664  0.83827  Biso   1.000  C
  C103     1.0000 0.84241  0.55420  0.51675  Biso   1.000  C
  C104     1.0000 0.01381  0.15793  0.10021  Biso   1.000  C
  C105     1.0000 0.44138  0.96673  0.70620  Biso   1.000  C
  C106     1.0000 0.34717  0.57098  0.03864  Biso   1.000  C
  C107     1.0000 0.51072  0.14871  0.43277  Biso   1.000  C
  C108     1.0000 0.93547  0.96944  0.84120  Biso   1.000  C
  C109     1.0000 0.34352  0.88686  0.51478  Biso   1.000  C
  C110     1.0000 0.51984  0.29852  0.93441  Biso   1.000  C
  C111     1.0000 0.94058  0.47752  0.33596  Biso   1.000  C
  C112     1.0000 0.84884  0.87981  0.02750  Biso   1.000  C
  C113     1.0000 0.01528  0.28689  0.60282  Biso   1.000  C
  C114     1.0000 0.44015  0.44856  0.20681  Biso   1.000  C
  C115     1.0000 0.19984  0.38982  0.53676  Biso   1.000  C
  C116     1.0000 0.04029  0.79496  0.94887  Biso   1.000  C
  C117     1.0000 0.60571  0.96376  0.33779  Biso   1.000  C
  C118     1.0000 0.69656  0.37542  0.00685  Biso   1.000  C
  C119     1.0000 0.52124  0.79402  0.60824  Biso   1.000  C
  C120     1.0000 0.10708  0.98217  0.20782  Biso   1.000  C
  C121     1.0000 0.83968  0.97398  0.10905  Biso   1.000  C
  C122     1.0000 0.12210  0.80393  0.04842  Biso   1.000  C
  C123     1.0000 0.01424  0.05379  0.84200  Biso   1.000  C
  C124     1.0000 0.34096  0.98142  0.44342  Biso   1.000  C
  C125     1.0000 0.61400  0.78911  0.52746  Biso   1.000  C
  C126     1.0000 0.52107  0.06116  0.70260  Biso   1.000  C
  C127     1.0000 0.70613  0.45743  0.09842  Biso   1.000  C
  C128     1.0000 0.42010  0.29434  0.00791  Biso   1.000  C
  C129     1.0000 0.51181  0.56523  0.84396  Biso   1.000  C
  C130     1.0000 0.19983  0.45953  0.44246  Biso   1.000  C
  C131     1.0000 0.93291  0.28721  0.51110  Biso   1.000  C
  C132     1.0000 0.01652  0.55187  0.71043  Biso   1.000  C
  C133     1.0000 0.20316  0.97076  0.94070  Biso   1.000  C
  C134     1.0000 0.92408  0.14965  0.01716  Biso   1.000  C
  C135     1.0000 0.02361  0.89268  0.21039  Biso   1.000  C
  C136     1.0000 0.70236  0.97245  0.60621  Biso   1.000  C
  C137     1.0000 0.43267  0.15532  0.52873  Biso   1.000  C
  C138     1.0000 0.51193  0.87403  0.33646  Biso   1.000  C
  C139     1.0000 0.33483  0.48861  0.94538  Biso   1.000  C
  C140     1.0000 0.62308  0.65103  0.02668  Biso   1.000  C
  C141     1.0000 0.53874  0.37950  0.20755  Biso   1.000  C
  C142     1.0000 0.83879  0.45881  0.60039  Biso   1.000  C
  C143     1.0000 0.10697  0.65941  0.51728  Biso   1.000  C
  C144     1.0000 0.01981  0.39318  0.34051  Biso   1.000  C
  C145     1.0000 0.34459  0.47470  0.11683  Biso   1.000  C
  C146     1.0000 0.10636  0.29262  0.52157  Biso   1.000  C
  C147     1.0000 0.51927  0.04910  0.33917  Biso   1.000  C
  C148     1.0000 0.84541  0.47997  0.43073  Biso   1.000  C
  C149     1.0000 0.59338  0.29082  0.02701  Biso   1.000  C
  C150     1.0000 0.01474  0.06595  0.20175  Biso   1.000  C
  C151     1.0000 0.20366  0.98486  0.11129  Biso   1.000  C
  C152     1.0000 0.43991  0.79030  0.51293  Biso   1.000  C
  C153     1.0000 0.02379  0.56440  0.34673  Biso   1.000  C
  C154     1.0000 0.69808  0.96697  0.43492  Biso   1.000  C
  C155     1.0000 0.95175  0.79512  0.03155  Biso   1.000  C
  C156     1.0000 0.52141  0.55190  0.20064  Biso   1.000  C
  C157     1.0000 0.70070  0.47043  0.92564  Biso   1.000  C
  C158     1.0000 0.93501  0.64225  0.55126  Biso   1.000  C
  C159     1.0000 0.52907  0.88867  0.70343  Biso   1.000  C
  C160     1.0000 0.19959  0.47698  0.61375  Biso   1.000  C
  C161     1.0000 0.44788  0.65782  0.01501  Biso   1.000  C
  C162     1.0000 0.03014  0.87801  0.84638  Biso   1.000  C
  C163     1.0000 0.84435  0.95227  0.93675  Biso   1.000  C
  C164     1.0000 0.60600  0.15016  0.50640  Biso   1.000  C
  C165     1.0000 0.00654  0.37837  0.70097  Biso   1.000  C
  C166     1.0000 0.34205  0.95517  0.61444  Biso   1.000  C
  C167     1.0000 0.09623  0.15832  0.00751  Biso   1.000  C
  C168     1.0000 0.51311  0.39307  0.83985  Biso   1.000  C
  C169     1.0000 0.01703  0.79709  0.12158  Biso   1.000  C
  C170     1.0000 0.10937  0.97043  0.84356  Biso   1.000  C
  C171     1.0000 0.83404  0.04971  0.01266  Biso   1.000  C
  C172     1.0000 0.53017  0.78725  0.43642  Biso   1.000  C
  C173     1.0000 0.61104  0.98143  0.70961  Biso   1.000  C
  C174     1.0000 0.34027  0.05890  0.54337  Biso   1.000  C
  C175     1.0000 0.50613  0.28907  0.11067  Biso   1.000  C
  C176     1.0000 0.42984  0.48166  0.84867  Biso   1.000  C
  C177     1.0000 0.71037  0.55015  0.00588  Biso   1.000  C
  C178     1.0000 0.02220  0.29178  0.42810  Biso   1.000  C
  C179     1.0000 0.92798  0.47060  0.69821  Biso   1.000  C
  C180     1.0000 0.20216  0.56117  0.51428  Biso   1.000  C
  C181     1.0000 0.00966  0.15763  0.92712  Biso   1.000  C
  C182     1.0000 0.93620  0.97117  0.20602  Biso   1.000  C
  C183     1.0000 0.21164  0.90301  0.04528  Biso   1.000  C
  C184     1.0000 0.52813  0.15398  0.60522  Biso   1.000  C
  C185     1.0000 0.43171  0.96229  0.34744  Biso   1.000  C
  C186     1.0000 0.70771  0.88334  0.53313  Biso   1.000  C
  C187     1.0000 0.53036  0.66049  0.93799  Biso   1.000  C
  C188     1.0000 0.61426  0.47719  0.19632  Biso   1.000  C
  C189     1.0000 0.33378  0.39807  0.02247  Biso   1.000  C
  C190     1.0000 0.03699  0.65054  0.62037  Biso   1.000  C
  C191     1.0000 0.11009  0.47095  0.34625  Biso   1.000  C
  C192     1.0000 0.83892  0.38219  0.51444  Biso   1.000  C
  C193     1.0000 0.86944  0.95560  0.91839  Biso   1.000  C
  C194     1.0000 0.93372  0.81969  0.03008  Biso   1.000  C
  C195     1.0000 0.02891  0.86521  0.87408  Biso   1.000  C
  C196     1.0000 0.36892  0.95642  0.62944  Biso   1.000  C
  C197     1.0000 0.42249  0.81767  0.51108  Biso   1.000  C
  C198     1.0000 0.53047  0.87328  0.67590  Biso   1.000  C
  C199     1.0000 0.67283  0.47809  0.91233  Biso   1.000  C
  C200     1.0000 0.61190  0.31630  0.02276  Biso   1.000  C
  C201     1.0000 0.51923  0.37834  0.86706  Biso   1.000  C
  C202     1.0000 0.17238  0.47093  0.62913  Biso   1.000  C
  C203     1.0000 0.12068  0.31972  0.52837  Biso   1.000  C
  C204     1.0000 0.01269  0.36505  0.67316  Biso   1.000  C
  C205     1.0000 0.17617  0.98632  0.12715  Biso   1.000  C
  C206     1.0000 0.11382  0.13207  0.00981  Biso   1.000  C
  C207     1.0000 0.01422  0.08071  0.17296  Biso   1.000  C
  C208     1.0000 0.67144  0.96288  0.41822  Biso   1.000  C
  C209     1.0000 0.62140  0.12231  0.50516  Biso   1.000  C
  C210     1.0000 0.51837  0.06675  0.36619  Biso   1.000  C
  C211     1.0000 0.37173  0.46979  0.13209  Biso   1.000  C
  C212     1.0000 0.42909  0.63166  0.01997  Biso   1.000  C
  C213     1.0000 0.51792  0.56938  0.17453  Biso   1.000  C
  C214     1.0000 0.87169  0.48181  0.41473  Biso   1.000  C
  C215     1.0000 0.91948  0.61549  0.54421  Biso   1.000  C
  C216     1.0000 0.02147  0.57783  0.37489  Biso   1.000  C
  C217     1.0000 0.12508  0.96675  0.87088  Biso   1.000  C
  C218     1.0000 0.86065  0.06670  0.01323  Biso   1.000  C
  C219     1.0000 0.01977  0.82303  0.13856  Biso   1.000  C
  C220     1.0000 0.62708  0.98062  0.68299  Biso   1.000  C
  C221     1.0000 0.36803  0.07514  0.54026  Biso   1.000  C
  C222     1.0000 0.52592  0.81269  0.41952  Biso   1.000  C
  C223     1.0000 0.41413  0.48381  0.87581  Biso   1.000  C
  C224     1.0000 0.68402  0.56796  0.01196  Biso   1.000  C
  C225     1.0000 0.51630  0.31446  0.12663  Biso   1.000  C
  C226     1.0000 0.91406  0.46628  0.67125  Biso   1.000  C
  C227     1.0000 0.17573  0.57856  0.51675  Biso   1.000  C
  C228     1.0000 0.02321  0.31878  0.41322  Biso   1.000  C
  C229     1.0000 0.92167  0.96687  0.17796  Biso   1.000  C
  C230     1.0000 0.18562  0.88559  0.04812  Biso   1.000  C
  C231     1.0000 0.00984  0.12978  0.91394  Biso   1.000  C
  C232     1.0000 0.41647  0.96747  0.37489  Biso   1.000  C
  C233     1.0000 0.67966  0.86759  0.53309  Biso   1.000  C
  C234     1.0000 0.52957  0.12781  0.62254  Biso   1.000  C
  C235     1.0000 0.62933  0.47050  0.17066  Biso   1.000  C
  C236     1.0000 0.35934  0.37936  0.02109  Biso   1.000  C
  C237     1.0000 0.52549  0.63341  0.92174  Biso   1.000  C
  C238     1.0000 0.12618  0.46986  0.37308  Biso   1.000  C
  C239     1.0000 0.86597  0.36583  0.51665  Biso   1.000  C
  C240     1.0000 0.03429  0.62420  0.63568  Biso   1.000  C
  C241     1.0000 0.61905  0.48577  0.86461  Biso   1.000  C
  C242     1.0000 0.86929  0.56787  0.52313  Biso   1.000  C
  C243     1.0000 0.52511  0.82173  0.62460  Biso   1.000  C
  C244     1.0000 0.11808  0.46509  0.67975  Biso   1.000  C
  C245     1.0000 0.37436  0.58619  0.03543  Biso   1.000  C
  C246     1.0000 0.03594  0.82056  0.92975  Biso   1.000  C
  C247     1.0000 0.91910  0.96686  0.86855  Biso   1.000  C
  C248     1.0000 0.67342  0.06990  0.50969  Biso   1.000  C
  C249     1.0000 0.01144  0.31389  0.61950  Biso   1.000  C
  C250     1.0000 0.42382  0.95924  0.68018  Biso   1.000  C
  C251     1.0000 0.17119  0.08615  0.02124  Biso   1.000  C
  C252     1.0000 0.51903  0.32545  0.91889  Biso   1.000  C
  C253     1.0000 0.42322  0.45237  0.18056  Biso   1.000  C
  C254     1.0000 0.17259  0.37312  0.53771  Biso   1.000  C
  C255     1.0000 0.51116  0.12015  0.41799  Biso   1.000  C
  C256     1.0000 0.92435  0.48102  0.36335  Biso   1.000  C
  C257     1.0000 0.66863  0.36177  0.01254  Biso   1.000  C
  C258     1.0000 0.01290  0.13183  0.11767  Biso   1.000  C
  C259     1.0000 0.12213  0.98150  0.18008  Biso   1.000  C
  C260     1.0000 0.37035  0.87012  0.51216  Biso   1.000  C
  C261     1.0000 0.01535  0.62522  0.43139  Biso   1.000  C
  C262     1.0000 0.62263  0.96482  0.36379  Biso   1.000  C
  C263     1.0000 0.87671  0.86685  0.02882  Biso   1.000  C
  C264     1.0000 0.52803  0.61712  0.12389  Biso   1.000  C
  C265     1.0000 0.01028  0.07231  0.86837  Biso   1.000  C
  C266     1.0000 0.86715  0.97155  0.12467  Biso   1.000  C
  C267     1.0000 0.13723  0.83100  0.04883  Biso   1.000  C
  C268     1.0000 0.52603  0.07634  0.67587  Biso   1.000  C
  C269     1.0000 0.36754  0.97633  0.42522  Biso   1.000  C
  C270     1.0000 0.62994  0.81673  0.52764  Biso   1.000  C
  C271     1.0000 0.52018  0.58186  0.87009  Biso   1.000  C
  C272     1.0000 0.67955  0.46093  0.11561  Biso   1.000  C
  C273     1.0000 0.40547  0.32208  0.01239  Biso   1.000  C
  C274     1.0000 0.02313  0.56920  0.68488  Biso   1.000  C
  C275     1.0000 0.17317  0.46305  0.42637  Biso   1.000  C
  C276     1.0000 0.91698  0.31385  0.51439  Biso   1.000  C
  C277     1.0000 0.02459  0.87339  0.18553  Biso   1.000  C
  C278     1.0000 0.17616  0.96445  0.92457  Biso   1.000  C
  C279     1.0000 0.90963  0.12221  0.02076  Biso   1.000  C
  C280     1.0000 0.51602  0.86008  0.36409  Biso   1.000  C
  C281     1.0000 0.67536  0.97485  0.62505  Biso   1.000  C
  C282     1.0000 0.41836  0.12939  0.53851  Biso   1.000  C
  C283     1.0000 0.53241  0.36323  0.18070  Biso   1.000  C
  C284     1.0000 0.36161  0.48864  0.92708  Biso   1.000  C
  C285     1.0000 0.63768  0.62331  0.02513  Biso   1.000  C
  C286     1.0000 0.01875  0.37512  0.36733  Biso   1.000  C
  C287     1.0000 0.86528  0.45674  0.61684  Biso   1.000  C
  C288     1.0000 0.12397  0.63158  0.51700  Biso   1.000  C
  C289     1.0000 0.36969  0.83869  0.51188  Biso   1.000  C
  C290     1.0000 0.51687  0.32580  0.88863  Biso   1.000  C
  C291     1.0000 0.89187  0.48386  0.36230  Biso   1.000  C
  C292     1.0000 0.87847  0.83539  0.02616  Biso   1.000  C
  C293     1.0000 0.01711  0.31273  0.65083  Biso   1.000  C
  C294     1.0000 0.39176  0.45550  0.18216  Biso   1.000  C
  C295     1.0000 0.17474  0.34148  0.53306  Biso   1.000  C
  C296     1.0000 0.02988  0.81647  0.89940  Biso   1.000  C
  C297     1.0000 0.65297  0.96545  0.36187  Biso   1.000  C
  C298     1.0000 0.66727  0.33076  0.01559  Biso   1.000  C
  C299     1.0000 0.52462  0.82138  0.65705  Biso   1.000  C
  C300     1.0000 0.15444  0.97961  0.18059  Biso   1.000  C
  C301     1.0000 0.67511  0.10038  0.50385  Biso   1.000  C
  C302     1.0000 0.52930  0.61988  0.15562  Biso   1.000  C
  C303     1.0000 0.14957  0.46845  0.68178  Biso   1.000  C
  C304     1.0000 0.16844  0.11730  0.01624  Biso   1.000  C
  C305     1.0000 0.01539  0.62834  0.39927  Biso   1.000  C
  C306     1.0000 0.65139  0.48290  0.86103  Biso   1.000  C
  C307     1.0000 0.86798  0.59915  0.52912  Biso   1.000  C
  C308     1.0000 0.01804  0.13303  0.14889  Biso   1.000  C
  C309     1.0000 0.39207  0.96509  0.68231  Biso   1.000  C
  C310     1.0000 0.37602  0.61698  0.03418  Biso   1.000  C
  C311     1.0000 0.50956  0.11891  0.38688  Biso   1.000  C
  C312     1.0000 0.88721  0.96420  0.86538  Biso   1.000  C
  C313     1.0000 0.17621  0.46160  0.39408  Biso   1.000  C
  C314     1.0000 0.38665  0.12989  0.53742  Biso   1.000  C
  C315     1.0000 0.52527  0.33259  0.18069  Biso   1.000  C
  C316     1.0000 0.68148  0.46496  0.14676  Biso   1.000  C
  C317     1.0000 0.87767  0.12061  0.01868  Biso   1.000  C
  C318     1.0000 0.02057  0.34353  0.36331  Biso   1.000  C
  C319     1.0000 0.36405  0.97576  0.39494  Biso   1.000  C
  C320     1.0000 0.15505  0.63319  0.51269  Biso   1.000  C
  C321     1.0000 0.01906  0.84352  0.19107  Biso   1.000  C
  C322     1.0000 0.86802  0.97049  0.15637  Biso   1.000  C
  C323     1.0000 0.66771  0.62186  0.01608  Biso   1.000  C
  C324     1.0000 0.52387  0.82933  0.36382  Biso   1.000  C
  C325     1.0000 0.86140  0.46135  0.64840  Biso   1.000  C
  C326     1.0000 0.66123  0.81445  0.53186  Biso   1.000  C
  C327     1.0000 0.51565  0.61260  0.87037  Biso   1.000  C
  C328     1.0000 0.35975  0.48644  0.89566  Biso   1.000  C
  C329     1.0000 0.16905  0.83111  0.04831  Biso   1.000  C
  C330     1.0000 0.02563  0.60073  0.68588  Biso   1.000  C
  C331     1.0000 0.67639  0.97712  0.65542  Biso   1.000  C
  C332     1.0000 0.88610  0.31284  0.51305  Biso   1.000  C
  C333     1.0000 0.01456  0.10359  0.86398  Biso   1.000  C
  C334     1.0000 0.17604  0.97020  0.89271  Biso   1.000  C
  C335     1.0000 0.37505  0.32521  0.01308  Biso   1.000  C
  C336     1.0000 0.52758  0.10836  0.67575  Biso   1.000  C
  C337     1.0000 0.67377  0.47964  0.88159  Biso   1.000  C
  C338     1.0000 0.88867  0.61843  0.53817  Biso   1.000  C
  C339     1.0000 0.52611  0.84309  0.67786  Biso   1.000  C
  C340     1.0000 0.17160  0.47006  0.66043  Biso   1.000  C
  C341     1.0000 0.39855  0.63727  0.02724  Biso   1.000  C
  C342     1.0000 0.02636  0.83455  0.87594  Biso   1.000  C
  C343     1.0000 0.86620  0.95891  0.88760  Biso   1.000  C
  C344     1.0000 0.65252  0.12184  0.50287  Biso   1.000  C
  C345     1.0000 0.01631  0.33467  0.67270  Biso   1.000  C
  C346     1.0000 0.36892  0.96410  0.66122  Biso   1.000  C
  C347     1.0000 0.14477  0.13680  0.01139  Biso   1.000  C
  C348     1.0000 0.51719  0.34674  0.86676  Biso   1.000  C
  C349     1.0000 0.37059  0.46168  0.16251  Biso   1.000  C
  C350     1.0000 0.15258  0.31907  0.52965  Biso   1.000  C
  C351     1.0000 0.51269  0.09713  0.36540  Biso   1.000  C
  C352     1.0000 0.87040  0.48533  0.38388  Biso   1.000  C
  C353     1.0000 0.64263  0.31245  0.02027  Biso   1.000  C
  C354     1.0000 0.01737  0.11210  0.17112  Biso   1.000  C
  C355     1.0000 0.17587  0.97984  0.15837  Biso   1.000  C
  C356     1.0000 0.39107  0.81630  0.51133  Biso   1.000  C
  C357     1.0000 0.01942  0.60893  0.37613  Biso   1.000  C
  C358     1.0000 0.67264  0.96438  0.38488  Biso   1.000  C
  C359     1.0000 0.90253  0.81636  0.02632  Biso   1.000  C
  C360     1.0000 0.52628  0.59874  0.17635  Biso   1.000  C
  C361     1.0000 0.01342  0.12774  0.88405  Biso   1.000  C
  C362     1.0000 0.88960  0.96791  0.17866  Biso   1.000  C
  C363     1.0000 0.18938  0.85474  0.04825  Biso   1.000  C
  C364     1.0000 0.52956  0.12954  0.65370  Biso   1.000  C
  C365     1.0000 0.38517  0.97184  0.37322  Biso   1.000  C
  C366     1.0000 0.68275  0.83590  0.53275  Biso   1.000  C
  C367     1.0000 0.52104  0.63495  0.89075  Biso   1.000  C
  C368     1.0000 0.66032  0.46950  0.17021  Biso   1.000  C
  C369     1.0000 0.35427  0.34814  0.01667  Biso   1.000  C
  C370     1.0000 0.03094  0.62344  0.66595  Biso   1.000  C
  C371     1.0000 0.15653  0.46583  0.37273  Biso   1.000  C
  C372     1.0000 0.86424  0.33452  0.51317  Biso   1.000  C
  C373     1.0000 0.01773  0.82147  0.16974  Biso   1.000  C
  C374     1.0000 0.15559  0.97099  0.87064  Biso   1.000  C
  C375     1.0000 0.85786  0.09837  0.01557  Biso   1.000  C
  C376     1.0000 0.52775  0.80924  0.38732  Biso   1.000  C
  C377     1.0000 0.65756  0.98052  0.68040  Biso   1.000  C
  C378     1.0000 0.36523  0.10784  0.54122  Biso   1.000  C
  C379     1.0000 0.51854  0.31282  0.15800  Biso   1.000  C
  C380     1.0000 0.38170  0.48452  0.87481  Biso   1.000  C
  C381     1.0000 0.68727  0.59891  0.01040  Biso   1.000  C
  C382     1.0000 0.02277  0.31993  0.38171  Biso   1.000  C
  C383     1.0000 0.88255  0.46555  0.67085  Biso   1.000  C
  C384     1.0000 0.17641  0.61004  0.51298  Biso   1.000  C
  C385     1.0000 0.19366  0.13500  0.01598  Biso   1.000  C
  C386     1.0000 0.02310  0.16015  0.16215  Biso   1.000  C
  C387     1.0000 0.16929  0.97380  0.20636  Biso   1.000  C
  C388     1.0000 0.70214  0.11689  0.50319  Biso   1.000  C
  C389     1.0000 0.50485  0.14396  0.36977  Biso   1.000  C
  C390     1.0000 0.66989  0.96660  0.33670  Biso   1.000  C
  C391     1.0000 0.35037  0.63459  0.04012  Biso   1.000  C
  C392     1.0000 0.53351  0.64543  0.17239  Biso   1.000  C
  C393     1.0000 0.37615  0.45063  0.20922  Biso   1.000  C
  C394     1.0000 0.84218  0.61484  0.52907  Biso   1.000  C
  C395     1.0000 0.00913  0.65545  0.38677  Biso   1.000  C
  C396     1.0000 0.87603  0.48335  0.33613  Biso   1.000  C
  C397     1.0000 0.85391  0.81705  0.02244  Biso   1.000  C
  C398     1.0000 0.02903  0.78787  0.88538  Biso   1.000  C
  C399     1.0000 0.87131  0.96726  0.83951  Biso   1.000  C
  C400     1.0000 0.34297  0.82373  0.51196  Biso   1.000  C
  C401     1.0000 0.52230  0.79455  0.67292  Biso   1.000  C
  C402     1.0000 0.37707  0.97455  0.70746  Biso   1.000  C
  C403     1.0000 0.69088  0.31203  0.01191  Biso   1.000  C
  C404     1.0000 0.51596  0.29956  0.87190  Biso   1.000  C
  C405     1.0000 0.66566  0.48537  0.83450  Biso   1.000  C
  C406     1.0000 0.20226  0.32734  0.53124  Biso   1.000  C
  C407     1.0000 0.02192  0.28680  0.66594  Biso   1.000  C
  C408     1.0000 0.16361  0.46953  0.70864  Biso   1.000  C
  C409     1.0000 0.17280  0.97770  0.84445  Biso   1.000  C
  C410     1.0000 0.82928  0.11258  0.01401  Biso   1.000  C
  C411     1.0000 0.01302  0.79561  0.18546  Biso   1.000  C
  C412     1.0000 0.67597  0.97743  0.70448  Biso   1.000  C
  C413     1.0000 0.33867  0.12314  0.54353  Biso   1.000  C
  C414     1.0000 0.53367  0.78302  0.37350  Biso   1.000  C
  C415     1.0000 0.36583  0.48174  0.84762  Biso   1.000  C
  C416     1.0000 0.71457  0.61371  0.00580  Biso   1.000  C
  C417     1.0000 0.51342  0.28674  0.17361  Biso   1.000  C
  C418     1.0000 0.86473  0.46980  0.69576  Biso   1.000  C
  C419     1.0000 0.20284  0.62414  0.50848  Biso   1.000  C
  C420     1.0000 0.02423  0.29417  0.36519  Biso   1.000  C
  C421     1.0000 0.87271  0.96885  0.20535  Biso   1.000  C
  C422     1.0000 0.21654  0.84132  0.04508  Biso   1.000  C
  C423     1.0000 0.01797  0.15306  0.86554  Biso   1.000  C
  C424     1.0000 0.36903  0.97136  0.34606  Biso   1.000  C
  C425     1.0000 0.70996  0.82018  0.53724  Biso   1.000  C
  C426     1.0000 0.53044  0.15696  0.66971  Biso   1.000  C
  C427     1.0000 0.67775  0.47431  0.19529  Biso   1.000  C
  C428     1.0000 0.32563  0.33472  0.01678  Biso   1.000  C
  C429     1.0000 0.51491  0.66063  0.87628  Biso   1.000  C
  C430     1.0000 0.17274  0.46211  0.34705  Biso   1.000  C
  C431     1.0000 0.83723  0.31905  0.51155  Biso   1.000  C
  C432     1.0000 0.02991  0.64931  0.68383  Biso   1.000  C
  C433     1.0000 0.01897  0.11723  0.83678  Biso   1.000  C
  C434     1.0000 0.84173  0.97445  0.17195  Biso   1.000  C
  C435     1.0000 0.18517  0.80607  0.04367  Biso   1.000  C
  C436     1.0000 0.52572  0.12424  0.70235  Biso   1.000  C
  C437     1.0000 0.33780  0.97873  0.37928  Biso   1.000  C
  C438     1.0000 0.67702  0.78816  0.53376  Biso   1.000  C
  C439     1.0000 0.50431  0.62769  0.84585  Biso   1.000  C
  C440     1.0000 0.70862  0.46421  0.16189  Biso   1.000  C
  C441     1.0000 0.35756  0.30005  0.01046  Biso   1.000  C
  C442     1.0000 0.02289  0.61578  0.71408  Biso   1.000  C
  C443     1.0000 0.20363  0.45551  0.37988  Biso   1.000  C
  C444     1.0000 0.87063  0.28640  0.50963  Biso   1.000  C
  C445     1.0000 0.01503  0.82955  0.21716  Biso   1.000  C
  C446     1.0000 0.20285  0.97746  0.87849  Biso   1.000  C
  C447     1.0000 0.85985  0.14711  0.01898  Biso   1.000  C
  C448     1.0000 0.52617  0.81332  0.33744  Biso   1.000  C
  C449     1.0000 0.70501  0.97709  0.66833  Biso   1.000  C
  C450     1.0000 0.37088  0.15707  0.53656  Biso   1.000  C
  C451     1.0000 0.52304  0.31810  0.20718  Biso   1.000  C
  C452     1.0000 0.33264  0.48670  0.88209  Biso   1.000  C
  C453     1.0000 0.68542  0.64717  0.01319  Biso   1.000  C
  C454     1.0000 0.02299  0.32956  0.33511  Biso   1.000  C
  C455     1.0000 0.83280  0.46451  0.66208  Biso   1.000  C
  C456     1.0000 0.17129  0.65975  0.50810  Biso   1.000  C
  C457     1.0000 0.01745  0.62741  0.35008  Biso   1.000  C
  C458     1.0000 0.34331  0.96935  0.67798  Biso   1.000  C
  C459     1.0000 0.65523  0.28350  0.01879  Biso   1.000  C
  C460     1.0000 0.52967  0.61290  0.20423  Biso   1.000  C
  C461     1.0000 0.83888  0.95972  0.87277  Biso   1.000  C
  C462     1.0000 0.16977  0.29346  0.52567  Biso   1.000  C
  C463     1.0000 0.51062  0.11176  0.33719  Biso   1.000  C
  C464     1.0000 0.19785  0.47167  0.67587  Biso   1.000  C
  C465     1.0000 0.88913  0.78935  0.02311  Biso   1.000  C
  C466     1.0000 0.01880  0.12951  0.19669  Biso   1.000  C
  C467     1.0000 0.70014  0.48024  0.86454  Biso   1.000  C
  C468     1.0000 0.37517  0.79036  0.51124  Biso   1.000  C
  C469     1.0000 0.01555  0.31908  0.70062  Biso   1.000  C
  C470     1.0000 0.70108  0.96643  0.37155  Biso   1.000  C
  C471     1.0000 0.38486  0.66508  0.02799  Biso   1.000  C
  C472     1.0000 0.51255  0.33196  0.83979  Biso   1.000  C
  C473     1.0000 0.20304  0.97449  0.17373  Biso   1.000  C
  C474     1.0000 0.87320  0.64425  0.54416  Biso   1.000  C
  C475     1.0000 0.52301  0.82699  0.70568  Biso   1.000  C
  C476     1.0000 0.84282  0.48435  0.36811  Biso   1.000  C
  C477     1.0000 0.15799  0.16378  0.00977  Biso   1.000  C
  C478     1.0000 0.02260  0.81622  0.85077  Biso   1.000  C
  C479     1.0000 0.34320  0.45909  0.17859  Biso   1.000  C
  C480     1.0000 0.66805  0.14861  0.50185  Biso   1.000  C
  C481     1.0000 0.39273  0.76341  0.51258  Biso   1.000  C
  C482     1.0000 0.50468  0.34629  0.81306  Biso   1.000  C
  C483     1.0000 0.81576  0.48400  0.38520  Biso   1.000  C
  C484     1.0000 0.90791  0.76387  0.02121  Biso   1.000  C
  C485     1.0000 0.00982  0.33199  0.72806  Biso   1.000  C
  C486     1.0000 0.31780  0.46888  0.16484  Biso   1.000  C
  C487     1.0000 0.15564  0.26565  0.51968  Biso   1.000  C
  C488     1.0000 0.02353  0.82925  0.82118  Biso   1.000  C
  C489     1.0000 0.72714  0.97140  0.38929  Biso   1.000  C
  C490     1.0000 0.63694  0.25805  0.02030  Biso   1.000  C
  C491     1.0000 0.52501  0.84292  0.73263  Biso   1.000  C
  C492     1.0000 0.22926  0.97076  0.15766  Biso   1.000  C
  C493     1.0000 0.65328  0.17613  0.50303  Biso   1.000  C
  C494     1.0000 0.52958  0.59699  0.23189  Biso   1.000  C
  C495     1.0000 0.22512  0.47847  0.66218  Biso   1.000  C
  C496     1.0000 0.14141  0.18982  0.00615  Biso   1.000  C
  C497     1.0000 0.02019  0.61342  0.32185  Biso   1.000  C
  C498     1.0000 0.72729  0.47305  0.87926  Biso   1.000  C
  C499     1.0000 0.88842  0.67096  0.55518  Biso   1.000  C
  C500     1.0000 0.01520  0.11736  0.22530  Biso   1.000  C
  C501     1.0000 0.31546  0.96567  0.66103  Biso   1.000  C
  C502     1.0000 0.40217  0.68963  0.02247  Biso   1.000  C
  C503     1.0000 0.51087  0.09301  0.31060  Biso   1.000  C
  C504     1.0000 0.81316  0.95364  0.88989  Biso   1.000  C
  C505     1.0000 0.64732  0.48890  0.80685  Biso   1.000  C
  C506     1.0000 0.81548  0.60149  0.51792  Biso   1.000  C
  C507     1.0000 0.51635  0.76801  0.65595  Biso   1.000  C
  C508     1.0000 0.14489  0.47018  0.73443  Biso   1.000  C
  C509     1.0000 0.32205  0.61937  0.04257  Biso   1.000  C
  C510     1.0000 0.03653  0.76263  0.90178  Biso   1.000  C
  C511     1.0000 0.88885  0.97288  0.81227  Biso   1.000  C
  C512     1.0000 0.73046  0.10359  0.50675  Biso   1.000  C
  C513     1.0000 0.02680  0.26013  0.64921  Biso   1.000  C
  C514     1.0000 0.39510  0.98193  0.73344  Biso   1.000  C
  C515     1.0000 0.22279  0.12224  0.01573  Biso   1.000  C
  C516     1.0000 0.51989  0.27227  0.88735  Biso   1.000  C
  C517     1.0000 0.39241  0.44221  0.23373  Biso   1.000  C
  C518     1.0000 0.22862  0.34377  0.52961  Biso   1.000  C
  C519     1.0000 0.50396  0.17331  0.38474  Biso   1.000  C
  C520     1.0000 0.89127  0.48136  0.30770  Biso   1.000  C
  C521     1.0000 0.71940  0.32597  0.00360  Biso   1.000  C
  C522     1.0000 0.02790  0.18549  0.14351  Biso   1.000  C
  C523     1.0000 0.15429  0.97350  0.23363  Biso   1.000  C
  C524     1.0000 0.31618  0.84127  0.51168  Biso   1.000  C
  C525     1.0000 0.99952  0.67953  0.40558  Biso   1.000  C
  C526     1.0000 0.65470  0.96533  0.30944  Biso   1.000  C
  C527     1.0000 0.82408  0.83011  0.02227  Biso   1.000  C
  C528     1.0000 0.53460  0.67359  0.15732  Biso   1.000  C
  C529     1.0000 0.80252  0.09617  0.01141  Biso   1.000  C
  C530     1.0000 0.01076  0.76835  0.16830  Biso   1.000  C
  C531     1.0000 0.15733  0.98196  0.81653  Biso   1.000  C
  C532     1.0000 0.31185  0.10495  0.54790  Biso   1.000  C
  C533     1.0000 0.53957  0.75825  0.39003  Biso   1.000  C
  C534     1.0000 0.66109  0.97739  0.73306  Biso   1.000  C
  C535     1.0000 0.73969  0.59619  0.99787  Biso   1.000  C
  C536     1.0000 0.50380  0.26096  0.15827  Biso   1.000  C
  C537     1.0000 0.38220  0.47844  0.82008  Biso   1.000  C
  C538     1.0000 0.22934  0.60806  0.50669  Biso   1.000  C
  C539     1.0000 0.02578  0.26701  0.37989  Biso   1.000  C
  C540     1.0000 0.87902  0.47502  0.72264  Biso   1.000  C
  C541     1.0000 0.24397  0.85785  0.04492  Biso   1.000  C
  C542     1.0000 0.02023  0.18141  0.87927  Biso   1.000  C
  C543     1.0000 0.88814  0.96966  0.23363  Biso   1.000  C
  C544     1.0000 0.73650  0.83809  0.53941  Biso   1.000  C
  C545     1.0000 0.53163  0.18332  0.65164  Biso   1.000  C
  C546     1.0000 0.38418  0.96272  0.31996  Biso   1.000  C
  C547     1.0000 0.30168  0.35296  0.02131  Biso   1.000  C
  C548     1.0000 0.52077  0.68736  0.89191  Biso   1.000  C
  C549     1.0000 0.66232  0.48167  0.22214  Biso   1.000  C
  C550     1.0000 0.81061  0.33485  0.50888  Biso   1.000  C
  C551     1.0000 0.03490  0.67766  0.66926  Biso   1.000  C
  C552     1.0000 0.15651  0.46114  0.32050  Biso   1.000  C
  C553     1.0000 0.02190  0.09797  0.81106  Biso   1.000  C
  C554     1.0000 0.81451  0.97803  0.15779  Biso   1.000  C
  C555     1.0000 0.16949  0.77828  0.04443  Biso   1.000  C
  C556     1.0000 0.52481  0.10811  0.72942  Biso   1.000  C
  C557     1.0000 0.31196  0.98418  0.39536  Biso   1.000  C
  C558     1.0000 0.66169  0.76102  0.53371  Biso   1.000  C
  C559     1.0000 0.49181  0.61072  0.82228  Biso   1.000  C
  C560     1.0000 0.73418  0.45799  0.14492  Biso   1.000  C
  C561     1.0000 0.37080  0.27165  0.00254  Biso   1.000  C
  C562     1.0000 0.01708  0.59912  0.73959  Biso   1.000  C
  C563     1.0000 0.22896  0.45082  0.39698  Biso   1.000  C
  C564     1.0000 0.88573  0.25925  0.50840  Biso   1.000  C
  C565     1.0000 0.01524  0.84807  0.24288  Biso   1.000  C
  C566     1.0000 0.23060  0.97877  0.89304  Biso   1.000  C
  C567     1.0000 0.87440  0.17523  0.02024  Biso   1.000  C
  C568     1.0000 0.51931  0.82672  0.31000  Biso   1.000  C
  C569     1.0000 0.73154  0.97706  0.65044  Biso   1.000  C
  C570     1.0000 0.38520  0.18431  0.53275  Biso   1.000  C
  C571     1.0000 0.52939  0.33391  0.23425  Biso   1.000  C
  C572     1.0000 0.30541  0.48535  0.89911  Biso   1.000  C
  C573     1.0000 0.67190  0.67465  0.01817  Biso   1.000  C
  C574     1.0000 0.02249  0.34749  0.31000  Biso   1.000  C
  C575     1.0000 0.80712  0.46234  0.64483  Biso   1.000  C
  C576     1.0000 0.15437  0.68655  0.50940  Biso   1.000  C
  C577     1.0000 0.31771  0.47537  0.13382  Biso   1.000  C
  C578     1.0000 0.12399  0.26560  0.51934  Biso   1.000  C
  C579     1.0000 0.51838  0.06278  0.31180  Biso   1.000  C
  C580     1.0000 0.81662  0.48146  0.41714  Biso   1.000  C
  C581     1.0000 0.60673  0.26261  0.02781  Biso   1.000  C
  C582     1.0000 0.01666  0.08617  0.22787  Biso   1.000  C
  C583     1.0000 0.22960  0.97552  0.12654  Biso   1.000  C
  C584     1.0000 0.42475  0.76305  0.51324  Biso   1.000  C
  C585     1.0000 0.02486  0.58206  0.32042  Biso   1.000  C
  C586     1.0000 0.72648  0.97065  0.41981  Biso   1.000  C
  C587     1.0000 0.93904  0.76680  0.02662  Biso   1.000  C
  C588     1.0000 0.52742  0.56495  0.22974  Biso   1.000  C
  C589     1.0000 0.72751  0.46789  0.90981  Biso   1.000  C
  C590     1.0000 0.91939  0.66997  0.55611  Biso   1.000  C
  C591     1.0000 0.52787  0.87475  0.73130  Biso   1.000  C
  C592     1.0000 0.22742  0.48056  0.62980  Biso   1.000  C
  C593     1.0000 0.43328  0.68718  0.01303  Biso   1.000  C
  C594     1.0000 0.02720  0.86042  0.82133  Biso   1.000  C
  C595     1.0000 0.81547  0.94962  0.92136  Biso   1.000  C
  C596     1.0000 0.62155  0.17822  0.50400  Biso   1.000  C
  C597     1.0000 0.00428  0.36263  0.72840  Biso   1.000  C
  C598     1.0000 0.31503  0.95733  0.63122  Biso   1.000  C
  C599     1.0000 0.10963  0.18706  0.00482  Biso   1.000  C
  C600     1.0000 0.50319  0.37743  0.81431  Biso   1.000  C
  C601     1.0000 0.22996  0.97612  0.92408  Biso   1.000  C
  C602     1.0000 0.90751  0.17618  0.01647  Biso   1.000  C
  C603     1.0000 0.02037  0.87959  0.23973  Biso   1.000  C
  C604     1.0000 0.73056  0.97345  0.61937  Biso   1.000  C
  C605     1.0000 0.41573  0.18182  0.52589  Biso   1.000  C
  C606     1.0000 0.51327  0.85808  0.30889  Biso   1.000  C
  C607     1.0000 0.30667  0.48758  0.93193  Biso   1.000  C
  C608     1.0000 0.64135  0.67711  0.02399  Biso   1.000  C
  C609     1.0000 0.53917  0.36393  0.23477  Biso   1.000  C
  C610     1.0000 0.81074  0.46089  0.61341  Biso   1.000  C
  C611     1.0000 0.12236  0.68722  0.51466  Biso   1.000  C
  C612     1.0000 0.02073  0.37872  0.31181  Biso   1.000  C
  C613     1.0000 0.81333  0.97783  0.12656  Biso   1.000  C
  C614     1.0000 0.13825  0.77754  0.04604  Biso   1.000  C
  C615     1.0000 0.02034  0.06748  0.81435  Biso   1.000  C
  C616     1.0000 0.31380  0.98369  0.42760  Biso   1.000  C
  C617     1.0000 0.62890  0.76172  0.53130  Biso   1.000  C
  C618     1.0000 0.52126  0.07734  0.73035  Biso   1.000  C
  C619     1.0000 0.73334  0.45441  0.11377  Biso   1.000  C
  C620     1.0000 0.40288  0.26918  0.00373  Biso   1.000  C
  C621     1.0000 0.49632  0.58036  0.82135  Biso   1.000  C
  C622     1.0000 0.22712  0.45219  0.42870  Biso   1.000  C
  C623     1.0000 0.91810  0.25956  0.50840  Biso   1.000  C
  C624     1.0000 0.01522  0.56703  0.73813  Biso   1.000  C
  C625     1.0000 0.01475  0.18343  0.90995  Biso   1.000  C
  C626     1.0000 0.91939  0.97149  0.23350  Biso   1.000  C
  C627     1.0000 0.24171  0.88874  0.04668  Biso   1.000  C
  C628     1.0000 0.53047  0.18119  0.61945  Biso   1.000  C
  C629     1.0000 0.41543  0.95799  0.31970  Biso   1.000  C
  C630     1.0000 0.73605  0.86948  0.53408  Biso   1.000  C
  C631     1.0000 0.52611  0.68584  0.92243  Biso   1.000  C
  C632     1.0000 0.63067  0.48258  0.22209  Biso   1.000  C
  C633     1.0000 0.30529  0.38484  0.02411  Biso   1.000  C
  C634     1.0000 0.03907  0.67844  0.63750  Biso   1.000  C
  C635     1.0000 0.12476  0.46455  0.31867  Biso   1.000  C
  C636     1.0000 0.81165  0.36659  0.50903  Biso   1.000  C
  C637     1.0000 0.01253  0.76992  0.13626  Biso   1.000  C
  C638     1.0000 0.12585  0.97805  0.81580  Biso   1.000  C
  C639     1.0000 0.80457  0.06446  0.01138  Biso   1.000  C
  C640     1.0000 0.53697  0.75922  0.42229  Biso   1.000  C
  C641     1.0000 0.62947  0.97956  0.73570  Biso   1.000  C
  C642     1.0000 0.31286  0.07315  0.54695  Biso   1.000  C
  C643     1.0000 0.50011  0.26276  0.12643  Biso   1.000  C
  C644     1.0000 0.41347  0.47748  0.82140  Biso   1.000  C
  C645     1.0000 0.73810  0.56525  0.99638  Biso   1.000  C
  C646     1.0000 0.02256  0.26481  0.41068  Biso   1.000  C
  C647     1.0000 0.91151  0.47536  0.72463  Biso   1.000  C
  C648     1.0000 0.22943  0.57596  0.50733  Biso   1.000  C
  C649     1.0000 0.00096  0.67632  0.43625  Biso   1.000  C
  C650     1.0000 0.42635  0.97742  0.73250  Biso   1.000  C
  C651     1.0000 0.72181  0.35659  0.00071  Biso   1.000  C
  C652     1.0000 0.53128  0.67404  0.12649  Biso   1.000  C
  C653     1.0000 0.92042  0.97325  0.81266  Biso   1.000  C
  C654     1.0000 0.22692  0.37463  0.53200  Biso   1.000  C
  C655     1.0000 0.50744  0.17481  0.41601  Biso   1.000  C
  C656     1.0000 0.11348  0.46958  0.73369  Biso   1.000  C
  C657     1.0000 0.82148  0.86171  0.02447  Biso   1.000  C
  C658     1.0000 0.02491  0.18467  0.11251  Biso   1.000  C
  C659     1.0000 0.61660  0.48843  0.81050  Biso   1.000  C
  C660     1.0000 0.31552  0.87248  0.51335  Biso   1.000  C
  C661     1.0000 0.02292  0.26133  0.61763  Biso   1.000  C
  C662     1.0000 0.62265  0.96464  0.31098  Biso   1.000  C
  C663     1.0000 0.32185  0.58797  0.04228  Biso   1.000  C
  C664     1.0000 0.52004  0.27171  0.91858  Biso   1.000  C
  C665     1.0000 0.12277  0.97700  0.23442  Biso   1.000  C
  C666     1.0000 0.81589  0.57034  0.51195  Biso   1.000  C
  C667     1.0000 0.51675  0.76704  0.62473  Biso   1.000  C
  C668     1.0000 0.92419  0.47938  0.30867  Biso   1.000  C
  C669     1.0000 0.22519  0.08999  0.01780  Biso   1.000  C
  C670     1.0000 0.04265  0.76682  0.93367  Biso   1.000  C
  C671     1.0000 0.42487  0.44248  0.23405  Biso   1.000  C
  C672     1.0000 0.73078  0.07199  0.51081  Biso   1.000  C
  C673     1.0000 0.21860  0.98366  0.83040  Biso   1.000  C
  C674     1.0000 0.81225  0.15901  0.01506  Biso   1.000  C
  C675     1.0000 0.00881  0.78469  0.23483  Biso   1.000  C
  C676     1.0000 0.72051  0.97583  0.71502  Biso   1.000  C
  C677     1.0000 0.32371  0.16891  0.54007  Biso   1.000  C
  C678     1.0000 0.53670  0.76691  0.32698  Biso   1.000  C
  C679     1.0000 0.32022  0.48209  0.83365  Biso   1.000  C
  C680     1.0000 0.73312  0.65928  0.00618  Biso   1.000  C
  C681     1.0000 0.51237  0.27304  0.22081  Biso   1.000  C
  C682     1.0000 0.81666  0.47557  0.70769  Biso   1.000  C
  C683     1.0000 0.21931  0.66928  0.50659  Biso   1.000  C
  C684     1.0000 0.02345  0.28342  0.31753  Biso   1.000  C
  C685     1.0000 0.82671  0.97414  0.21846  Biso   1.000  C
  C686     1.0000 0.23159  0.79308  0.04271  Biso   1.000  C
  C687     1.0000 0.02253  0.16217  0.81906  Biso   1.000  C
  C688     1.0000 0.32263  0.97267  0.33190  Biso   1.000  C
  C689     1.0000 0.72293  0.77186  0.53747  Biso   1.000  C
  C690     1.0000 0.52452  0.17268  0.71502  Biso   1.000  C
  C691     1.0000 0.72429  0.47060  0.20901  Biso   1.000  C
  C692     1.0000 0.31125  0.28847  0.01126  Biso   1.000  C
  C693     1.0000 0.50170  0.67296  0.83019  Biso   1.000  C
  C694     1.0000 0.21876  0.45442  0.33210  Biso   1.000  C
  C695     1.0000 0.82361  0.27255  0.50820  Biso   1.000  C
  C696     1.0000 0.02433  0.66137  0.73151  Biso   1.000  C
  C697     1.0000 0.71826  0.96881  0.32647  Biso   1.000  C
  C698     1.0000 0.33792  0.68023  0.03876  Biso   1.000  C
  C699     1.0000 0.02384  0.27383  0.71393  Biso   1.000  C
  C700     1.0000 0.21576  0.96853  0.22103  Biso   1.000  C
  C701     1.0000 0.82794  0.66002  0.53845  Biso   1.000  C
  C702     1.0000 0.51220  0.28405  0.82478  Biso   1.000  C
  C703     1.0000 0.83025  0.48323  0.32075  Biso   1.000  C
  C704     1.0000 0.20422  0.18060  0.01007  Biso   1.000  C
  C705     1.0000 0.51782  0.78193  0.71953  Biso   1.000  C
  C706     1.0000 0.32815  0.45563  0.22420  Biso   1.000  C
  C707     1.0000 0.71438  0.16335  0.50439  Biso   1.000  C
  C708     1.0000 0.02490  0.76917  0.84021  Biso   1.000  C
  C709     1.0000 0.32963  0.98312  0.72458  Biso   1.000  C
  C710     1.0000 0.70217  0.26553  0.01465  Biso   1.000  C
  C711     1.0000 0.01149  0.67525  0.34049  Biso   1.000  C
  C712     1.0000 0.82437  0.96684  0.82567  Biso   1.000  C
  C713     1.0000 0.21644  0.28072  0.52826  Biso   1.000  C
  C714     1.0000 0.53673  0.65800  0.21989  Biso   1.000  C
  C715     1.0000 0.21002  0.46987  0.72367  Biso   1.000  C
  C716     1.0000 0.84417  0.76930  0.01574  Biso   1.000  C
  C717     1.0000 0.50503  0.15817  0.32389  Biso   1.000  C
  C718     1.0000 0.71044  0.48352  0.81733  Biso   1.000  C
  C719     1.0000 0.32799  0.77732  0.50991  Biso   1.000  C
  C720     1.0000 0.02418  0.17685  0.20898  Biso   1.000  C
  C721     1.0000 0.55042  0.77216  0.29887  Biso   1.000  C
  C722     1.0000 0.32240  0.49368  0.80480  Biso   1.000  C
  C723     1.0000 0.79695  0.27510  0.52679  Biso   1.000  C
  C724     1.0000 0.99029  0.76018  0.23253  Biso   1.000  C
  C725     1.0000 0.78979  0.49279  0.70194  Biso   1.000  C
  C726     1.0000 0.28395  0.29449  0.99584  Biso   1.000  C
  C727     1.0000 0.00772  0.25512  0.32001  Biso   1.000  C
  C728     1.0000 0.24556  0.99915  0.83522  Biso   1.000  C
  C729     1.0000 0.74772  0.77362  0.55800  Biso   1.000  C
  C730     1.0000 0.49839  0.27716  0.24969  Biso   1.000  C
  C731     1.0000 0.74602  0.95842  0.71159  Biso   1.000  C
  C732     1.0000 0.25914  0.79614  0.02666  Biso   1.000  C
  C733     1.0000 0.49984  0.17230  0.73620  Biso   1.000  C
  C734     1.0000 0.71887  0.45890  0.23810  Biso   1.000  C
  C735     1.0000 0.21844  0.69603  0.49125  Biso   1.000  C
  C736     1.0000 0.00683  0.18894  0.81840  Biso   1.000  C
  C737     1.0000 0.24486  0.43578  0.33284  Biso   1.000  C
  C738     1.0000 0.76177  0.65262  0.01756  Biso   1.000  C
  C739     1.0000 0.03967  0.65639  0.75798  Biso   1.000  C
  C740     1.0000 0.80213  0.95491  0.21808  Biso   1.000  C
  C741     1.0000 0.29715  0.16442  0.52325  Biso   1.000  C
  C742     1.0000 0.51147  0.66671  0.80042  Biso   1.000  C
  C743     1.0000 0.29446  0.95887  0.33866  Biso   1.000  C
  C744     1.0000 0.81228  0.18571  0.03319  Biso   1.000  C
  C745     1.0000 0.01972  0.70511  0.34903  Biso   1.000  C
  C746     1.0000 0.30298  0.99694  0.71645  Biso   1.000  C
  C747     1.0000 0.73183  0.27136  0.02306  Biso   1.000  C
  C748     1.0000 0.56040  0.67819  0.21877  Biso   1.000  C
  C749     1.0000 0.83108  0.95723  0.79600  Biso   1.000  C
  C750     1.0000 0.23789  0.27967  0.55187  Biso   1.000  C
  C751     1.0000 0.52698  0.15959  0.30049  Biso   1.000  C
  C752     1.0000 0.23399  0.44914  0.72285  Biso   1.000  C
  C753     1.0000 0.82269  0.77051  0.99446  Biso   1.000  C
  C754     1.0000 0.03975  0.17180  0.23572  Biso   1.000  C
  C755     1.0000 0.70548  0.47232  0.78819  Biso   1.000  C
  C756     1.0000 0.30428  0.77644  0.53196  Biso   1.000  C
  C757     1.0000 0.01269  0.24448  0.70686  Biso   1.000  C
  C758     1.0000 0.71640  0.98628  0.30144  Biso   1.000  C
  C759     1.0000 0.31502  0.67978  0.06054  Biso   1.000  C
  C760     1.0000 0.52679  0.28881  0.79583  Biso   1.000  C
  C761     1.0000 0.24200  0.98807  0.21823  Biso   1.000  C
  C762     1.0000 0.83648  0.69031  0.53325  Biso   1.000  C
  C763     1.0000 0.49840  0.78793  0.74509  Biso   1.000  C
  C764     1.0000 0.80194  0.49654  0.32255  Biso   1.000  C
  C765     1.0000 0.22641  0.18253  0.03441  Biso   1.000  C
  C766     1.0000 0.00259  0.76827  0.81776  Biso   1.000  C
  C767     1.0000 0.33127  0.46837  0.25319  Biso   1.000  C
  C768     1.0000 0.71594  0.18812  0.48569  Biso   1.000  C
  C769     1.0000 0.49054  0.70209  0.83504  Biso   1.000  C
  C770     1.0000 0.81966  0.46366  0.73749  Biso   1.000  C
  C771     1.0000 0.72056  0.74578  0.52017  Biso   1.000  C
  C772     1.0000 0.01137  0.68936  0.72601  Biso   1.000  C
  C773     1.0000 0.29257  0.46647  0.83905  Biso   1.000  C
  C774     1.0000 0.22692  0.76579  0.05941  Biso   1.000  C
  C775     1.0000 0.04182  0.15765  0.79366  Biso   1.000  C
  C776     1.0000 0.71832  0.99435  0.74159  Biso   1.000  C
  C777     1.0000 0.82586  0.24597  0.49059  Biso   1.000  C
  C778     1.0000 0.54288  0.19851  0.71582  Biso   1.000  C
  C779     1.0000 0.21627  0.97094  0.80171  Biso   1.000  C
  C780     1.0000 0.31740  0.26116  0.02373  Biso   1.000  C
  C781     1.0000 0.52520  0.24451  0.21517  Biso   1.000  C
  C782     1.0000 0.21722  0.47537  0.30805  Biso   1.000  C
  C783     1.0000 0.32662  0.19831  0.55199  Biso   1.000  C
  C784     1.0000 0.03971  0.28841  0.29135  Biso   1.000  C
  C785     1.0000 0.75359  0.47967  0.20397  Biso   1.000  C
  C786     1.0000 0.78853  0.15578  0.99367  Biso   1.000  C
  C787     1.0000 0.02561  0.78782  0.26194  Biso   1.000  C
  C788     1.0000 0.32721  0.98195  0.30238  Biso   1.000  C
  C789     1.0000 0.24469  0.66442  0.52299  Biso   1.000  C
  C790     1.0000 0.52815  0.73701  0.33235  Biso   1.000  C
  C791     1.0000 0.83194  0.99176  0.24493  Biso   1.000  C
  C792     1.0000 0.73011  0.68859  0.99665  Biso   1.000  C
  C793     1.0000 0.48309  0.18214  0.32656  Biso   1.000  C
  C794     1.0000 0.29941  0.44162  0.21754  Biso   1.000  C
  C795     1.0000 0.21560  0.25468  0.50887  Biso   1.000  C
  C796     1.0000 0.01185  0.20541  0.20227  Biso   1.000  C
  C797     1.0000 0.83491  0.46334  0.29590  Biso   1.000  C
  C798     1.0000 0.69616  0.23834  0.00031  Biso   1.000  C
  C799     1.0000 0.99756  0.67236  0.31274  Biso   1.000  C
  C800     1.0000 0.21351  0.94929  0.24507  Biso   1.000  C
  C801     1.0000 0.33200  0.75366  0.48953  Biso   1.000  C
  C802     1.0000 0.51528  0.66015  0.24322  Biso   1.000  C
  C803     1.0000 0.74379  0.95023  0.33103  Biso   1.000  C
  C804     1.0000 0.84582  0.74183  0.03253  Biso   1.000  C
  C805     1.0000 0.53312  0.75468  0.71787  Biso   1.000  C
  C806     1.0000 0.73948  0.49585  0.82296  Biso   1.000  C
  C807     1.0000 0.79813  0.65324  0.54682  Biso   1.000  C
  C808     1.0000 0.04795  0.74795  0.83884  Biso   1.000  C
  C809     1.0000 0.20915  0.49332  0.74734  Biso   1.000  C
  C810     1.0000 0.33899  0.70453  0.01786  Biso   1.000  C
  C811     1.0000 0.03858  0.27876  0.74208  Biso   1.000  C
  C812     1.0000 0.79512  0.97926  0.83149  Biso   1.000  C
  C813     1.0000 0.74010  0.16146  0.52324  Biso   1.000  C
  C814     1.0000 0.49698  0.25659  0.82861  Biso   1.000  C
  C815     1.0000 0.33403  0.97352  0.75439  Biso   1.000  C
  C816     1.0000 0.20745  0.19925  0.98451  Biso   1.000  C
  C817     1.0000 0.01007  0.20840  0.79539  Biso   1.000  C
  C818     1.0000 0.78194  0.95532  0.24039  Biso   1.000  C
  C819     1.0000 0.27826  0.77362  0.02697  Biso   1.000  C
  C820     1.0000 0.49793  0.19434  0.75839  Biso   1.000  C
  C821     1.0000 0.27402  0.95749  0.31656  Biso   1.000  C
  C822     1.0000 0.76698  0.75111  0.56027  Biso   1.000  C
  C823     1.0000 0.51598  0.68846  0.77977  Biso   1.000  C
  C824     1.0000 0.73941  0.46069  0.25968  Biso   1.000  C
  C825     1.0000 0.26559  0.27109  0.99202  Biso   1.000  C
  C826     1.0000 0.03791  0.67836  0.77846  Biso   1.000  C
  C827     1.0000 0.26184  0.43519  0.30883  Biso   1.000  C
  C828     1.0000 0.77576  0.25334  0.52467  Biso   1.000  C
  C829     1.0000 0.98774  0.74079  0.25534  Biso   1.000  C
  C830     1.0000 0.26771  0.00062  0.81474  Biso   1.000  C
  C831     1.0000 0.79185  0.20672  0.02852  Biso   1.000  C
  C832     1.0000 0.55505  0.75035  0.27956  Biso   1.000  C
  C833     1.0000 0.76652  0.95706  0.73333  Biso   1.000  C
  C834     1.0000 0.27620  0.18614  0.52189  Biso   1.000  C
  C835     1.0000 0.50040  0.25593  0.27039  Biso   1.000  C
  C836     1.0000 0.30051  0.48902  0.78262  Biso   1.000  C
  C837     1.0000 0.78538  0.67219  0.01656  Biso   1.000  C
  C838     1.0000 0.01076  0.23453  0.29798  Biso   1.000  C
  C839     1.0000 0.77014  0.49797  0.72456  Biso   1.000  C
  C840     1.0000 0.24136  0.71575  0.49204  Biso   1.000  C
  C841     1.0000 0.23741  0.97304  0.78111  Biso   1.000  C
  C842     1.0000 0.76802  0.17670  0.99233  Biso   1.000  C
  C843     1.0000 0.02446  0.76774  0.28323  Biso   1.000  C
  C844     1.0000 0.74044  0.99389  0.76102  Biso   1.000  C
  C845     1.0000 0.30554  0.21848  0.55052  Biso   1.000  C
  C846     1.0000 0.53261  0.71544  0.31292  Biso   1.000  C
  C847     1.0000 0.27194  0.46150  0.81772  Biso   1.000  C
  C848     1.0000 0.75310  0.70915  0.99851  Biso   1.000  C
  C849     1.0000 0.52302  0.22258  0.23654  Biso   1.000  C
  C850     1.0000 0.79987  0.47039  0.75979  Biso   1.000  C
  C851     1.0000 0.26927  0.68344  0.52049  Biso   1.000  C
  C852     1.0000 0.04256  0.26852  0.26929  Biso   1.000  C
  C853     1.0000 0.81181  0.99074  0.26677  Biso   1.000  C
  C854     1.0000 0.24731  0.74390  0.05772  Biso   1.000  C
  C855     1.0000 0.04685  0.17861  0.77219  Biso   1.000  C
  C856     1.0000 0.30651  0.97809  0.28183  Biso   1.000  C
  C857     1.0000 0.74155  0.72383  0.52333  Biso   1.000  C
  C858     1.0000 0.54098  0.21986  0.73783  Biso   1.000  C
  C859     1.0000 0.77429  0.48054  0.22542  Biso   1.000  C
  C860     1.0000 0.29775  0.23903  0.01923  Biso   1.000  C
  C861     1.0000 0.49284  0.72287  0.81221  Biso   1.000  C
  C862     1.0000 0.23723  0.47517  0.28642  Biso   1.000  C
  C863     1.0000 0.80468  0.22517  0.49063  Biso   1.000  C
  C864     1.0000 0.01367  0.71035  0.74641  Biso   1.000  C
  C865     1.0000 0.72735  0.47437  0.76784  Biso   1.000  C
  C866     1.0000 0.81539  0.71088  0.53475  Biso   1.000  C
  C867     1.0000 0.49647  0.76692  0.76668  Biso   1.000  C
  C868     1.0000 0.25587  0.45104  0.74375  Biso   1.000  C
  C869     1.0000 0.29320  0.70091  0.05871  Biso   1.000  C
  C870     1.0000 0.00294  0.74653  0.79811  Biso   1.000  C
  C871     1.0000 0.81075  0.96334  0.77436  Biso   1.000  C
  C872     1.0000 0.73785  0.20760  0.48553  Biso   1.000  C
  C873     1.0000 0.01690  0.22199  0.72600  Biso   1.000  C
  C874     1.0000 0.28141  0.99844  0.73766  Biso   1.000  C
  C875     1.0000 0.24873  0.20327  0.02935  Biso   1.000  C
  C876     1.0000 0.52523  0.26677  0.77455  Biso   1.000  C
  C877     1.0000 0.30602  0.46762  0.27126  Biso   1.000  C
  C878     1.0000 0.25890  0.25815  0.55243  Biso   1.000  C
  C879     1.0000 0.52859  0.18336  0.28290  Biso   1.000  C
  C880     1.0000 0.78147  0.48976  0.30084  Biso   1.000  C
  C881     1.0000 0.75312  0.25171  0.01781  Biso   1.000  C
  C882     1.0000 0.04058  0.19427  0.25596  Biso   1.000  C
  C883     1.0000 0.26081  0.98787  0.24136  Biso   1.000  C
  C884     1.0000 0.28482  0.75415  0.52876  Biso   1.000  C
  C885     1.0000 0.01759  0.72748  0.32956  Biso   1.000  C
  C886     1.0000 0.73971  0.98699  0.28213  Biso   1.000  C
  C887     1.0000 0.80270  0.74717  0.98936  Biso   1.000  C
  C888     1.0000 0.56322  0.69772  0.24086  Biso   1.000  C
  C889     1.0000 0.76686  0.95272  0.31023  Biso   1.000  C
  C890     1.0000 0.31664  0.72553  0.01902  Biso   1.000  C
  C891     1.0000 0.04003  0.25433  0.75980  Biso   1.000  C
  C892     1.0000 0.23358  0.94993  0.26758  Biso   1.000  C
  C893     1.0000 0.77809  0.67476  0.54884  Biso   1.000  C
  C894     1.0000 0.49892  0.23467  0.80836  Biso   1.000  C
  C895     1.0000 0.81520  0.45937  0.27544  Biso   1.000  C
  C896     1.0000 0.23135  0.21802  0.98174  Biso   1.000  C
  C897     1.0000 0.52955  0.73413  0.73919  Biso   1.000  C
  C898     1.0000 0.27644  0.44076  0.23767  Biso   1.000  C
  C899     1.0000 0.75970  0.18410  0.52643  Biso   1.000  C
  C900     1.0000 0.04788  0.72908  0.81552  Biso   1.000  C
  C901     1.0000 0.31255  0.97884  0.77525  Biso   1.000  C
  C902     1.0000 0.71798  0.21747  0.99926  Biso   1.000  C
  C903     1.0000 0.99576  0.69441  0.29371  Biso   1.000  C
  C904     1.0000 0.77369  0.97889  0.80932  Biso   1.000  C
  C905     1.0000 0.23750  0.23410  0.51069  Biso   1.000  C
  C906     1.0000 0.51890  0.68178  0.26397  Biso   1.000  C
  C907     1.0000 0.23019  0.49168  0.76786  Biso   1.000  C
  C908     1.0000 0.82539  0.71941  0.02796  Biso   1.000  C
  C909     1.0000 0.48485  0.20401  0.30646  Biso   1.000  C
  C910     1.0000 0.76097  0.49832  0.80142  Biso   1.000  C
  C911     1.0000 0.31317  0.73159  0.49089  Biso   1.000  C
  C912     1.0000 0.01343  0.22721  0.22268  Biso   1.000  C
  C913     1.0000 0.77538  0.48657  0.75211  Biso   1.000  C
  C914     1.0000 0.76402  0.72617  0.54339  Biso   1.000  C
  C915     1.0000 0.50692  0.71651  0.78557  Biso   1.000  C
  C916     1.0000 0.27551  0.47226  0.78967  Biso   1.000  C
  C917     1.0000 0.27252  0.74788  0.04197  Biso   1.000  C
  C918     1.0000 0.02587  0.70507  0.77322  Biso   1.000  C
  C919     1.0000 0.76317  0.97488  0.75735  Biso   1.000  C
  C920     1.0000 0.77995  0.22809  0.50828  Biso   1.000  C
  C921     1.0000 0.03065  0.20444  0.77453  Biso   1.000  C
  C922     1.0000 0.26318  0.98906  0.78712  Biso   1.000  C
  C923     1.0000 0.27177  0.24325  0.00372  Biso   1.000  C
  C924     1.0000 0.51828  0.21631  0.75889  Biso   1.000  C
  C925     1.0000 0.25825  0.45435  0.28629  Biso   1.000  C
  C926     1.0000 0.27991  0.21317  0.53567  Biso   1.000  C
  C927     1.0000 0.51240  0.22959  0.26446  Biso   1.000  C
  C928     1.0000 0.76712  0.47035  0.25394  Biso   1.000  C
  C929     1.0000 0.77009  0.20177  0.00841  Biso   1.000  C
  C930     1.0000 0.02649  0.24228  0.27318  Biso   1.000  C
  C931     1.0000 0.27924  0.96799  0.28927  Biso   1.000  C
  C932     1.0000 0.26580  0.70905  0.50512  Biso   1.000  C
  C933     1.0000 0.00471  0.74546  0.27941  Biso   1.000  C
  C934     1.0000 0.78724  0.97286  0.26466  Biso   1.000  C
  C935     1.0000 0.78069  0.70094  0.00727  Biso   1.000  C
  C936     1.0000 0.54441  0.72239  0.28587  Biso   1.000  C
  C937     1.0000 0.74689  0.22485  0.00665  Biso   1.000  C
  C938     1.0000 0.00601  0.72207  0.30222  Biso   1.000  C
  C939     1.0000 0.28638  0.98963  0.76587  Biso   1.000  C
  C940     1.0000 0.25861  0.23600  0.53269  Biso   1.000  C
  C941     1.0000 0.54217  0.70088  0.26269  Biso   1.000  C
  C942     1.0000 0.78276  0.97159  0.78182  Biso   1.000  C
  C943     1.0000 0.80329  0.72339  0.00704  Biso   1.000  C
  C944     1.0000 0.50737  0.20419  0.28484  Biso   1.000  C
  C945     1.0000 0.25385  0.47141  0.76601  Biso   1.000  C
  C946     1.0000 0.28876  0.73146  0.50793  Biso   1.000  C
  C947     1.0000 0.02658  0.22061  0.24976  Biso   1.000  C
  C948     1.0000 0.75263  0.48804  0.77493  Biso   1.000  C
  C949     1.0000 0.29316  0.72283  0.03816  Biso   1.000  C
  C950     1.0000 0.03114  0.22678  0.75155  Biso   1.000  C
  C951     1.0000 0.76503  0.97229  0.28703  Biso   1.000  C
  C952     1.0000 0.78664  0.70320  0.54376  Biso   1.000  C
  C953     1.0000 0.51428  0.23934  0.78176  Biso   1.000  C
  C954     1.0000 0.25654  0.96920  0.26511  Biso   1.000  C
  C955     1.0000 0.25056  0.22036  0.00358  Biso   1.000  C
  C956     1.0000 0.51052  0.73922  0.76293  Biso   1.000  C
  C957     1.0000 0.78759  0.47158  0.27710  Biso   1.000  C
  C958     1.0000 0.75818  0.20703  0.50760  Biso   1.000  C
  C959     1.0000 0.02594  0.72792  0.79575  Biso   1.000  C
  C960     1.0000 0.28016  0.45396  0.26322  Biso   1.000  C
  Cu1      1.0000 0.01474  0.46716  0.67794  Biso   1.000  Cu
  Cu2      1.0000 0.67470  0.96839  0.52226  Biso   1.000  Cu
  Cu3      1.0000 0.53472  0.62794  0.02175  Biso   1.000  Cu
  Cu4      1.0000 0.51782  0.47815  0.86915  Biso   1.000  Cu
  Cu5      1.0000 0.17855  0.98559  0.02591  Biso   1.000  Cu
  Cu6      1.0000 0.02363  0.62458  0.53584  Biso   1.000  Cu
  Cu7      1.0000 0.52630  0.97620  0.67784  Biso   1.000  Cu
  Cu8      1.0000 0.87114  0.46937  0.51618  Biso   1.000  Cu
  Cu9      1.0000 0.01147  0.12701  0.01371  Biso   1.000  Cu
  Cu10     1.0000 0.01956  0.96720  0.87065  Biso   1.000  Cu
  Cu11     1.0000 0.36695  0.48262  0.03023  Biso   1.000  Cu
  Cu12     1.0000 0.51953  0.12387  0.51893  Biso   1.000  Cu
  Cu13     1.0000 0.02494  0.47608  0.36955  Biso   1.000  Cu
  Cu14     1.0000 0.36935  0.97330  0.52827  Biso   1.000  Cu
  Cu15     1.0000 0.50831  0.32326  0.02265  Biso   1.000  Cu
  Cu16     1.0000 0.52747  0.46431  0.17158  Biso   1.000  Cu
  Cu17     1.0000 0.86775  0.96498  0.02290  Biso   1.000  Cu
  Cu18     1.0000 0.01870  0.31656  0.51618  Biso   1.000  Cu
  Cu19     1.0000 0.51926  0.96036  0.36791  Biso   1.000  Cu
  Cu20     1.0000 0.17209  0.47460  0.52871  Biso   1.000  Cu
  Cu21     1.0000 0.03320  0.82795  0.03564  Biso   1.000  Cu
  Cu22     1.0000 0.02180  0.97884  0.17878  Biso   1.000  Cu
  Cu23     1.0000 0.67811  0.46594  0.01405  Biso   1.000  Cu
  Cu24     1.0000 0.52691  0.81826  0.52097  Biso   1.000  Cu
  Cu25     1.0000 0.23353  0.98889  0.02454  Biso   1.000  Cu
  Cu26     1.0000 0.00772  0.18288  0.01332  Biso   1.000  Cu
  Cu27     1.0000 0.02255  0.98000  0.23294  Biso   1.000  Cu
  Cu28     1.0000 0.72863  0.97092  0.52311  Biso   1.000  Cu
  Cu29     1.0000 0.51897  0.17809  0.51869  Biso   1.000  Cu
  Cu30     1.0000 0.51774  0.96015  0.31491  Biso   1.000  Cu
  Cu31     1.0000 0.31233  0.48515  0.03353  Biso   1.000  Cu
  Cu32     1.0000 0.53415  0.68190  0.02785  Biso   1.000  Cu
  Cu33     1.0000 0.52658  0.46676  0.22551  Biso   1.000  Cu
  Cu34     1.0000 0.81554  0.46898  0.51349  Biso   1.000  Cu
  Cu35     1.0000 0.01946  0.67757  0.53842  Biso   1.000  Cu
  Cu36     1.0000 0.02904  0.48159  0.31516  Biso   1.000  Cu
  Cu37     1.0000 0.81138  0.96288  0.02089  Biso   1.000  Cu
  Cu38     1.0000 0.03534  0.77473  0.03618  Biso   1.000  Cu
  Cu39     1.0000 0.02400  0.96470  0.81698  Biso   1.000  Cu
  Cu40     1.0000 0.31502  0.97155  0.53107  Biso   1.000  Cu
  Cu41     1.0000 0.52566  0.76258  0.52368  Biso   1.000  Cu
  Cu42     1.0000 0.52461  0.97640  0.73227  Biso   1.000  Cu
  Cu43     1.0000 0.73203  0.46001  0.00872  Biso   1.000  Cu
  Cu44     1.0000 0.50586  0.26862  0.02070  Biso   1.000  Cu
  Cu45     1.0000 0.51436  0.48065  0.81683  Biso   1.000  Cu
  Cu46     1.0000 0.22571  0.47649  0.52853  Biso   1.000  Cu
  Cu47     1.0000 0.02039  0.26380  0.51458  Biso   1.000  Cu
  Cu48     1.0000 0.01053  0.46240  0.73174  Biso   1.000  Cu
  H1       1.0000 0.26577  0.75374  0.54205  Biso   1.000  H
  H2       1.0000 0.53380  0.27372  0.75396  Biso   1.000  H
  H3       1.0000 0.76000  0.49923  0.30218  Biso   1.000  H
  H4       1.0000 0.78756  0.75022  0.97167  Biso   1.000  H
  H5       1.0000 0.00936  0.20081  0.72051  Biso   1.000  H
  H6       1.0000 0.30377  0.47777  0.29203  Biso   1.000  H
  H7       1.0000 0.27448  0.25895  0.57066  Biso   1.000  H
  H8       1.0000 0.98501  0.74536  0.78249  Biso   1.000  H
  H9       1.0000 0.73518  0.00245  0.26442  Biso   1.000  H
  H10      1.0000 0.77613  0.26009  0.01920  Biso   1.000  H
  H11      1.0000 0.48173  0.77071  0.78448  Biso   1.000  H
  H12      1.0000 0.27950  0.00318  0.23945  Biso   1.000  H
  H13      1.0000 0.73820  0.22309  0.46854  Biso   1.000  H
  H14      1.0000 0.58059  0.71256  0.23869  Biso   1.000  H
  H15      1.0000 0.27430  0.43777  0.74030  Biso   1.000  H
  H16      1.0000 0.26479  0.20600  0.04623  Biso   1.000  H
  H17      1.0000 0.02699  0.74852  0.33501  Biso   1.000  H
  H18      1.0000 0.72487  0.46317  0.74688  Biso   1.000  H
  H19      1.0000 0.82250  0.73310  0.53083  Biso   1.000  H
  H20      1.0000 0.05010  0.19168  0.27674  Biso   1.000  H
  H21      1.0000 0.25970  0.00532  0.72894  Biso   1.000  H
  H22      1.0000 0.27929  0.70324  0.07755  Biso   1.000  H
  H23      1.0000 0.54687  0.18436  0.26570  Biso   1.000  H
  H24      1.0000 0.81548  0.95884  0.75107  Biso   1.000  H
  H25      1.0000 0.28767  0.01194  0.81927  Biso   1.000  H
  H26      1.0000 0.79297  0.22730  0.04069  Biso   1.000  H
  H27      1.0000 0.97233  0.72291  0.25269  Biso   1.000  H
  H28      1.0000 0.78408  0.94234  0.72841  Biso   1.000  H
  H29      1.0000 0.25554  0.17927  0.51410  Biso   1.000  H
  H30      1.0000 0.56664  0.75658  0.25813  Biso   1.000  H
  H31      1.0000 0.30229  0.50046  0.76207  Biso   1.000  H
  H32      1.0000 0.80492  0.66408  0.02643  Biso   1.000  H
  H33      1.0000 0.49277  0.25961  0.29243  Biso   1.000  H
  H34      1.0000 0.75239  0.51119  0.72199  Biso   1.000  H
  H35      1.0000 0.23882  0.73708  0.48270  Biso   1.000  H
  H36      1.0000 0.99944  0.21388  0.29953  Biso   1.000  H
  H37      1.0000 0.76223  0.94202  0.23942  Biso   1.000  H
  H38      1.0000 0.29783  0.77768  0.01574  Biso   1.000  H
  H39      1.0000 0.99648  0.22782  0.79399  Biso   1.000  H
  H40      1.0000 0.25142  0.94996  0.32108  Biso   1.000  H
  H41      1.0000 0.78486  0.75251  0.57577  Biso   1.000  H
  H42      1.0000 0.47946  0.19378  0.77365  Biso   1.000  H
  H43      1.0000 0.73582  0.44999  0.28033  Biso   1.000  H
  H44      1.0000 0.24447  0.27382  0.98211  Biso   1.000  H
  H45      1.0000 0.52648  0.68287  0.75849  Biso   1.000  H
  H46      1.0000 0.28028  0.41905  0.31073  Biso   1.000  H
  H47      1.0000 0.75616  0.25553  0.53566  Biso   1.000  H
  H48      1.0000 0.04499  0.67510  0.80069  Biso   1.000  H
  H49      1.0000 0.23505  0.48906  0.26713  Biso   1.000  H
  H50      1.0000 0.30783  0.23756  0.56302  Biso   1.000  H
  H51      1.0000 0.53162  0.19962  0.23124  Biso   1.000  H
  H52      1.0000 0.79458  0.48998  0.21939  Biso   1.000  H
  H53      1.0000 0.75210  0.17454  0.97510  Biso   1.000  H
  H54      1.0000 0.05525  0.27270  0.25060  Biso   1.000  H
  H55      1.0000 0.31053  0.98177  0.25794  Biso   1.000  H
  H56      1.0000 0.28872  0.67975  0.53470  Biso   1.000  H
  H57      1.0000 0.04024  0.77058  0.30019  Biso   1.000  H
  H58      1.0000 0.81761  0.00290  0.28615  Biso   1.000  H
  H59      1.0000 0.74850  0.73023  0.99188  Biso   1.000  H
  H60      1.0000 0.52839  0.69345  0.31718  Biso   1.000  H
  H61      1.0000 0.80041  0.46300  0.78158  Biso   1.000  H
  H62      1.0000 0.74054  0.70448  0.50957  Biso   1.000  H
  H63      1.0000 0.48796  0.74510  0.81749  Biso   1.000  H
  H64      1.0000 0.25297  0.44893  0.82446  Biso   1.000  H
  H65      1.0000 0.24283  0.72268  0.06895  Biso   1.000  H
  H66      1.0000 0.00199  0.72989  0.74390  Biso   1.000  H
  H67      1.0000 0.74108  0.00935  0.77799  Biso   1.000  H
  H68      1.0000 0.80755  0.20450  0.47646  Biso   1.000  H
  H69      1.0000 0.06347  0.17488  0.75402  Biso   1.000  H
  H70      1.0000 0.23308  0.96128  0.76050  Biso   1.000  H
  H71      1.0000 0.30321  0.21767  0.02774  Biso   1.000  H
  H72      1.0000 0.55756  0.23641  0.73838  Biso   1.000  H
  H73      1.0000 0.78343  0.50729  0.80501  Biso   1.000  H
  H74      1.0000 0.75709  0.67142  0.55758  Biso   1.000  H
  H75      1.0000 0.54146  0.71371  0.73665  Biso   1.000  H
  H76      1.0000 0.23101  0.50857  0.78418  Biso   1.000  H
  H77      1.0000 0.31850  0.74426  0.00541  Biso   1.000  H
  H78      1.0000 0.06728  0.71400  0.81292  Biso   1.000  H
  H79      1.0000 0.75209  0.98417  0.81595  Biso   1.000  H
  H80      1.0000 0.77598  0.18406  0.54431  Biso   1.000  H
  H81      1.0000 0.04672  0.25701  0.78254  Biso   1.000  H
  H82      1.0000 0.31362  0.96967  0.79705  Biso   1.000  H
  H83      1.0000 0.23207  0.23169  0.96231  Biso   1.000  H
  H84      1.0000 0.48621  0.21468  0.81151  Biso   1.000  H
  H85      1.0000 0.25619  0.43069  0.23343  Biso   1.000  H
  H86      1.0000 0.23649  0.21597  0.49584  Biso   1.000  H
  H87      1.0000 0.46530  0.21828  0.30617  Biso   1.000  H
  H88      1.0000 0.81852  0.44189  0.25981  Biso   1.000  H
  H89      1.0000 0.71326  0.19587  0.99252  Biso   1.000  H
  H90      1.0000 0.00189  0.24758  0.21927  Biso   1.000  H
  H91      1.0000 0.23369  0.93497  0.28443  Biso   1.000  H
  H92      1.0000 0.31582  0.71150  0.47872  Biso   1.000  H
  H93      1.0000 0.98301  0.69093  0.27409  Biso   1.000  H
  H94      1.0000 0.78427  0.93653  0.31390  Biso   1.000  H
  H95      1.0000 0.82738  0.69932  0.04078  Biso   1.000  H
  H96      1.0000 0.50260  0.68341  0.28289  Biso   1.000  H
  H97      1.0000 0.89227  0.95556  0.92541  Biso   1.000  H
  H98      1.0000 0.94368  0.84078  0.03258  Biso   1.000  H
  H99      1.0000 0.03158  0.87928  0.89204  Biso   1.000  H
  H100     1.0000 0.38892  0.95264  0.61847  Biso   1.000  H
  H101     1.0000 0.43489  0.83739  0.51026  Biso   1.000  H
  H102     1.0000 0.53357  0.88407  0.65593  Biso   1.000  H
  H103     1.0000 0.65388  0.47912  0.92516  Biso   1.000  H
  H104     1.0000 0.60201  0.33711  0.02164  Biso   1.000  H
  H105     1.0000 0.52499  0.39061  0.88632  Biso   1.000  H
  H106     1.0000 0.15284  0.46532  0.61740  Biso   1.000  H
  H107     1.0000 0.10988  0.33901  0.53368  Biso   1.000  H
  H108     1.0000 0.01486  0.37626  0.65202  Biso   1.000  H
  H109     1.0000 0.15453  0.99134  0.11941  Biso   1.000  H
  H110     1.0000 0.10541  0.11093  0.00928  Biso   1.000  H
  H111     1.0000 0.01323  0.06903  0.15226  Biso   1.000  H
  H112     1.0000 0.64941  0.95995  0.42765  Biso   1.000  H
  H113     1.0000 0.60795  0.10151  0.50608  Biso   1.000  H
  H114     1.0000 0.52053  0.05492  0.38588  Biso   1.000  H
  H115     1.0000 0.39217  0.47058  0.11919  Biso   1.000  H
  H116     1.0000 0.43553  0.61015  0.01525  Biso   1.000  H
  H117     1.0000 0.50874  0.55979  0.15462  Biso   1.000  H
  H118     1.0000 0.89298  0.47982  0.42133  Biso   1.000  H
  H119     1.0000 0.93225  0.59623  0.54111  Biso   1.000  H
  H120     1.0000 0.02135  0.56720  0.39665  Biso   1.000  H
  H121     1.0000 0.11385  0.96156  0.89044  Biso   1.000  H
  H122     1.0000 0.88153  0.05515  0.01238  Biso   1.000  H
  H123     1.0000 0.02314  0.84424  0.12929  Biso   1.000  H
  H124     1.0000 0.61289  0.98073  0.66409  Biso   1.000  H
  H125     1.0000 0.38896  0.06594  0.53316  Biso   1.000  H
  H126     1.0000 0.52021  0.83328  0.42852  Biso   1.000  H
  H127     1.0000 0.42534  0.48411  0.89719  Biso   1.000  H
  H128     1.0000 0.66227  0.55971  0.01565  Biso   1.000  H
  H129     1.0000 0.52587  0.33099  0.11207  Biso   1.000  H
  H130     1.0000 0.92808  0.46668  0.65267  Biso   1.000  H
  H131     1.0000 0.15537  0.56755  0.52158  Biso   1.000  H
  H132     1.0000 0.01848  0.33840  0.42526  Biso   1.000  H
  H133     1.0000 0.93324  0.96470  0.15772  Biso   1.000  H
  H134     1.0000 0.16453  0.89510  0.05067  Biso   1.000  H
  H135     1.0000 0.00634  0.10968  0.92691  Biso   1.000  H
  H136     1.0000 0.42713  0.96599  0.39631  Biso   1.000  H
  H137     1.0000 0.65793  0.87723  0.53273  Biso   1.000  H
  H138     1.0000 0.52885  0.10447  0.61299  Biso   1.000  H
  H139     1.0000 0.61525  0.46470  0.15324  Biso   1.000  H
  H140     1.0000 0.38101  0.38884  0.02294  Biso   1.000  H
  H141     1.0000 0.52475  0.61220  0.93216  Biso   1.000  H
  H142     1.0000 0.11770  0.47255  0.39477  Biso   1.000  H
  H143     1.0000 0.88746  0.37571  0.51992  Biso   1.000  H
  H144     1.0000 0.03447  0.60296  0.62221  Biso   1.000  H
  H145     1.0000 0.60860  0.48180  0.88581  Biso   1.000  H
  H146     1.0000 0.89047  0.55777  0.52280  Biso   1.000  H
  H147     1.0000 0.52980  0.84228  0.61572  Biso   1.000  H
  H148     1.0000 0.10765  0.46363  0.65791  Biso   1.000  H
  H149     1.0000 0.39364  0.57389  0.03254  Biso   1.000  H
  H150     1.0000 0.04146  0.84183  0.93766  Biso   1.000  H
  H151     1.0000 0.93066  0.96658  0.88917  Biso   1.000  H
  H152     1.0000 0.65119  0.06210  0.50893  Biso   1.000  H
  H153     1.0000 0.00601  0.33420  0.60932  Biso   1.000  H
  H154     1.0000 0.43489  0.95034  0.66171  Biso   1.000  H
  H155     1.0000 0.14963  0.07281  0.02160  Biso   1.000  H
  H156     1.0000 0.51832  0.34589  0.93077  Biso   1.000  H
  H157     1.0000 0.43361  0.45317  0.16053  Biso   1.000  H
  H158     1.0000 0.15085  0.38319  0.54025  Biso   1.000  H
  H159     1.0000 0.51655  0.10020  0.42951  Biso   1.000  H
  H160     1.0000 0.93452  0.48059  0.38445  Biso   1.000  H
  H161     1.0000 0.64965  0.37306  0.01558  Biso   1.000  H
  H162     1.0000 0.00279  0.11212  0.10871  Biso   1.000  H
  H163     1.0000 0.11012  0.98321  0.15918  Biso   1.000  H
  H164     1.0000 0.38963  0.88206  0.51326  Biso   1.000  H
  H165     1.0000 0.02138  0.60219  0.43757  Biso   1.000  H
  H166     1.0000 0.61325  0.96449  0.38598  Biso   1.000  H
  H167     1.0000 0.89769  0.87855  0.03117  Biso   1.000  H
  H168     1.0000 0.52572  0.59541  0.11356  Biso   1.000  H
  H169     1.0000 0.00679  0.06213  0.89001  Biso   1.000  H
  H170     1.0000 0.88765  0.96747  0.11580  Biso   1.000  H
  H171     1.0000 0.12690  0.85276  0.04907  Biso   1.000  H
  H172     1.0000 0.53027  0.06181  0.65728  Biso   1.000  H
  H173     1.0000 0.38867  0.97609  0.43548  Biso   1.000  H
  H174     1.0000 0.61762  0.83765  0.52757  Biso   1.000  H
  H175     1.0000 0.52749  0.57130  0.88898  Biso   1.000  H
  H176     1.0000 0.65698  0.46173  0.10680  Biso   1.000  H
  H177     1.0000 0.41934  0.34069  0.01583  Biso   1.000  H
  H178     1.0000 0.02519  0.56055  0.66379  Biso   1.000  H
  H179     1.0000 0.15066  0.46597  0.43864  Biso   1.000  H
  H180     1.0000 0.92618  0.33606  0.51645  Biso   1.000  H
  H181     1.0000 0.03060  0.88129  0.16468  Biso   1.000  H
  H182     1.0000 0.15721  0.95386  0.93567  Biso   1.000  H
  H183     1.0000 0.92258  0.10201  0.02061  Biso   1.000  H
  H184     1.0000 0.51230  0.87113  0.38484  Biso   1.000  H
  H185     1.0000 0.65395  0.97557  0.61577  Biso   1.000  H
  H186     1.0000 0.42949  0.11013  0.54334  Biso   1.000  H
  H187     1.0000 0.52993  0.37545  0.16029  Biso   1.000  H
  H188     1.0000 0.38252  0.49339  0.93874  Biso   1.000  H
  H189     1.0000 0.62531  0.60311  0.03040  Biso   1.000  H
  H190     1.0000 0.01782  0.38457  0.38869  Biso   1.000  H
  H191     1.0000 0.88833  0.45559  0.60858  Biso   1.000  H
  H192     1.0000 0.11337  0.61037  0.51950  Biso   1.000  H
  H193     1.0000 0.29535  0.82934  0.51182  Biso   1.000  H
  H194     1.0000 0.52150  0.25291  0.87664  Biso   1.000  H
  H195     1.0000 0.87997  0.48324  0.28648  Biso   1.000  H
  H196     1.0000 0.80420  0.81789  0.02254  Biso   1.000  H
  H197     1.0000 0.03196  0.23870  0.65746  Biso   1.000  H
  H198     1.0000 0.38049  0.43596  0.25309  Biso   1.000  H
  H199     1.0000 0.24998  0.33504  0.52583  Biso   1.000  H
  H200     1.0000 0.03885  0.74079  0.89332  Biso   1.000  H
  H201     1.0000 0.66669  0.96744  0.28964  Biso   1.000  H
  H202     1.0000 0.73607  0.31207  0.99527  Biso   1.000  H
  H203     1.0000 0.50989  0.74878  0.66640  Biso   1.000  H
  H204     1.0000 0.16351  0.97510  0.25551  Biso   1.000  H
  H205     1.0000 0.75000  0.11637  0.50697  Biso   1.000  H
  H206     1.0000 0.53425  0.69408  0.16908  Biso   1.000  H
  H207     1.0000 0.15635  0.46939  0.75483  Biso   1.000  H
  H208     1.0000 0.24209  0.13563  0.01727  Biso   1.000  H
  H209     1.0000 0.99222  0.69912  0.39537  Biso   1.000  H
  H210     1.0000 0.65623  0.49059  0.78512  Biso   1.000  H
  H211     1.0000 0.79616  0.61338  0.51414  Biso   1.000  H
  H212     1.0000 0.03524  0.20719  0.15316  Biso   1.000  H
  H213     1.0000 0.38453  0.98985  0.75381  Biso   1.000  H
  H214     1.0000 0.30091  0.62965  0.04237  Biso   1.000  H
  H215     1.0000 0.50076  0.19329  0.37186  Biso   1.000  H
  H216     1.0000 0.88080  0.97594  0.79056  Biso   1.000  H
  H217     1.0000 0.24826  0.45129  0.38502  Biso   1.000  H
  H218     1.0000 0.37553  0.20661  0.53364  Biso   1.000  H
  H219     1.0000 0.52887  0.32354  0.25514  Biso   1.000  H
  H220     1.0000 0.75692  0.45880  0.15185  Biso   1.000  H
  H221     1.0000 0.86350  0.19582  0.02137  Biso   1.000  H
  H222     1.0000 0.02186  0.33847  0.28912  Biso   1.000  H
  H223     1.0000 0.29036  0.98508  0.38668  Biso   1.000  H
  H224     1.0000 0.16583  0.70553  0.50980  Biso   1.000  H
  H225     1.0000 0.00874  0.84237  0.26422  Biso   1.000  H
  H226     1.0000 0.79445  0.98057  0.16916  Biso   1.000  H
  H227     1.0000 0.68281  0.69510  0.01553  Biso   1.000  H
  H228     1.0000 0.52049  0.81514  0.29001  Biso   1.000  H
  H229     1.0000 0.78639  0.46328  0.65515  Biso   1.000  H
  H230     1.0000 0.67224  0.74012  0.53619  Biso   1.000  H
  H231     1.0000 0.47928  0.62131  0.80650  Biso   1.000  H
  H232     1.0000 0.28341  0.48556  0.89045  Biso   1.000  H
  H233     1.0000 0.17954  0.75833  0.04162  Biso   1.000  H
  H234     1.0000 0.01460  0.60832  0.76117  Biso   1.000  H
  H235     1.0000 0.75269  0.97797  0.66164  Biso   1.000  H
  H236     1.0000 0.87451  0.23810  0.50798  Biso   1.000  H
  H237     1.0000 0.02438  0.10806  0.79072  Biso   1.000  H
  H238     1.0000 0.25325  0.97814  0.88238  Biso   1.000  H
  H239     1.0000 0.35812  0.25256  0.99751  Biso   1.000  H
  H240     1.0000 0.52146  0.11908  0.74979  Biso   1.000  H
  H241     1.0000 0.74742  0.46734  0.86625  Biso   1.000  H
  H242     1.0000 0.87621  0.69201  0.56170  Biso   1.000  H
  H243     1.0000 0.52387  0.83178  0.75362  Biso   1.000  H
  H244     1.0000 0.24369  0.48272  0.67507  Biso   1.000  H
  H245     1.0000 0.39516  0.71203  0.02290  Biso   1.000  H
  H246     1.0000 0.02477  0.81699  0.80083  Biso   1.000  H
  H247     1.0000 0.79166  0.95384  0.88183  Biso   1.000  H
  H248     1.0000 0.66472  0.19738  0.50417  Biso   1.000  H
  H249     1.0000 0.00853  0.31965  0.74708  Biso   1.000  H
  H250     1.0000 0.29449  0.96665  0.67182  Biso   1.000  H
  H251     1.0000 0.15112  0.21088  0.00679  Biso   1.000  H
  H252     1.0000 0.50104  0.33225  0.79530  Biso   1.000  H
  H253     1.0000 0.29683  0.47090  0.17692  Biso   1.000  H
  H254     1.0000 0.16727  0.24478  0.51743  Biso   1.000  H
  H255     1.0000 0.50684  0.10243  0.28863  Biso   1.000  H
  H256     1.0000 0.79511  0.48241  0.37212  Biso   1.000  H
  H257     1.0000 0.64567  0.23500  0.02005  Biso   1.000  H
  H258     1.0000 0.01551  0.13017  0.24496  Biso   1.000  H
  H259     1.0000 0.24999  0.96433  0.16914  Biso   1.000  H
  H260     1.0000 0.38109  0.74290  0.50992  Biso   1.000  H
  H261     1.0000 0.02096  0.62613  0.30158  Biso   1.000  H
  H262     1.0000 0.75004  0.97219  0.38104  Biso   1.000  H
  H263     1.0000 0.89831  0.74293  0.02145  Biso   1.000  H
  H264     1.0000 0.53110  0.60790  0.25258  Biso   1.000  H
  H265     1.0000 0.02509  0.20233  0.86875  Biso   1.000  H
  H266     1.0000 0.87619  0.96847  0.25409  Biso   1.000  H
  H267     1.0000 0.26540  0.84596  0.04516  Biso   1.000  H
  H268     1.0000 0.53017  0.20374  0.66148  Biso   1.000  H
  H269     1.0000 0.37364  0.96061  0.30000  Biso   1.000  H
  H270     1.0000 0.75858  0.82792  0.54302  Biso   1.000  H
  H271     1.0000 0.52057  0.70756  0.87999  Biso   1.000  H
  H272     1.0000 0.67436  0.48514  0.24196  Biso   1.000  H
  H273     1.0000 0.28025  0.34467  0.02115  Biso   1.000  H
  H274     1.0000 0.03776  0.69793  0.68137  Biso   1.000  H
  H275     1.0000 0.16740  0.45259  0.30090  Biso   1.000  H
  H276     1.0000 0.78981  0.32555  0.50576  Biso   1.000  H
  H277     1.0000 0.00772  0.74600  0.17641  Biso   1.000  H
  H278     1.0000 0.16841  0.98718  0.79630  Biso   1.000  H
  H279     1.0000 0.78098  0.10431  0.01043  Biso   1.000  H
  H280     1.0000 0.54925  0.73841  0.37937  Biso   1.000  H
  H281     1.0000 0.67277  0.97833  0.75398  Biso   1.000  H
  H282     1.0000 0.29098  0.11632  0.54787  Biso   1.000  H
  H283     1.0000 0.50024  0.24029  0.16815  Biso   1.000  H
  H284     1.0000 0.37127  0.47599  0.79804  Biso   1.000  H
  H285     1.0000 0.76140  0.60506  0.99286  Biso   1.000  H
  H286     1.0000 0.02248  0.24784  0.36704  Biso   1.000  H
  H287     1.0000 0.86856  0.47912  0.74275  Biso   1.000  H
  H288     1.0000 0.24940  0.62022  0.50475  Biso   1.000  H
  H289     1.0000 0.09875  0.20723  0.00162  Biso   1.000  H
  H290     1.0000 0.02032  0.07641  0.24896  Biso   1.000  H
  H291     1.0000 0.24977  0.97290  0.11624  Biso   1.000  H
  H292     1.0000 0.61050  0.19981  0.50490  Biso   1.000  H
  H293     1.0000 0.52170  0.05224  0.29058  Biso   1.000  H
  H294     1.0000 0.74683  0.97021  0.43086  Biso   1.000  H
  H295     1.0000 0.44436  0.70727  0.00829  Biso   1.000  H
  H296     1.0000 0.52871  0.55000  0.24825  Biso   1.000  H
  H297     1.0000 0.29856  0.47645  0.12085  Biso   1.000  H
  H298     1.0000 0.93369  0.68873  0.56175  Biso   1.000  H
  H299     1.0000 0.02615  0.57153  0.29903  Biso   1.000  H
  H300     1.0000 0.79686  0.48180  0.43049  Biso   1.000  H
  H301     1.0000 0.95059  0.74650  0.02952  Biso   1.000  H
  H302     1.0000 0.02506  0.87137  0.80052  Biso   1.000  H
  H303     1.0000 0.79443  0.94637  0.93211  Biso   1.000  H
  H304     1.0000 0.43658  0.74223  0.51418  Biso   1.000  H
  H305     1.0000 0.52831  0.88946  0.75031  Biso   1.000  H
  H306     1.0000 0.29379  0.95578  0.62235  Biso   1.000  H
  H307     1.0000 0.59369  0.24284  0.02843  Biso   1.000  H
  H308     1.0000 0.49934  0.38920  0.79246  Biso   1.000  H
  H309     1.0000 0.74750  0.45784  0.92017  Biso   1.000  H
  H310     1.0000 0.11374  0.24353  0.51553  Biso   1.000  H
  H311     1.0000 0.00001  0.37425  0.74796  Biso   1.000  H
  H312     1.0000 0.24865  0.48305  0.61867  Biso   1.000  H
  H313     1.0000 0.25131  0.97894  0.93559  Biso   1.000  H
  H314     1.0000 0.91726  0.19693  0.01573  Biso   1.000  H
  H315     1.0000 0.01678  0.89101  0.25975  Biso   1.000  H
  H316     1.0000 0.75030  0.97469  0.60686  Biso   1.000  H
  H317     1.0000 0.42767  0.20165  0.52254  Biso   1.000  H
  H318     1.0000 0.50883  0.86903  0.28928  Biso   1.000  H
  H319     1.0000 0.28715  0.48769  0.94437  Biso   1.000  H
  H320     1.0000 0.63005  0.69848  0.02329  Biso   1.000  H
  H321     1.0000 0.54531  0.37308  0.25474  Biso   1.000  H
  H322     1.0000 0.79038  0.46422  0.59898  Biso   1.000  H
  H323     1.0000 0.11191  0.70827  0.51577  Biso   1.000  H
  H324     1.0000 0.02229  0.39099  0.29088  Biso   1.000  H
  H325     1.0000 0.79115  0.97819  0.11720  Biso   1.000  H
  H326     1.0000 0.12699  0.75615  0.04565  Biso   1.000  H
  H327     1.0000 0.02396  0.05532  0.79497  Biso   1.000  H
  H328     1.0000 0.29567  0.98966  0.44094  Biso   1.000  H
  H329     1.0000 0.61674  0.74282  0.53266  Biso   1.000  H
  H330     1.0000 0.51999  0.06855  0.75311  Biso   1.000  H
  H331     1.0000 0.75261  0.45088  0.10014  Biso   1.000  H
  H332     1.0000 0.41132  0.24653  0.00194  Biso   1.000  H
  H333     1.0000 0.48871  0.56591  0.80316  Biso   1.000  H
  H334     1.0000 0.24536  0.44887  0.44257  Biso   1.000  H
  H335     1.0000 0.93230  0.24195  0.50715  Biso   1.000  H
  H336     1.0000 0.01251  0.55331  0.75682  Biso   1.000  H
  H337     1.0000 0.01516  0.20419  0.92188  Biso   1.000  H
  H338     1.0000 0.93059  0.97142  0.25445  Biso   1.000  H
  H339     1.0000 0.26195  0.90118  0.04932  Biso   1.000  H
  H340     1.0000 0.52496  0.19764  0.60455  Biso   1.000  H
  H341     1.0000 0.42529  0.95363  0.29942  Biso   1.000  H
  H342     1.0000 0.75433  0.88453  0.53312  Biso   1.000  H
  H343     1.0000 0.52682  0.70532  0.93370  Biso   1.000  H
  H344     1.0000 0.61891  0.48709  0.24229  Biso   1.000  H
  H345     1.0000 0.28622  0.39717  0.02805  Biso   1.000  H
  H346     1.0000 0.04289  0.69995  0.62710  Biso   1.000  H
  H347     1.0000 0.11234  0.46320  0.29935  Biso   1.000  H
  H348     1.0000 0.79286  0.37966  0.50417  Biso   1.000  H
  H349     1.0000 0.01284  0.74857  0.12291  Biso   1.000  H
  H350     1.0000 0.11491  0.97966  0.79613  Biso   1.000  H
  H351     1.0000 0.78438  0.05000  0.01183  Biso   1.000  H
  H352     1.0000 0.54219  0.73897  0.43266  Biso   1.000  H
  H353     1.0000 0.62033  0.98408  0.75661  Biso   1.000  H
  H354     1.0000 0.29407  0.05863  0.54671  Biso   1.000  H
  H355     1.0000 0.49315  0.24549  0.11081  Biso   1.000  H
  H356     1.0000 0.42339  0.47436  0.79891  Biso   1.000  H
  H357     1.0000 0.75731  0.55175  0.99167  Biso   1.000  H
  H358     1.0000 0.01772  0.24282  0.41787  Biso   1.000  H
  H359     1.0000 0.92086  0.48028  0.74624  Biso   1.000  H
  H360     1.0000 0.25030  0.56593  0.50577  Biso   1.000  H
  H361     1.0000 0.99479  0.69483  0.45134  Biso   1.000  H
  H362     1.0000 0.43969  0.98226  0.75083  Biso   1.000  H
  H363     1.0000 0.74154  0.36780  0.99358  Biso   1.000  H
  H364     1.0000 0.53105  0.69491  0.11713  Biso   1.000  H
  H365     1.0000 0.93234  0.97309  0.79238  Biso   1.000  H
  H366     1.0000 0.24656  0.38744  0.53168  Biso   1.000  H
  H367     1.0000 0.50485  0.19613  0.42703  Biso   1.000  H
  H368     1.0000 0.10020  0.46824  0.75249  Biso   1.000  H
  H369     1.0000 0.80091  0.87303  0.02563  Biso   1.000  H
  H370     1.0000 0.02803  0.20503  0.09877  Biso   1.000  H
  H371     1.0000 0.60487  0.48872  0.79097  Biso   1.000  H
  H372     1.0000 0.29653  0.88360  0.51601  Biso   1.000  H
  H373     1.0000 0.02654  0.24080  0.60588  Biso   1.000  H
  H374     1.0000 0.61216  0.96548  0.28943  Biso   1.000  H
  H375     1.0000 0.30137  0.57655  0.04919  Biso   1.000  H
  H376     1.0000 0.51828  0.25036  0.92939  Biso   1.000  H
  H377     1.0000 0.11001  0.97577  0.25467  Biso   1.000  H
  H378     1.0000 0.79737  0.56003  0.50217  Biso   1.000  H
  H379     1.0000 0.51744  0.74575  0.61426  Biso   1.000  H
  H380     1.0000 0.93551  0.47817  0.28781  Biso   1.000  H
  H381     1.0000 0.24657  0.07949  0.01614  Biso   1.000  H
  H382     1.0000 0.04430  0.74886  0.94802  Biso   1.000  H
  H383     1.0000 0.43886  0.43763  0.25233  Biso   1.000  H
  H384     1.0000 0.75056  0.06152  0.51614  Biso   1.000  H
  H385     1.0000 0.24815  0.42100  0.35112  Biso   1.000  H
  H386     1.0000 0.29271  0.14458  0.51130  Biso   1.000  H
  H387     1.0000 0.49016  0.29844  0.25651  Biso   1.000  H
  H388     1.0000 0.69908  0.44675  0.24521  Biso   1.000  H
  H389     1.0000 0.82917  0.19257  0.04810  Biso   1.000  H
  H390     1.0000 0.99282  0.25031  0.33781  Biso   1.000  H
  H391     1.0000 0.28947  0.94779  0.35944  Biso   1.000  H
  H392     1.0000 0.19903  0.70346  0.48090  Biso   1.000  H
  H393     1.0000 0.97855  0.75603  0.21282  Biso   1.000  H
  H394     1.0000 0.79856  0.94068  0.19826  Biso   1.000  H
  H395     1.0000 0.76410  0.63225  0.02748  Biso   1.000  H
  H396     1.0000 0.56169  0.79279  0.29367  Biso   1.000  H
  H397     1.0000 0.78850  0.50206  0.68094  Biso   1.000  H
  H398     1.0000 0.75178  0.79230  0.57225  Biso   1.000  H
  H399     1.0000 0.52149  0.64610  0.79460  Biso   1.000  H
  H400     1.0000 0.34196  0.50540  0.79894  Biso   1.000  H
  H401     1.0000 0.26184  0.81781  0.01528  Biso   1.000  H
  H402     1.0000 0.04937  0.63624  0.76359  Biso   1.000  H
  H403     1.0000 0.74727  0.94506  0.69152  Biso   1.000  H
  H404     1.0000 0.79297  0.29377  0.54020  Biso   1.000  H
  H405     1.0000 0.99078  0.19335  0.83481  Biso   1.000  H
  H406     1.0000 0.25070  0.00971  0.85521  Biso   1.000  H
  H407     1.0000 0.27771  0.31241  0.98287  Biso   1.000  H
  H408     1.0000 0.48701  0.15246  0.73693  Biso   1.000  H
  H409     1.0000 0.29685  0.42975  0.19653  Biso   1.000  H
  H410     1.0000 0.19895  0.25207  0.49179  Biso   1.000  H
  H411     1.0000 0.46441  0.18175  0.34186  Biso   1.000  H
  H412     1.0000 0.85586  0.45130  0.29182  Biso   1.000  H
  H413     1.0000 0.67392  0.23295  0.98994  Biso   1.000  H
  H414     1.0000 0.00247  0.20824  0.18242  Biso   1.000  H
  H415     1.0000 0.19573  0.93250  0.24735  Biso   1.000  H
  H416     1.0000 0.34974  0.75294  0.47482  Biso   1.000  H
  H417     1.0000 0.98697  0.65144  0.30768  Biso   1.000  H
  H418     1.0000 0.74371  0.93585  0.34871  Biso   1.000  H
  H419     1.0000 0.86119  0.73820  0.04921  Biso   1.000  H
  H420     1.0000 0.49748  0.64404  0.24765  Biso   1.000  H
  H421     1.0000 0.74457  0.50194  0.84478  Biso   1.000  H
  H422     1.0000 0.79085  0.63230  0.55389  Biso   1.000  H
  H423     1.0000 0.54869  0.75071  0.70050  Biso   1.000  H
  H424     1.0000 0.19370  0.51053  0.74834  Biso   1.000  H
  H425     1.0000 0.35398  0.70766  0.99957  Biso   1.000  H
  H426     1.0000 0.06606  0.74595  0.85508  Biso   1.000  H
  H427     1.0000 0.78906  0.98799  0.85260  Biso   1.000  H
  H428     1.0000 0.74558  0.14441  0.53729  Biso   1.000  H
  H429     1.0000 0.04641  0.29952  0.75296  Biso   1.000  H
  H430     1.0000 0.34881  0.95769  0.75986  Biso   1.000  H
  H431     1.0000 0.18874  0.19897  0.96770  Biso   1.000  H
  H432     1.0000 0.48452  0.25429  0.84875  Biso   1.000  H
  H433     1.0000 0.29850  0.00397  0.69492  Biso   1.000  H
  H434     1.0000 0.73754  0.29180  0.03433  Biso   1.000  H
  H435     1.0000 0.02567  0.71139  0.37108  Biso   1.000  H
  H436     1.0000 0.84939  0.94521  0.78817  Biso   1.000  H
  H437     1.0000 0.23483  0.29457  0.57071  Biso   1.000  H
  H438     1.0000 0.57635  0.67772  0.20059  Biso   1.000  H
  H439     1.0000 0.23615  0.43299  0.70699  Biso   1.000  H
  H440     1.0000 0.82399  0.79008  0.97925  Biso   1.000  H
  H441     1.0000 0.54309  0.14284  0.29847  Biso   1.000  H
  H442     1.0000 0.68504  0.46144  0.78257  Biso   1.000  H
  H443     1.0000 0.30174  0.79320  0.54841  Biso   1.000  H
  H444     1.0000 0.04863  0.15149  0.23946  Biso   1.000  H
  H445     1.0000 0.69796  0.99902  0.29903  Biso   1.000  H
  H446     1.0000 0.31271  0.66461  0.07826  Biso   1.000  H
  H447     1.0000 0.00127  0.24046  0.68605  Biso   1.000  H
  H448     1.0000 0.24502  0.00201  0.20110  Biso   1.000  H
  H449     1.0000 0.85810  0.69741  0.52749  Biso   1.000  H
  H450     1.0000 0.53982  0.30738  0.79078  Biso   1.000  H
  H451     1.0000 0.79677  0.51066  0.34004  Biso   1.000  H
  H452     1.0000 0.22342  0.16945  0.05270  Biso   1.000  H
  H453     1.0000 0.48648  0.80817  0.75073  Biso   1.000  H
  H454     1.0000 0.35298  0.47624  0.26027  Biso   1.000  H
  H455     1.0000 0.70030  0.19271  0.46947  Biso   1.000  H
  H456     1.0000 0.98344  0.78167  0.81765  Biso   1.000  H
  H457     1.0000 0.70310  0.74481  0.50527  Biso   1.000  H
  H458     1.0000 0.48165  0.70674  0.85682  Biso   1.000  H
  H459     1.0000 0.83768  0.44895  0.74019  Biso   1.000  H
  H460     1.0000 0.20844  0.76351  0.07305  Biso   1.000  H
  H461     1.0000 0.00211  0.69542  0.70577  Biso   1.000  H
  H462     1.0000 0.28686  0.45770  0.86085  Biso   1.000  H
  H463     1.0000 0.84394  0.24148  0.47542  Biso   1.000  H
  H464     1.0000 0.05594  0.13828  0.79223  Biso   1.000  H
  H465     1.0000 0.70304  0.01078  0.74164  Biso   1.000  H
  H466     1.0000 0.33441  0.25744  0.03804  Biso   1.000  H
  H467     1.0000 0.56051  0.20169  0.70054  Biso   1.000  H
  H468     1.0000 0.19961  0.95473  0.79832  Biso   1.000  H
  H469     1.0000 0.34492  0.20401  0.56542  Biso   1.000  H
  H470     1.0000 0.53828  0.23849  0.19596  Biso   1.000  H
  H471     1.0000 0.19907  0.49152  0.30807  Biso   1.000  H
  H472     1.0000 0.78783  0.13717  0.97782  Biso   1.000  H
  H473     1.0000 0.05239  0.30847  0.28629  Biso   1.000  H
  H474     1.0000 0.75999  0.48838  0.18393  Biso   1.000  H
  H475     1.0000 0.24659  0.64475  0.53414  Biso   1.000  H
  H476     1.0000 0.04090  0.80535  0.26578  Biso   1.000  H
  H477     1.0000 0.34680  0.99319  0.29606  Biso   1.000  H
  H478     1.0000 0.70999  0.69666  0.98674  Biso   1.000  H
  H479     1.0000 0.51846  0.72830  0.35238  Biso   1.000  H
  H480     1.0000 0.85167  0.00502  0.24473  Biso   1.000  H
  N1       1.0000 0.69544  0.14378  0.50316  Biso   1.000  N
  N2       1.0000 0.53456  0.63942  0.19891  Biso   1.000  N
  N3       1.0000 0.19095  0.46964  0.70364  Biso   1.000  N
  N4       1.0000 0.18567  0.16052  0.01235  Biso   1.000  N
  N5       1.0000 0.01282  0.65389  0.35912  Biso   1.000  N
  N6       1.0000 0.69285  0.48363  0.83802  Biso   1.000  N
  N7       1.0000 0.84723  0.64002  0.53791  Biso   1.000  N
  N8       1.0000 0.02333  0.15640  0.19005  Biso   1.000  N
  N9       1.0000 0.34886  0.97683  0.70425  Biso   1.000  N
  N10      1.0000 0.35763  0.66140  0.03694  Biso   1.000  N
  N11      1.0000 0.50690  0.13831  0.34249  Biso   1.000  N
  N12      1.0000 0.84355  0.96433  0.84574  Biso   1.000  N
  N13      1.0000 0.34737  0.79641  0.51167  Biso   1.000  N
  N14      1.0000 0.51378  0.30377  0.84462  Biso   1.000  N
  N15      1.0000 0.84908  0.48505  0.34063  Biso   1.000  N
  N16      1.0000 0.86126  0.79046  0.01995  Biso   1.000  N
  N17      1.0000 0.02100  0.29242  0.69336  Biso   1.000  N
  N18      1.0000 0.34825  0.45476  0.20466  Biso   1.000  N
  N19      1.0000 0.19679  0.30016  0.52777  Biso   1.000  N
  N20      1.0000 0.02404  0.79010  0.85832  Biso   1.000  N
  N21      1.0000 0.69698  0.96751  0.34447  Biso   1.000  N
  N22      1.0000 0.68315  0.28596  0.01528  Biso   1.000  N
  N23      1.0000 0.52073  0.80019  0.70003  Biso   1.000  N
  N24      1.0000 0.19707  0.97044  0.20133  Biso   1.000  N
  N25      1.0000 0.83710  0.46887  0.68949  Biso   1.000  N
  N26      1.0000 0.70452  0.79259  0.53578  Biso   1.000  N
  N27      1.0000 0.50618  0.65526  0.85016  Biso   1.000  N
  N28      1.0000 0.33839  0.48475  0.85433  Biso   1.000  N
  N29      1.0000 0.21243  0.81317  0.04403  Biso   1.000  N
  N30      1.0000 0.02672  0.64288  0.71058  Biso   1.000  N
  N31      1.0000 0.70225  0.97781  0.69537  Biso   1.000  N
  N32      1.0000 0.84299  0.29141  0.50990  Biso   1.000  N
  N33      1.0000 0.02072  0.14453  0.83921  Biso   1.000  N
  N34      1.0000 0.19930  0.98012  0.85092  Biso   1.000  N
  N35      1.0000 0.33085  0.30772  0.01299  Biso   1.000  N
  N36      1.0000 0.52677  0.15205  0.69690  Biso   1.000  N
  N37      1.0000 0.19951  0.45723  0.35242  Biso   1.000  N
  N38      1.0000 0.34400  0.15037  0.54013  Biso   1.000  N
  N39      1.0000 0.51734  0.29165  0.20134  Biso   1.000  N
  N40      1.0000 0.70491  0.46959  0.18938  Biso   1.000  N
  N41      1.0000 0.83269  0.14040  0.01618  Biso   1.000  N
  N42      1.0000 0.02322  0.30192  0.33830  Biso   1.000  N
  N43      1.0000 0.34129  0.97632  0.35170  Biso   1.000  N
  N44      1.0000 0.19806  0.65115  0.50609  Biso   1.000  N
  N45      1.0000 0.01217  0.80152  0.21387  Biso   1.000  N
  N46      1.0000 0.84581  0.97297  0.19935  Biso   1.000  N
  N47      1.0000 0.71206  0.64134  0.00717  Biso   1.000  N
  N48      1.0000 0.53276  0.78720  0.34570  Biso   1.000  N
  O1       1.0000 0.36711  0.52464  0.03381  Biso   1.000  O
  O2       1.0000 0.01405  0.31078  0.55933  Biso   1.000  O
  O3       1.0000 0.56202  0.95591  0.36458  Biso   1.000  O
  O4       1.0000 0.86635  0.50998  0.51838  Biso   1.000  O
  O5       1.0000 0.51427  0.32161  0.97954  Biso   1.000  O
  O6       1.0000 0.06168  0.98271  0.18410  Biso   1.000  O
  O7       1.0000 0.17646  0.02688  0.02203  Biso   1.000  O
  O8       1.0000 0.51745  0.81501  0.56088  Biso   1.000  O
  O9       1.0000 0.98550  0.46709  0.35931  Biso   1.000  O
  O10      1.0000 0.68017  0.00920  0.51728  Biso   1.000  O
  O11      1.0000 0.04023  0.82228  0.99352  Biso   1.000  O
  O12      1.0000 0.48438  0.45820  0.18005  Biso   1.000  O
  O13      1.0000 0.67633  0.42198  0.01067  Biso   1.000  O
  O14      1.0000 0.01067  0.62131  0.49297  Biso   1.000  O
  O15      1.0000 0.48647  0.96934  0.68031  Biso   1.000  O
  O16      1.0000 0.17315  0.43266  0.53479  Biso   1.000  O
  O17      1.0000 0.53260  0.62641  0.06395  Biso   1.000  O
  O18      1.0000 0.97606  0.96035  0.86691  Biso   1.000  O
  O19      1.0000 0.86916  0.92529  0.02783  Biso   1.000  O
  O20      1.0000 0.51423  0.12594  0.47624  Biso   1.000  O
  O21      1.0000 0.05651  0.46465  0.68234  Biso   1.000  O
  O22      1.0000 0.36665  0.93074  0.51952  Biso   1.000  O
  O23      1.0000 0.01118  0.13333  0.05670  Biso   1.000  O
  O24      1.0000 0.55940  0.48229  0.86389  Biso   1.000  O
  O25      1.0000 0.98031  0.97645  0.18280  Biso   1.000  O
  O26      1.0000 0.18511  0.94344  0.03106  Biso   1.000  O
  O27      1.0000 0.00781  0.13383  0.97053  Biso   1.000  O
  O28      1.0000 0.47763  0.95940  0.36852  Biso   1.000  O
  O29      1.0000 0.68158  0.92609  0.52192  Biso   1.000  O
  O30      1.0000 0.52064  0.12921  0.56117  Biso   1.000  O
  O31      1.0000 0.57011  0.47300  0.17054  Biso   1.000  O
  O32      1.0000 0.36073  0.44205  0.02653  Biso   1.000  O
  O33      1.0000 0.53918  0.63571  0.98111  Biso   1.000  O
  O34      1.0000 0.06737  0.48030  0.36973  Biso   1.000  O
  O35      1.0000 0.86517  0.42574  0.51692  Biso   1.000  O
  O36      1.0000 0.03384  0.62708  0.57511  Biso   1.000  O
  O37      1.0000 0.06303  0.96746  0.86701  Biso   1.000  O
  O38      1.0000 0.86082  0.00632  0.01595  Biso   1.000  O
  O39      1.0000 0.02423  0.82285  0.07866  Biso   1.000  O
  O40      1.0000 0.56842  0.98193  0.68130  Biso   1.000  O
  O41      1.0000 0.36472  0.01353  0.53740  Biso   1.000  O
  O42      1.0000 0.53557  0.81402  0.48043  Biso   1.000  O
  O43      1.0000 0.47584  0.47716  0.86907  Biso   1.000  O
  O44      1.0000 0.68237  0.50832  0.01382  Biso   1.000  O
  O45      1.0000 0.50630  0.31544  0.06839  Biso   1.000  O
  O46      1.0000 0.97250  0.46405  0.67666  Biso   1.000  O
  O47      1.0000 0.17648  0.51763  0.52104  Biso   1.000  O
  O48      1.0000 0.01955  0.31650  0.47286  Biso   1.000  O
  O49      1.0000 0.02395  0.93629  0.18240  Biso   1.000  O
  O50      1.0000 0.17838  0.98136  0.98486  Biso   1.000  O
  O51      1.0000 0.96931  0.12556  0.01662  Biso   1.000  O
  O52      1.0000 0.51510  0.91858  0.36073  Biso   1.000  O
  O53      1.0000 0.67656  0.97158  0.56253  Biso   1.000  O
  O54      1.0000 0.47569  0.12984  0.52271  Biso   1.000  O
  O55      1.0000 0.53568  0.42459  0.18213  Biso   1.000  O
  O56      1.0000 0.36271  0.48577  0.98758  Biso   1.000  O
  O57      1.0000 0.57755  0.62972  0.02630  Biso   1.000  O
  O58      1.0000 0.03071  0.43542  0.36562  Biso   1.000  O
  O59      1.0000 0.86598  0.46459  0.55696  Biso   1.000  O
  O60      1.0000 0.06403  0.63247  0.52414  Biso   1.000  O
  O61      1.0000 0.01186  0.00873  0.86672  Biso   1.000  O
  O62      1.0000 0.86334  0.96918  0.06437  Biso   1.000  O
  O63      1.0000 0.07630  0.82677  0.04188  Biso   1.000  O
  O64      1.0000 0.51754  0.01669  0.67984  Biso   1.000  O
  O65      1.0000 0.36485  0.98375  0.48824  Biso   1.000  O
  O66      1.0000 0.57083  0.81400  0.52767  Biso   1.000  O
  O67      1.0000 0.51768  0.52001  0.86727  Biso   1.000  O
  O68      1.0000 0.68070  0.46534  0.05454  Biso   1.000  O
  O69      1.0000 0.46542  0.31717  0.01984  Biso   1.000  O
  O70      1.0000 0.01643  0.50745  0.68264  Biso   1.000  O
  O71      1.0000 0.17446  0.46627  0.48634  Biso   1.000  O
  O72      1.0000 0.97680  0.31353  0.51411  Biso   1.000  O
  O73      1.0000 0.01290  0.42326  0.67857  Biso   1.000  O
  O74      1.0000 0.67409  0.96225  0.47913  Biso   1.000  O
  O75      1.0000 0.49017  0.63111  0.01593  Biso   1.000  O
  O76      1.0000 0.51851  0.43685  0.86581  Biso   1.000  O
  O77      1.0000 0.18109  0.99138  0.06844  Biso   1.000  O
  O78      1.0000 0.98360  0.62276  0.54658  Biso   1.000  O
  O79      1.0000 0.53145  0.93481  0.68030  Biso   1.000  O
  O80      1.0000 0.87083  0.47123  0.47381  Biso   1.000  O
  O81      1.0000 0.05418  0.13197  0.01264  Biso   1.000  O
  O82      1.0000 0.02184  0.92461  0.86851  Biso   1.000  O
  O83      1.0000 0.36681  0.48099  0.07169  Biso   1.000  O
  O84      1.0000 0.56029  0.12695  0.51498  Biso   1.000  O
  O85      1.0000 0.02113  0.51883  0.36633  Biso   1.000  O
  O86      1.0000 0.36603  0.96216  0.56951  Biso   1.000  O
  O87      1.0000 0.54971  0.31828  0.02706  Biso   1.000  O
  O88      1.0000 0.52044  0.50695  0.17347  Biso   1.000  O
  O89      1.0000 0.87012  0.95796  0.98133  Biso   1.000  O
  O90      1.0000 0.05941  0.31536  0.51793  Biso   1.000  O
  O91      1.0000 0.52149  0.00369  0.36454  Biso   1.000  O
  O92      1.0000 0.17466  0.48296  0.57052  Biso   1.000  O
  O93      1.0000 0.99465  0.82126  0.02917  Biso   1.000  O
  O94      1.0000 0.01710  0.01967  0.18110  Biso   1.000  O
  O95      1.0000 0.67858  0.46628  0.97139  Biso   1.000  O
  O96      1.0000 0.48536  0.81451  0.51338  Biso   1.000  O
  O97      1.0000 0.47898  0.17759  0.52196  Biso   1.000  O
  O98      1.0000 0.53960  0.42595  0.22984  Biso   1.000  O
  O99      1.0000 0.22247  0.46651  0.48737  Biso   1.000  O
  O100     1.0000 0.96710  0.17520  0.02299  Biso   1.000  O
  O101     1.0000 0.02820  0.43801  0.31643  Biso   1.000  O
  O102     1.0000 0.72856  0.45895  0.05323  Biso   1.000  O
  O103     1.0000 0.05922  0.67915  0.52538  Biso   1.000  O
  O104     1.0000 0.02990  0.93825  0.23028  Biso   1.000  O
  O105     1.0000 0.31694  0.97911  0.48920  Biso   1.000  O
  O106     1.0000 0.57766  0.67715  0.02640  Biso   1.000  O
  O107     1.0000 0.51635  0.91832  0.31227  Biso   1.000  O
  O108     1.0000 0.81404  0.96770  0.06425  Biso   1.000  O
  O109     1.0000 0.56781  0.76552  0.52693  Biso   1.000  O
  O110     1.0000 0.50950  0.52088  0.81864  Biso   1.000  O
  O111     1.0000 0.81781  0.46902  0.55589  Biso   1.000  O
  O112     1.0000 0.07762  0.77887  0.04124  Biso   1.000  O
  O113     1.0000 0.01249  0.50428  0.73099  Biso   1.000  O
  O114     1.0000 0.31343  0.48794  0.99080  Biso   1.000  O
  O115     1.0000 0.97774  0.26465  0.51067  Biso   1.000  O
  O116     1.0000 0.01784  0.00704  0.81928  Biso   1.000  O
  O117     1.0000 0.72678  0.97456  0.56376  Biso   1.000  O
  O118     1.0000 0.46363  0.26865  0.01575  Biso   1.000  O
  O119     1.0000 0.51891  0.01722  0.72855  Biso   1.000  O
  O120     1.0000 0.22824  0.98185  0.98384  Biso   1.000  O
  O121     1.0000 0.05335  0.46028  0.73050  Biso   1.000  O
  O122     1.0000 0.72896  0.01235  0.51621  Biso   1.000  O
  O123     1.0000 0.52687  0.67346  0.06700  Biso   1.000  O
  O124     1.0000 0.55762  0.48103  0.81614  Biso   1.000  O
  O125     1.0000 0.22479  0.03029  0.02061  Biso   1.000  O
  O126     1.0000 0.01178  0.67041  0.49682  Biso   1.000  O
  O127     1.0000 0.48466  0.96688  0.73054  Biso   1.000  O
  O128     1.0000 0.81685  0.51083  0.51661  Biso   1.000  O
  O129     1.0000 0.01233  0.18188  0.05546  Biso   1.000  O
  O130     1.0000 0.98128  0.96052  0.81754  Biso   1.000  O
  O131     1.0000 0.31913  0.52703  0.04218  Biso   1.000  O
  O132     1.0000 0.51626  0.17467  0.47608  Biso   1.000  O
  O133     1.0000 0.98674  0.47963  0.31295  Biso   1.000  O
  O134     1.0000 0.31854  0.93031  0.52544  Biso   1.000  O
  O135     1.0000 0.51019  0.27274  0.97854  Biso   1.000  O
  O136     1.0000 0.48553  0.45994  0.22812  Biso   1.000  O
  O137     1.0000 0.82128  0.92398  0.02488  Biso   1.000  O
  O138     1.0000 0.01993  0.26302  0.55740  Biso   1.000  O
  O139     1.0000 0.55873  0.95775  0.31566  Biso   1.000  O
  O140     1.0000 0.22130  0.43500  0.53538  Biso   1.000  O
  O141     1.0000 0.04093  0.77463  0.99521  Biso   1.000  O
  O142     1.0000 0.06266  0.99053  0.23106  Biso   1.000  O
  O143     1.0000 0.72459  0.41818  0.00674  Biso   1.000  O
  O144     1.0000 0.52530  0.76740  0.56479  Biso   1.000  O
  O145     1.0000 0.56697  0.47872  0.22001  Biso   1.000  O
  O146     1.0000 0.22404  0.51791  0.52304  Biso   1.000  O
  O147     1.0000 0.52105  0.17889  0.56147  Biso   1.000  O
  O148     1.0000 0.06770  0.47815  0.32156  Biso   1.000  O
  O149     1.0000 0.73191  0.50270  0.00950  Biso   1.000  O
  O150     1.0000 0.00090  0.18246  0.97052  Biso   1.000  O
  O151     1.0000 0.98205  0.97593  0.23118  Biso   1.000  O
  O152     1.0000 0.31597  0.01106  0.54240  Biso   1.000  O
  O153     1.0000 0.02997  0.67574  0.57728  Biso   1.000  O
  O154     1.0000 0.47441  0.95811  0.32021  Biso   1.000  O
  O155     1.0000 0.81312  0.00351  0.01341  Biso   1.000  O
  O156     1.0000 0.53926  0.68258  0.98409  Biso   1.000  O
  O157     1.0000 0.47211  0.48263  0.82078  Biso   1.000  O
  O158     1.0000 0.81616  0.42718  0.51143  Biso   1.000  O
  O159     1.0000 0.52994  0.76637  0.48294  Biso   1.000  O
  O160     1.0000 0.97000  0.46587  0.72475  Biso   1.000  O
  O161     1.0000 0.31262  0.44298  0.03152  Biso   1.000  O
  O162     1.0000 0.03406  0.77619  0.07669  Biso   1.000  O
  O163     1.0000 0.06559  0.96935  0.81860  Biso   1.000  O
  O164     1.0000 0.72969  0.92981  0.52766  Biso   1.000  O
  O165     1.0000 0.02349  0.26813  0.47249  Biso   1.000  O
  O166     1.0000 0.56616  0.98030  0.73299  Biso   1.000  O
  O167     1.0000 0.23471  0.94620  0.03112  Biso   1.000  O
  O168     1.0000 0.50075  0.26677  0.06417  Biso   1.000  O
  O169     1.0000 0.01281  0.02253  0.23004  Biso   1.000  O
  O170     1.0000 0.22852  0.99312  0.06681  Biso   1.000  O
  O171     1.0000 0.05008  0.18013  0.01060  Biso   1.000  O
  O172     1.0000 0.52210  0.00360  0.31548  Biso   1.000  O
  O173     1.0000 0.72266  0.96583  0.47886  Biso   1.000  O
  O174     1.0000 0.56230  0.17482  0.51438  Biso   1.000  O
  O175     1.0000 0.51892  0.50761  0.22161  Biso   1.000  O
  O176     1.0000 0.31835  0.47929  0.07362  Biso   1.000  O
  O177     1.0000 0.49287  0.68020  0.02273  Biso   1.000  O
  O178     1.0000 0.02924  0.52397  0.31863  Biso   1.000  O
  O179     1.0000 0.82249  0.47191  0.47336  Biso   1.000  O
  O180     1.0000 0.97857  0.66973  0.54978  Biso   1.000  O
  O181     1.0000 0.02422  0.92255  0.81925  Biso   1.000  O
  O182     1.0000 0.82035  0.95325  0.97975  Biso   1.000  O
  O183     1.0000 0.99632  0.77356  0.03762  Biso   1.000  O
  O184     1.0000 0.53064  0.93367  0.72910  Biso   1.000  O
  O185     1.0000 0.31805  0.95970  0.57015  Biso   1.000  O
  O186     1.0000 0.48365  0.76710  0.52094  Biso   1.000  O
  O187     1.0000 0.51409  0.43844  0.81785  Biso   1.000  O
  O188     1.0000 0.72607  0.46053  0.96762  Biso   1.000  O
  O189     1.0000 0.54778  0.26910  0.02637  Biso   1.000  O
  O190     1.0000 0.00641  0.42296  0.72718  Biso   1.000  O
  O191     1.0000 0.22448  0.48306  0.56941  Biso   1.000  O
  O192     1.0000 0.06121  0.26811  0.51631  Biso   1.000  O
