data_image0
_cell_length_a       46.8753
_cell_length_b       47.1294
_cell_length_c       46.6181
_cell_angle_alpha    90
_cell_angle_beta     90
_cell_angle_gamma    90

_symmetry_space_group_name_H-M    "P 1"
_symmetry_int_tables_number       1

loop_
  _symmetry_equiv_pos_as_xyz
  'x, y, z'

loop_
  _atom_site_label
  _atom_site_occupancy
  _atom_site_fract_x
  _atom_site_fract_y
  _atom_site_fract_z
  _atom_site_thermal_displace_type
  _atom_site_B_iso_or_equiv
  _atom_site_type_symbol
  C1       1.0000 0.53485  0.99700  0.32812  Biso   1.000  C
  C2       1.0000 0.30060  0.54156  0.02010  Biso   1.000  C
  C3       1.0000 0.99321  0.31450  0.56446  Biso   1.000  C
  C4       1.0000 0.03253  0.99658  0.20054  Biso   1.000  C
  C5       1.0000 0.80068  0.54095  0.51179  Biso   1.000  C
  C6       1.0000 0.49677  0.31476  0.96644  Biso   1.000  C
  C7       1.0000 0.93537  0.51408  0.33218  Biso   1.000  C
  C8       1.0000 0.17049  0.04139  0.03163  Biso   1.000  C
  C9       1.0000 0.47831  0.81814  0.57220  Biso   1.000  C
  C10      1.0000 0.43709  0.49539  0.20597  Biso   1.000  C
  C11      1.0000 0.66200  0.04642  0.50951  Biso   1.000  C
  C12      1.0000 0.97293  0.82049  0.96520  Biso   1.000  C
  C13      1.0000 0.43262  0.99449  0.69982  Biso   1.000  C
  C14      1.0000 0.67037  0.45169  0.01407  Biso   1.000  C
  C15      1.0000 0.98163  0.68085  0.46548  Biso   1.000  C
  C16      1.0000 0.93428  0.98782  0.82964  Biso   1.000  C
  C17      1.0000 0.16656  0.44720  0.51448  Biso   1.000  C
  C18      1.0000 0.46475  0.67685  0.07139  Biso   1.000  C
  C19      1.0000 0.03428  0.49169  0.69730  Biso   1.000  C
  C20      1.0000 0.79746  0.95318  0.00874  Biso   1.000  C
  C21      1.0000 0.48864  0.17057  0.46001  Biso   1.000  C
  C22      1.0000 0.52903  0.49371  0.83803  Biso   1.000  C
  C23      1.0000 0.30347  0.94326  0.52008  Biso   1.000  C
  C24      1.0000 0.98836  0.17556  0.06787  Biso   1.000  C
  C25      1.0000 0.30140  0.04918  0.53340  Biso   1.000  C
  C26      1.0000 0.50374  0.31644  0.07316  Biso   1.000  C
  C27      1.0000 0.03907  0.49045  0.33431  Biso   1.000  C
  C28      1.0000 0.80643  0.06035  0.99541  Biso   1.000  C
  C29      1.0000 0.97884  0.31637  0.45590  Biso   1.000  C
  C30      1.0000 0.54839  0.49200  0.19408  Biso   1.000  C
  C31      1.0000 0.16299  0.55593  0.52158  Biso   1.000  C
  C32      1.0000 0.97079  0.81566  0.07368  Biso   1.000  C
  C33      1.0000 0.42542  0.98887  0.34097  Biso   1.000  C
  C34      1.0000 0.65741  0.56038  0.00512  Biso   1.000  C
  C35      1.0000 0.47722  0.80997  0.46488  Biso   1.000  C
  C36      1.0000 0.92371  0.00013  0.19256  Biso   1.000  C
  C37      1.0000 0.66003  0.93738  0.50925  Biso   1.000  C
  C38      1.0000 0.48885  0.67328  0.96515  Biso   1.000  C
  C39      1.0000 0.92832  0.50547  0.69162  Biso   1.000  C
  C40      1.0000 0.16001  0.93311  0.02002  Biso   1.000  C
  C41      1.0000 0.97321  0.67729  0.57518  Biso   1.000  C
  C42      1.0000 0.42279  0.50590  0.83596  Biso   1.000  C
  C43      1.0000 0.80500  0.43456  0.50792  Biso   1.000  C
  C44      1.0000 0.00017  0.17868  0.96156  Biso   1.000  C
  C45      1.0000 0.53938  0.00476  0.69329  Biso   1.000  C
  C46      1.0000 0.31229  0.43307  0.02009  Biso   1.000  C
  C47      1.0000 0.48247  0.17953  0.56757  Biso   1.000  C
  C48      1.0000 0.04239  0.00462  0.83808  Biso   1.000  C
  C49      1.0000 0.98084  0.05269  0.83857  Biso   1.000  C
  C50      1.0000 0.80284  0.01432  0.05649  Biso   1.000  C
  C51      1.0000 0.02641  0.81652  0.01575  Biso   1.000  C
  C52      1.0000 0.48613  0.05351  0.69832  Biso   1.000  C
  C53      1.0000 0.30034  0.00915  0.47058  Biso   1.000  C
  C54      1.0000 0.52898  0.81507  0.51907  Biso   1.000  C
  C55      1.0000 0.48121  0.55031  0.83826  Biso   1.000  C
  C56      1.0000 0.66836  0.50968  0.06253  Biso   1.000  C
  C57      1.0000 0.44452  0.31362  0.02587  Biso   1.000  C
  C58      1.0000 0.98306  0.55064  0.69655  Biso   1.000  C
  C59      1.0000 0.16177  0.50287  0.46456  Biso   1.000  C
  C60      1.0000 0.93327  0.30892  0.52085  Biso   1.000  C
  C61      1.0000 0.97490  0.94347  0.20178  Biso   1.000  C
  C62      1.0000 0.16646  0.99231  0.96975  Biso   1.000  C
  C63      1.0000 0.94139  0.17645  0.00597  Biso   1.000  C
  C64      1.0000 0.48210  0.93574  0.33542  Biso   1.000  C
  C65      1.0000 0.66139  0.99355  0.56350  Biso   1.000  C
  C66      1.0000 0.42916  0.17253  0.51561  Biso   1.000  C
  C67      1.0000 0.49151  0.44188  0.20101  Biso   1.000  C
  C68      1.0000 0.30417  0.49265  0.96642  Biso   1.000  C
  C69      1.0000 0.52494  0.67771  0.02896  Biso   1.000  C
  C70      1.0000 0.97175  0.44529  0.32983  Biso   1.000  C
  C71      1.0000 0.80438  0.48429  0.56458  Biso   1.000  C
  C72      1.0000 0.02955  0.67926  0.52666  Biso   1.000  C
  C73      1.0000 0.99840  0.55250  0.33654  Biso   1.000  C
  C74      1.0000 0.30008  0.99190  0.57813  Biso   1.000  C
  C75      1.0000 0.55295  0.32017  0.01079  Biso   1.000  C
  C76      1.0000 0.48940  0.54947  0.19897  Biso   1.000  C
  C77      1.0000 0.80642  0.00418  0.94981  Biso   1.000  C
  C78      1.0000 0.04022  0.31687  0.49945  Biso   1.000  C
  C79      1.0000 0.47965  0.04452  0.33579  Biso   1.000  C
  C80      1.0000 0.16348  0.49606  0.57410  Biso   1.000  C
  C81      1.0000 0.91857  0.82124  0.01664  Biso   1.000  C
  C82      1.0000 0.97893  0.05279  0.20018  Biso   1.000  C
  C83      1.0000 0.66578  0.49827  0.95311  Biso   1.000  C
  C84      1.0000 0.42368  0.81483  0.51629  Biso   1.000  C
  C85      1.0000 0.97646  0.44337  0.68688  Biso   1.000  C
  C86      1.0000 0.66169  0.99163  0.45441  Biso   1.000  C
  C87      1.0000 0.42055  0.66794  0.00532  Biso   1.000  C
  C88      1.0000 0.46943  0.44231  0.83798  Biso   1.000  C
  C89      1.0000 0.16682  0.98277  0.07971  Biso   1.000  C
  C90      1.0000 0.92080  0.67159  0.51706  Biso   1.000  C
  C91      1.0000 0.49065  0.94384  0.69803  Biso   1.000  C
  C92      1.0000 0.80539  0.49128  0.45596  Biso   1.000  C
  C93      1.0000 0.04944  0.17170  0.02127  Biso   1.000  C
  C94      1.0000 0.99872  0.94572  0.83682  Biso   1.000  C
  C95      1.0000 0.31224  0.48430  0.07588  Biso   1.000  C
  C96      1.0000 0.53886  0.17748  0.51440  Biso   1.000  C
  C97      1.0000 0.66355  0.07839  0.50616  Biso   1.000  C
  C98      1.0000 0.46807  0.67651  0.10342  Biso   1.000  C
  C99      1.0000 0.06566  0.48384  0.69828  Biso   1.000  C
  C100     1.0000 0.17353  0.07290  0.03146  Biso   1.000  C
  C101     1.0000 0.99050  0.68108  0.43353  Biso   1.000  C
  C102     1.0000 0.56228  0.49330  0.83480  Biso   1.000  C
  C103     1.0000 0.79892  0.57227  0.51491  Biso   1.000  C
  C104     1.0000 0.98967  0.17727  0.10058  Biso   1.000  C
  C105     1.0000 0.40075  0.98721  0.70019  Biso   1.000  C
  C106     1.0000 0.29544  0.57215  0.01108  Biso   1.000  C
  C107     1.0000 0.49449  0.16910  0.42775  Biso   1.000  C
  C108     1.0000 0.90220  0.98325  0.82765  Biso   1.000  C
  C109     1.0000 0.30372  0.91269  0.52120  Biso   1.000  C
  C110     1.0000 0.49664  0.31550  0.93526  Biso   1.000  C
  C111     1.0000 0.90241  0.51976  0.33234  Biso   1.000  C
  C112     1.0000 0.79587  0.92129  0.01110  Biso   1.000  C
  C113     1.0000 0.99658  0.31488  0.59710  Biso   1.000  C
  C114     1.0000 0.40562  0.49276  0.20620  Biso   1.000  C
  C115     1.0000 0.16491  0.41410  0.51665  Biso   1.000  C
  C116     1.0000 0.97542  0.82015  0.93360  Biso   1.000  C
  C117     1.0000 0.56719  0.99902  0.32705  Biso   1.000  C
  C118     1.0000 0.67491  0.41958  0.01245  Biso   1.000  C
  C119     1.0000 0.48103  0.81799  0.60403  Biso   1.000  C
  C120     1.0000 0.06328  0.99402  0.20373  Biso   1.000  C
  C121     1.0000 0.80068  0.01510  0.09048  Biso   1.000  C
  C122     1.0000 0.05809  0.81557  0.00956  Biso   1.000  C
  C123     1.0000 0.98486  0.08443  0.83689  Biso   1.000  C
  C124     1.0000 0.29913  0.01258  0.43854  Biso   1.000  C
  C125     1.0000 0.56055  0.81158  0.51770  Biso   1.000  C
  C126     1.0000 0.49055  0.08676  0.69726  Biso   1.000  C
  C127     1.0000 0.66971  0.51143  0.09331  Biso   1.000  C
  C128     1.0000 0.41121  0.31026  0.02536  Biso   1.000  C
  C129     1.0000 0.48815  0.58129  0.83692  Biso   1.000  C
  C130     1.0000 0.16358  0.49925  0.43283  Biso   1.000  C
  C131     1.0000 0.90172  0.30823  0.51671  Biso   1.000  C
  C132     1.0000 0.98179  0.58393  0.69940  Biso   1.000  C
  C133     1.0000 0.16856  0.99130  0.93734  Biso   1.000  C
  C134     1.0000 0.90982  0.17750  0.99869  Biso   1.000  C
  C135     1.0000 0.97327  0.91123  0.20009  Biso   1.000  C
  C136     1.0000 0.66509  0.99541  0.59455  Biso   1.000  C
  C137     1.0000 0.39600  0.17178  0.52244  Biso   1.000  C
  C138     1.0000 0.48352  0.90303  0.33677  Biso   1.000  C
  C139     1.0000 0.30115  0.49676  0.93489  Biso   1.000  C
  C140     1.0000 0.55561  0.67756  0.03456  Biso   1.000  C
  C141     1.0000 0.49115  0.40940  0.20101  Biso   1.000  C
  C142     1.0000 0.80365  0.48438  0.59615  Biso   1.000  C
  C143     1.0000 0.06157  0.68037  0.52761  Biso   1.000  C
  C144     1.0000 0.96805  0.41191  0.33010  Biso   1.000  C
  C145     1.0000 0.31133  0.48468  0.10899  Biso   1.000  C
  C146     1.0000 0.07316  0.31907  0.49969  Biso   1.000  C
  C147     1.0000 0.48559  0.07570  0.33275  Biso   1.000  C
  C148     1.0000 0.80601  0.49668  0.42350  Biso   1.000  C
  C149     1.0000 0.58513  0.32111  0.00523  Biso   1.000  C
  C150     1.0000 0.97821  0.08517  0.19868  Biso   1.000  C
  C151     1.0000 0.16395  0.98295  0.11150  Biso   1.000  C
  C152     1.0000 0.39168  0.81632  0.51250  Biso   1.000  C
  C153     1.0000 0.00011  0.58509  0.33736  Biso   1.000  C
  C154     1.0000 0.66280  0.99651  0.42260  Biso   1.000  C
  C155     1.0000 0.88615  0.82061  0.01284  Biso   1.000  C
  C156     1.0000 0.48626  0.58215  0.19805  Biso   1.000  C
  C157     1.0000 0.66312  0.49652  0.92171  Biso   1.000  C
  C158     1.0000 0.88845  0.67112  0.51582  Biso   1.000  C
  C159     1.0000 0.49413  0.91150  0.69790  Biso   1.000  C
  C160     1.0000 0.16466  0.49463  0.60554  Biso   1.000  C
  C161     1.0000 0.38994  0.66819  0.00147  Biso   1.000  C
  C162     1.0000 0.00020  0.91413  0.83738  Biso   1.000  C
  C163     1.0000 0.80713  0.00567  0.91856  Biso   1.000  C
  C164     1.0000 0.57124  0.17726  0.51582  Biso   1.000  C
  C165     1.0000 0.97502  0.41174  0.68642  Biso   1.000  C
  C166     1.0000 0.30050  0.98907  0.61016  Biso   1.000  C
  C167     1.0000 0.08090  0.16956  0.02659  Biso   1.000  C
  C168     1.0000 0.47174  0.41119  0.84017  Biso   1.000  C
  C169     1.0000 0.96782  0.81605  0.10568  Biso   1.000  C
  C170     1.0000 0.07453  0.99796  0.83974  Biso   1.000  C
  C171     1.0000 0.80880  0.09141  0.99136  Biso   1.000  C
  C172     1.0000 0.47886  0.80942  0.43331  Biso   1.000  C
  C173     1.0000 0.57116  0.00752  0.69125  Biso   1.000  C
  C174     1.0000 0.30094  0.08042  0.54073  Biso   1.000  C
  C175     1.0000 0.50160  0.31658  0.10453  Biso   1.000  C
  C176     1.0000 0.39143  0.51386  0.83638  Biso   1.000  C
  C177     1.0000 0.65454  0.59258  0.00797  Biso   1.000  C
  C178     1.0000 0.97838  0.31773  0.42378  Biso   1.000  C
  C179     1.0000 0.89659  0.50469  0.69199  Biso   1.000  C
  C180     1.0000 0.16227  0.58704  0.52304  Biso   1.000  C
  C181     1.0000 0.00190  0.17877  0.92914  Biso   1.000  C
  C182     1.0000 0.89161  0.00255  0.18896  Biso   1.000  C
  C183     1.0000 0.15929  0.90050  0.01441  Biso   1.000  C
  C184     1.0000 0.48115  0.18113  0.60012  Biso   1.000  C
  C185     1.0000 0.39260  0.99296  0.34235  Biso   1.000  C
  C186     1.0000 0.65859  0.90560  0.50670  Biso   1.000  C
  C187     1.0000 0.49580  0.67236  0.93354  Biso   1.000  C
  C188     1.0000 0.58067  0.48718  0.19454  Biso   1.000  C
  C189     1.0000 0.31244  0.40102  0.02440  Biso   1.000  C
  C190     1.0000 0.97681  0.67867  0.60757  Biso   1.000  C
  C191     1.0000 0.07182  0.48347  0.33575  Biso   1.000  C
  C192     1.0000 0.80566  0.40248  0.50646  Biso   1.000  C
  C193     1.0000 0.83475  0.00210  0.90376  Biso   1.000  C
  C194     1.0000 0.87132  0.84853  0.00937  Biso   1.000  C
  C195     1.0000 0.99678  0.89709  0.86495  Biso   1.000  C
  C196     1.0000 0.32871  0.98895  0.62477  Biso   1.000  C
  C197     1.0000 0.37693  0.84413  0.51289  Biso   1.000  C
  C198     1.0000 0.48868  0.89563  0.67125  Biso   1.000  C
  C199     1.0000 0.63440  0.50076  0.90798  Biso   1.000  C
  C200     1.0000 0.60123  0.34819  0.01162  Biso   1.000  C
  C201     1.0000 0.47766  0.39591  0.86600  Biso   1.000  C
  C202     1.0000 0.13757  0.49205  0.62028  Biso   1.000  C
  C203     1.0000 0.08816  0.34672  0.50208  Biso   1.000  C
  C204     1.0000 0.98139  0.39466  0.66218  Biso   1.000  C
  C205     1.0000 0.13537  0.98405  0.12725  Biso   1.000  C
  C206     1.0000 0.09593  0.14227  0.02582  Biso   1.000  C
  C207     1.0000 0.98074  0.10047  0.17067  Biso   1.000  C
  C208     1.0000 0.63472  0.99971  0.40818  Biso   1.000  C
  C209     1.0000 0.58540  0.14926  0.51461  Biso   1.000  C
  C210     1.0000 0.49322  0.09018  0.35821  Biso   1.000  C
  C211     1.0000 0.33891  0.48466  0.12549  Biso   1.000  C
  C212     1.0000 0.37362  0.64076  0.00300  Biso   1.000  C
  C213     1.0000 0.48231  0.59776  0.17086  Biso   1.000  C
  C214     1.0000 0.83324  0.50003  0.40782  Biso   1.000  C
  C215     1.0000 0.87233  0.64494  0.51907  Biso   1.000  C
  C216     1.0000 0.99973  0.60046  0.36621  Biso   1.000  C
  C217     1.0000 0.09032  0.99901  0.86747  Biso   1.000  C
  C218     1.0000 0.83763  0.10460  0.99348  Biso   1.000  C
  C219     1.0000 0.96797  0.84273  0.12221  Biso   1.000  C
  C220     1.0000 0.58598  0.00304  0.66323  Biso   1.000  C
  C221     1.0000 0.32790  0.09684  0.53656  Biso   1.000  C
  C222     1.0000 0.47900  0.83557  0.41615  Biso   1.000  C
  C223     1.0000 0.37743  0.51576  0.86443  Biso   1.000  C
  C224     1.0000 0.62696  0.60492  0.01504  Biso   1.000  C
  C225     1.0000 0.49631  0.34411  0.12032  Biso   1.000  C
  C226     1.0000 0.88011  0.49813  0.66527  Biso   1.000  C
  C227     1.0000 0.13442  0.60268  0.52281  Biso   1.000  C
  C228     1.0000 0.97595  0.34561  0.40856  Biso   1.000  C
  C229     1.0000 0.87736  0.00773  0.16062  Biso   1.000  C
  C230     1.0000 0.13063  0.88753  0.01059  Biso   1.000  C
  C231     1.0000 0.99579  0.15263  0.91375  Biso   1.000  C
  C232     1.0000 0.37747  0.00036  0.36857  Biso   1.000  C
  C233     1.0000 0.63026  0.88940  0.50969  Biso   1.000  C
  C234     1.0000 0.47954  0.15432  0.61700  Biso   1.000  C
  C235     1.0000 0.59451  0.48907  0.16698  Biso   1.000  C
  C236     1.0000 0.33964  0.38547  0.02740  Biso   1.000  C
  C237     1.0000 0.49369  0.64559  0.91738  Biso   1.000  C
  C238     1.0000 0.08597  0.48766  0.36348  Biso   1.000  C
  C239     1.0000 0.83266  0.38733  0.50986  Biso   1.000  C
  C240     1.0000 0.97866  0.65056  0.62244  Biso   1.000  C
  C241     1.0000 0.57956  0.49512  0.85986  Biso   1.000  C
  C242     1.0000 0.82499  0.59093  0.51648  Biso   1.000  C
  C243     1.0000 0.48409  0.84468  0.61967  Biso   1.000  C
  C244     1.0000 0.08168  0.48568  0.67171  Biso   1.000  C
  C245     1.0000 0.32274  0.58954  0.00763  Biso   1.000  C
  C246     1.0000 0.98155  0.84671  0.91675  Biso   1.000  C
  C247     1.0000 0.88550  0.98694  0.85409  Biso   1.000  C
  C248     1.0000 0.63695  0.09402  0.50944  Biso   1.000  C
  C249     1.0000 0.99248  0.34203  0.61230  Biso   1.000  C
  C250     1.0000 0.38351  0.98482  0.67428  Biso   1.000  C
  C251     1.0000 0.14635  0.08840  0.02943  Biso   1.000  C
  C252     1.0000 0.49035  0.34291  0.91907  Biso   1.000  C
  C253     1.0000 0.39036  0.49194  0.17786  Biso   1.000  C
  C254     1.0000 0.13846  0.39776  0.51569  Biso   1.000  C
  C255     1.0000 0.49613  0.14178  0.41282  Biso   1.000  C
  C256     1.0000 0.88516  0.51151  0.35858  Biso   1.000  C
  C257     1.0000 0.64969  0.40020  0.01391  Biso   1.000  C
  C258     1.0000 0.98810  0.15030  0.11650  Biso   1.000  C
  C259     1.0000 0.08116  0.99059  0.17864  Biso   1.000  C
  C260     1.0000 0.32974  0.89619  0.51841  Biso   1.000  C
  C261     1.0000 0.99145  0.65408  0.41756  Biso   1.000  C
  C262     1.0000 0.58227  0.99936  0.35465  Biso   1.000  C
  C263     1.0000 0.82203  0.90358  0.00808  Biso   1.000  C
  C264     1.0000 0.47364  0.64964  0.11854  Biso   1.000  C
  C265     1.0000 0.99108  0.10119  0.86240  Biso   1.000  C
  C266     1.0000 0.82771  0.01227  0.10788  Biso   1.000  C
  C267     1.0000 0.07562  0.84106  0.00906  Biso   1.000  C
  C268     1.0000 0.48416  0.10249  0.67086  Biso   1.000  C
  C269     1.0000 0.32546  0.00773  0.42053  Biso   1.000  C
  C270     1.0000 0.57691  0.83837  0.51592  Biso   1.000  C
  C271     1.0000 0.49043  0.59552  0.86499  Biso   1.000  C
  C272     1.0000 0.64368  0.50386  0.11056  Biso   1.000  C
  C273     1.0000 0.39359  0.33649  0.02799  Biso   1.000  C
  C274     1.0000 0.98462  0.60074  0.67228  Biso   1.000  C
  C275     1.0000 0.13702  0.49592  0.41579  Biso   1.000  C
  C276     1.0000 0.88535  0.33551  0.51232  Biso   1.000  C
  C277     1.0000 0.97220  0.89532  0.17332  Biso   1.000  C
  C278     1.0000 0.14209  0.99820  0.92074  Biso   1.000  C
  C279     1.0000 0.89288  0.15152  0.99805  Biso   1.000  C
  C280     1.0000 0.47899  0.88847  0.36337  Biso   1.000  C
  C281     1.0000 0.63751  0.99884  0.61081  Biso   1.000  C
  C282     1.0000 0.37978  0.14420  0.52644  Biso   1.000  C
  C283     1.0000 0.49276  0.39478  0.17324  Biso   1.000  C
  C284     1.0000 0.32659  0.50181  0.91720  Biso   1.000  C
  C285     1.0000 0.57154  0.65165  0.02966  Biso   1.000  C
  C286     1.0000 0.96673  0.39732  0.35775  Biso   1.000  C
  C287     1.0000 0.83078  0.48857  0.61208  Biso   1.000  C
  C288     1.0000 0.07863  0.65345  0.52563  Biso   1.000  C
  C289     1.0000 0.32637  0.86489  0.51632  Biso   1.000  C
  C290     1.0000 0.48739  0.34318  0.88720  Biso   1.000  C
  C291     1.0000 0.85444  0.51274  0.35640  Biso   1.000  C
  C292     1.0000 0.82011  0.87153  0.00807  Biso   1.000  C
  C293     1.0000 0.98815  0.34108  0.64313  Biso   1.000  C
  C294     1.0000 0.35818  0.48533  0.17918  Biso   1.000  C
  C295     1.0000 0.14094  0.36671  0.51371  Biso   1.000  C
  C296     1.0000 0.98437  0.84412  0.88465  Biso   1.000  C
  C297     1.0000 0.61350  0.00430  0.35649  Biso   1.000  C
  C298     1.0000 0.65382  0.36949  0.00860  Biso   1.000  C
  C299     1.0000 0.48515  0.84236  0.65064  Biso   1.000  C
  C300     1.0000 0.11260  0.99074  0.17918  Biso   1.000  C
  C301     1.0000 0.63694  0.12564  0.50780  Biso   1.000  C
  C302     1.0000 0.47464  0.65030  0.15021  Biso   1.000  C
  C303     1.0000 0.11303  0.48532  0.67327  Biso   1.000  C
  C304     1.0000 0.14720  0.12032  0.02999  Biso   1.000  C
  C305     1.0000 0.99700  0.65456  0.38623  Biso   1.000  C
  C306     1.0000 0.61087  0.49496  0.85711  Biso   1.000  C
  C307     1.0000 0.82081  0.62218  0.51872  Biso   1.000  C
  C308     1.0000 0.98318  0.15277  0.14801  Biso   1.000  C
  C309     1.0000 0.35261  0.98149  0.67522  Biso   1.000  C
  C310     1.0000 0.32145  0.62069  0.00767  Biso   1.000  C
  C311     1.0000 0.49371  0.14253  0.38071  Biso   1.000  C
  C312     1.0000 0.85522  0.99142  0.85321  Biso   1.000  C
  C313     1.0000 0.13902  0.49126  0.38529  Biso   1.000  C
  C314     1.0000 0.34824  0.14636  0.52619  Biso   1.000  C
  C315     1.0000 0.49524  0.36331  0.17248  Biso   1.000  C
  C316     1.0000 0.64445  0.50168  0.14264  Biso   1.000  C
  C317     1.0000 0.86260  0.15469  0.99697  Biso   1.000  C
  C318     1.0000 0.97178  0.36612  0.35672  Biso   1.000  C
  C319     1.0000 0.32312  0.00247  0.38939  Biso   1.000  C
  C320     1.0000 0.10967  0.65467  0.52401  Biso   1.000  C
  C321     1.0000 0.97291  0.86389  0.17460  Biso   1.000  C
  C322     1.0000 0.82486  0.01142  0.13834  Biso   1.000  C
  C323     1.0000 0.60316  0.65373  0.02978  Biso   1.000  C
  C324     1.0000 0.47893  0.85617  0.36345  Biso   1.000  C
  C325     1.0000 0.82659  0.49458  0.64375  Biso   1.000  C
  C326     1.0000 0.60798  0.83688  0.51154  Biso   1.000  C
  C327     1.0000 0.49505  0.62606  0.86620  Biso   1.000  C
  C328     1.0000 0.32533  0.50178  0.88661  Biso   1.000  C
  C329     1.0000 0.10669  0.83707  0.00863  Biso   1.000  C
  C330     1.0000 0.98425  0.63068  0.67619  Biso   1.000  C
  C331     1.0000 0.63905  0.99901  0.64171  Biso   1.000  C
  C332     1.0000 0.85418  0.33366  0.50854  Biso   1.000  C
  C333     1.0000 0.98843  0.13295  0.86030  Biso   1.000  C
  C334     1.0000 0.14272  0.99690  0.88821  Biso   1.000  C
  C335     1.0000 0.36228  0.33322  0.02333  Biso   1.000  C
  C336     1.0000 0.48677  0.13416  0.66960  Biso   1.000  C
  C337     1.0000 0.63370  0.49833  0.87698  Biso   1.000  C
  C338     1.0000 0.84101  0.64542  0.51939  Biso   1.000  C
  C339     1.0000 0.48801  0.86431  0.67196  Biso   1.000  C
  C340     1.0000 0.13657  0.48853  0.65285  Biso   1.000  C
  C341     1.0000 0.34223  0.64249  0.00467  Biso   1.000  C
  C342     1.0000 0.98935  0.86648  0.86336  Biso   1.000  C
  C343     1.0000 0.83283  0.99553  0.87389  Biso   1.000  C
  C344     1.0000 0.61671  0.14883  0.50755  Biso   1.000  C
  C345     1.0000 0.98359  0.36326  0.66399  Biso   1.000  C
  C346     1.0000 0.32997  0.98284  0.65461  Biso   1.000  C
  C347     1.0000 0.12685  0.14189  0.02808  Biso   1.000  C
  C348     1.0000 0.48468  0.36539  0.86540  Biso   1.000  C
  C349     1.0000 0.33761  0.48330  0.15715  Biso   1.000  C
  C350     1.0000 0.11932  0.34609  0.50834  Biso   1.000  C
  C351     1.0000 0.49338  0.12113  0.35963  Biso   1.000  C
  C352     1.0000 0.83176  0.50721  0.37772  Biso   1.000  C
  C353     1.0000 0.63260  0.34825  0.00604  Biso   1.000  C
  C354     1.0000 0.97937  0.13128  0.16939  Biso   1.000  C
  C355     1.0000 0.13542  0.98578  0.15845  Biso   1.000  C
  C356     1.0000 0.34607  0.84293  0.51387  Biso   1.000  C
  C357     1.0000 0.00256  0.63210  0.36521  Biso   1.000  C
  C358     1.0000 0.63544  0.00496  0.37751  Biso   1.000  C
  C359     1.0000 0.84013  0.84838  0.00909  Biso   1.000  C
  C360     1.0000 0.47991  0.62852  0.17133  Biso   1.000  C
  C361     1.0000 0.99215  0.15390  0.88178  Biso   1.000  C
  C362     1.0000 0.84474  0.00854  0.16105  Biso   1.000  C
  C363     1.0000 0.12973  0.85671  0.00808  Biso   1.000  C
  C364     1.0000 0.48399  0.15511  0.64803  Biso   1.000  C
  C365     1.0000 0.34390  0.00087  0.36753  Biso   1.000  C
  C366     1.0000 0.63011  0.85829  0.50944  Biso   1.000  C
  C367     1.0000 0.49783  0.64744  0.88690  Biso   1.000  C
  C368     1.0000 0.62501  0.49479  0.16507  Biso   1.000  C
  C369     1.0000 0.33986  0.35350  0.02506  Biso   1.000  C
  C370     1.0000 0.98180  0.65192  0.65407  Biso   1.000  C
  C371     1.0000 0.11811  0.48665  0.36424  Biso   1.000  C
  C372     1.0000 0.83298  0.35560  0.50831  Biso   1.000  C
  C373     1.0000 0.97278  0.84157  0.15327  Biso   1.000  C
  C374     1.0000 0.12158  0.99667  0.86616  Biso   1.000  C
  C375     1.0000 0.83896  0.13573  0.99367  Biso   1.000  C
  C376     1.0000 0.47887  0.83429  0.38438  Biso   1.000  C
  C377     1.0000 0.61777  0.00205  0.66340  Biso   1.000  C
  C378     1.0000 0.32544  0.12667  0.52996  Biso   1.000  C
  C379     1.0000 0.49561  0.34231  0.15161  Biso   1.000  C
  C380     1.0000 0.34653  0.50671  0.86415  Biso   1.000  C
  C381     1.0000 0.62662  0.63537  0.02307  Biso   1.000  C
  C382     1.0000 0.97307  0.34343  0.37794  Biso   1.000  C
  C383     1.0000 0.84720  0.49909  0.66535  Biso   1.000  C
  C384     1.0000 0.13280  0.63423  0.52458  Biso   1.000  C
  C385     1.0000 0.17583  0.13529  0.03295  Biso   1.000  C
  C386     1.0000 0.98197  0.18023  0.16295  Biso   1.000  C
  C387     1.0000 0.12775  0.99508  0.20617  Biso   1.000  C
  C388     1.0000 0.66472  0.14093  0.50391  Biso   1.000  C
  C389     1.0000 0.48917  0.16913  0.36579  Biso   1.000  C
  C390     1.0000 0.62860  0.00946  0.32986  Biso   1.000  C
  C391     1.0000 0.29349  0.63466  0.01065  Biso   1.000  C
  C392     1.0000 0.47441  0.67750  0.16517  Biso   1.000  C
  C393     1.0000 0.34195  0.48324  0.20521  Biso   1.000  C
  C394     1.0000 0.79322  0.63652  0.51539  Biso   1.000  C
  C395     1.0000 0.00156  0.68145  0.37096  Biso   1.000  C
  C396     1.0000 0.83886  0.52171  0.33036  Biso   1.000  C
  C397     1.0000 0.79221  0.85920  0.01100  Biso   1.000  C
  C398     1.0000 0.98021  0.81782  0.86902  Biso   1.000  C
  C399     1.0000 0.83902  0.99090  0.82522  Biso   1.000  C
  C400     1.0000 0.29792  0.84994  0.51722  Biso   1.000  C
  C401     1.0000 0.48499  0.81577  0.66715  Biso   1.000  C
  C402     1.0000 0.33691  0.97923  0.70288  Biso   1.000  C
  C403     1.0000 0.68091  0.35634  0.00205  Biso   1.000  C
  C404     1.0000 0.49104  0.31656  0.87166  Biso   1.000  C
  C405     1.0000 0.62466  0.49379  0.82919  Biso   1.000  C
  C406     1.0000 0.16822  0.35105  0.51313  Biso   1.000  C
  C407     1.0000 0.98850  0.31466  0.66004  Biso   1.000  C
  C408     1.0000 0.12756  0.48232  0.70011  Biso   1.000  C
  C409     1.0000 0.13755  0.99146  0.84024  Biso   1.000  C
  C410     1.0000 0.81346  0.15329  0.99140  Biso   1.000  C
  C411     1.0000 0.97422  0.81462  0.16907  Biso   1.000  C
  C412     1.0000 0.63448  0.00463  0.68988  Biso   1.000  C
  C413     1.0000 0.29844  0.14351  0.52718  Biso   1.000  C
  C414     1.0000 0.48252  0.80781  0.36953  Biso   1.000  C
  C415     1.0000 0.33033  0.50198  0.83775  Biso   1.000  C
  C416     1.0000 0.65236  0.65320  0.02127  Biso   1.000  C
  C417     1.0000 0.49478  0.31559  0.16724  Biso   1.000  C
  C418     1.0000 0.83110  0.50055  0.69167  Biso   1.000  C
  C419     1.0000 0.15873  0.65117  0.52678  Biso   1.000  C
  C420     1.0000 0.97520  0.31651  0.36274  Biso   1.000  C
  C421     1.0000 0.82790  0.00490  0.18618  Biso   1.000  C
  C422     1.0000 0.15496  0.83800  0.00744  Biso   1.000  C
  C423     1.0000 0.99293  0.17980  0.86503  Biso   1.000  C
  C424     1.0000 0.32843  0.99545  0.34185  Biso   1.000  C
  C425     1.0000 0.65678  0.84187  0.50510  Biso   1.000  C
  C426     1.0000 0.48808  0.18139  0.66281  Biso   1.000  C
  C427     1.0000 0.64107  0.49846  0.19091  Biso   1.000  C
  C428     1.0000 0.31369  0.33726  0.02262  Biso   1.000  C
  C429     1.0000 0.49974  0.67483  0.87059  Biso   1.000  C
  C430     1.0000 0.13443  0.48038  0.33750  Biso   1.000  C
  C431     1.0000 0.80595  0.33923  0.50301  Biso   1.000  C
  C432     1.0000 0.98174  0.67995  0.67082  Biso   1.000  C
  C433     1.0000 0.98629  0.14714  0.83328  Biso   1.000  C
  C434     1.0000 0.79678  0.01118  0.15279  Biso   1.000  C
  C435     1.0000 0.11989  0.80891  0.00661  Biso   1.000  C
  C436     1.0000 0.49329  0.15062  0.69555  Biso   1.000  C
  C437     1.0000 0.29597  0.00274  0.37468  Biso   1.000  C
  C438     1.0000 0.62296  0.80918  0.50999  Biso   1.000  C
  C439     1.0000 0.49623  0.64294  0.83806  Biso   1.000  C
  C440     1.0000 0.67074  0.50956  0.15684  Biso   1.000  C
  C441     1.0000 0.34818  0.30636  0.02107  Biso   1.000  C
  C442     1.0000 0.98328  0.64608  0.70481  Biso   1.000  C
  C443     1.0000 0.16765  0.48830  0.37048  Biso   1.000  C
  C444     1.0000 0.83955  0.30626  0.50583  Biso   1.000  C
  C445     1.0000 0.97354  0.84768  0.20141  Biso   1.000  C
  C446     1.0000 0.16979  0.99155  0.87286  Biso   1.000  C
  C447     1.0000 0.84838  0.18303  0.99599  Biso   1.000  C
  C448     1.0000 0.48152  0.84045  0.33645  Biso   1.000  C
  C449     1.0000 0.66690  0.00010  0.65601  Biso   1.000  C
  C450     1.0000 0.33315  0.17283  0.52019  Biso   1.000  C
  C451     1.0000 0.49073  0.34706  0.20026  Biso   1.000  C
  C452     1.0000 0.29781  0.49494  0.87134  Biso   1.000  C
  C453     1.0000 0.61862  0.68174  0.03359  Biso   1.000  C
  C454     1.0000 0.97154  0.35087  0.33046  Biso   1.000  C
  C455     1.0000 0.79902  0.49270  0.65881  Biso   1.000  C
  C456     1.0000 0.12354  0.68275  0.52629  Biso   1.000  C
  C457     1.0000 0.00621  0.64867  0.33835  Biso   1.000  C
  C458     1.0000 0.30320  0.97887  0.67127  Biso   1.000  C
  C459     1.0000 0.64854  0.32362  0.99907  Biso   1.000  C
  C460     1.0000 0.48306  0.64539  0.19793  Biso   1.000  C
  C461     1.0000 0.80627  0.99800  0.85690  Biso   1.000  C
  C462     1.0000 0.13537  0.31963  0.50762  Biso   1.000  C
  C463     1.0000 0.48828  0.13731  0.33287  Biso   1.000  C
  C464     1.0000 0.16234  0.48615  0.66959  Biso   1.000  C
  C465     1.0000 0.82227  0.82206  0.01006  Biso   1.000  C
  C466     1.0000 0.97629  0.14906  0.19663  Biso   1.000  C
  C467     1.0000 0.66032  0.49910  0.85990  Biso   1.000  C
  C468     1.0000 0.32866  0.81686  0.51492  Biso   1.000  C
  C469     1.0000 0.98142  0.34834  0.69147  Biso   1.000  C
  C470     1.0000 0.66245  0.00848  0.36143  Biso   1.000  C
  C471     1.0000 0.32492  0.66894  0.00204  Biso   1.000  C
  C472     1.0000 0.48560  0.34920  0.83892  Biso   1.000  C
  C473     1.0000 0.16203  0.98779  0.17457  Biso   1.000  C
  C474     1.0000 0.82326  0.67127  0.51880  Biso   1.000  C
  C475     1.0000 0.49034  0.84823  0.69949  Biso   1.000  C
  C476     1.0000 0.80477  0.51200  0.36200  Biso   1.000  C
  C477     1.0000 0.14296  0.16844  0.03212  Biso   1.000  C
  C478     1.0000 0.98702  0.85149  0.83675  Biso   1.000  C
  C479     1.0000 0.30930  0.48202  0.17279  Biso   1.000  C
  C480     1.0000 0.63395  0.17519  0.50277  Biso   1.000  C
  C481     1.0000 0.34425  0.78953  0.51163  Biso   1.000  C
  C482     1.0000 0.47818  0.36581  0.81125  Biso   1.000  C
  C483     1.0000 0.77733  0.50752  0.37701  Biso   1.000  C
  C484     1.0000 0.83666  0.79438  0.01082  Biso   1.000  C
  C485     1.0000 0.97131  0.36605  0.71660  Biso   1.000  C
  C486     1.0000 0.28233  0.48193  0.15674  Biso   1.000  C
  C487     1.0000 0.12054  0.29276  0.50412  Biso   1.000  C
  C488     1.0000 0.98923  0.86782  0.81018  Biso   1.000  C
  C489     1.0000 0.69047  0.00838  0.37582  Biso   1.000  C
  C490     1.0000 0.63271  0.29557  0.99496  Biso   1.000  C
  C491     1.0000 0.49296  0.86339  0.72623  Biso   1.000  C
  C492     1.0000 0.18997  0.98641  0.16065  Biso   1.000  C
  C493     1.0000 0.61986  0.20335  0.50759  Biso   1.000  C
  C494     1.0000 0.49013  0.63084  0.22480  Biso   1.000  C
  C495     1.0000 0.19131  0.48878  0.65381  Biso   1.000  C
  C496     1.0000 0.12811  0.19520  0.03409  Biso   1.000  C
  C497     1.0000 0.00866  0.63272  0.31120  Biso   1.000  C
  C498     1.0000 0.68971  0.49629  0.87239  Biso   1.000  C
  C499     1.0000 0.83979  0.69747  0.51900  Biso   1.000  C
  C500     1.0000 0.97303  0.13276  0.22476  Biso   1.000  C
  C501     1.0000 0.27517  0.97578  0.65673  Biso   1.000  C
  C502     1.0000 0.34132  0.69464  0.99925  Biso   1.000  C
  C503     1.0000 0.48259  0.12233  0.30619  Biso   1.000  C
  C504     1.0000 0.77935  0.00232  0.87094  Biso   1.000  C
  C505     1.0000 0.60743  0.49569  0.80383  Biso   1.000  C
  C506     1.0000 0.76806  0.61759  0.51172  Biso   1.000  C
  C507     1.0000 0.48593  0.78877  0.65065  Biso   1.000  C
  C508     1.0000 0.11108  0.47790  0.72564  Biso   1.000  C
  C509     1.0000 0.26562  0.61682  0.01233  Biso   1.000  C
  C510     1.0000 0.97562  0.79026  0.88533  Biso   1.000  C
  C511     1.0000 0.85564  0.98687  0.79868  Biso   1.000  C
  C512     1.0000 0.69189  0.12534  0.50248  Biso   1.000  C
  C513     1.0000 0.99634  0.28776  0.64436  Biso   1.000  C
  C514     1.0000 0.35435  0.98312  0.72900  Biso   1.000  C
  C515     1.0000 0.20250  0.11800  0.03517  Biso   1.000  C
  C516     1.0000 0.50034  0.28958  0.88725  Biso   1.000  C
  C517     1.0000 0.35865  0.48518  0.23243  Biso   1.000  C
  C518     1.0000 0.19392  0.36813  0.51627  Biso   1.000  C
  C519     1.0000 0.49023  0.19670  0.37996  Biso   1.000  C
  C520     1.0000 0.85707  0.53045  0.30552  Biso   1.000  C
  C521     1.0000 0.70714  0.37544  0.99946  Biso   1.000  C
  C522     1.0000 0.98720  0.20701  0.14626  Biso   1.000  C
  C523     1.0000 0.11036  0.99839  0.23250  Biso   1.000  C
  C524     1.0000 0.27174  0.86734  0.52138  Biso   1.000  C
  C525     1.0000 0.99852  0.70775  0.38704  Biso   1.000  C
  C526     1.0000 0.61291  0.01269  0.30295  Biso   1.000  C
  C527     1.0000 0.76577  0.87620  0.01547  Biso   1.000  C
  C528     1.0000 0.46878  0.70536  0.14801  Biso   1.000  C
  C529     1.0000 0.78529  0.14049  0.98811  Biso   1.000  C
  C530     1.0000 0.97133  0.78771  0.15342  Biso   1.000  C
  C531     1.0000 0.12210  0.99026  0.81314  Biso   1.000  C
  C532     1.0000 0.27135  0.12645  0.53440  Biso   1.000  C
  C533     1.0000 0.48461  0.78149  0.38585  Biso   1.000  C
  C534     1.0000 0.61923  0.01031  0.71817  Biso   1.000  C
  C535     1.0000 0.67998  0.64068  0.01250  Biso   1.000  C
  C536     1.0000 0.49744  0.28821  0.15163  Biso   1.000  C
  C537     1.0000 0.34525  0.50369  0.81059  Biso   1.000  C
  C538     1.0000 0.18810  0.63623  0.52735  Biso   1.000  C
  C539     1.0000 0.97780  0.28952  0.37826  Biso   1.000  C
  C540     1.0000 0.84815  0.50763  0.71771  Biso   1.000  C
  C541     1.0000 0.18289  0.85304  0.00953  Biso   1.000  C
  C542     1.0000 0.99958  0.20630  0.88151  Biso   1.000  C
  C543     1.0000 0.84128  0.99696  0.21383  Biso   1.000  C
  C544     1.0000 0.68424  0.85756  0.50036  Biso   1.000  C
  C545     1.0000 0.48673  0.20799  0.64783  Biso   1.000  C
  C546     1.0000 0.34612  0.98715  0.31572  Biso   1.000  C
  C547     1.0000 0.28651  0.35239  0.02503  Biso   1.000  C
  C548     1.0000 0.49881  0.70186  0.88694  Biso   1.000  C
  C549     1.0000 0.62606  0.49537  0.21983  Biso   1.000  C
  C550     1.0000 0.78036  0.35635  0.49758  Biso   1.000  C
  C551     1.0000 0.98115  0.70673  0.65372  Biso   1.000  C
  C552     1.0000 0.11998  0.47333  0.31059  Biso   1.000  C
  C553     1.0000 0.98166  0.13086  0.80747  Biso   1.000  C
  C554     1.0000 0.77046  0.01514  0.13628  Biso   1.000  C
  C555     1.0000 0.10304  0.78377  0.00112  Biso   1.000  C
  C556     1.0000 0.49959  0.13337  0.72305  Biso   1.000  C
  C557     1.0000 0.27055  0.01155  0.39142  Biso   1.000  C
  C558     1.0000 0.60655  0.78189  0.51204  Biso   1.000  C
  C559     1.0000 0.49743  0.62752  0.81092  Biso   1.000  C
  C560     1.0000 0.69721  0.51580  0.14081  Biso   1.000  C
  C561     1.0000 0.36522  0.27912  0.02005  Biso   1.000  C
  C562     1.0000 0.98278  0.62896  0.73227  Biso   1.000  C
  C563     1.0000 0.19446  0.49043  0.38670  Biso   1.000  C
  C564     1.0000 0.85489  0.27978  0.50953  Biso   1.000  C
  C565     1.0000 0.97441  0.86404  0.22798  Biso   1.000  C
  C566     1.0000 0.19622  0.98349  0.89082  Biso   1.000  C
  C567     1.0000 0.86417  0.20929  0.99746  Biso   1.000  C
  C568     1.0000 0.48606  0.85582  0.30840  Biso   1.000  C
  C569     1.0000 0.69525  0.00063  0.64038  Biso   1.000  C
  C570     1.0000 0.34904  0.19956  0.51445  Biso   1.000  C
  C571     1.0000 0.48934  0.36161  0.22772  Biso   1.000  C
  C572     1.0000 0.27090  0.49097  0.88897  Biso   1.000  C
  C573     1.0000 0.60207  0.70723  0.04004  Biso   1.000  C
  C574     1.0000 0.96712  0.36632  0.30355  Biso   1.000  C
  C575     1.0000 0.77430  0.48503  0.64161  Biso   1.000  C
  C576     1.0000 0.10832  0.70930  0.52946  Biso   1.000  C
  C577     1.0000 0.28374  0.48375  0.12490  Biso   1.000  C
  C578     1.0000 0.08929  0.29189  0.50044  Biso   1.000  C
  C579     1.0000 0.47907  0.09065  0.30626  Biso   1.000  C
  C580     1.0000 0.77815  0.49864  0.40886  Biso   1.000  C
  C581     1.0000 0.60154  0.29443  0.99769  Biso   1.000  C
  C582     1.0000 0.97335  0.10057  0.22568  Biso   1.000  C
  C583     1.0000 0.19023  0.98370  0.12958  Biso   1.000  C
  C584     1.0000 0.37474  0.79000  0.51145  Biso   1.000  C
  C585     1.0000 0.00521  0.60133  0.31091  Biso   1.000  C
  C586     1.0000 0.69016  0.00354  0.40644  Biso   1.000  C
  C587     1.0000 0.86857  0.79393  0.01354  Biso   1.000  C
  C588     1.0000 0.48959  0.59947  0.22472  Biso   1.000  C
  C589     1.0000 0.68910  0.49407  0.90356  Biso   1.000  C
  C590     1.0000 0.87260  0.69743  0.51698  Biso   1.000  C
  C591     1.0000 0.49568  0.89481  0.72485  Biso   1.000  C
  C592     1.0000 0.19161  0.49261  0.62178  Biso   1.000  C
  C593     1.0000 0.37268  0.69499  0.00057  Biso   1.000  C
  C594     1.0000 0.99540  0.89845  0.81048  Biso   1.000  C
  C595     1.0000 0.78056  0.00787  0.90251  Biso   1.000  C
  C596     1.0000 0.58854  0.20378  0.51334  Biso   1.000  C
  C597     1.0000 0.96857  0.39727  0.71382  Biso   1.000  C
  C598     1.0000 0.27281  0.98226  0.62555  Biso   1.000  C
  C599     1.0000 0.09756  0.19564  0.03183  Biso   1.000  C
  C600     1.0000 0.47062  0.39551  0.81333  Biso   1.000  C
  C601     1.0000 0.19545  0.98530  0.92227  Biso   1.000  C
  C602     1.0000 0.89579  0.20650  0.99822  Biso   1.000  C
  C603     1.0000 0.97235  0.89565  0.22801  Biso   1.000  C
  C604     1.0000 0.69390  0.99710  0.60874  Biso   1.000  C
  C605     1.0000 0.38138  0.19938  0.51733  Biso   1.000  C
  C606     1.0000 0.48570  0.88751  0.30927  Biso   1.000  C
  C607     1.0000 0.27348  0.49387  0.92019  Biso   1.000  C
  C608     1.0000 0.57034  0.70462  0.04114  Biso   1.000  C
  C609     1.0000 0.48997  0.39279  0.22858  Biso   1.000  C
  C610     1.0000 0.77514  0.48375  0.61071  Biso   1.000  C
  C611     1.0000 0.07619  0.70839  0.53182  Biso   1.000  C
  C612     1.0000 0.96719  0.39770  0.30304  Biso   1.000  C
  C613     1.0000 0.77286  0.01834  0.10470  Biso   1.000  C
  C614     1.0000 0.07201  0.78693  0.00297  Biso   1.000  C
  C615     1.0000 0.97960  0.10009  0.80827  Biso   1.000  C
  C616     1.0000 0.27218  0.01617  0.42260  Biso   1.000  C
  C617     1.0000 0.57561  0.78311  0.51760  Biso   1.000  C
  C618     1.0000 0.49798  0.10261  0.72381  Biso   1.000  C
  C619     1.0000 0.69565  0.51805  0.10894  Biso   1.000  C
  C620     1.0000 0.39751  0.28065  0.02377  Biso   1.000  C
  C621     1.0000 0.49093  0.59642  0.80990  Biso   1.000  C
  C622     1.0000 0.19093  0.49649  0.41637  Biso   1.000  C
  C623     1.0000 0.88556  0.27987  0.51730  Biso   1.000  C
  C624     1.0000 0.98091  0.59673  0.72878  Biso   1.000  C
  C625     1.0000 0.00405  0.20548  0.91279  Biso   1.000  C
  C626     1.0000 0.87208  0.99779  0.21506  Biso   1.000  C
  C627     1.0000 0.18520  0.88395  0.01270  Biso   1.000  C
  C628     1.0000 0.48240  0.20779  0.61639  Biso   1.000  C
  C629     1.0000 0.37806  0.98698  0.31531  Biso   1.000  C
  C630     1.0000 0.68533  0.88927  0.50173  Biso   1.000  C
  C631     1.0000 0.49709  0.69965  0.91840  Biso   1.000  C
  C632     1.0000 0.59546  0.49088  0.22144  Biso   1.000  C
  C633     1.0000 0.28568  0.38287  0.02670  Biso   1.000  C
  C634     1.0000 0.97868  0.70774  0.62304  Biso   1.000  C
  C635     1.0000 0.08850  0.47565  0.31017  Biso   1.000  C
  C636     1.0000 0.77870  0.38687  0.49911  Biso   1.000  C
  C637     1.0000 0.96683  0.78806  0.12257  Biso   1.000  C
  C638     1.0000 0.09037  0.99308  0.81209  Biso   1.000  C
  C639     1.0000 0.78188  0.10938  0.98937  Biso   1.000  C
  C640     1.0000 0.48319  0.78229  0.41729  Biso   1.000  C
  C641     1.0000 0.58754  0.00885  0.71866  Biso   1.000  C
  C642     1.0000 0.27283  0.09548  0.54079  Biso   1.000  C
  C643     1.0000 0.50322  0.28909  0.12114  Biso   1.000  C
  C644     1.0000 0.37605  0.50872  0.80966  Biso   1.000  C
  C645     1.0000 0.68098  0.60965  0.00422  Biso   1.000  C
  C646     1.0000 0.97923  0.29059  0.40923  Biso   1.000  C
  C647     1.0000 0.88060  0.50985  0.71884  Biso   1.000  C
  C648     1.0000 0.18765  0.60532  0.52621  Biso   1.000  C
  C649     1.0000 0.99499  0.70926  0.41859  Biso   1.000  C
  C650     1.0000 0.38526  0.98507  0.72879  Biso   1.000  C
  C651     1.0000 0.70334  0.40661  0.00800  Biso   1.000  C
  C652     1.0000 0.46662  0.70395  0.11705  Biso   1.000  C
  C653     1.0000 0.88758  0.98298  0.80003  Biso   1.000  C
  C654     1.0000 0.19256  0.39948  0.51715  Biso   1.000  C
  C655     1.0000 0.49061  0.19629  0.41128  Biso   1.000  C
  C656     1.0000 0.07965  0.47938  0.72540  Biso   1.000  C
  C657     1.0000 0.76729  0.90650  0.01328  Biso   1.000  C
  C658     1.0000 0.99067  0.20450  0.11599  Biso   1.000  C
  C659     1.0000 0.57541  0.49550  0.80623  Biso   1.000  C
  C660     1.0000 0.27488  0.89847  0.52255  Biso   1.000  C
  C661     1.0000 0.00058  0.28828  0.61257  Biso   1.000  C
  C662     1.0000 0.58211  0.00672  0.30095  Biso   1.000  C
  C663     1.0000 0.26859  0.58609  0.01087  Biso   1.000  C
  C664     1.0000 0.50299  0.28929  0.91928  Biso   1.000  C
  C665     1.0000 0.07878  0.99845  0.23136  Biso   1.000  C
  C666     1.0000 0.77143  0.58652  0.51360  Biso   1.000  C
  C667     1.0000 0.48529  0.79060  0.61949  Biso   1.000  C
  C668     1.0000 0.88848  0.53066  0.30647  Biso   1.000  C
  C669     1.0000 0.20124  0.08751  0.03419  Biso   1.000  C
  C670     1.0000 0.97409  0.79247  0.91705  Biso   1.000  C
  C671     1.0000 0.39014  0.49034  0.23269  Biso   1.000  C
  C672     1.0000 0.69055  0.09378  0.50363  Biso   1.000  C
  C673     1.0000 0.18583  0.98569  0.82839  Biso   1.000  C
  C674     1.0000 0.80268  0.20090  0.99145  Biso   1.000  C
  C675     1.0000 0.98139  0.80094  0.21483  Biso   1.000  C
  C676     1.0000 0.68301  0.00102  0.70222  Biso   1.000  C
  C677     1.0000 0.28587  0.19019  0.52278  Biso   1.000  C
  C678     1.0000 0.48024  0.79409  0.32303  Biso   1.000  C
  C679     1.0000 0.28378  0.49370  0.82400  Biso   1.000  C
  C680     1.0000 0.66448  0.69959  0.02916  Biso   1.000  C
  C681     1.0000 0.49102  0.30066  0.21399  Biso   1.000  C
  C682     1.0000 0.78379  0.49875  0.70529  Biso   1.000  C
  C683     1.0000 0.17107  0.69692  0.53007  Biso   1.000  C
  C684     1.0000 0.97275  0.30424  0.31704  Biso   1.000  C
  C685     1.0000 0.78038  0.00683  0.19997  Biso   1.000  C
  C686     1.0000 0.16375  0.78973  0.00462  Biso   1.000  C
  C687     1.0000 0.98824  0.19378  0.81793  Biso   1.000  C
  C688     1.0000 0.28203  0.99653  0.32757  Biso   1.000  C
  C689     1.0000 0.67073  0.79537  0.50494  Biso   1.000  C
  C690     1.0000 0.49634  0.19795  0.70820  Biso   1.000  C
  C691     1.0000 0.68491  0.51130  0.20437  Biso   1.000  C
  C692     1.0000 0.30219  0.28927  0.01978  Biso   1.000  C
  C693     1.0000 0.49942  0.69104  0.82425  Biso   1.000  C
  C694     1.0000 0.18205  0.48107  0.32462  Biso   1.000  C
  C695     1.0000 0.79319  0.29244  0.49669  Biso   1.000  C
  C696     1.0000 0.98226  0.69181  0.71920  Biso   1.000  C
  C697     1.0000 0.67445  0.00979  0.31434  Biso   1.000  C
  C698     1.0000 0.27714  0.68120  0.00747  Biso   1.000  C
  C699     1.0000 0.98553  0.30135  0.70777  Biso   1.000  C
  C700     1.0000 0.17497  0.99261  0.22123  Biso   1.000  C
  C701     1.0000 0.77734  0.68283  0.51283  Biso   1.000  C
  C702     1.0000 0.49236  0.30417  0.82239  Biso   1.000  C
  C703     1.0000 0.79056  0.52271  0.31632  Biso   1.000  C
  C704     1.0000 0.18789  0.18321  0.03159  Biso   1.000  C
  C705     1.0000 0.49016  0.80124  0.71303  Biso   1.000  C
  C706     1.0000 0.29437  0.48037  0.22074  Biso   1.000  C
  C707     1.0000 0.68156  0.18802  0.49970  Biso   1.000  C
  C708     1.0000 0.98564  0.80345  0.82434  Biso   1.000  C
  C709     1.0000 0.29129  0.97447  0.71838  Biso   1.000  C
  C710     1.0000 0.69530  0.31239  0.99275  Biso   1.000  C
  C711     1.0000 0.00404  0.69344  0.32410  Biso   1.000  C
  C712     1.0000 0.79381  0.99805  0.80892  Biso   1.000  C
  C713     1.0000 0.18179  0.30443  0.51302  Biso   1.000  C
  C714     1.0000 0.47809  0.69238  0.21273  Biso   1.000  C
  C715     1.0000 0.17329  0.48589  0.71582  Biso   1.000  C
  C716     1.0000 0.77566  0.81297  0.01630  Biso   1.000  C
  C717     1.0000 0.48606  0.18447  0.31878  Biso   1.000  C
  C718     1.0000 0.67207  0.49685  0.81336  Biso   1.000  C
  C719     1.0000 0.28186  0.80319  0.52342  Biso   1.000  C
  C720     1.0000 0.97887  0.19467  0.21046  Biso   1.000  C
  C721     1.0000 0.45847  0.79800  0.30035  Biso   1.000  C
  C722     1.0000 0.28343  0.51465  0.79989  Biso   1.000  C
  C723     1.0000 0.76394  0.29378  0.51096  Biso   1.000  C
  C724     1.0000 0.00189  0.77693  0.20867  Biso   1.000  C
  C725     1.0000 0.75326  0.50812  0.69720  Biso   1.000  C
  C726     1.0000 0.27496  0.29365  0.00415  Biso   1.000  C
  C727     1.0000 0.95719  0.27717  0.32115  Biso   1.000  C
  C728     1.0000 0.21596  0.99853  0.83007  Biso   1.000  C
  C729     1.0000 0.69873  0.79931  0.51699  Biso   1.000  C
  C730     1.0000 0.47011  0.30093  0.23734  Biso   1.000  C
  C731     1.0000 0.70483  0.97871  0.70157  Biso   1.000  C
  C732     1.0000 0.19088  0.79315  0.98985  Biso   1.000  C
  C733     1.0000 0.48174  0.19316  0.73486  Biso   1.000  C
  C734     1.0000 0.68510  0.49175  0.23020  Biso   1.000  C
  C735     1.0000 0.16849  0.72295  0.51160  Biso   1.000  C
  C736     1.0000 0.97156  0.22109  0.82376  Biso   1.000  C
  C737     1.0000 0.20828  0.46475  0.33202  Biso   1.000  C
  C738     1.0000 0.69499  0.69664  0.03651  Biso   1.000  C
  C739     1.0000 0.99783  0.68801  0.74611  Biso   1.000  C
  C740     1.0000 0.75093  0.99491  0.19684  Biso   1.000  C
  C741     1.0000 0.25790  0.18702  0.50943  Biso   1.000  C
  C742     1.0000 0.48103  0.68788  0.79828  Biso   1.000  C
  C743     1.0000 0.25348  0.98510  0.33375  Biso   1.000  C
  C744     1.0000 0.80191  0.22243  0.01335  Biso   1.000  C
  C745     1.0000 0.01609  0.72368  0.32594  Biso   1.000  C
  C746     1.0000 0.26310  0.98753  0.71586  Biso   1.000  C
  C747     1.0000 0.72072  0.31236  0.01082  Biso   1.000  C
  C748     1.0000 0.48462  0.72278  0.20589  Biso   1.000  C
  C749     1.0000 0.79571  0.97706  0.78303  Biso   1.000  C
  C750     1.0000 0.20606  0.30671  0.53422  Biso   1.000  C
  C751     1.0000 0.50285  0.18201  0.29156  Biso   1.000  C
  C752     1.0000 0.20313  0.47476  0.71127  Biso   1.000  C
  C753     1.0000 0.74693  0.81760  0.00463  Biso   1.000  C
  C754     1.0000 0.00021  0.21739  0.21188  Biso   1.000  C
  C755     1.0000 0.67119  0.47884  0.78854  Biso   1.000  C
  C756     1.0000 0.28794  0.77530  0.53773  Biso   1.000  C
  C757     1.0000 0.97359  0.27313  0.70160  Biso   1.000  C
  C758     1.0000 0.67226  0.02814  0.28801  Biso   1.000  C
  C759     1.0000 0.25473  0.68114  0.02964  Biso   1.000  C
  C760     1.0000 0.50330  0.31142  0.79266  Biso   1.000  C
  C761     1.0000 0.19807  0.97101  0.22284  Biso   1.000  C
  C762     1.0000 0.78252  0.71116  0.49932  Biso   1.000  C
  C763     1.0000 0.47293  0.77467  0.71067  Biso   1.000  C
  C764     1.0000 0.76082  0.53248  0.32176  Biso   1.000  C
  C765     1.0000 0.21464  0.18302  0.04865  Biso   1.000  C
  C766     1.0000 0.96748  0.80566  0.79833  Biso   1.000  C
  C767     1.0000 0.29798  0.49528  0.24843  Biso   1.000  C
  C768     1.0000 0.67583  0.21377  0.48033  Biso   1.000  C
  C769     1.0000 0.51504  0.71829  0.82795  Biso   1.000  C
  C770     1.0000 0.78889  0.49013  0.73487  Biso   1.000  C
  C771     1.0000 0.66411  0.76859  0.49052  Biso   1.000  C
  C772     1.0000 0.96715  0.71992  0.71461  Biso   1.000  C
  C773     1.0000 0.26165  0.47152  0.82525  Biso   1.000  C
  C774     1.0000 0.15808  0.76207  0.02014  Biso   1.000  C
  C775     1.0000 0.00077  0.18999  0.79006  Biso   1.000  C
  C776     1.0000 0.68388  0.02105  0.72626  Biso   1.000  C
  C777     1.0000 0.79672  0.26509  0.47951  Biso   1.000  C
  C778     1.0000 0.51104  0.22557  0.70666  Biso   1.000  C
  C779     1.0000 0.18135  0.96557  0.80511  Biso   1.000  C
  C780     1.0000 0.30635  0.26088  0.03549  Biso   1.000  C
  C781     1.0000 0.51354  0.27695  0.21434  Biso   1.000  C
  C782     1.0000 0.17997  0.49544  0.29484  Biso   1.000  C
  C783     1.0000 0.29132  0.21794  0.53596  Biso   1.000  C
  C784     1.0000 0.98510  0.30984  0.28841  Biso   1.000  C
  C785     1.0000 0.70517  0.53609  0.20300  Biso   1.000  C
  C786     1.0000 0.78182  0.20263  0.96758  Biso   1.000  C
  C787     1.0000 0.96945  0.80281  0.24356  Biso   1.000  C
  C788     1.0000 0.28667  0.00716  0.29781  Biso   1.000  C
  C789     1.0000 0.19508  0.69556  0.55030  Biso   1.000  C
  C790     1.0000 0.49783  0.76760  0.32242  Biso   1.000  C
  C791     1.0000 0.78763  0.02042  0.22709  Biso   1.000  C
  C792     1.0000 0.65724  0.72793  0.01618  Biso   1.000  C
  C793     1.0000 0.47048  0.21275  0.32347  Biso   1.000  C
  C794     1.0000 0.26765  0.46244  0.21671  Biso   1.000  C
  C795     1.0000 0.18083  0.27931  0.49359  Biso   1.000  C
  C796     1.0000 0.95451  0.19398  0.23282  Biso   1.000  C
  C797     1.0000 0.79597  0.51186  0.28786  Biso   1.000  C
  C798     1.0000 0.69167  0.28689  0.97305  Biso   1.000  C
  C799     1.0000 0.99204  0.68717  0.29513  Biso   1.000  C
  C800     1.0000 0.17600  0.01647  0.24226  Biso   1.000  C
  C801     1.0000 0.25274  0.80830  0.51295  Biso   1.000  C
  C802     1.0000 0.46905  0.68527  0.24140  Biso   1.000  C
  C803     1.0000 0.70035  0.99069  0.31452  Biso   1.000  C
  C804     1.0000 0.77866  0.78691  0.03453  Biso   1.000  C
  C805     1.0000 0.51206  0.80309  0.73659  Biso   1.000  C
  C806     1.0000 0.69718  0.51690  0.81457  Biso   1.000  C
  C807     1.0000 0.74688  0.67686  0.52259  Biso   1.000  C
  C808     1.0000 0.00246  0.77724  0.82963  Biso   1.000  C
  C809     1.0000 0.16767  0.50082  0.74397  Biso   1.000  C
  C810     1.0000 0.27454  0.70293  0.98420  Biso   1.000  C
  C811     1.0000 0.99521  0.30822  0.73851  Biso   1.000  C
  C812     1.0000 0.76929  0.01797  0.81090  Biso   1.000  C
  C813     1.0000 0.70971  0.18353  0.51283  Biso   1.000  C
  C814     1.0000 0.48252  0.27431  0.82570  Biso   1.000  C
  C815     1.0000 0.29978  0.95933  0.74420  Biso   1.000  C
  C816     1.0000 0.18600  0.20768  0.01106  Biso   1.000  C
  C817     1.0000 0.96981  0.24202  0.80143  Biso   1.000  C
  C818     1.0000 0.73097  0.99810  0.22042  Biso   1.000  C
  C819     1.0000 0.21095  0.77096  0.99046  Biso   1.000  C
  C820     1.0000 0.48286  0.21211  0.75727  Biso   1.000  C
  C821     1.0000 0.23168  0.98631  0.31266  Biso   1.000  C
  C822     1.0000 0.71798  0.77588  0.51754  Biso   1.000  C
  C823     1.0000 0.47943  0.71037  0.77763  Biso   1.000  C
  C824     1.0000 0.70559  0.49686  0.25153  Biso   1.000  C
  C825     1.0000 0.25387  0.27137  0.00468  Biso   1.000  C
  C826     1.0000 0.99548  0.70955  0.76656  Biso   1.000  C
  C827     1.0000 0.23099  0.46330  0.31127  Biso   1.000  C
  C828     1.0000 0.74286  0.27321  0.50632  Biso   1.000  C
  C829     1.0000 0.00828  0.75615  0.22870  Biso   1.000  C
  C830     1.0000 0.23654  0.99278  0.80954  Biso   1.000  C
  C831     1.0000 0.78210  0.24494  0.01041  Biso   1.000  C
  C832     1.0000 0.45703  0.77862  0.27855  Biso   1.000  C
  C833     1.0000 0.72479  0.97797  0.72304  Biso   1.000  C
  C834     1.0000 0.23778  0.20861  0.50832  Biso   1.000  C
  C835     1.0000 0.46808  0.27787  0.25757  Biso   1.000  C
  C836     1.0000 0.26234  0.51223  0.77748  Biso   1.000  C
  C837     1.0000 0.71411  0.72010  0.03488  Biso   1.000  C
  C838     1.0000 0.95745  0.25784  0.29938  Biso   1.000  C
  C839     1.0000 0.73221  0.50912  0.71889  Biso   1.000  C
  C840     1.0000 0.19062  0.74337  0.51458  Biso   1.000  C
  C841     1.0000 0.20410  0.96157  0.78393  Biso   1.000  C
  C842     1.0000 0.76231  0.22511  0.96609  Biso   1.000  C
  C843     1.0000 0.97741  0.78147  0.26523  Biso   1.000  C
  C844     1.0000 0.70617  0.02083  0.74686  Biso   1.000  C
  C845     1.0000 0.27176  0.24063  0.53445  Biso   1.000  C
  C846     1.0000 0.49323  0.74738  0.30012  Biso   1.000  C
  C847     1.0000 0.23914  0.47152  0.80380  Biso   1.000  C
  C848     1.0000 0.67612  0.75157  0.01545  Biso   1.000  C
  C849     1.0000 0.51047  0.25599  0.23549  Biso   1.000  C
  C850     1.0000 0.76641  0.49161  0.75455  Biso   1.000  C
  C851     1.0000 0.21661  0.71629  0.55094  Biso   1.000  C
  C852     1.0000 0.98332  0.28900  0.26614  Biso   1.000  C
  C853     1.0000 0.76676  0.02074  0.24910  Biso   1.000  C
  C854     1.0000 0.18022  0.74121  0.02015  Biso   1.000  C
  C855     1.0000 0.99487  0.21112  0.76822  Biso   1.000  C
  C856     1.0000 0.26750  0.00679  0.27695  Biso   1.000  C
  C857     1.0000 0.68393  0.74563  0.49117  Biso   1.000  C
  C858     1.0000 0.51156  0.24407  0.73025  Biso   1.000  C
  C859     1.0000 0.72383  0.53973  0.22699  Biso   1.000  C
  C860     1.0000 0.28546  0.23903  0.03239  Biso   1.000  C
  C861     1.0000 0.51409  0.73886  0.80499  Biso   1.000  C
  C862     1.0000 0.20269  0.49287  0.27611  Biso   1.000  C
  C863     1.0000 0.77423  0.24584  0.47594  Biso   1.000  C
  C864     1.0000 0.96839  0.74046  0.73493  Biso   1.000  C
  C865     1.0000 0.69349  0.48107  0.76703  Biso   1.000  C
  C866     1.0000 0.76135  0.73189  0.49540  Biso   1.000  C
  C867     1.0000 0.47475  0.75398  0.73291  Biso   1.000  C
  C868     1.0000 0.22361  0.47712  0.73361  Biso   1.000  C
  C869     1.0000 0.23226  0.70188  0.02676  Biso   1.000  C
  C870     1.0000 0.96806  0.78327  0.77868  Biso   1.000  C
  C871     1.0000 0.77402  0.97854  0.76113  Biso   1.000  C
  C872     1.0000 0.70052  0.23019  0.47495  Biso   1.000  C
  C873     1.0000 0.97497  0.25294  0.72320  Biso   1.000  C
  C874     1.0000 0.24315  0.98464  0.73761  Biso   1.000  C
  C875     1.0000 0.23717  0.20242  0.04490  Biso   1.000  C
  C876     1.0000 0.50299  0.29038  0.77114  Biso   1.000  C
  C877     1.0000 0.27565  0.49288  0.26971  Biso   1.000  C
  C878     1.0000 0.22580  0.28385  0.53741  Biso   1.000  C
  C879     1.0000 0.50379  0.20505  0.27166  Biso   1.000  C
  C880     1.0000 0.73906  0.53182  0.29944  Biso   1.000  C
  C881     1.0000 0.74288  0.29191  0.00687  Biso   1.000  C
  C882     1.0000 0.99668  0.24105  0.23028  Biso   1.000  C
  C883     1.0000 0.21862  0.97146  0.24492  Biso   1.000  C
  C884     1.0000 0.26686  0.75408  0.54088  Biso   1.000  C
  C885     1.0000 0.01421  0.74357  0.30395  Biso   1.000  C
  C886     1.0000 0.69463  0.02794  0.26707  Biso   1.000  C
  C887     1.0000 0.72536  0.79641  0.00795  Biso   1.000  C
  C888     1.0000 0.48240  0.74266  0.22770  Biso   1.000  C
  C889     1.0000 0.72183  0.99150  0.29284  Biso   1.000  C
  C890     1.0000 0.25278  0.72357  0.98469  Biso   1.000  C
  C891     1.0000 0.99374  0.28571  0.75869  Biso   1.000  C
  C892     1.0000 0.19664  0.01438  0.26434  Biso   1.000  C
  C893     1.0000 0.72642  0.69847  0.51823  Biso   1.000  C
  C894     1.0000 0.48175  0.25406  0.80440  Biso   1.000  C
  C895     1.0000 0.77447  0.51228  0.26744  Biso   1.000  C
  C896     1.0000 0.21019  0.22495  0.00603  Biso   1.000  C
  C897     1.0000 0.51373  0.78172  0.75732  Biso   1.000  C
  C898     1.0000 0.24579  0.46365  0.23842  Biso   1.000  C
  C899     1.0000 0.73249  0.20134  0.50679  Biso   1.000  C
  C900     1.0000 0.99986  0.75519  0.81048  Biso   1.000  C
  C901     1.0000 0.27811  0.95753  0.76627  Biso   1.000  C
  C902     1.0000 0.71368  0.26547  0.97100  Biso   1.000  C
  C903     1.0000 0.99210  0.70801  0.27320  Biso   1.000  C
  C904     1.0000 0.74875  0.01582  0.78955  Biso   1.000  C
  C905     1.0000 0.20210  0.25901  0.49598  Biso   1.000  C
  C906     1.0000 0.46544  0.70526  0.26115  Biso   1.000  C
  C907     1.0000 0.18904  0.50288  0.76441  Biso   1.000  C
  C908     1.0000 0.75579  0.76735  0.04058  Biso   1.000  C
  C909     1.0000 0.47240  0.23475  0.30271  Biso   1.000  C
  C910     1.0000 0.71763  0.51897  0.79324  Biso   1.000  C
  C911     1.0000 0.23322  0.78587  0.51588  Biso   1.000  C
  C912     1.0000 0.95340  0.21644  0.25238  Biso   1.000  C
  C913     1.0000 0.73892  0.50186  0.74747  Biso   1.000  C
  C914     1.0000 0.71083  0.74911  0.50596  Biso   1.000  C
  C915     1.0000 0.49631  0.73490  0.77981  Biso   1.000  C
  C916     1.0000 0.24005  0.49137  0.78180  Biso   1.000  C
  C917     1.0000 0.20788  0.74532  0.00505  Biso   1.000  C
  C918     1.0000 0.98387  0.73651  0.76015  Biso   1.000  C
  C919     1.0000 0.72702  0.99865  0.74412  Biso   1.000  C
  C920     1.0000 0.74787  0.24997  0.48841  Biso   1.000  C
  C921     1.0000 0.97951  0.23650  0.77309  Biso   1.000  C
  C922     1.0000 0.23098  0.97412  0.78785  Biso   1.000  C
  C923     1.0000 0.25879  0.24431  0.01754  Biso   1.000  C
  C924     1.0000 0.49701  0.23860  0.75552  Biso   1.000  C
  C925     1.0000 0.22675  0.47690  0.28484  Biso   1.000  C
  C926     1.0000 0.24450  0.23622  0.51990  Biso   1.000  C
  C927     1.0000 0.48904  0.25572  0.25656  Biso   1.000  C
  C928     1.0000 0.72466  0.52025  0.25013  Biso   1.000  C
  C929     1.0000 0.76082  0.24529  0.98869  Biso   1.000  C
  C930     1.0000 0.97106  0.26212  0.27319  Biso   1.000  C
  C931     1.0000 0.23878  0.99570  0.28418  Biso   1.000  C
  C932     1.0000 0.21439  0.73908  0.53223  Biso   1.000  C
  C933     1.0000 0.99657  0.75897  0.25646  Biso   1.000  C
  C934     1.0000 0.73920  0.01086  0.24541  Biso   1.000  C
  C935     1.0000 0.70513  0.74768  0.02590  Biso   1.000  C
  C936     1.0000 0.47525  0.75323  0.27828  Biso   1.000  C
  C937     1.0000 0.73781  0.26760  0.98889  Biso   1.000  C
  C938     1.0000 0.00425  0.73592  0.27715  Biso   1.000  C
  C939     1.0000 0.25166  0.97053  0.76352  Biso   1.000  C
  C940     1.0000 0.22387  0.26031  0.51706  Biso   1.000  C
  C941     1.0000 0.47226  0.73268  0.25389  Biso   1.000  C
  C942     1.0000 0.74962  0.99644  0.76569  Biso   1.000  C
  C943     1.0000 0.72930  0.77060  0.02445  Biso   1.000  C
  C944     1.0000 0.48784  0.23076  0.27737  Biso   1.000  C
  C945     1.0000 0.21727  0.49108  0.75947  Biso   1.000  C
  C946     1.0000 0.23901  0.76055  0.53051  Biso   1.000  C
  C947     1.0000 0.97209  0.24001  0.25064  Biso   1.000  C
  C948     1.0000 0.71530  0.50130  0.76928  Biso   1.000  C
  C949     1.0000 0.23063  0.72169  0.00441  Biso   1.000  C
  C950     1.0000 0.98292  0.26003  0.75191  Biso   1.000  C
  C951     1.0000 0.71885  0.01115  0.26955  Biso   1.000  C
  C952     1.0000 0.73405  0.72632  0.50762  Biso   1.000  C
  C953     1.0000 0.49450  0.26178  0.77762  Biso   1.000  C
  C954     1.0000 0.21685  0.99329  0.26431  Biso   1.000  C
  C955     1.0000 0.23468  0.22452  0.02418  Biso   1.000  C
  C956     1.0000 0.49454  0.75685  0.75605  Biso   1.000  C
  C957     1.0000 0.74680  0.52177  0.27252  Biso   1.000  C
  C958     1.0000 0.72685  0.22431  0.48795  Biso   1.000  C
  C959     1.0000 0.98353  0.75812  0.78419  Biso   1.000  C
  C960     1.0000 0.24994  0.47781  0.26321  Biso   1.000  C
  Cu1      1.0000 0.97983  0.49889  0.66588  Biso   1.000  Cu
  Cu2      1.0000 0.63373  0.99148  0.50982  Biso   1.000  Cu
  Cu3      1.0000 0.47418  0.64498  0.01965  Biso   1.000  Cu
  Cu4      1.0000 0.47518  0.49698  0.86442  Biso   1.000  Cu
  Cu5      1.0000 0.13728  0.98961  0.02330  Biso   1.000  Cu
  Cu6      1.0000 0.97741  0.65070  0.52076  Biso   1.000  Cu
  Cu7      1.0000 0.48567  0.99789  0.66987  Biso   1.000  Cu
  Cu8      1.0000 0.82925  0.48770  0.51055  Biso   1.000  Cu
  Cu9      1.0000 0.99379  0.14916  0.01333  Biso   1.000  Cu
  Cu10     1.0000 0.98660  0.99756  0.86222  Biso   1.000  Cu
  Cu11     1.0000 0.33337  0.48817  0.01891  Biso   1.000  Cu
  Cu12     1.0000 0.48442  0.14869  0.51616  Biso   1.000  Cu
  Cu13     1.0000 0.98632  0.49961  0.36173  Biso   1.000  Cu
  Cu14     1.0000 0.32842  0.99797  0.52410  Biso   1.000  Cu
  Cu15     1.0000 0.49657  0.34270  0.01850  Biso   1.000  Cu
  Cu16     1.0000 0.49080  0.49590  0.17220  Biso   1.000  Cu
  Cu17     1.0000 0.82974  0.00516  0.00423  Biso   1.000  Cu
  Cu18     1.0000 0.98545  0.34126  0.51186  Biso   1.000  Cu
  Cu19     1.0000 0.48227  0.99099  0.36184  Biso   1.000  Cu
  Cu20     1.0000 0.13668  0.50059  0.51676  Biso   1.000  Cu
  Cu21     1.0000 0.97319  0.84660  0.01950  Biso   1.000  Cu
  Cu22     1.0000 0.98062  0.99800  0.17161  Biso   1.000  Cu
  Cu23     1.0000 0.63652  0.50194  0.01054  Biso   1.000  Cu
  Cu24     1.0000 0.47820  0.84192  0.51760  Biso   1.000  Cu
  Cu25     1.0000 0.19150  0.98459  0.02543  Biso   1.000  Cu
  Cu26     1.0000 0.99514  0.20303  0.01434  Biso   1.000  Cu
  Cu27     1.0000 0.97344  0.99746  0.22485  Biso   1.000  Cu
  Cu28     1.0000 0.68934  0.99216  0.50727  Biso   1.000  Cu
  Cu29     1.0000 0.48308  0.20086  0.51148  Biso   1.000  Cu
  Cu30     1.0000 0.47874  0.99012  0.30775  Biso   1.000  Cu
  Cu31     1.0000 0.28122  0.48675  0.02220  Biso   1.000  Cu
  Cu32     1.0000 0.47214  0.70072  0.01524  Biso   1.000  Cu
  Cu33     1.0000 0.49432  0.49573  0.22764  Biso   1.000  Cu
  Cu34     1.0000 0.77458  0.48556  0.51205  Biso   1.000  Cu
  Cu35     1.0000 0.97402  0.70293  0.52124  Biso   1.000  Cu
  Cu36     1.0000 0.98669  0.50054  0.30771  Biso   1.000  Cu
  Cu37     1.0000 0.77600  0.00669  0.00427  Biso   1.000  Cu
  Cu38     1.0000 0.97155  0.79222  0.02021  Biso   1.000  Cu
  Cu39     1.0000 0.98794  0.99884  0.80868  Biso   1.000  Cu
  Cu40     1.0000 0.27412  0.99683  0.52208  Biso   1.000  Cu
  Cu41     1.0000 0.47558  0.78624  0.51914  Biso   1.000  Cu
  Cu42     1.0000 0.48894  0.99999  0.72545  Biso   1.000  Cu
  Cu43     1.0000 0.69141  0.51016  0.00734  Biso   1.000  Cu
  Cu44     1.0000 0.49963  0.28956  0.02293  Biso   1.000  Cu
  Cu45     1.0000 0.47574  0.49595  0.81014  Biso   1.000  Cu
  Cu46     1.0000 0.19042  0.50213  0.51838  Biso   1.000  Cu
  Cu47     1.0000 0.98800  0.28707  0.51214  Biso   1.000  Cu
  Cu48     1.0000 0.97927  0.49420  0.72059  Biso   1.000  Cu
  H1       1.0000 0.27303  0.73428  0.55068  Biso   1.000  H
  H2       1.0000 0.51109  0.29508  0.74902  Biso   1.000  H
  H3       1.0000 0.71830  0.54058  0.30360  Biso   1.000  H
  H4       1.0000 0.70438  0.80302  0.99947  Biso   1.000  H
  H5       1.0000 0.96954  0.23055  0.71928  Biso   1.000  H
  H6       1.0000 0.27690  0.50040  0.29195  Biso   1.000  H
  H7       1.0000 0.24232  0.28310  0.55367  Biso   1.000  H
  H8       1.0000 0.95354  0.78492  0.75989  Biso   1.000  H
  H9       1.0000 0.69319  0.04306  0.24716  Biso   1.000  H
  H10      1.0000 0.76409  0.29593  0.01666  Biso   1.000  H
  H11      1.0000 0.46064  0.73668  0.73271  Biso   1.000  H
  H12      1.0000 0.23669  0.95649  0.24751  Biso   1.000  H
  H13      1.0000 0.69531  0.25174  0.46162  Biso   1.000  H
  H14      1.0000 0.48953  0.76458  0.22499  Biso   1.000  H
  H15      1.0000 0.24465  0.46571  0.73115  Biso   1.000  H
  H16      1.0000 0.25528  0.20041  0.05842  Biso   1.000  H
  H17      1.0000 0.02132  0.76713  0.30696  Biso   1.000  H
  H18      1.0000 0.69390  0.46434  0.75002  Biso   1.000  H
  H19      1.0000 0.76778  0.75232  0.48524  Biso   1.000  H
  H20      1.0000 0.00960  0.26085  0.22916  Biso   1.000  H
  H21      1.0000 0.22106  0.99360  0.73710  Biso   1.000  H
  H22      1.0000 0.21628  0.70168  0.04390  Biso   1.000  H
  H23      1.0000 0.51762  0.20319  0.25225  Biso   1.000  H
  H24      1.0000 0.77585  0.96782  0.74088  Biso   1.000  H
  H25      1.0000 0.25883  0.99975  0.81149  Biso   1.000  H
  H26      1.0000 0.78413  0.26396  0.02471  Biso   1.000  H
  H27      1.0000 0.02191  0.73698  0.22409  Biso   1.000  H
  H28      1.0000 0.73995  0.95966  0.72346  Biso   1.000  H
  H29      1.0000 0.21623  0.20521  0.49737  Biso   1.000  H
  H30      1.0000 0.43891  0.77799  0.26327  Biso   1.000  H
  H31      1.0000 0.25738  0.52532  0.76017  Biso   1.000  H
  H32      1.0000 0.73696  0.71652  0.04071  Biso   1.000  H
  H33      1.0000 0.45007  0.28069  0.27321  Biso   1.000  H
  H34      1.0000 0.71276  0.52060  0.71366  Biso   1.000  H
  H35      1.0000 0.18881  0.76239  0.50069  Biso   1.000  H
  H36      1.0000 0.94680  0.23747  0.30591  Biso   1.000  H
  H37      1.0000 0.70941  0.98843  0.21853  Biso   1.000  H
  H38      1.0000 0.22934  0.77530  0.97685  Biso   1.000  H
  H39      1.0000 0.95954  0.26203  0.80807  Biso   1.000  H
  H40      1.0000 0.20964  0.97841  0.31954  Biso   1.000  H
  H41      1.0000 0.73988  0.77810  0.52595  Biso   1.000  H
  H42      1.0000 0.47187  0.20453  0.77808  Biso   1.000  H
  H43      1.0000 0.70859  0.48253  0.27058  Biso   1.000  H
  H44      1.0000 0.23321  0.27493  0.99391  Biso   1.000  H
  H45      1.0000 0.46446  0.70524  0.75889  Biso   1.000  H
  H46      1.0000 0.25015  0.45021  0.31795  Biso   1.000  H
  H47      1.0000 0.72173  0.27557  0.51719  Biso   1.000  H
  H48      1.0000 0.00592  0.70916  0.78701  Biso   1.000  H
  H49      1.0000 0.20208  0.50853  0.25696  Biso   1.000  H
  H50      1.0000 0.27544  0.25895  0.54792  Biso   1.000  H
  H51      1.0000 0.52738  0.23993  0.23457  Biso   1.000  H
  H52      1.0000 0.73888  0.55767  0.22556  Biso   1.000  H
  H53      1.0000 0.74973  0.22755  0.94692  Biso   1.000  H
  H54      1.0000 0.99039  0.29139  0.24346  Biso   1.000  H
  H55      1.0000 0.26981  0.01426  0.25479  Biso   1.000  H
  H56      1.0000 0.23706  0.71241  0.56360  Biso   1.000  H
  H57      1.0000 0.96511  0.78410  0.28525  Biso   1.000  H
  H58      1.0000 0.77151  0.03435  0.26892  Biso   1.000  H
  H59      1.0000 0.66801  0.77196  0.00787  Biso   1.000  H
  H60      1.0000 0.50747  0.72818  0.30079  Biso   1.000  H
  H61      1.0000 0.77073  0.48444  0.77702  Biso   1.000  H
  H62      1.0000 0.67855  0.72520  0.48215  Biso   1.000  H
  H63      1.0000 0.52679  0.75778  0.80659  Biso   1.000  H
  H64      1.0000 0.22443  0.45362  0.80178  Biso   1.000  H
  H65      1.0000 0.17803  0.72091  0.03292  Biso   1.000  H
  H66      1.0000 0.95771  0.75978  0.72900  Biso   1.000  H
  H67      1.0000 0.70749  0.03785  0.76311  Biso   1.000  H
  H68      1.0000 0.77886  0.22540  0.46307  Biso   1.000  H
  H69      1.0000 0.00179  0.20369  0.74664  Biso   1.000  H
  H70      1.0000 0.20365  0.94538  0.76596  Biso   1.000  H
  H71      1.0000 0.29313  0.21842  0.03954  Biso   1.000  H
  H72      1.0000 0.52262  0.26592  0.72999  Biso   1.000  H
  H73      1.0000 0.73537  0.53513  0.79313  Biso   1.000  H
  H74      1.0000 0.70482  0.69312  0.52758  Biso   1.000  H
  H75      1.0000 0.52733  0.78575  0.77509  Biso   1.000  H
  H76      1.0000 0.18702  0.51488  0.78490  Biso   1.000  H
  H77      1.0000 0.25607  0.74130  0.96886  Biso   1.000  H
  H78      1.0000 0.01352  0.73598  0.81566  Biso   1.000  H
  H79      1.0000 0.73036  0.02917  0.79261  Biso   1.000  H
  H80      1.0000 0.75382  0.19735  0.51555  Biso   1.000  H
  H81      1.0000 0.00397  0.28930  0.77974  Biso   1.000  H
  H82      1.0000 0.28199  0.94222  0.78494  Biso   1.000  H
  H83      1.0000 0.20661  0.24044  0.98823  Biso   1.000  H
  H84      1.0000 0.47364  0.23162  0.81022  Biso   1.000  H
  H85      1.0000 0.22563  0.45231  0.23420  Biso   1.000  H
  H86      1.0000 0.20394  0.23967  0.48142  Biso   1.000  H
  H87      1.0000 0.46327  0.25440  0.30902  Biso   1.000  H
  H88      1.0000 0.77865  0.50379  0.24690  Biso   1.000  H
  H89      1.0000 0.70951  0.24845  0.95585  Biso   1.000  H
  H90      1.0000 0.93963  0.21465  0.27082  Biso   1.000  H
  H91      1.0000 0.19736  0.03104  0.27941  Biso   1.000  H
  H92      1.0000 0.21237  0.79036  0.50777  Biso   1.000  H
  H93      1.0000 0.98083  0.70453  0.25331  Biso   1.000  H
  H94      1.0000 0.74165  0.97843  0.29504  Biso   1.000  H
  H95      1.0000 0.76146  0.74813  0.05408  Biso   1.000  H
  H96      1.0000 0.45620  0.69961  0.28281  Biso   1.000  H
  H97      1.0000 0.85487  0.00316  0.91626  Biso   1.000  H
  H98      1.0000 0.87954  0.87034  0.00490  Biso   1.000  H
  H99      1.0000 0.99834  0.90682  0.88650  Biso   1.000  H
  H100     1.0000 0.34713  0.99522  0.61149  Biso   1.000  H
  H101     1.0000 0.38677  0.86467  0.51012  Biso   1.000  H
  H102     1.0000 0.48628  0.90868  0.65131  Biso   1.000  H
  H103     1.0000 0.61444  0.50065  0.92062  Biso   1.000  H
  H104     1.0000 0.59270  0.36978  0.01723  Biso   1.000  H
  H105     1.0000 0.47912  0.40744  0.88480  Biso   1.000  H
  H106     1.0000 0.11702  0.49427  0.60740  Biso   1.000  H
  H107     1.0000 0.07504  0.36669  0.49967  Biso   1.000  H
  H108     1.0000 0.98163  0.40424  0.64099  Biso   1.000  H
  H109     1.0000 0.11512  0.98215  0.11569  Biso   1.000  H
  H110     1.0000 0.08477  0.12227  0.02457  Biso   1.000  H
  H111     1.0000 0.98148  0.09052  0.15006  Biso   1.000  H
  H112     1.0000 0.61299  0.99821  0.41731  Biso   1.000  H
  H113     1.0000 0.57443  0.12838  0.51913  Biso   1.000  H
  H114     1.0000 0.49445  0.08037  0.37907  Biso   1.000  H
  H115     1.0000 0.36080  0.48376  0.11469  Biso   1.000  H
  H116     1.0000 0.38392  0.61935  0.00485  Biso   1.000  H
  H117     1.0000 0.48048  0.58935  0.14976  Biso   1.000  H
  H118     1.0000 0.85420  0.50047  0.41825  Biso   1.000  H
  H119     1.0000 0.88527  0.62489  0.52026  Biso   1.000  H
  H120     1.0000 0.99354  0.58673  0.38469  Biso   1.000  H
  H121     1.0000 0.07995  0.00277  0.88960  Biso   1.000  H
  H122     1.0000 0.85614  0.09032  0.99478  Biso   1.000  H
  H123     1.0000 0.96123  0.86316  0.11352  Biso   1.000  H
  H124     1.0000 0.57313  0.00036  0.64356  Biso   1.000  H
  H125     1.0000 0.34811  0.08525  0.54019  Biso   1.000  H
  H126     1.0000 0.47934  0.85754  0.42629  Biso   1.000  H
  H127     1.0000 0.38752  0.51947  0.88592  Biso   1.000  H
  H128     1.0000 0.60648  0.59132  0.01632  Biso   1.000  H
  H129     1.0000 0.49554  0.36603  0.10959  Biso   1.000  H
  H130     1.0000 0.89208  0.49450  0.64484  Biso   1.000  H
  H131     1.0000 0.11358  0.59064  0.52522  Biso   1.000  H
  H132     1.0000 0.97921  0.36650  0.41927  Biso   1.000  H
  H133     1.0000 0.88897  0.01048  0.13989  Biso   1.000  H
  H134     1.0000 0.10978  0.90068  0.01199  Biso   1.000  H
  H135     1.0000 0.99452  0.13150  0.92554  Biso   1.000  H
  H136     1.0000 0.38826  0.00506  0.39016  Biso   1.000  H
  H137     1.0000 0.60942  0.89988  0.50851  Biso   1.000  H
  H138     1.0000 0.47415  0.13194  0.60901  Biso   1.000  H
  H139     1.0000 0.58304  0.48350  0.14767  Biso   1.000  H
  H140     1.0000 0.35957  0.39540  0.02977  Biso   1.000  H
  H141     1.0000 0.48989  0.62495  0.92798  Biso   1.000  H
  H142     1.0000 0.07610  0.49461  0.38335  Biso   1.000  H
  H143     1.0000 0.85312  0.39830  0.51568  Biso   1.000  H
  H144     1.0000 0.97603  0.63143  0.61125  Biso   1.000  H
  H145     1.0000 0.56892  0.49509  0.88092  Biso   1.000  H
  H146     1.0000 0.84618  0.58081  0.51667  Biso   1.000  H
  H147     1.0000 0.48551  0.86670  0.61040  Biso   1.000  H
  H148     1.0000 0.06912  0.48886  0.65198  Biso   1.000  H
  H149     1.0000 0.34599  0.58047  0.00708  Biso   1.000  H
  H150     1.0000 0.98581  0.86715  0.92757  Biso   1.000  H
  H151     1.0000 0.89595  0.98894  0.87389  Biso   1.000  H
  H152     1.0000 0.61532  0.08351  0.50961  Biso   1.000  H
  H153     1.0000 0.99403  0.36334  0.60148  Biso   1.000  H
  H154     1.0000 0.39429  0.98497  0.65220  Biso   1.000  H
  H155     1.0000 0.12578  0.07462  0.02651  Biso   1.000  H
  H156     1.0000 0.49103  0.36177  0.93233  Biso   1.000  H
  H157     1.0000 0.40391  0.49288  0.15891  Biso   1.000  H
  H158     1.0000 0.11796  0.40911  0.51600  Biso   1.000  H
  H159     1.0000 0.49949  0.12250  0.42446  Biso   1.000  H
  H160     1.0000 0.89643  0.50006  0.37670  Biso   1.000  H
  H161     1.0000 0.62805  0.40850  0.01800  Biso   1.000  H
  H162     1.0000 0.98675  0.12901  0.10644  Biso   1.000  H
  H163     1.0000 0.07014  0.98615  0.15910  Biso   1.000  H
  H164     1.0000 0.35149  0.90600  0.51949  Biso   1.000  H
  H165     1.0000 0.98431  0.63393  0.42805  Biso   1.000  H
  H166     1.0000 0.57118  0.99640  0.37541  Biso   1.000  H
  H167     1.0000 0.84293  0.91409  0.00611  Biso   1.000  H
  H168     1.0000 0.47021  0.62863  0.10792  Biso   1.000  H
  H169     1.0000 0.99608  0.08992  0.88323  Biso   1.000  H
  H170     1.0000 0.85024  0.01132  0.09843  Biso   1.000  H
  H171     1.0000 0.06699  0.86257  0.00816  Biso   1.000  H
  H172     1.0000 0.48051  0.09075  0.65204  Biso   1.000  H
  H173     1.0000 0.34894  0.00564  0.42816  Biso   1.000  H
  H174     1.0000 0.56653  0.85886  0.51992  Biso   1.000  H
  H175     1.0000 0.48719  0.58071  0.88347  Biso   1.000  H
  H176     1.0000 0.62380  0.50163  0.09803  Biso   1.000  H
  H177     1.0000 0.40314  0.35781  0.03127  Biso   1.000  H
  H178     1.0000 0.98663  0.59003  0.65105  Biso   1.000  H
  H179     1.0000 0.11466  0.49510  0.42558  Biso   1.000  H
  H180     1.0000 0.89696  0.35682  0.51138  Biso   1.000  H
  H181     1.0000 0.97747  0.90745  0.15297  Biso   1.000  H
  H182     1.0000 0.12377  0.00456  0.93364  Biso   1.000  H
  H183     1.0000 0.90307  0.12983  0.99445  Biso   1.000  H
  H184     1.0000 0.47711  0.89860  0.38434  Biso   1.000  H
  H185     1.0000 0.61714  0.00241  0.59950  Biso   1.000  H
  H186     1.0000 0.38923  0.12400  0.52997  Biso   1.000  H
  H187     1.0000 0.49326  0.40948  0.15396  Biso   1.000  H
  H188     1.0000 0.34721  0.50612  0.92678  Biso   1.000  H
  H189     1.0000 0.55770  0.63338  0.02333  Biso   1.000  H
  H190     1.0000 0.96502  0.40700  0.37949  Biso   1.000  H
  H191     1.0000 0.85120  0.48528  0.60097  Biso   1.000  H
  H192     1.0000 0.06924  0.63249  0.52593  Biso   1.000  H
  H193     1.0000 0.25190  0.85779  0.52746  Biso   1.000  H
  H194     1.0000 0.50600  0.26946  0.87724  Biso   1.000  H
  H195     1.0000 0.84753  0.53692  0.28468  Biso   1.000  H
  H196     1.0000 0.74609  0.86383  0.01814  Biso   1.000  H
  H197     1.0000 0.00254  0.26850  0.65530  Biso   1.000  H
  H198     1.0000 0.34874  0.48035  0.25350  Biso   1.000  H
  H199     1.0000 0.21488  0.35738  0.52054  Biso   1.000  H
  H200     1.0000 0.97319  0.76989  0.87476  Biso   1.000  H
  H201     1.0000 0.62398  0.01662  0.28102  Biso   1.000  H
  H202     1.0000 0.72938  0.36657  0.99423  Biso   1.000  H
  H203     1.0000 0.49008  0.76791  0.66019  Biso   1.000  H
  H204     1.0000 0.12029  0.00074  0.25455  Biso   1.000  H
  H205     1.0000 0.71163  0.13585  0.49744  Biso   1.000  H
  H206     1.0000 0.46614  0.72647  0.15846  Biso   1.000  H
  H207     1.0000 0.12084  0.47430  0.74692  Biso   1.000  H
  H208     1.0000 0.22267  0.12746  0.03871  Biso   1.000  H
  H209     1.0000 0.00226  0.72809  0.37539  Biso   1.000  H
  H210     1.0000 0.61592  0.49810  0.78174  Biso   1.000  H
  H211     1.0000 0.74589  0.62732  0.51016  Biso   1.000  H
  H212     1.0000 0.99089  0.22875  0.15449  Biso   1.000  H
  H213     1.0000 0.34370  0.98690  0.75162  Biso   1.000  H
  H214     1.0000 0.24362  0.62722  0.01169  Biso   1.000  H
  H215     1.0000 0.48918  0.21695  0.36894  Biso   1.000  H
  H216     1.0000 0.84505  0.98548  0.77694  Biso   1.000  H
  H217     1.0000 0.21589  0.49041  0.37713  Biso   1.000  H
  H218     1.0000 0.33641  0.21862  0.50909  Biso   1.000  H
  H219     1.0000 0.48866  0.35226  0.24963  Biso   1.000  H
  H220     1.0000 0.71724  0.52237  0.15122  Biso   1.000  H
  H221     1.0000 0.85407  0.23076  0.99874  Biso   1.000  H
  H222     1.0000 0.96717  0.35363  0.28390  Biso   1.000  H
  H223     1.0000 0.25144  0.01669  0.37958  Biso   1.000  H
  H224     1.0000 0.11759  0.73127  0.53145  Biso   1.000  H
  H225     1.0000 0.97759  0.85291  0.24894  Biso   1.000  H
  H226     1.0000 0.74816  0.01354  0.14483  Biso   1.000  H
  H227     1.0000 0.61238  0.72730  0.04589  Biso   1.000  H
  H228     1.0000 0.49011  0.84331  0.29004  Biso   1.000  H
  H229     1.0000 0.75540  0.47882  0.65244  Biso   1.000  H
  H230     1.0000 0.61471  0.76046  0.51034  Biso   1.000  H
  H231     1.0000 0.49973  0.64014  0.79012  Biso   1.000  H
  H232     1.0000 0.25091  0.49161  0.87692  Biso   1.000  H
  H233     1.0000 0.11010  0.76081  0.99566  Biso   1.000  H
  H234     1.0000 0.97869  0.63813  0.75335  Biso   1.000  H
  H235     1.0000 0.71592  0.00589  0.65119  Biso   1.000  H
  H236     1.0000 0.84237  0.25903  0.50816  Biso   1.000  H
  H237     1.0000 0.98002  0.14229  0.78774  Biso   1.000  H
  H238     1.0000 0.21668  0.97603  0.88048  Biso   1.000  H
  H239     1.0000 0.35556  0.25800  0.01691  Biso   1.000  H
  H240     1.0000 0.50542  0.14391  0.74191  Biso   1.000  H
  H241     1.0000 0.71135  0.49515  0.86189  Biso   1.000  H
  H242     1.0000 0.82955  0.71786  0.51982  Biso   1.000  H
  H243     1.0000 0.49092  0.85242  0.74709  Biso   1.000  H
  H244     1.0000 0.21320  0.48976  0.66346  Biso   1.000  H
  H245     1.0000 0.33129  0.71501  0.99853  Biso   1.000  H
  H246     1.0000 0.98975  0.85713  0.79024  Biso   1.000  H
  H247     1.0000 0.76057  0.00474  0.85809  Biso   1.000  H
  H248     1.0000 0.63236  0.22352  0.50936  Biso   1.000  H
  H249     1.0000 0.96644  0.35621  0.73799  Biso   1.000  H
  H250     1.0000 0.25627  0.96923  0.67023  Biso   1.000  H
  H251     1.0000 0.13871  0.21652  0.03970  Biso   1.000  H
  H252     1.0000 0.47642  0.35548  0.79066  Biso   1.000  H
  H253     1.0000 0.26242  0.48111  0.16753  Biso   1.000  H
  H254     1.0000 0.13157  0.27074  0.50216  Biso   1.000  H
  H255     1.0000 0.47838  0.13461  0.28610  Biso   1.000  H
  H256     1.0000 0.75683  0.51038  0.36543  Biso   1.000  H
  H257     1.0000 0.64582  0.27577  0.99236  Biso   1.000  H
  H258     1.0000 0.97500  0.14354  0.24600  Biso   1.000  H
  H259     1.0000 0.20786  0.99005  0.17471  Biso   1.000  H
  H260     1.0000 0.33412  0.76903  0.51104  Biso   1.000  H
  H261     1.0000 0.01124  0.64206  0.28996  Biso   1.000  H
  H262     1.0000 0.71022  0.01135  0.36394  Biso   1.000  H
  H263     1.0000 0.82301  0.77517  0.01098  Biso   1.000  H
  H264     1.0000 0.49502  0.64353  0.24390  Biso   1.000  H
  H265     1.0000 0.00237  0.22763  0.87104  Biso   1.000  H
  H266     1.0000 0.82845  0.99425  0.23380  Biso   1.000  H
  H267     1.0000 0.20407  0.84162  0.01096  Biso   1.000  H
  H268     1.0000 0.48674  0.22800  0.65848  Biso   1.000  H
  H269     1.0000 0.33479  0.98144  0.29637  Biso   1.000  H
  H270     1.0000 0.70287  0.84422  0.49343  Biso   1.000  H
  H271     1.0000 0.49926  0.72361  0.87656  Biso   1.000  H
  H272     1.0000 0.63852  0.50148  0.23853  Biso   1.000  H
  H273     1.0000 0.26543  0.33948  0.02422  Biso   1.000  H
  H274     1.0000 0.98320  0.72856  0.66430  Biso   1.000  H
  H275     1.0000 0.13332  0.46489  0.29054  Biso   1.000  H
  H276     1.0000 0.76072  0.34627  0.49228  Biso   1.000  H
  H277     1.0000 0.97459  0.76775  0.16488  Biso   1.000  H
  H278     1.0000 0.13431  0.98832  0.79301  Biso   1.000  H
  H279     1.0000 0.76496  0.15229  0.98726  Biso   1.000  H
  H280     1.0000 0.48529  0.76065  0.37555  Biso   1.000  H
  H281     1.0000 0.63153  0.00922  0.73891  Biso   1.000  H
  H282     1.0000 0.24960  0.13533  0.53433  Biso   1.000  H
  H283     1.0000 0.49613  0.26727  0.16236  Biso   1.000  H
  H284     1.0000 0.33532  0.49577  0.79113  Biso   1.000  H
  H285     1.0000 0.70140  0.65123  0.01218  Biso   1.000  H
  H286     1.0000 0.97691  0.26975  0.36625  Biso   1.000  H
  H287     1.0000 0.83580  0.51364  0.73777  Biso   1.000  H
  H288     1.0000 0.20827  0.64940  0.52820  Biso   1.000  H
  H289     1.0000 0.08613  0.21541  0.03274  Biso   1.000  H
  H290     1.0000 0.97448  0.08934  0.24596  Biso   1.000  H
  H291     1.0000 0.21020  0.98620  0.11752  Biso   1.000  H
  H292     1.0000 0.57555  0.22246  0.51584  Biso   1.000  H
  H293     1.0000 0.47201  0.07804  0.28827  Biso   1.000  H
  H294     1.0000 0.71241  0.00326  0.41712  Biso   1.000  H
  H295     1.0000 0.38469  0.71505  0.00272  Biso   1.000  H
  H296     1.0000 0.49162  0.58741  0.24554  Biso   1.000  H
  H297     1.0000 0.26394  0.48195  0.11360  Biso   1.000  H
  H298     1.0000 0.88404  0.71878  0.51816  Biso   1.000  H
  H299     1.0000 0.00554  0.59022  0.29095  Biso   1.000  H
  H300     1.0000 0.75828  0.49249  0.42070  Biso   1.000  H
  H301     1.0000 0.87908  0.77156  0.01177  Biso   1.000  H
  H302     1.0000 0.99326  0.90951  0.79061  Biso   1.000  H
  H303     1.0000 0.76069  0.01180  0.91539  Biso   1.000  H
  H304     1.0000 0.38478  0.76851  0.50879  Biso   1.000  H
  H305     1.0000 0.50299  0.90437  0.74576  Biso   1.000  H
  H306     1.0000 0.25228  0.98392  0.61376  Biso   1.000  H
  H307     1.0000 0.59119  0.27410  0.99396  Biso   1.000  H
  H308     1.0000 0.46906  0.40867  0.79395  Biso   1.000  H
  H309     1.0000 0.70877  0.49026  0.91607  Biso   1.000  H
  H310     1.0000 0.07505  0.27263  0.49820  Biso   1.000  H
  H311     1.0000 0.96234  0.40859  0.73365  Biso   1.000  H
  H312     1.0000 0.21069  0.49686  0.60957  Biso   1.000  H
  H313     1.0000 0.21424  0.97549  0.93341  Biso   1.000  H
  H314     1.0000 0.91083  0.22463  0.99790  Biso   1.000  H
  H315     1.0000 0.97506  0.90735  0.24816  Biso   1.000  H
  H316     1.0000 0.71487  0.99330  0.59661  Biso   1.000  H
  H317     1.0000 0.39440  0.22002  0.51439  Biso   1.000  H
  H318     1.0000 0.48598  0.90075  0.28883  Biso   1.000  H
  H319     1.0000 0.25336  0.49317  0.93419  Biso   1.000  H
  H320     1.0000 0.55517  0.72372  0.04357  Biso   1.000  H
  H321     1.0000 0.48882  0.40301  0.24903  Biso   1.000  H
  H322     1.0000 0.75596  0.48022  0.59854  Biso   1.000  H
  H323     1.0000 0.06315  0.72771  0.53529  Biso   1.000  H
  H324     1.0000 0.96360  0.40773  0.28123  Biso   1.000  H
  H325     1.0000 0.75262  0.02290  0.09175  Biso   1.000  H
  H326     1.0000 0.05758  0.76822  0.00262  Biso   1.000  H
  H327     1.0000 0.98016  0.08736  0.78889  Biso   1.000  H
  H328     1.0000 0.25055  0.01999  0.43324  Biso   1.000  H
  H329     1.0000 0.56371  0.76288  0.52062  Biso   1.000  H
  H330     1.0000 0.50045  0.09095  0.74542  Biso   1.000  H
  H331     1.0000 0.71542  0.52302  0.09802  Biso   1.000  H
  H332     1.0000 0.40884  0.25978  0.02181  Biso   1.000  H
  H333     1.0000 0.49259  0.58642  0.78870  Biso   1.000  H
  H334     1.0000 0.21100  0.49921  0.42628  Biso   1.000  H
  H335     1.0000 0.89694  0.26000  0.52233  Biso   1.000  H
  H336     1.0000 0.97677  0.58340  0.74782  Biso   1.000  H
  H337     1.0000 0.00900  0.22567  0.92423  Biso   1.000  H
  H338     1.0000 0.88298  0.98763  0.23419  Biso   1.000  H
  H339     1.0000 0.20581  0.89654  0.01512  Biso   1.000  H
  H340     1.0000 0.47837  0.22731  0.60336  Biso   1.000  H
  H341     1.0000 0.39167  0.98441  0.29619  Biso   1.000  H
  H342     1.0000 0.70615  0.90053  0.49867  Biso   1.000  H
  H343     1.0000 0.49757  0.71944  0.93016  Biso   1.000  H
  H344     1.0000 0.58630  0.49176  0.24267  Biso   1.000  H
  H345     1.0000 0.26644  0.39443  0.02709  Biso   1.000  H
  H346     1.0000 0.97630  0.72741  0.60928  Biso   1.000  H
  H347     1.0000 0.07827  0.46851  0.29020  Biso   1.000  H
  H348     1.0000 0.75886  0.39830  0.49526  Biso   1.000  H
  H349     1.0000 0.96121  0.76704  0.11087  Biso   1.000  H
  H350     1.0000 0.08035  0.99146  0.79057  Biso   1.000  H
  H351     1.0000 0.76026  0.09936  0.98650  Biso   1.000  H
  H352     1.0000 0.48226  0.76141  0.42906  Biso   1.000  H
  H353     1.0000 0.57838  0.00760  0.74175  Biso   1.000  H
  H354     1.0000 0.25401  0.08305  0.54683  Biso   1.000  H
  H355     1.0000 0.50736  0.26666  0.11113  Biso   1.000  H
  H356     1.0000 0.38868  0.50623  0.78842  Biso   1.000  H
  H357     1.0000 0.70269  0.60082  0.99784  Biso   1.000  H
  H358     1.0000 0.97916  0.27090  0.42122  Biso   1.000  H
  H359     1.0000 0.89287  0.51500  0.73874  Biso   1.000  H
  H360     1.0000 0.20853  0.59509  0.52851  Biso   1.000  H
  H361     1.0000 0.99520  0.73027  0.42890  Biso   1.000  H
  H362     1.0000 0.39538  0.98901  0.75001  Biso   1.000  H
  H363     1.0000 0.72347  0.42027  0.00837  Biso   1.000  H
  H364     1.0000 0.46407  0.72373  0.10382  Biso   1.000  H
  H365     1.0000 0.89894  0.97800  0.78121  Biso   1.000  H
  H366     1.0000 0.21344  0.41101  0.51900  Biso   1.000  H
  H367     1.0000 0.48692  0.21675  0.42265  Biso   1.000  H
  H368     1.0000 0.06726  0.47209  0.74637  Biso   1.000  H
  H369     1.0000 0.74743  0.91829  0.01544  Biso   1.000  H
  H370     1.0000 0.99524  0.22338  0.10395  Biso   1.000  H
  H371     1.0000 0.56168  0.49013  0.78882  Biso   1.000  H
  H372     1.0000 0.25390  0.90982  0.52819  Biso   1.000  H
  H373     1.0000 0.00969  0.26901  0.60193  Biso   1.000  H
  H374     1.0000 0.56966  0.00738  0.28012  Biso   1.000  H
  H375     1.0000 0.24902  0.57307  0.01133  Biso   1.000  H
  H376     1.0000 0.51187  0.26903  0.92992  Biso   1.000  H
  H377     1.0000 0.06638  0.00164  0.25077  Biso   1.000  H
  H378     1.0000 0.75049  0.57481  0.51125  Biso   1.000  H
  H379     1.0000 0.48737  0.77086  0.60685  Biso   1.000  H
  H380     1.0000 0.90046  0.53424  0.28726  Biso   1.000  H
  H381     1.0000 0.22141  0.07502  0.03398  Biso   1.000  H
  H382     1.0000 0.97134  0.77227  0.92859  Biso   1.000  H
  H383     1.0000 0.40295  0.48923  0.25367  Biso   1.000  H
  H384     1.0000 0.71238  0.08322  0.50141  Biso   1.000  H
  H385     1.0000 0.21223  0.45148  0.35204  Biso   1.000  H
  H386     1.0000 0.24913  0.16626  0.49955  Biso   1.000  H
  H387     1.0000 0.45535  0.32004  0.23971  Biso   1.000  H
  H388     1.0000 0.67046  0.47364  0.23320  Biso   1.000  H
  H389     1.0000 0.81706  0.22141  0.03184  Biso   1.000  H
  H390     1.0000 0.94423  0.27254  0.34064  Biso   1.000  H
  H391     1.0000 0.25043  0.97411  0.35403  Biso   1.000  H
  H392     1.0000 0.15037  0.72696  0.49673  Biso   1.000  H
  H393     1.0000 0.01301  0.77481  0.18715  Biso   1.000  H
  H394     1.0000 0.74450  0.98435  0.17602  Biso   1.000  H
  H395     1.0000 0.70251  0.67635  0.04642  Biso   1.000  H
  H396     1.0000 0.44058  0.81449  0.30040  Biso   1.000  H
  H397     1.0000 0.74849  0.51706  0.67618  Biso   1.000  H
  H398     1.0000 0.70644  0.81902  0.52756  Biso   1.000  H
  H399     1.0000 0.46671  0.66874  0.79607  Biso   1.000  H
  H400     1.0000 0.29943  0.53204  0.79728  Biso   1.000  H
  H401     1.0000 0.19346  0.81153  0.97658  Biso   1.000  H
  H402     1.0000 0.01205  0.66931  0.74969  Biso   1.000  H
  H403     1.0000 0.70607  0.96465  0.68127  Biso   1.000  H
  H404     1.0000 0.75748  0.31285  0.52317  Biso   1.000  H
  H405     1.0000 0.96433  0.22374  0.84631  Biso   1.000  H
  H406     1.0000 0.22157  0.01146  0.84986  Biso   1.000  H
  H407     1.0000 0.27042  0.31354  0.98838  Biso   1.000  H
  H408     1.0000 0.46837  0.17327  0.73815  Biso   1.000  H
  H409     1.0000 0.26366  0.44897  0.19860  Biso   1.000  H
  H410     1.0000 0.16707  0.27815  0.47454  Biso   1.000  H
  H411     1.0000 0.45682  0.21491  0.34259  Biso   1.000  H
  H412     1.0000 0.81721  0.50225  0.28219  Biso   1.000  H
  H413     1.0000 0.67073  0.28614  0.96121  Biso   1.000  H
  H414     1.0000 0.93972  0.17696  0.23315  Biso   1.000  H
  H415     1.0000 0.16102  0.03539  0.24211  Biso   1.000  H
  H416     1.0000 0.24676  0.82694  0.49953  Biso   1.000  H
  H417     1.0000 0.98100  0.66548  0.29223  Biso   1.000  H
  H418     1.0000 0.70248  0.97499  0.33326  Biso   1.000  H
  H419     1.0000 0.79762  0.78220  0.04661  Biso   1.000  H
  H420     1.0000 0.46242  0.66309  0.24782  Biso   1.000  H
  H421     1.0000 0.69831  0.53064  0.83298  Biso   1.000  H
  H422     1.0000 0.73998  0.65784  0.53546  Biso   1.000  H
  H423     1.0000 0.52884  0.82131  0.73842  Biso   1.000  H
  H424     1.0000 0.14785  0.51070  0.75098  Biso   1.000  H
  H425     1.0000 0.29032  0.70529  0.96735  Biso   1.000  H
  H426     1.0000 0.01338  0.77345  0.85040  Biso   1.000  H
  H427     1.0000 0.76669  0.03414  0.82814  Biso   1.000  H
  H428     1.0000 0.71330  0.16597  0.52741  Biso   1.000  H
  H429     1.0000 0.00280  0.32985  0.74505  Biso   1.000  H
  H430     1.0000 0.31884  0.94682  0.74635  Biso   1.000  H
  H431     1.0000 0.16487  0.21337  0.00165  Biso   1.000  H
  H432     1.0000 0.47594  0.26689  0.84647  Biso   1.000  H
  H433     1.0000 0.25683  0.00024  0.69715  Biso   1.000  H
  H434     1.0000 0.72361  0.32926  0.02718  Biso   1.000  H
  H435     1.0000 0.02592  0.73085  0.34746  Biso   1.000  H
  H436     1.0000 0.81109  0.95976  0.78285  Biso   1.000  H
  H437     1.0000 0.20977  0.32499  0.54725  Biso   1.000  H
  H438     1.0000 0.49353  0.73237  0.18476  Biso   1.000  H
  H439     1.0000 0.20891  0.46039  0.69344  Biso   1.000  H
  H440     1.0000 0.73998  0.83780  0.99175  Biso   1.000  H
  H441     1.0000 0.51641  0.16295  0.28743  Biso   1.000  H
  H442     1.0000 0.65356  0.46407  0.78762  Biso   1.000  H
  H443     1.0000 0.30764  0.77024  0.54893  Biso   1.000  H
  H444     1.0000 0.01942  0.22139  0.19751  Biso   1.000  H
  H445     1.0000 0.65568  0.04514  0.28434  Biso   1.000  H
  H446     1.0000 0.25505  0.66607  0.04820  Biso   1.000  H
  H447     1.0000 0.96297  0.26794  0.68172  Biso   1.000  H
  H448     1.0000 0.19998  0.95587  0.20637  Biso   1.000  H
  H449     1.0000 0.80306  0.71608  0.48729  Biso   1.000  H
  H450     1.0000 0.51230  0.33212  0.78752  Biso   1.000  H
  H451     1.0000 0.75516  0.54158  0.34136  Biso   1.000  H
  H452     1.0000 0.21568  0.16539  0.06321  Biso   1.000  H
  H453     1.0000 0.45863  0.77049  0.69211  Biso   1.000  H
  H454     1.0000 0.31643  0.51115  0.25283  Biso   1.000  H
  H455     1.0000 0.65517  0.21781  0.46918  Biso   1.000  H
  H456     1.0000 0.95678  0.82666  0.79205  Biso   1.000  H
  H457     1.0000 0.64288  0.76355  0.48190  Biso   1.000  H
  H458     1.0000 0.52922  0.72356  0.84642  Biso   1.000  H
  H459     1.0000 0.80948  0.48030  0.74100  Biso   1.000  H
  H460     1.0000 0.13959  0.75770  0.03551  Biso   1.000  H
  H461     1.0000 0.95449  0.72320  0.69420  Biso   1.000  H
  H462     1.0000 0.26386  0.45528  0.84122  Biso   1.000  H
  H463     1.0000 0.81776  0.25896  0.47192  Biso   1.000  H
  H464     1.0000 0.01519  0.17154  0.78469  Biso   1.000  H
  H465     1.0000 0.66913  0.03968  0.72694  Biso   1.000  H
  H466     1.0000 0.32571  0.25549  0.04754  Biso   1.000  H
  H467     1.0000 0.52107  0.23518  0.68717  Biso   1.000  H
  H468     1.0000 0.16035  0.95437  0.80083  Biso   1.000  H
  H469     1.0000 0.31130  0.22098  0.54649  Biso   1.000  H
  H470     1.0000 0.53136  0.27676  0.19936  Biso   1.000  H
  H471     1.0000 0.16048  0.50454  0.28680  Biso   1.000  H
  H472     1.0000 0.78274  0.18642  0.95029  Biso   1.000  H
  H473     1.0000 0.99882  0.32837  0.28739  Biso   1.000  H
  H474     1.0000 0.70413  0.55402  0.18624  Biso   1.000  H
  H475     1.0000 0.19385  0.67775  0.56518  Biso   1.000  H
  H476     1.0000 0.95246  0.81892  0.24679  Biso   1.000  H
  H477     1.0000 0.30771  0.01868  0.29303  Biso   1.000  H
  H478     1.0000 0.63556  0.73030  0.00774  Biso   1.000  H
  H479     1.0000 0.51193  0.76421  0.34038  Biso   1.000  H
  H480     1.0000 0.80868  0.02986  0.22973  Biso   1.000  H
  N1       1.0000 0.66108  0.16875  0.50189  Biso   1.000  N
  N2       1.0000 0.47856  0.67338  0.19202  Biso   1.000  N
  N3       1.0000 0.15514  0.48400  0.69577  Biso   1.000  N
  N4       1.0000 0.17006  0.16248  0.03319  Biso   1.000  N
  N5       1.0000 0.00514  0.67498  0.34449  Biso   1.000  N
  N6       1.0000 0.65268  0.49643  0.83268  Biso   1.000  N
  N7       1.0000 0.79688  0.66337  0.51603  Biso   1.000  N
  N8       1.0000 0.97836  0.17627  0.19038  Biso   1.000  N
  N9       1.0000 0.30989  0.97731  0.69861  Biso   1.000  N
  N10      1.0000 0.29752  0.66190  0.00837  Biso   1.000  N
  N11      1.0000 0.48779  0.16349  0.33830  Biso   1.000  N
  N12      1.0000 0.81179  0.99491  0.82952  Biso   1.000  N
  N13      1.0000 0.30188  0.82258  0.51811  Biso   1.000  N
  N14      1.0000 0.49091  0.32227  0.84341  Biso   1.000  N
  N15      1.0000 0.81059  0.52021  0.33499  Biso   1.000  N
  N16      1.0000 0.79553  0.83203  0.01092  Biso   1.000  N
  N17      1.0000 0.98577  0.32093  0.68780  Biso   1.000  N
  N18      1.0000 0.31407  0.48201  0.19974  Biso   1.000  N
  N19      1.0000 0.16331  0.32423  0.51099  Biso   1.000  N
  N20      1.0000 0.98478  0.82393  0.84226  Biso   1.000  N
  N21      1.0000 0.65630  0.00981  0.33465  Biso   1.000  N
  N22      1.0000 0.67477  0.32987  0.99802  Biso   1.000  N
  N23      1.0000 0.48773  0.82122  0.69399  Biso   1.000  N
  N24      1.0000 0.15534  0.99186  0.20145  Biso   1.000  N
  N25      1.0000 0.80376  0.49701  0.68694  Biso   1.000  N
  N26      1.0000 0.65024  0.81498  0.50660  Biso   1.000  N
  N27      1.0000 0.49829  0.66976  0.84377  Biso   1.000  N
  N28      1.0000 0.30354  0.49614  0.84327  Biso   1.000  N
  N29      1.0000 0.14672  0.81140  0.00670  Biso   1.000  N
  N30      1.0000 0.98322  0.67351  0.69862  Biso   1.000  N
  N31      1.0000 0.66202  0.00270  0.68397  Biso   1.000  N
  N32      1.0000 0.81300  0.31164  0.50148  Biso   1.000  N
  N33      1.0000 0.98956  0.17435  0.83781  Biso   1.000  N
  N34      1.0000 0.16479  0.99033  0.84531  Biso   1.000  N
  N35      1.0000 0.32125  0.30980  0.02011  Biso   1.000  N
  N36      1.0000 0.49259  0.17823  0.68966  Biso   1.000  N
  N37      1.0000 0.16165  0.48297  0.34331  Biso   1.000  N
  N38      1.0000 0.30546  0.16985  0.52208  Biso   1.000  N
  N39      1.0000 0.49129  0.32002  0.19451  Biso   1.000  N
  N40      1.0000 0.66680  0.50581  0.18420  Biso   1.000  N
  N41      1.0000 0.82100  0.17969  0.99230  Biso   1.000  N
  N42      1.0000 0.97406  0.32262  0.33613  Biso   1.000  N
  N43      1.0000 0.30071  0.99703  0.34748  Biso   1.000  N
  N44      1.0000 0.15140  0.67809  0.52727  Biso   1.000  N
  N45      1.0000 0.97667  0.82065  0.19620  Biso   1.000  N
  N46      1.0000 0.80050  0.00724  0.17979  Biso   1.000  N
  N47      1.0000 0.64582  0.67868  0.02957  Biso   1.000  N
  N48      1.0000 0.48022  0.81293  0.34189  Biso   1.000  N
  O1       1.0000 0.32585  0.53041  0.01721  Biso   1.000  O
  O2       1.0000 0.99208  0.33860  0.55251  Biso   1.000  O
  O3       1.0000 0.52404  0.99388  0.35315  Biso   1.000  O
  O4       1.0000 0.82585  0.52885  0.50966  Biso   1.000  O
  O5       1.0000 0.49353  0.33940  0.97806  Biso   1.000  O
  O6       1.0000 0.02346  0.99919  0.17528  Biso   1.000  O
  O7       1.0000 0.14622  0.03048  0.03439  Biso   1.000  O
  O8       1.0000 0.48092  0.84215  0.55814  Biso   1.000  O
  O9       1.0000 0.94636  0.51103  0.35741  Biso   1.000  O
  O10      1.0000 0.63715  0.03276  0.51109  Biso   1.000  O
  O11      1.0000 0.97134  0.84624  0.97714  Biso   1.000  O
  O12      1.0000 0.44940  0.49396  0.18064  Biso   1.000  O
  O13      1.0000 0.64492  0.46182  0.01200  Biso   1.000  O
  O14      1.0000 0.97954  0.65579  0.47664  Biso   1.000  O
  O15      1.0000 0.44409  0.99621  0.67485  Biso   1.000  O
  O16      1.0000 0.14182  0.45894  0.51268  Biso   1.000  O
  O17      1.0000 0.46346  0.65160  0.06025  Biso   1.000  O
  O18      1.0000 0.94689  0.99053  0.85484  Biso   1.000  O
  O19      1.0000 0.82283  0.96395  0.00994  Biso   1.000  O
  O20      1.0000 0.48770  0.14787  0.47487  Biso   1.000  O
  O21      1.0000 0.02157  0.49405  0.67203  Biso   1.000  O
  O22      1.0000 0.32845  0.95607  0.52041  Biso   1.000  O
  O23      1.0000 0.98770  0.15126  0.05457  Biso   1.000  O
  O24      1.0000 0.51658  0.49350  0.86264  Biso   1.000  O
  O25      1.0000 0.93984  0.00001  0.17018  Biso   1.000  O
  O26      1.0000 0.13662  0.94819  0.01894  Biso   1.000  O
  O27      1.0000 0.00075  0.15389  0.97291  Biso   1.000  O
  O28      1.0000 0.43965  0.98865  0.36428  Biso   1.000  O
  O29      1.0000 0.63638  0.94975  0.51257  Biso   1.000  O
  O30      1.0000 0.48475  0.15325  0.55859  Biso   1.000  O
  O31      1.0000 0.53442  0.49252  0.17048  Biso   1.000  O
  O32      1.0000 0.33618  0.44649  0.01661  Biso   1.000  O
  O33      1.0000 0.48720  0.64950  0.97901  Biso   1.000  O
  O34      1.0000 0.02744  0.48982  0.35863  Biso   1.000  O
  O35      1.0000 0.82952  0.44624  0.50921  Biso   1.000  O
  O36      1.0000 0.97743  0.65353  0.56374  Biso   1.000  O
  O37      1.0000 0.02845  0.00420  0.86202  Biso   1.000  O
  O38      1.0000 0.83026  0.04589  0.99414  Biso   1.000  O
  O39      1.0000 0.97262  0.84053  0.06169  Biso   1.000  O
  O40      1.0000 0.52561  0.00198  0.67047  Biso   1.000  O
  O41      1.0000 0.32577  0.03907  0.52713  Biso   1.000  O
  O42      1.0000 0.47265  0.83490  0.47649  Biso   1.000  O
  O43      1.0000 0.43207  0.50215  0.86096  Biso   1.000  O
  O44      1.0000 0.63451  0.54467  0.00711  Biso   1.000  O
  O45      1.0000 0.50205  0.34000  0.05999  Biso   1.000  O
  O46      1.0000 0.94038  0.49969  0.66895  Biso   1.000  O
  O47      1.0000 0.13942  0.54229  0.51991  Biso   1.000  O
  O48      1.0000 0.97727  0.34112  0.46708  Biso   1.000  O
  O49      1.0000 0.97976  0.95654  0.17799  Biso   1.000  O
  O50      1.0000 0.14139  0.99578  0.98096  Biso   1.000  O
  O51      1.0000 0.95291  0.15266  0.00550  Biso   1.000  O
  O52      1.0000 0.48155  0.94903  0.35991  Biso   1.000  O
  O53      1.0000 0.63623  0.99330  0.55326  Biso   1.000  O
  O54      1.0000 0.44185  0.14851  0.51555  Biso   1.000  O
  O55      1.0000 0.49390  0.45491  0.17691  Biso   1.000  O
  O56      1.0000 0.32908  0.49199  0.97756  Biso   1.000  O
  O57      1.0000 0.51334  0.65353  0.02977  Biso   1.000  O
  O58      1.0000 0.97287  0.45842  0.35386  Biso   1.000  O
  O59      1.0000 0.82820  0.48439  0.55159  Biso   1.000  O
  O60      1.0000 0.01881  0.65531  0.52255  Biso   1.000  O
  O61      1.0000 0.98517  0.04041  0.86257  Biso   1.000  O
  O62      1.0000 0.82711  0.01200  0.04401  Biso   1.000  O
  O63      1.0000 0.01607  0.84152  0.01653  Biso   1.000  O
  O64      1.0000 0.48190  0.03935  0.67539  Biso   1.000  O
  O65      1.0000 0.32435  0.00297  0.48204  Biso   1.000  O
  O66      1.0000 0.51748  0.83941  0.51706  Biso   1.000  O
  O67      1.0000 0.47672  0.53873  0.86221  Biso   1.000  O
  O68      1.0000 0.64336  0.50567  0.05177  Biso   1.000  O
  O69      1.0000 0.45473  0.33801  0.02505  Biso   1.000  O
  O70      1.0000 0.98132  0.54085  0.67106  Biso   1.000  O
  O71      1.0000 0.13685  0.50679  0.47548  Biso   1.000  O
  O72      1.0000 0.94545  0.33305  0.52101  Biso   1.000  O
  O73      1.0000 0.97968  0.45687  0.66249  Biso   1.000  O
  O74      1.0000 0.63801  0.99206  0.46729  Biso   1.000  O
  O75      1.0000 0.43223  0.64378  0.01062  Biso   1.000  O
  O76      1.0000 0.46675  0.45591  0.86166  Biso   1.000  O
  O77      1.0000 0.14310  0.98118  0.06607  Biso   1.000  O
  O78      1.0000 0.93466  0.64828  0.51729  Biso   1.000  O
  O79      1.0000 0.48761  0.95572  0.67393  Biso   1.000  O
  O80      1.0000 0.82900  0.49028  0.46917  Biso   1.000  O
  O81      1.0000 0.03529  0.14833  0.01638  Biso   1.000  O
  O82      1.0000 0.99396  0.95722  0.86058  Biso   1.000  O
  O83      1.0000 0.33590  0.48599  0.06195  Biso   1.000  O
  O84      1.0000 0.52596  0.15376  0.51806  Biso   1.000  O
  O85      1.0000 0.99580  0.53992  0.36064  Biso   1.000  O
  O86      1.0000 0.32487  0.99656  0.56653  Biso   1.000  O
  O87      1.0000 0.53885  0.34301  0.01384  Biso   1.000  O
  O88      1.0000 0.49030  0.53821  0.17300  Biso   1.000  O
  O89      1.0000 0.83017  0.99985  0.96300  Biso   1.000  O
  O90      1.0000 0.02622  0.34068  0.50108  Biso   1.000  O
  O91      1.0000 0.47871  0.03348  0.36060  Biso   1.000  O
  O92      1.0000 0.14022  0.49601  0.56038  Biso   1.000  O
  O93      1.0000 0.93155  0.84459  0.02044  Biso   1.000  O
  O94      1.0000 0.97983  0.04118  0.17511  Biso   1.000  O
  O95      1.0000 0.64300  0.49764  0.96770  Biso   1.000  O
  O96      1.0000 0.43610  0.83850  0.51995  Biso   1.000  O
  O97      1.0000 0.44228  0.19738  0.51230  Biso   1.000  O
  O98      1.0000 0.49081  0.45370  0.22503  Biso   1.000  O
  O99      1.0000 0.18627  0.50421  0.47757  Biso   1.000  O
  O100     1.0000 0.95386  0.20036  0.01121  Biso   1.000  O
  O101     1.0000 0.97660  0.45905  0.30689  Biso   1.000  O
  O102     1.0000 0.69206  0.51166  0.04987  Biso   1.000  O
  O103     1.0000 0.01410  0.70176  0.52897  Biso   1.000  O
  O104     1.0000 0.96951  0.95568  0.22545  Biso   1.000  O
  O105     1.0000 0.27541  0.01145  0.48310  Biso   1.000  O
  O106     1.0000 0.51354  0.70146  0.02525  Biso   1.000  O
  O107     1.0000 0.48132  0.94861  0.31073  Biso   1.000  O
  O108     1.0000 0.77760  0.00997  0.04481  Biso   1.000  O
  O109     1.0000 0.51647  0.79154  0.52054  Biso   1.000  O
  O110     1.0000 0.47879  0.53852  0.81437  Biso   1.000  O
  O111     1.0000 0.77910  0.48429  0.55336  Biso   1.000  O
  O112     1.0000 0.01123  0.79305  0.01886  Biso   1.000  O
  O113     1.0000 0.98247  0.53522  0.71904  Biso   1.000  O
  O114     1.0000 0.28079  0.49115  0.98021  Biso   1.000  O
  O115     1.0000 0.94753  0.28564  0.51845  Biso   1.000  O
  O116     1.0000 0.97845  0.03976  0.81429  Biso   1.000  O
  O117     1.0000 0.68516  0.99164  0.54874  Biso   1.000  O
  O118     1.0000 0.45739  0.28967  0.02500  Biso   1.000  O
  O119     1.0000 0.48794  0.04288  0.72289  Biso   1.000  O
  O120     1.0000 0.18940  0.98660  0.98313  Biso   1.000  O
  O121     1.0000 0.02121  0.48970  0.72158  Biso   1.000  O
  O122     1.0000 0.68592  0.03333  0.50830  Biso   1.000  O
  O123     1.0000 0.46390  0.70031  0.05743  Biso   1.000  O
  O124     1.0000 0.51626  0.49265  0.81363  Biso   1.000  O
  O125     1.0000 0.19328  0.02725  0.02745  Biso   1.000  O
  O126     1.0000 0.97867  0.70408  0.47871  Biso   1.000  O
  O127     1.0000 0.44594  0.99658  0.72475  Biso   1.000  O
  O128     1.0000 0.77651  0.52759  0.51370  Biso   1.000  O
  O129     1.0000 0.99058  0.20085  0.05550  Biso   1.000  O
  O130     1.0000 0.94907  0.98874  0.80573  Biso   1.000  O
  O131     1.0000 0.27715  0.52899  0.02791  Biso   1.000  O
  O132     1.0000 0.48394  0.19513  0.47037  Biso   1.000  O
  O133     1.0000 0.94550  0.51194  0.30735  Biso   1.000  O
  O134     1.0000 0.27903  0.95492  0.51968  Biso   1.000  O
  O135     1.0000 0.49931  0.29076  0.97898  Biso   1.000  O
  O136     1.0000 0.45049  0.50061  0.22839  Biso   1.000  O
  O137     1.0000 0.77315  0.96656  0.00574  Biso   1.000  O
  O138     1.0000 0.99164  0.29016  0.55310  Biso   1.000  O
  O139     1.0000 0.52189  0.99589  0.30360  Biso   1.000  O
  O140     1.0000 0.18912  0.46133  0.51557  Biso   1.000  O
  O141     1.0000 0.97337  0.79638  0.97837  Biso   1.000  O
  O142     1.0000 0.01723  0.99632  0.22419  Biso   1.000  O
  O143     1.0000 0.69342  0.46795  0.01236  Biso   1.000  O
  O144     1.0000 0.47550  0.79448  0.55908  Biso   1.000  O
  O145     1.0000 0.53695  0.49490  0.21961  Biso   1.000  O
  O146     1.0000 0.18872  0.54500  0.52269  Biso   1.000  O
  O147     1.0000 0.48073  0.20231  0.55343  Biso   1.000  O
  O148     1.0000 0.02686  0.49355  0.30926  Biso   1.000  O
  O149     1.0000 0.68260  0.55040  0.00080  Biso   1.000  O
  O150     1.0000 0.99813  0.20369  0.97235  Biso   1.000  O
  O151     1.0000 0.93294  0.00132  0.21740  Biso   1.000  O
  O152     1.0000 0.27802  0.03575  0.53285  Biso   1.000  O
  O153     1.0000 0.96750  0.70124  0.56243  Biso   1.000  O
  O154     1.0000 0.43556  0.98824  0.31449  Biso   1.000  O
  O155     1.0000 0.78098  0.04910  0.99769  Biso   1.000  O
  O156     1.0000 0.48367  0.69871  0.97578  Biso   1.000  O
  O157     1.0000 0.43477  0.50082  0.81178  Biso   1.000  O
  O158     1.0000 0.78098  0.44620  0.50643  Biso   1.000  O
  O159     1.0000 0.47976  0.78593  0.47881  Biso   1.000  O
  O160     1.0000 0.94053  0.50900  0.71648  Biso   1.000  O
  O161     1.0000 0.28726  0.44516  0.02179  Biso   1.000  O
  O162     1.0000 0.96986  0.79147  0.06083  Biso   1.000  O
  O163     1.0000 0.03007  0.00548  0.81318  Biso   1.000  O
  O164     1.0000 0.68533  0.94996  0.50550  Biso   1.000  O
  O165     1.0000 0.97943  0.29277  0.47024  Biso   1.000  O
  O166     1.0000 0.52905  0.00175  0.71798  Biso   1.000  O
  O167     1.0000 0.18473  0.94286  0.02483  Biso   1.000  O
  O168     1.0000 0.50520  0.29076  0.06326  Biso   1.000  O
  O169     1.0000 0.97803  0.03949  0.22543  Biso   1.000  O
  O170     1.0000 0.19200  0.98256  0.06846  Biso   1.000  O
  O171     1.0000 0.03751  0.19728  0.02297  Biso   1.000  O
  O172     1.0000 0.47376  0.03164  0.31129  Biso   1.000  O
  O173     1.0000 0.68628  0.98873  0.46628  Biso   1.000  O
  O174     1.0000 0.52693  0.20243  0.51100  Biso   1.000  O
  O175     1.0000 0.49282  0.53644  0.22230  Biso   1.000  O
  O176     1.0000 0.28704  0.48232  0.06542  Biso   1.000  O
  O177     1.0000 0.43313  0.69192  0.00249  Biso   1.000  O
  O178     1.0000 0.99542  0.54116  0.31215  Biso   1.000  O
  O179     1.0000 0.78085  0.48768  0.46908  Biso   1.000  O
  O180     1.0000 0.93105  0.69603  0.51611  Biso   1.000  O
  O181     1.0000 0.99684  0.95789  0.81169  Biso   1.000  O
  O182     1.0000 0.78211  0.00728  0.96262  Biso   1.000  O
  O183     1.0000 0.93145  0.79693  0.01457  Biso   1.000  O
  O184     1.0000 0.49178  0.95706  0.72234  Biso   1.000  O
  O185     1.0000 0.27660  0.98832  0.56349  Biso   1.000  O
  O186     1.0000 0.43488  0.79101  0.51486  Biso   1.000  O
  O187     1.0000 0.47401  0.45342  0.81382  Biso   1.000  O
  O188     1.0000 0.69026  0.50395  0.96368  Biso   1.000  O
  O189     1.0000 0.54042  0.29516  0.01356  Biso   1.000  O
  O190     1.0000 0.97346  0.45493  0.71101  Biso   1.000  O
  O191     1.0000 0.18764  0.49690  0.56048  Biso   1.000  O
  O192     1.0000 0.02803  0.29257  0.50134  Biso   1.000  O
